135767059
  -OEChem-03292013293D

 56 62  0     1  0  0  0  0  0999 V2000
   -2.6851    1.9952    1.0017 O   0  0  0  0  0  0  0  0  0  0  0  0
   -0.5808    4.1116    0.2905 O   0  0  0  0  0  0  0  0  0  0  0  0
   -5.1990    2.9480    0.2330 O   0  0  0  0  0  0  0  0  0  0  0  0
   -3.3824   -4.2759   -0.3596 O   0  0  0  0  0  0  0  0  0  0  0  0
   -1.6912   -0.1549    0.3971 N   0  0  0  0  0  0  0  0  0  0  0  0
   -1.2456   -2.3464    0.3718 N   0  0  0  0  0  0  0  0  0  0  0  0
   -4.0216   -0.1681   -0.2575 N   0  0  0  0  0  0  0  0  0  0  0  0
   -4.7692   -2.4152   -0.6211 N   0  0  0  0  0  0  0  0  0  0  0  0
   -6.2377   -0.5976   -0.9089 N   0  0  0  0  0  0  0  0  0  0  0  0
   -1.4881    1.3308    0.5557 C   0  0  1  0  0  0  0  0  0  0  0  0
   -1.0725    2.0193   -0.7398 C   0  0  0  0  0  0  0  0  0  0  0  0
   -1.5471    3.4352   -0.5102 C   0  0  1  0  0  0  0  0  0  0  0  0
   -2.8288    3.2410    0.2897 C   0  0  1  0  0  0  0  0  0  0  0  0
   -0.7560   -1.1419    0.5918 C   0  0  0  0  0  0  0  0  0  0  0  0
   -4.0644    3.1371   -0.5942 C   0  0  0  0  0  0  0  0  0  0  0  0
   -2.8489   -0.7752    0.0298 C   0  0  0  0  0  0  0  0  0  0  0  0
    0.6081   -0.8624    0.9935 C   0  0  0  0  0  0  0  0  0  0  0  0
    1.6358   -0.6396    0.0654 C   0  0  0  0  0  0  0  0  0  0  0  0
   -2.5435   -2.1148    0.0236 C   0  0  0  0  0  0  0  0  0  0  0  0
    2.9440   -0.3729    0.5322 C   0  0  0  0  0  0  0  0  0  0  0  0
    3.9932   -0.1456   -0.3927 C   0  0  0  0  0  0  0  0  0  0  0  0
    3.2054   -0.3328    1.9216 C   0  0  0  0  0  0  0  0  0  0  0  0
    0.8676   -0.8226    2.3624 C   0  0  0  0  0  0  0  0  0  0  0  0
    3.7318   -0.1856   -1.7821 C   0  0  0  0  0  0  0  0  0  0  0  0
    1.3956   -0.6753   -1.3147 C   0  0  0  0  0  0  0  0  0  0  0  0
    2.1562   -0.5599    2.8243 C   0  0  0  0  0  0  0  0  0  0  0  0
    5.3014    0.1212    0.0741 C   0  0  0  0  0  0  0  0  0  0  0  0
   -3.5623   -3.0651   -0.3271 C   0  0  0  0  0  0  0  0  0  0  0  0
    2.4295   -0.4514   -2.2260 C   0  0  0  0  0  0  0  0  0  0  0  0
    4.5077   -0.0671    2.3655 C   0  0  0  0  0  0  0  0  0  0  0  0
    5.5416    0.1568    1.4542 C   0  0  0  0  0  0  0  0  0  0  0  0
   -4.9737   -1.0156   -0.5826 C   0  0  0  0  0  0  0  0  0  0  0  0
    4.7810    0.0414   -2.6847 C   0  0  0  0  0  0  0  0  0  0  0  0
    6.3292    0.3440   -0.8539 C   0  0  0  0  0  0  0  0  0  0  0  0
    6.0696    0.3041   -2.2228 C   0  0  0  0  0  0  0  0  0  0  0  0
   -0.7402    1.4622    1.3447 H   0  0  0  0  0  0  0  0  0  0  0  0
   -1.5934    1.5806   -1.5989 H   0  0  0  0  0  0  0  0  0  0  0  0
    0.0048    1.9445   -0.9111 H   0  0  0  0  0  0  0  0  0  0  0  0
   -1.6765    4.0032   -1.4359 H   0  0  0  0  0  0  0  0  0  0  0  0
   -2.9728    4.0224    1.0442 H   0  0  0  0  0  0  0  0  0  0  0  0
   -4.0020    2.2938   -1.2875 H   0  0  0  0  0  0  0  0  0  0  0  0
   -4.2045    4.0577   -1.1697 H   0  0  0  0  0  0  0  0  0  0  0  0
   -0.9254    5.0031    0.4696 H   0  0  0  0  0  0  0  0  0  0  0  0
    0.0758   -0.9943    3.0884 H   0  0  0  0  0  0  0  0  0  0  0  0
    0.4084   -0.8777   -1.7230 H   0  0  0  0  0  0  0  0  0  0  0  0
    2.3337   -0.5339    3.8973 H   0  0  0  0  0  0  0  0  0  0  0  0
    2.2050   -0.4873   -3.2902 H   0  0  0  0  0  0  0  0  0  0  0  0
   -5.9734    2.8874   -0.3520 H   0  0  0  0  0  0  0  0  0  0  0  0
    4.7325   -0.0313    3.4296 H   0  0  0  0  0  0  0  0  0  0  0  0
    6.5399    0.3601    1.8366 H   0  0  0  0  0  0  0  0  0  0  0  0
   -5.5602   -2.9966   -0.8829 H   0  0  0  0  0  0  0  0  0  0  0  0
    4.6037    0.0155   -3.7578 H   0  0  0  0  0  0  0  0  0  0  0  0
    7.3432    0.5510   -0.5183 H   0  0  0  0  0  0  0  0  0  0  0  0
    6.8739    0.4784   -2.9318 H   0  0  0  0  0  0  0  0  0  0  0  0
   -6.4805    0.3871   -0.9102 H   0  0  0  0  0  0  0  0  0  0  0  0
   -6.9655   -1.2582   -1.1585 H   0  0  0  0  0  0  0  0  0  0  0  0
  1 10  1  0  0  0  0
  1 13  1  0  0  0  0
  2 12  1  0  0  0  0
  2 43  1  0  0  0  0
  3 15  1  0  0  0  0
  3 48  1  0  0  0  0
  4 28  2  0  0  0  0
  5 10  1  0  0  0  0
  5 14  1  0  0  0  0
  5 16  1  0  0  0  0
  6 14  2  0  0  0  0
  6 19  1  0  0  0  0
  7 16  1  0  0  0  0
  7 32  2  0  0  0  0
  8 28  1  0  0  0  0
  8 32  1  0  0  0  0
  8 51  1  0  0  0  0
  9 32  1  0  0  0  0
  9 55  1  0  0  0  0
  9 56  1  0  0  0  0
 10 11  1  0  0  0  0
 10 36  1  0  0  0  0
 11 12  1  0  0  0  0
 11 37  1  0  0  0  0
 11 38  1  0  0  0  0
 12 13  1  0  0  0  0
 12 39  1  0  0  0  0
 13 15  1  0  0  0  0
 13 40  1  0  0  0  0
 14 17  1  0  0  0  0
 15 41  1  0  0  0  0
 15 42  1  0  0  0  0
 16 19  2  0  0  0  0
 17 18  2  0  0  0  0
 17 23  1  0  0  0  0
 18 20  1  0  0  0  0
 18 25  1  0  0  0  0
 19 28  1  0  0  0  0
 20 21  1  0  0  0  0
 20 22  2  0  0  0  0
 21 24  1  0  0  0  0
 21 27  2  0  0  0  0
 22 26  1  0  0  0  0
 22 30  1  0  0  0  0
 23 26  2  0  0  0  0
 23 44  1  0  0  0  0
 24 29  1  0  0  0  0
 24 33  2  0  0  0  0
 25 29  2  0  0  0  0
 25 45  1  0  0  0  0
 26 46  1  0  0  0  0
 27 31  1  0  0  0  0
 27 34  1  0  0  0  0
 29 47  1  0  0  0  0
 30 31  2  0  0  0  0
 30 49  1  0  0  0  0
 31 50  1  0  0  0  0
 33 35  1  0  0  0  0
 33 52  1  0  0  0  0
 34 35  2  0  0  0  0
 34 53  1  0  0  0  0
 35 54  1  0  0  0  0
M  END
> <PUBCHEM_COMPOUND_CID>
135767059

> <PUBCHEM_CONFORMER_RMSD>
0.8

> <PUBCHEM_CONFORMER_DIVERSEORDER>
1
6
16
14
12
15
4
5
8
11
13
9
10
7
3
2

> <PUBCHEM_MMFF94_PARTIAL_CHARGES>
42
1 -0.56
10 0.54
12 0.28
13 0.28
14 0.13
15 0.28
16 -0.03
17 0.05
19 0.14
2 -0.68
23 -0.15
25 -0.15
26 -0.15
28 0.72
29 -0.15
3 -0.68
30 -0.15
31 -0.15
32 0.56
33 -0.15
34 -0.15
35 -0.15
4 -0.57
43 0.4
44 0.15
45 0.15
46 0.15
47 0.15
48 0.4
49 0.15
5 0.05
50 0.15
51 0.37
52 0.15
53 0.15
54 0.15
55 0.4
56 0.4
6 -0.57
7 -0.58
8 -0.49
9 -0.85

> <PUBCHEM_EFFECTIVE_ROTOR_COUNT>
4

> <PUBCHEM_PHARMACOPHORE_FEATURES>
16
1 1 acceptor
1 2 acceptor
1 2 donor
1 3 acceptor
1 3 donor
1 4 acceptor
1 8 donor
1 9 donor
3 5 6 14 cation
5 1 10 11 12 13 rings
5 5 6 14 16 19 rings
6 17 18 20 22 23 26 rings
6 18 20 21 24 25 29 rings
6 20 21 22 27 30 31 rings
6 21 24 27 33 34 35 rings
6 7 8 16 19 28 32 rings

> <PUBCHEM_HEAVY_ATOM_COUNT>
35

> <PUBCHEM_ATOM_DEF_STEREO_COUNT>
3

> <PUBCHEM_ATOM_UDEF_STEREO_COUNT>
0

> <PUBCHEM_BOND_DEF_STEREO_COUNT>
0

> <PUBCHEM_BOND_UDEF_STEREO_COUNT>
0

> <PUBCHEM_ISOTOPIC_ATOM_COUNT>
0

> <PUBCHEM_COMPONENT_COUNT>
1

> <PUBCHEM_CACTVS_TAUTO_COUNT>
-1

> <PUBCHEM_CONFORMER_ID>
0817A41300000001

> <PUBCHEM_MMFF94_ENERGY>
109.2751

> <PUBCHEM_FEATURE_SELFOVERLAP>
81.515

> <PUBCHEM_SHAPE_FINGERPRINT>
10165383 225 17770528376893472393
10369192 42 16914238862206348192
10670039 82 18335427833540483404
11049842 53 17979625745758876106
11421498 54 18041271140711887235
11578080 2 17845666858373195080
11640471 11 17749960929706698472
12107698 1 18337392746935371668
12128747 34 16486712268163632779
12166972 35 17458899443977647638
12236239 1 17604140506164681666
12788726 201 18261111868035446921
13617811 41 18410008866619802087
13782708 43 17704076192219251518
13947920 75 18335427858904072796
14068700 675 18188201130141384028
14294032 229 18264213513350615293
14840074 17 17969512515559108517
14910302 57 18202567259160863718
15274700 147 15389828159250792934
15297060 5 18199475372502716481
15324884 4 17560219444672037755
15328829 1 17749102279549281698
15961568 22 18195804305226223320
17818456 19 18118668934019133986
19319366 153 17604714335343890201
20511986 3 17604138255580589813
20642791 35 18335976580026805913
21033648 29 17632286870459681608
21033650 10 18337690632823423050
21133410 90 18044627949938575029
21756936 100 17604736416292698784
21792961 116 17418104192150784214
22122407 14 16153981349194788471
22182313 1 17418086625117384354
23557571 272 18201999923660483728
23559900 14 18200594825183398343
244849 19 17203317888986793192
25147074 1 17894907387338342810
25223398 141 18202288004919304158
255183 451 17838052964291351071
46194498 28 17774439507784872560
469060 322 18336559261181006281
508706 21 18273213084194240924
6608658 132 18113624451764278172
6700243 42 18128558109187693118
7808743 9 18337675191984003208
9849439 229 17906727004204504825

> <PUBCHEM_SHAPE_MULTIPOLES>
671.9
13.47
3.7
2.23
4.45
2
0.32
-0.03
-4.5
-8.58
-0.23
4.32
-0.33
-1.27

> <PUBCHEM_SHAPE_SELFOVERLAP>
1549.528

> <PUBCHEM_SHAPE_VOLUME>
343.7

> <PUBCHEM_COORDINATE_TYPE>
2
5
10

$$$$
