135759443
  -OEChem-03292013293D

 33 35  0     1  0  0  0  0  0999 V2000
    1.6254    0.1474    1.1249 O   0  0  0  0  0  0  0  0  0  0  0  0
    3.9222   -0.5048   -1.5509 O   0  0  0  0  0  0  0  0  0  0  0  0
    3.1573    2.4641    1.6278 O   0  0  0  0  0  0  0  0  0  0  0  0
   -4.6548   -0.2266   -0.1570 O   0  0  0  0  0  0  0  0  0  0  0  0
   -0.3052   -1.1968    0.5872 N   0  0  0  0  0  0  0  0  0  0  0  0
   -2.3970   -1.9865    0.6359 N   0  0  0  0  0  0  0  0  0  0  0  0
   -0.7016    1.0632   -0.1839 N   0  0  0  0  0  0  0  0  0  0  0  0
   -3.0447    1.4227   -0.5321 N   0  0  0  0  0  0  0  0  0  0  0  0
   -1.4906    3.1447   -0.9356 N   0  0  0  0  0  0  0  0  0  0  0  0
    1.1981   -1.1763    0.7297 C   0  0  1  0  0  0  0  0  0  0  0  0
    2.8383    0.4335    0.4104 C   0  0  1  0  0  0  0  0  0  0  0  0
    2.6738   -0.2371   -0.9452 C   0  0  2  0  0  0  0  0  0  0  0  0
    1.9432   -1.4768   -0.5415 C   0  0  0  0  0  0  0  0  0  0  0  0
    3.0251    1.9381    0.3176 C   0  0  0  0  0  0  0  0  0  0  0  0
   -1.1085   -0.1741    0.1765 C   0  0  0  0  0  0  0  0  0  0  0  0
   -1.1264   -2.2655    0.8520 C   0  0  0  0  0  0  0  0  0  0  0  0
    2.0109   -2.6751   -1.1339 C   0  0  0  0  0  0  0  0  0  0  0  0
   -2.3817   -0.6889    0.2173 C   0  0  0  0  0  0  0  0  0  0  0  0
   -3.4882    0.1453   -0.1623 C   0  0  0  0  0  0  0  0  0  0  0  0
   -1.6955    1.8494   -0.5368 C   0  0  0  0  0  0  0  0  0  0  0  0
    1.4435   -1.8745    1.5380 H   0  0  0  0  0  0  0  0  0  0  0  0
    3.6703    0.0024    0.9844 H   0  0  0  0  0  0  0  0  0  0  0  0
    2.0520    0.3575   -1.6236 H   0  0  0  0  0  0  0  0  0  0  0  0
    2.1543    2.4142   -0.1450 H   0  0  0  0  0  0  0  0  0  0  0  0
    3.9229    2.1888   -0.2556 H   0  0  0  0  0  0  0  0  0  0  0  0
   -0.7412   -3.2152    1.1972 H   0  0  0  0  0  0  0  0  0  0  0  0
    1.4740   -3.5280   -0.7330 H   0  0  0  0  0  0  0  0  0  0  0  0
    2.6001   -2.8280   -2.0313 H   0  0  0  0  0  0  0  0  0  0  0  0
    4.4532   -1.0424   -0.9386 H   0  0  0  0  0  0  0  0  0  0  0  0
    3.2748    3.4254    1.5400 H   0  0  0  0  0  0  0  0  0  0  0  0
   -3.7492    2.0959   -0.8197 H   0  0  0  0  0  0  0  0  0  0  0  0
   -0.5578    3.5412   -0.9716 H   0  0  0  0  0  0  0  0  0  0  0  0
   -2.2630    3.7436   -1.2059 H   0  0  0  0  0  0  0  0  0  0  0  0
  1 10  1  0  0  0  0
  1 11  1  0  0  0  0
  2 12  1  0  0  0  0
  2 29  1  0  0  0  0
  3 14  1  0  0  0  0
  3 30  1  0  0  0  0
  4 19  2  0  0  0  0
  5 10  1  0  0  0  0
  5 15  1  0  0  0  0
  5 16  1  0  0  0  0
  6 16  2  0  0  0  0
  6 18  1  0  0  0  0
  7 15  1  0  0  0  0
  7 20  2  0  0  0  0
  8 19  1  0  0  0  0
  8 20  1  0  0  0  0
  8 31  1  0  0  0  0
  9 20  1  0  0  0  0
  9 32  1  0  0  0  0
  9 33  1  0  0  0  0
 10 13  1  0  0  0  0
 10 21  1  0  0  0  0
 11 12  1  0  0  0  0
 11 14  1  0  0  0  0
 11 22  1  0  0  0  0
 12 13  1  0  0  0  0
 12 23  1  0  0  0  0
 13 17  2  0  0  0  0
 14 24  1  0  0  0  0
 14 25  1  0  0  0  0
 15 18  2  0  0  0  0
 16 26  1  0  0  0  0
 17 27  1  0  0  0  0
 17 28  1  0  0  0  0
 18 19  1  0  0  0  0
M  END
> <PUBCHEM_COMPOUND_CID>
135759443

> <PUBCHEM_CONFORMER_RMSD>
0.6

> <PUBCHEM_CONFORMER_DIVERSEORDER>
1
8
14
5
11
3
6
2
4
7
13
10
9
12

> <PUBCHEM_MMFF94_PARTIAL_CHARGES>
28
1 -0.56
10 0.67
11 0.28
12 0.42
13 -0.28
14 0.28
15 -0.03
16 0.04
17 -0.3
18 0.14
19 0.72
2 -0.68
20 0.56
26 0.15
27 0.15
28 0.15
29 0.4
3 -0.68
30 0.4
31 0.37
32 0.4
33 0.4
4 -0.57
5 0.05
6 -0.57
7 -0.58
8 -0.49
9 -0.85

> <PUBCHEM_EFFECTIVE_ROTOR_COUNT>
2.8

> <PUBCHEM_PHARMACOPHORE_FEATURES>
12
1 1 acceptor
1 2 acceptor
1 2 donor
1 3 acceptor
1 3 donor
1 4 acceptor
1 8 donor
1 9 donor
3 5 6 16 cation
5 1 10 11 12 13 rings
5 5 6 15 16 18 rings
6 7 8 15 18 19 20 rings

> <PUBCHEM_HEAVY_ATOM_COUNT>
20

> <PUBCHEM_ATOM_DEF_STEREO_COUNT>
3

> <PUBCHEM_ATOM_UDEF_STEREO_COUNT>
0

> <PUBCHEM_BOND_DEF_STEREO_COUNT>
0

> <PUBCHEM_BOND_UDEF_STEREO_COUNT>
0

> <PUBCHEM_ISOTOPIC_ATOM_COUNT>
0

> <PUBCHEM_COMPONENT_COUNT>
1

> <PUBCHEM_CACTVS_TAUTO_COUNT>
-1

> <PUBCHEM_CONFORMER_ID>
0817865300000001

> <PUBCHEM_MMFF94_ENERGY>
44.6946

> <PUBCHEM_FEATURE_SELFOVERLAP>
61.079

> <PUBCHEM_SHAPE_FINGERPRINT>
10366900 7 18412271627057839654
10498660 4 18260268585371540797
10608611 8 18410854352158494296
10871710 139 16033232303733973176
10967382 1 18334573568560779113
11132069 177 18264203776189613953
11640471 11 16298401192054235702
11715629 250 18412255138446274917
11759241 127 18199170953340894069
12403259 226 18264767649460880887
13140716 1 18045782557390609177
13544592 271 18264764553016060627
13583140 156 14635167758194842437
13764800 53 17749124274287898747
15219456 202 18270686475351291970
16945 1 18334576832466983275
17134986 127 17466227427047190269
18186145 218 18270962328294855489
20510252 161 18337390444500513449
21486144 27 18202003235169771009
21524375 3 18115587020043095179
21618674 68 18411975858514350789
22802520 49 18339652156623879658
23114952 82 18272663328712506470
2334 1 17830179360859493777
23526113 38 18127705837383998174
23557571 272 18192156112105596354
23559900 14 18408326592369857366
238 59 18125979612506711253
2748010 2 18194127540728001890
350125 39 17899414186494867403
3524813 1 18341891922282177328
495365 180 17988913492134167730
5262128 65 17772757061050628542
6049 1 18339939185167215066
7364860 26 18342173328639553618
81228 2 18259994772901348761
9709674 26 18411983533410275911
9925002 15 16542982339488823894

> <PUBCHEM_SHAPE_MULTIPOLES>
363.21
6.57
2.97
1.16
1.6
0.85
-0.01
1.28
0.89
-0.49
0.1
-0.95
0.05
1.86

> <PUBCHEM_SHAPE_SELFOVERLAP>
790.664

> <PUBCHEM_SHAPE_VOLUME>
197.9

> <PUBCHEM_COORDINATE_TYPE>
2
5
10

$$$$
