135799
  -OEChem-03292013323D

 61 62  0     1  0  0  0  0  0999 V2000
    5.8560   -1.3062   -2.9357 Cl  0  0  0  0  0  0  0  0  0  0  0  0
    5.6893   -2.2678   -0.2693 O   0  0  0  0  0  0  0  0  0  0  0  0
    1.0934   -0.4601    2.0934 O   0  0  0  0  0  0  0  0  0  0  0  0
   -1.1262    0.8034    0.9437 O   0  0  0  0  0  0  0  0  0  0  0  0
   -5.1675    0.0308   -0.4802 O   0  0  0  0  0  0  0  0  0  0  0  0
   -3.7641   -1.7823   -0.6140 O   0  0  0  0  0  0  0  0  0  0  0  0
    3.3724   -1.7387    1.3670 N   0  0  0  0  0  0  0  0  0  0  0  0
    0.1920   -0.8606   -0.0195 N   0  0  0  0  0  0  0  0  0  0  0  0
   -3.0112    0.3749   -1.0203 N   0  0  0  0  0  0  0  0  0  0  0  0
    4.0804   -0.7029    0.6299 C   0  0  1  0  0  0  0  0  0  0  0  0
    5.0376    0.0493    1.5657 C   0  0  0  0  0  0  0  0  0  0  0  0
    2.1427   -2.1187    0.6762 C   0  0  1  0  0  0  0  0  0  0  0  0
    5.8119    1.1350    0.8552 C   0  0  0  0  0  0  0  0  0  0  0  0
    4.8209   -1.4229   -0.4933 C   0  0  0  0  0  0  0  0  0  0  0  0
    1.7059   -3.5070    1.1279 C   0  0  0  0  0  0  0  0  0  0  0  0
    1.1018   -1.0620    1.0218 C   0  0  0  0  0  0  0  0  0  0  0  0
    4.4394   -1.0687   -1.9080 C   0  0  0  0  0  0  0  0  0  0  0  0
    5.2948    2.4286    0.7848 C   0  0  0  0  0  0  0  0  0  0  0  0
    7.0437    0.8434    0.2689 C   0  0  0  0  0  0  0  0  0  0  0  0
   -1.6347    0.0672   -1.3088 C   0  0  2  0  0  0  0  0  0  0  0  0
   -0.8622    0.0559    0.0046 C   0  0  0  0  0  0  0  0  0  0  0  0
    6.0097    3.4307    0.1285 C   0  0  0  0  0  0  0  0  0  0  0  0
    7.7585    1.8456   -0.3872 C   0  0  0  0  0  0  0  0  0  0  0  0
    7.2415    3.1390   -0.4575 C   0  0  0  0  0  0  0  0  0  0  0  0
   -1.0412    1.0749   -2.2805 C   0  0  0  0  0  0  0  0  0  0  0  0
   -3.9617   -0.5745   -0.6970 C   0  0  0  0  0  0  0  0  0  0  0  0
   -6.2503   -0.8403   -0.1343 C   0  0  0  0  0  0  0  0  0  0  0  0
   -7.4916   -0.0220    0.0680 C   0  0  0  0  0  0  0  0  0  0  0  0
   -7.7952    0.4839    1.3321 C   0  0  0  0  0  0  0  0  0  0  0  0
   -8.3420    0.2333   -1.0079 C   0  0  0  0  0  0  0  0  0  0  0  0
   -8.9490    1.2446    1.5204 C   0  0  0  0  0  0  0  0  0  0  0  0
   -9.4958    0.9942   -0.8195 C   0  0  0  0  0  0  0  0  0  0  0  0
   -9.7993    1.4999    0.4446 C   0  0  0  0  0  0  0  0  0  0  0  0
    3.3894    0.0311    0.1967 H   0  0  0  0  0  0  0  0  0  0  0  0
    4.4780    0.4978    2.3978 H   0  0  0  0  0  0  0  0  0  0  0  0
    5.7511   -0.6455    2.0303 H   0  0  0  0  0  0  0  0  0  0  0  0
    2.2838   -2.1644   -0.4082 H   0  0  0  0  0  0  0  0  0  0  0  0
    3.1630   -1.4407    2.3192 H   0  0  0  0  0  0  0  0  0  0  0  0
    1.5114   -3.5360    2.2063 H   0  0  0  0  0  0  0  0  0  0  0  0
    2.4702   -4.2567    0.8963 H   0  0  0  0  0  0  0  0  0  0  0  0
    0.7785   -3.8016    0.6245 H   0  0  0  0  0  0  0  0  0  0  0  0
    3.6265   -1.7095   -2.2546 H   0  0  0  0  0  0  0  0  0  0  0  0
    4.1514   -0.0175   -1.9771 H   0  0  0  0  0  0  0  0  0  0  0  0
    4.3350    2.6672    1.2354 H   0  0  0  0  0  0  0  0  0  0  0  0
    7.4640   -0.1570    0.3215 H   0  0  0  0  0  0  0  0  0  0  0  0
    0.3099   -1.4196   -0.8608 H   0  0  0  0  0  0  0  0  0  0  0  0
   -1.6006   -0.9325   -1.7581 H   0  0  0  0  0  0  0  0  0  0  0  0
    5.6069    4.4378    0.0731 H   0  0  0  0  0  0  0  0  0  0  0  0
    8.7182    1.6189   -0.8423 H   0  0  0  0  0  0  0  0  0  0  0  0
    7.7981    3.9193   -0.9684 H   0  0  0  0  0  0  0  0  0  0  0  0
   -1.0556    2.0877   -1.8617 H   0  0  0  0  0  0  0  0  0  0  0  0
   -1.6069    1.0938   -3.2181 H   0  0  0  0  0  0  0  0  0  0  0  0
    0.0004    0.8288   -2.5125 H   0  0  0  0  0  0  0  0  0  0  0  0
   -3.2964    1.3498   -1.0036 H   0  0  0  0  0  0  0  0  0  0  0  0
   -6.4065   -1.5729   -0.9358 H   0  0  0  0  0  0  0  0  0  0  0  0
   -6.0051   -1.3891    0.7835 H   0  0  0  0  0  0  0  0  0  0  0  0
   -7.1394    0.2937    2.1776 H   0  0  0  0  0  0  0  0  0  0  0  0
   -8.1153   -0.1534   -1.9978 H   0  0  0  0  0  0  0  0  0  0  0  0
   -9.1852    1.6389    2.5045 H   0  0  0  0  0  0  0  0  0  0  0  0
  -10.1577    1.1936   -1.6571 H   0  0  0  0  0  0  0  0  0  0  0  0
  -10.6975    2.0926    0.5910 H   0  0  0  0  0  0  0  0  0  0  0  0
  1 17  1  0  0  0  0
  2 14  2  0  0  0  0
  3 16  2  0  0  0  0
  4 21  2  0  0  0  0
  5 26  1  0  0  0  0
  5 27  1  0  0  0  0
  6 26  2  0  0  0  0
  7 10  1  0  0  0  0
  7 12  1  0  0  0  0
  7 38  1  0  0  0  0
  8 16  1  0  0  0  0
  8 21  1  0  0  0  0
  8 46  1  0  0  0  0
  9 20  1  0  0  0  0
  9 26  1  0  0  0  0
  9 54  1  0  0  0  0
 10 11  1  0  0  0  0
 10 14  1  0  0  0  0
 10 34  1  0  0  0  0
 11 13  1  0  0  0  0
 11 35  1  0  0  0  0
 11 36  1  0  0  0  0
 12 15  1  0  0  0  0
 12 16  1  0  0  0  0
 12 37  1  0  0  0  0
 13 18  2  0  0  0  0
 13 19  1  0  0  0  0
 14 17  1  0  0  0  0
 15 39  1  0  0  0  0
 15 40  1  0  0  0  0
 15 41  1  0  0  0  0
 17 42  1  0  0  0  0
 17 43  1  0  0  0  0
 18 22  1  0  0  0  0
 18 44  1  0  0  0  0
 19 23  2  0  0  0  0
 19 45  1  0  0  0  0
 20 21  1  0  0  0  0
 20 25  1  0  0  0  0
 20 47  1  0  0  0  0
 22 24  2  0  0  0  0
 22 48  1  0  0  0  0
 23 24  1  0  0  0  0
 23 49  1  0  0  0  0
 24 50  1  0  0  0  0
 25 51  1  0  0  0  0
 25 52  1  0  0  0  0
 25 53  1  0  0  0  0
 27 28  1  0  0  0  0
 27 55  1  0  0  0  0
 27 56  1  0  0  0  0
 28 29  2  0  0  0  0
 28 30  1  0  0  0  0
 29 31  1  0  0  0  0
 29 57  1  0  0  0  0
 30 32  2  0  0  0  0
 30 58  1  0  0  0  0
 31 33  2  0  0  0  0
 31 59  1  0  0  0  0
 32 33  1  0  0  0  0
 32 60  1  0  0  0  0
 33 61  1  0  0  0  0
M  END
> <PUBCHEM_COMPOUND_CID>
135799

> <PUBCHEM_CONFORMER_RMSD>
1.2

> <PUBCHEM_CONFORMER_DIVERSEORDER>
1
54
37
59
73
60
33
56
68
65
86
27
80
66
84
40
14
85
30
32
11
64
16
83
22
69
57
50
39
2
5
79
28
71
21
81
67
46
29
45
87
58
34
52
42
76
61
25
47
35
12
78
48
44
62
82
41
31
49
63
55
51
26
70
7
3
9
20
17
36
43
38
18
74
15
13
75
4
6
23
19
24
10
72
77
8
53

> <PUBCHEM_MMFF94_PARTIAL_CHARGES>
44
1 -0.29
10 0.33
11 0.14
12 0.33
13 -0.14
14 0.45
16 0.57
17 0.35
18 -0.15
19 -0.15
2 -0.57
20 0.36
21 0.57
22 -0.15
23 -0.15
24 -0.15
26 0.78
27 0.42
28 -0.14
29 -0.15
3 -0.57
30 -0.15
31 -0.15
32 -0.15
33 -0.15
38 0.36
4 -0.57
44 0.15
45 0.15
46 0.37
48 0.15
49 0.15
5 -0.43
50 0.15
54 0.37
57 0.15
58 0.15
59 0.15
6 -0.57
60 0.15
61 0.15
7 -0.9
8 -0.49
9 -0.73

> <PUBCHEM_EFFECTIVE_ROTOR_COUNT>
15

> <PUBCHEM_PHARMACOPHORE_FEATURES>
10
1 2 acceptor
1 3 acceptor
1 4 acceptor
1 6 acceptor
1 7 cation
1 7 donor
1 8 donor
1 9 donor
6 13 18 19 22 23 24 rings
6 28 29 30 31 32 33 rings

> <PUBCHEM_HEAVY_ATOM_COUNT>
33

> <PUBCHEM_ATOM_DEF_STEREO_COUNT>
3

> <PUBCHEM_ATOM_UDEF_STEREO_COUNT>
0

> <PUBCHEM_BOND_DEF_STEREO_COUNT>
0

> <PUBCHEM_BOND_UDEF_STEREO_COUNT>
0

> <PUBCHEM_ISOTOPIC_ATOM_COUNT>
0

> <PUBCHEM_COMPONENT_COUNT>
1

> <PUBCHEM_CACTVS_TAUTO_COUNT>
18

> <PUBCHEM_CONFORMER_ID>
0002127700000001

> <PUBCHEM_MMFF94_ENERGY>
69.9121

> <PUBCHEM_FEATURE_SELFOVERLAP>
50.751

> <PUBCHEM_SHAPE_FINGERPRINT>
10666366 153 13542468652930255217
11181472 205 17632306652894872737
11211813 74 18409728448363210717
11386260 185 14261060017518001811
12522641 24 18335700486734288346
12539765 74 18059860537196372255
12592606 108 10519992573061027448
14040221 8 16917082009595250584
14251757 52 18202566189555406965
14537116 161 17847060008626322696
14617042 71 18261394493995691652
15183329 4 14261354665212181383
15461852 350 16702292478751952701
15840311 113 18410576175901264143
16992787 43 18334574667962221705
19315958 150 18335421241014169227
2026 5 9943264630906046953
21521721 280 18261108573964726083
22149856 69 17386288684285899445
23576562 1 15912184582141084601
24771293 8 18113895017887423535
2747138 104 17312825961606011461
34797466 226 18342173358535292518
4093350 32 18272374174112841566
4112364 45 15574999537547167220
4169191 19 18413384333616510925
5109719 28 18259701211591722541
59682541 35 16877941650609808889

> <PUBCHEM_SHAPE_MULTIPOLES>
636.7
32.04
2.96
1.9
65.52
0.42
0.81
20.4
0.25
-7.42
-0.47
-1.35
-0.51
0.1

> <PUBCHEM_SHAPE_SELFOVERLAP>
1307.593

> <PUBCHEM_SHAPE_VOLUME>
364

> <PUBCHEM_COORDINATE_TYPE>
2
5
10

$$$$
