REMARK  Name = 135789
REMARK  8 active torsions:
REMARK  status: ('A' for Active; 'I' for Inactive)
REMARK    1  A    between atoms: C_2  and  C_10
REMARK    2  A    between atoms: C_3  and  C_20
REMARK    3  A    between atoms: C_4  and  C_27
REMARK    4  A    between atoms: C_13  and  N_18
REMARK    5  A    between atoms: C_20  and  O_21
REMARK    6  A    between atoms: O_21  and  C_22
REMARK    7  A    between atoms: C_22  and  C_23
REMARK    8  A    between atoms: C_27  and  O_28
REMARK                            x       y       z     vdW  Elec       q    Type
REMARK                         _______ _______ _______ _____ _____    ______ ____
ROOT
ATOM      1  N   UNL     1       2.003  -1.638   1.889  0.00  0.00    -0.334 N 
ATOM      2  C   UNL     1       1.084  -0.620  -0.592  0.00  0.00    +0.011 C 
ATOM      3  C   UNL     1       0.391  -1.761   0.160  0.00  0.00    +0.071 C 
ATOM      4  C   UNL     1       2.413  -0.206   0.050  0.00  0.00    +0.085 C 
ATOM      5  C   UNL     1       0.853  -2.196   1.354  0.00  0.00    +0.098 C 
ATOM      6  C   UNL     1       2.797  -0.700   1.248  0.00  0.00    +0.028 C 
ATOM      7  C   UNL     1       0.218  -3.271   2.195  0.00  0.00    +0.026 C 
ATOM      8  C   UNL     1       4.053  -0.323   1.985  0.00  0.00    +0.047 C 
ATOM      9  H   UNL     1       2.276  -1.929   2.789  0.00  0.00    +0.147 HD
ENDROOT
BRANCH   2  10
ATOM     10  C   UNL     1       0.168   0.566  -0.683  0.00  0.00    +0.002 C 
ATOM     11  C   UNL     1      -0.255   1.200   0.479  0.00  0.00    +0.024 C 
ATOM     12  C   UNL     1      -0.248   1.018  -1.930  0.00  0.00    +0.000 C 
ATOM     13  C   UNL     1      -1.105   2.302   0.393  0.00  0.00    +0.143 C 
ATOM     14  C   UNL     1      -1.098   2.120  -2.016  0.00  0.00    +0.002 C 
ATOM     15  C   UNL     1      -1.527   2.762  -0.855  0.00  0.00    +0.024 C 
BRANCH  13  18
ATOM     16  O   UNL     1      -2.305   3.948   1.474  0.00  0.00    -0.126 OA
ATOM     17  O   UNL     1      -1.151   2.528   2.687  0.00  0.00    -0.126 OA
ATOM     18  N   UNL     1      -1.541   2.958   1.575  0.00  0.00    +0.058 N 
ENDBRANCH  13  18
ENDBRANCH   2  10
BRANCH   3  20
ATOM     19  O   UNL     1      -0.664  -3.312  -1.288  0.00  0.00    -0.245 OA
ATOM     20  C   UNL     1      -0.763  -2.383  -0.508  0.00  0.00    +0.339 C 
BRANCH  20  21
ATOM     21  O   UNL     1      -1.888  -1.748  -0.099  0.00  0.00    -0.446 OA
BRANCH  21  22
ATOM     22  C   UNL     1      -3.105  -2.244  -0.665  0.00  0.00    +0.209 C 
BRANCH  22  23
ATOM     23  C   UNL     1      -4.257  -1.462  -0.134  0.00  0.00    +0.044 C 
ATOM     24  C   UNL     1      -4.301   0.016  -0.370  0.00  0.00    +0.004 C 
ATOM     25  C   UNL     1      -5.252  -0.890  -1.095  0.00  0.00    +0.004 C 
ENDBRANCH  22  23
ENDBRANCH  21  22
ENDBRANCH  20  21
ENDBRANCH   3  20
BRANCH   4  27
ATOM     26  O   UNL     1       3.217   1.923  -0.615  0.00  0.00    -0.245 OA
ATOM     27  C   UNL     1       3.262   0.711  -0.728  0.00  0.00    +0.342 C 
BRANCH  27  28
ATOM     28  O   UNL     1       4.054  -0.026  -1.542  0.00  0.00    -0.441 OA
ATOM     29  C   UNL     1       4.946   0.729  -2.369  0.00  0.00    +0.256 C 
ENDBRANCH  27  28
ENDBRANCH   4  27
TORSDOF 8
