REMARK  Name = 135718444
REMARK  11 active torsions:
REMARK  status: ('A' for Active; 'I' for Inactive)
REMARK    1  A    between atoms: C_1  and  C_9
REMARK    2  A    between atoms: C_2  and  N_22
REMARK    3  A    between atoms: N_8  and  CA_11
REMARK    4  A    between atoms: CA_11  and  C_13
REMARK    5  A    between atoms: CA_11  and  CB_16
REMARK    6  A    between atoms: C_13  and  O_14
REMARK    7  A    between atoms: CB_16  and  CG_17
REMARK    8  A    between atoms: CG_17  and  CD_19
REMARK    9  A    between atoms: CD_19  and  OE1_20
REMARK   10  A    between atoms: N_22  and  C_24
REMARK   11  A    between atoms: C_24  and  C_29
REMARK                            x       y       z     vdW  Elec       q    Type
REMARK                         _______ _______ _______ _____ _____    ______ ____
ROOT
ATOM      1  C   UNL     1       2.135   0.712   0.870  0.00  0.00    +0.053 C 
ATOM      2  C   UNL     1      -0.572   0.222   0.408  0.00  0.00    +0.045 C 
ATOM      3  C   UNL     1       1.337   0.190   1.888  0.00  0.00    +0.006 C 
ATOM      4  C   UNL     1       1.579   0.990  -0.379  0.00  0.00    +0.006 C 
ATOM      5  C   UNL     1      -0.017  -0.055   1.657  0.00  0.00    +0.014 C 
ATOM      6  C   UNL     1       0.226   0.745  -0.610  0.00  0.00    +0.014 C 
ENDROOT
BRANCH   1   9
ATOM      7  O   UNL     1       3.960   1.192   2.262  0.00  0.00    -0.270 OA
ATOM      8  N   UNL     1       4.403   0.921   0.002  0.00  0.00    -0.293 N 
ATOM      9  C   ACE A   0       3.577   0.972   1.116  0.00  0.00    +0.246 C 
ATOM     10  H   UNL     1       4.000   0.737  -0.877  0.00  0.00    +0.150 HD
BRANCH   8  11
ATOM     11  CA  UNL     1       5.827   1.126   0.082  0.00  0.00    +0.172 C 
BRANCH  11  13
ATOM     12  OXT UNL     1       5.540   2.068  -2.146  0.00  0.00    -0.248 OA
ATOM     13  C   UNL     1       6.259   1.844  -1.180  0.00  0.00    +0.332 C 
BRANCH  13  14
ATOM     14  O   UNL     1       7.551   2.259  -1.111  0.00  0.00    -0.479 OA
ATOM     15  H   UNL     1       8.065   2.066  -0.351  0.00  0.00    +0.295 HD
ENDBRANCH  13  14
ENDBRANCH  11  13
BRANCH  11  16
ATOM     16  CB  UNL     1       6.598  -0.172   0.351  0.00  0.00    +0.043 C 
BRANCH  16  17
ATOM     17  CG  UNL     1       6.482  -1.254  -0.730  0.00  0.00    +0.112 C 
BRANCH  17  19
ATOM     18  OE2 UNL     1       7.910  -2.713   0.600  0.00  0.00    -0.250 OA
ATOM     19  CD  UNL     1       7.251  -2.518  -0.412  0.00  0.00    +0.314 C 
BRANCH  19  20
ATOM     20  OE1 UNL     1       7.161  -3.426  -1.419  0.00  0.00    -0.480 OA
ATOM     21  HE1 UNL     1       6.644  -3.235  -2.177  0.00  0.00    +0.295 HD
ENDBRANCH  19  20
ENDBRANCH  17  19
ENDBRANCH  16  17
ENDBRANCH  11  16
ENDBRANCH   8  11
ENDBRANCH   1   9
BRANCH   2  22
ATOM     22  N   UNL     1      -1.941  -0.025   0.173  0.00  0.00    -0.329 N 
ATOM     23  H   UNL     1      -2.310   0.179  -0.716  0.00  0.00    +0.147 HD
BRANCH  22  24
ATOM     24  C   UNL     1      -2.816  -0.558   1.171  0.00  0.00    +0.114 C 
BRANCH  24  29
ATOM     25  O   UNL     1      -6.915   2.434  -0.010  0.00  0.00    -0.268 OA
ATOM     26  N   UNL     1      -8.070  -1.308  -0.949  0.00  0.00    -0.148 NA
ATOM     27  N   UNL     1      -8.460   0.926  -0.803  0.00  0.00    -0.194 N 
ATOM     28  N   UNL     1      -8.842  -0.338  -1.117  0.00  0.00    -0.046 NA
ATOM     29  C   UNL     1      -4.200  -0.743   0.613  0.00  0.00    -0.006 C 
ATOM     30  C   UNL     1      -5.035   0.359   0.439  0.00  0.00    +0.003 C 
ATOM     31  C   UNL     1      -6.318   0.168  -0.080  0.00  0.00    +0.070 C 
ATOM     32  C   UNL     1      -4.649  -2.017   0.272  0.00  0.00    -0.022 C 
ATOM     33  C   UNL     1      -6.786  -1.095  -0.427  0.00  0.00    +0.088 C 
ATOM     34  C   UNL     1      -5.936  -2.191  -0.246  0.00  0.00    +0.073 C 
ATOM     35  C   UNL     1      -7.239   1.284  -0.286  0.00  0.00    +0.265 C 
ATOM     36  H   UNL     1      -9.113   1.646  -0.958  0.00  0.00    +0.177 HD
ENDBRANCH  24  29
ENDBRANCH  22  24
ENDBRANCH   2  22
TORSDOF 11
