REMARK  Name = 135777638
REMARK  5 active torsions:
REMARK  status: ('A' for Active; 'I' for Inactive)
REMARK    1  A    between atoms: C_1  and  N_7
REMARK    2  A    between atoms: C_2  and  C_21
REMARK    3  A    between atoms: C_4  and  O_17
REMARK    4  A    between atoms: C_5  and  O_19
REMARK    5  A    between atoms: C_21  and  O_22
REMARK                            x       y       z     vdW  Elec       q    Type
REMARK                         _______ _______ _______ _____ _____    ______ ____
ROOT
ATOM      1  C   UNL     1       0.893   0.468  -0.329  0.00  0.00    +0.105 C 
ATOM      2  C   UNL     1       3.226  -0.233  -0.422  0.00  0.00    +0.060 C 
ATOM      3  C   UNL     1       1.822  -0.640  -0.872  0.00  0.00    +0.027 C 
ATOM      4  C   UNL     1       1.716   1.211   0.752  0.00  0.00    +0.155 C 
ATOM      5  C   UNL     1       2.961   0.346   0.964  0.00  0.00    +0.141 C 
ENDROOT
BRANCH   1   7
ATOM      6  O   UNL     1      -4.789  -1.053   0.873  0.00  0.00    -0.268 OA
ATOM      7  N   UNL     1      -0.430  -0.073   0.168  0.00  0.00    -0.271 N 
ATOM      8  N   UNL     1      -1.872  -1.260   1.400  0.00  0.00    -0.241 NA
ATOM      9  N   UNL     1      -1.962   1.075  -1.320  0.00  0.00    -0.232 NA
ATOM     10  N   UNL     1      -4.231   0.452  -0.822  0.00  0.00    -0.279 N 
ATOM     11  C   UNL     1      -1.673   0.227  -0.306  0.00  0.00    +0.152 C 
ATOM     12  C   UNL     1      -0.602  -0.972   1.193  0.00  0.00    +0.221 C 
ATOM     13  C   UNL     1      -2.535  -0.515   0.470  0.00  0.00    +0.162 C 
ATOM     14  C   UNL     1      -3.953  -0.431   0.230  0.00  0.00    +0.267 C 
ATOM     15  C   UNL     1      -3.244   1.147  -1.531  0.00  0.00    +0.220 C 
ATOM     16  H   UNL     1      -5.172   0.590  -1.077  0.00  0.00    +0.152 HD
ENDBRANCH   1   7
BRANCH   4  17
ATOM     17  O   UNL     1       2.100   2.488   0.240  0.00  0.00    -0.380 OA
ATOM     18  H   UNL     1       1.310   3.034   0.106  0.00  0.00    +0.211 HD
ENDBRANCH   4  17
BRANCH   5  19
ATOM     19  O   UNL     1       4.065   1.086   1.446  0.00  0.00    -0.382 OA
ATOM     20  H   UNL     1       4.825   0.494   1.563  0.00  0.00    +0.210 HD
ENDBRANCH   5  19
BRANCH   2  21
ATOM     21  C   UNL     1       4.210  -1.393  -0.412  0.00  0.00    +0.140 C 
BRANCH  21  22
ATOM     22  O   UNL     1       4.297  -1.928  -1.722  0.00  0.00    -0.382 OA
ATOM     23  H   UNL     1       4.923  -2.669  -1.728  0.00  0.00    +0.210 HD
ENDBRANCH  21  22
ENDBRANCH   2  21
TORSDOF 5
