REMARK  Name = 135771870
REMARK  4 active torsions:
REMARK  status: ('A' for Active; 'I' for Inactive)
REMARK    1  A    between atoms: N_4  and  C1*_19
REMARK    2  A    between atoms: C3*_21  and  O3*_23
REMARK    3  A    between atoms: C4*_22  and  C5*_25
REMARK    4  A    between atoms: C5*_25  and  O5*_26
REMARK                            x       y       z     vdW  Elec       q    Type
REMARK                         _______ _______ _______ _____ _____    ______ ____
ROOT
ATOM      1  O   UNL     1       4.475  -0.225  -0.255  0.00  0.00    -0.267 OA
ATOM      2  O   UNL     1       1.087   4.120   0.680  0.00  0.00    -0.122 OA
ATOM      3  O   UNL     1      -0.773   3.474  -0.289  0.00  0.00    -0.122 OA
ATOM      4  N   UNL     1       0.085   0.776   0.124  0.00  0.00    -0.193 N 
ATOM      5  N   UNL     1       2.154   1.614  -0.022  0.00  0.00    -0.357 NA
ATOM      6  N   UNL     1       0.558  -1.595   0.027  0.00  0.00    -0.355 NA
ATOM      7  N   UNL     1       0.378   3.210   0.163  0.00  0.00    +0.104 N 
ATOM      8  N   UNL     1       2.917  -1.964  -0.173  0.00  0.00    -0.242 N 
ATOM      9  N   UNL     1       1.419  -3.778  -0.096  0.00  0.00    -0.321 N 
ATOM     10  C   UNL     1       0.924  -0.294   0.030  0.00  0.00    +0.229 C 
ATOM     11  C   UNL     1       0.872   1.902   0.089  0.00  0.00    +0.339 C 
ATOM     12  C   UNL     1       2.182   0.251  -0.058  0.00  0.00    +0.232 C 
ATOM     13  C   UNL     1       3.319  -0.620  -0.172  0.00  0.00    +0.286 C 
ATOM     14  C   UNL     1       1.581  -2.417  -0.076  0.00  0.00    +0.240 C 
ATOM     15  H   UNL     1       3.623  -2.647  -0.246  0.00  0.00    +0.159 HD
ATOM     16  H   UNL     1       0.518  -4.168  -0.033  0.00  0.00    +0.146 HD
ATOM     17  H   UNL     1       2.206  -4.366  -0.172  0.00  0.00    +0.146 HD
ENDROOT
BRANCH   4  19
ATOM     18  O4* UNL     1      -1.865  -0.436   0.965  0.00  0.00    -0.335 OA
ATOM     19  C1* UNL     1      -1.417   0.729   0.246  0.00  0.00    +0.204 C 
ATOM     20  C2* UNL     1      -2.126   0.699  -1.104  0.00  0.00    +0.083 C 
ATOM     21  C3* UNL     1      -3.437   0.034  -0.756  0.00  0.00    +0.144 C 
ATOM     22  C4* UNL     1      -3.038  -0.970   0.318  0.00  0.00    +0.173 C 
BRANCH  21  23
ATOM     23  O3* UNL     1      -4.307   1.014  -0.195  0.00  0.00    -0.382 OA
ATOM     24  H3* UNL     1      -4.560   1.652  -0.881  0.00  0.00    +0.210 HD
ENDBRANCH  21  23
BRANCH  22  25
ATOM     25  C5* UNL     1      -2.678  -2.334  -0.256  0.00  0.00    +0.169 C 
BRANCH  25  26
ATOM     26  O5* UNL     1      -2.311  -3.192   0.811  0.00  0.00    -0.379 OA
ATOM     27  H5* UNL     1      -2.079  -4.065   0.458  0.00  0.00    +0.211 HD
ENDBRANCH  25  26
ENDBRANCH  22  25
ENDBRANCH   4  19
TORSDOF 4
