REMARK  Name = 135764866
REMARK  10 active torsions:
REMARK  status: ('A' for Active; 'I' for Inactive)
REMARK    1  A    between atoms: C_2  and  C_16
REMARK    2  A    between atoms: C_3  and  C_11
REMARK    3  A    between atoms: C_4  and  O_8
REMARK    4  A    between atoms: N_10  and  C_11
REMARK    5  A    between atoms: N_10  and  O_12
REMARK    6  A    between atoms: O_12  and  C_14
REMARK    7  A    between atoms: C_16  and  O_17
REMARK    8  A    between atoms: O_17  and  P_18
REMARK    9  A    between atoms: P_18  and  O_20
REMARK   10  A    between atoms: P_18  and  O_22
REMARK                            x       y       z     vdW  Elec       q    Type
REMARK                         _______ _______ _______ _____ _____    ______ ____
ROOT
ATOM      1  N   UNL     1      -0.534   3.593   0.260  0.00  0.00    -0.245 NA
ATOM      2  C   UNL     1      -0.991   1.226   0.450  0.00  0.00    +0.027 C 
ATOM      3  C   UNL     1       0.306   0.936   0.040  0.00  0.00    +0.034 C 
ATOM      4  C   UNL     1       1.183   1.972  -0.260  0.00  0.00    +0.144 C 
ATOM      5  C   UNL     1       0.718   3.272  -0.135  0.00  0.00    +0.093 C 
ATOM      6  C   UNL     1      -1.358   2.559   0.543  0.00  0.00    +0.097 C 
ATOM      7  C   UNL     1       1.619   4.422  -0.445  0.00  0.00    +0.055 C 
ENDROOT
BRANCH   4   8
ATOM      8  O   UNL     1       2.456   1.721  -0.664  0.00  0.00    -0.505 OA
ATOM      9  H   UNL     1       2.757   0.837  -0.744  0.00  0.00    +0.292 HD
ENDBRANCH   4   8
BRANCH   3  10
ATOM     10  C   UNL     1       0.748  -0.449  -0.076  0.00  0.00    +0.164 C 
BRANCH  10  11
ATOM     11  N   UNL     1       1.983  -0.810   0.109  0.00  0.00    -0.019 NA
BRANCH  11  12
ATOM     12  O   UNL     1       2.089  -2.196  -0.071  0.00  0.00    -0.347 OA
BRANCH  12  14
ATOM     13  O   UNL     1       4.324  -1.826   0.414  0.00  0.00    -0.248 OA
ATOM     14  C   UNL     1       3.389  -2.562   0.125  0.00  0.00    +0.337 C 
ATOM     15  C   UNL     1       3.521  -4.044  -0.064  0.00  0.00    +0.123 C 
ENDBRANCH  12  14
ENDBRANCH  11  12
ENDBRANCH  10  11
ENDBRANCH   3  10
BRANCH   2  16
ATOM     16  C   UNL     1      -1.976   0.160   0.784  0.00  0.00    +0.181 C 
BRANCH  16  17
ATOM     17  O   UNL     1      -2.447  -0.443  -0.415  0.00  0.00    -0.268 OA
BRANCH  17  18
ATOM     18  P   UNL     1      -3.533  -1.635  -0.299  0.00  0.00    +0.473 P 
ATOM     19  O   UNL     1      -3.980  -2.218  -1.608  0.00  0.00    -0.227 OA
BRANCH  18  20
ATOM     20  O   UNL     1      -2.809  -2.679   0.702  0.00  0.00    -0.303 OA
ATOM     21  H   UNL     1      -2.554  -2.221   1.518  0.00  0.00    +0.222 HD
ENDBRANCH  18  20
BRANCH  18  22
ATOM     22  O   UNL     1      -4.707  -0.999   0.612  0.00  0.00    -0.303 OA
ATOM     23  H   UNL     1      -4.326  -0.649   1.433  0.00  0.00    +0.222 HD
ENDBRANCH  18  22
ENDBRANCH  17  18
ENDBRANCH  16  17
ENDBRANCH   2  16
TORSDOF 10
