REMARK  Name = 135783059
REMARK  4 active torsions:
REMARK  status: ('A' for Active; 'I' for Inactive)
REMARK    1  A    between atoms: N_2  and  C_16
REMARK    2  A    between atoms: C_17  and  C_23
REMARK    3  A    between atoms: C_19  and  O_21
REMARK    4  A    between atoms: C_23  and  O_24
REMARK                            x       y       z     vdW  Elec       q    Type
REMARK                         _______ _______ _______ _____ _____    ______ ____
ROOT
ATOM      1  O   UNL     1      -4.406   1.928   0.312  0.00  0.00    -0.268 OA
ATOM      2  N   UNL     1      -0.215   0.310  -0.175  0.00  0.00    -0.260 N 
ATOM      3  N   UNL     1      -1.456   2.157   0.049  0.00  0.00    -0.240 NA
ATOM      4  N   UNL     1      -1.937  -1.391  -0.113  0.00  0.00    -0.357 NA
ATOM      5  N   UNL     1      -4.093  -0.380   0.148  0.00  0.00    -0.243 N 
ATOM      6  N   UNL     1      -3.872  -2.719  -0.009  0.00  0.00    -0.321 N 
ATOM      7  C   UNL     1      -1.510  -0.109  -0.078  0.00  0.00    +0.210 C 
ATOM      8  C   UNL     1      -0.234   1.681  -0.093  0.00  0.00    +0.222 C 
ATOM      9  C   UNL     1      -2.243   1.044   0.058  0.00  0.00    +0.176 C 
ATOM     10  C   UNL     1      -3.672   0.956   0.186  0.00  0.00    +0.273 C 
ATOM     11  C   UNL     1      -3.242  -1.502   0.003  0.00  0.00    +0.239 C 
ATOM     12  H   UNL     1      -5.059  -0.553   0.229  0.00  0.00    +0.159 HD
ATOM     13  H   UNL     1      -3.345  -3.545  -0.107  0.00  0.00    +0.146 HD
ATOM     14  H   UNL     1      -4.851  -2.768   0.079  0.00  0.00    +0.146 HD
ENDROOT
BRANCH   2  16
ATOM     15  F   UNL     1       2.400  -1.667   1.188  0.00  0.00    -0.235 F 
ATOM     16  C   UNL     1       1.016  -0.553  -0.341  0.00  0.00    +0.112 C 
ATOM     17  C   UNL     1       3.276   0.249   0.135  0.00  0.00    +0.090 C 
ATOM     18  C   UNL     1       2.058  -0.407   0.786  0.00  0.00    +0.184 C 
ATOM     19  C   UNL     1       3.252  -0.339  -1.274  0.00  0.00    +0.117 C 
ATOM     20  C   UNL     1       1.775  -0.253  -1.647  0.00  0.00    +0.052 C 
BRANCH  19  21
ATOM     21  O   UNL     1       4.035   0.413  -2.182  0.00  0.00    -0.384 OA
ATOM     22  H   UNL     1       4.970   0.349  -1.933  0.00  0.00    +0.210 HD
ENDBRANCH  19  21
BRANCH  17  23
ATOM     23  C   UNL     1       4.576  -0.008   0.882  0.00  0.00    +0.142 C 
BRANCH  23  24
ATOM     24  O   UNL     1       4.490   0.589   2.164  0.00  0.00    -0.382 OA
ATOM     25  H   UNL     1       5.315   0.431   2.650  0.00  0.00    +0.210 HD
ENDBRANCH  23  24
ENDBRANCH  17  23
ENDBRANCH   2  16
TORSDOF 4
