REMARK  Name = 135777634
REMARK  3 active torsions:
REMARK  status: ('A' for Active; 'I' for Inactive)
REMARK    1  A    between atoms: N_2  and  C_15
REMARK    2  A    between atoms: C_15  and  C_16
REMARK    3  A    between atoms: C_16  and  O_18
REMARK                            x       y       z     vdW  Elec       q    Type
REMARK                         _______ _______ _______ _____ _____    ______ ____
ROOT
ATOM      1  O   UNL     1      -0.175   2.189  -0.490  0.00  0.00    -0.272 OA
ATOM      2  N   UNL     1      -0.910  -0.752  -0.488  0.00  0.00    -0.230 NA
ATOM      3  N   UNL     1       0.583  -2.358  -0.083  0.00  0.00    -0.194 NA
ATOM      4  N   UNL     1       1.960   1.443   0.010  0.00  0.00    -0.245 N 
ATOM      5  N   UNL     1       2.538  -0.873   0.258  0.00  0.00    -0.323 NA
ATOM      6  N   UNL     1       4.154   0.800   0.515  0.00  0.00    -0.320 N 
ATOM      7  C   UNL     1       0.278  -0.121  -0.268  0.00  0.00    +0.235 C 
ATOM      8  C   UNL     1       1.182  -1.127  -0.020  0.00  0.00    +0.087 C 
ATOM      9  C   UNL     1      -0.676  -2.097  -0.366  0.00  0.00    +0.214 C 
ATOM     10  C   UNL     1       0.606   1.268  -0.272  0.00  0.00    +0.259 C 
ATOM     11  C   UNL     1       2.867   0.398   0.261  0.00  0.00    +0.248 C 
ATOM     12  H   UNL     1       2.307   2.364   0.036  0.00  0.00    +0.159 HD
ATOM     13  H   UNL     1       4.380   1.759   0.513  0.00  0.00    +0.146 HD
ATOM     14  H   UNL     1       4.852   0.131   0.700  0.00  0.00    +0.146 HD
ENDROOT
BRANCH   2  15
ATOM     15  C   UNL     1      -2.183  -0.144  -0.793  0.00  0.00    +0.104 C 
BRANCH  15  16
ATOM     16  C   UNL     1      -2.847   0.462   0.449  0.00  0.00    +0.127 C 
ATOM     17  C   UNL     1      -3.915   1.479   0.065  0.00  0.00    +0.033 C 
BRANCH  16  18
ATOM     18  O   UNL     1      -3.464  -0.567   1.221  0.00  0.00    -0.383 OA
ATOM     19  H   UNL     1      -2.797  -1.224   1.475  0.00  0.00    +0.210 HD
ENDBRANCH  16  18
ENDBRANCH  15  16
ENDBRANCH   2  15
TORSDOF 3
