REMARK  Name = 135771852
REMARK  5 active torsions:
REMARK  status: ('A' for Active; 'I' for Inactive)
REMARK    1  A    between atoms: N_4  and  C1*_19
REMARK    2  A    between atoms: C2*_20  and  O2*_23
REMARK    3  A    between atoms: C3*_21  and  O3*_25
REMARK    4  A    between atoms: C4*_22  and  C5*_27
REMARK    5  A    between atoms: C5*_27  and  O5*_28
REMARK                            x       y       z     vdW  Elec       q    Type
REMARK                         _______ _______ _______ _____ _____    ______ ____
ROOT
ATOM      1  O   UNL     1       4.361  -1.278  -0.437  0.00  0.00    -0.267 OA
ATOM      2  O   UNL     1       2.223   3.721   0.855  0.00  0.00    -0.122 OA
ATOM      3  O   UNL     1       0.217   3.609  -0.029  0.00  0.00    -0.122 OA
ATOM      4  N   UNL     1       0.387   0.765   0.231  0.00  0.00    -0.191 N 
ATOM      5  N   UNL     1       2.591   1.067  -0.002  0.00  0.00    -0.357 NA
ATOM      6  N   UNL     1       0.243  -1.641   0.017  0.00  0.00    -0.355 NA
ATOM      7  N   UNL     1       1.285   3.044   0.345  0.00  0.00    +0.104 N 
ATOM      8  N   UNL     1       2.422  -2.575  -0.332  0.00  0.00    -0.242 N 
ATOM      9  N   UNL     1       0.521  -3.961  -0.238  0.00  0.00    -0.321 N 
ATOM     10  C   UNL     1       0.924  -0.474   0.048  0.00  0.00    +0.229 C 
ATOM     11  C   UNL     1       1.429   1.660   0.194  0.00  0.00    +0.339 C 
ATOM     12  C   UNL     1       2.274  -0.256  -0.091  0.00  0.00    +0.232 C 
ATOM     13  C   UNL     1       3.148  -1.376  -0.302  0.00  0.00    +0.286 C 
ATOM     14  C   UNL     1       1.020  -2.686  -0.176  0.00  0.00    +0.240 C 
ATOM     15  H   UNL     1       2.929  -3.408  -0.472  0.00  0.00    +0.159 HD
ATOM     16  H   UNL     1      -0.446  -4.116  -0.138  0.00  0.00    +0.146 HD
ATOM     17  H   UNL     1       1.130  -4.721  -0.382  0.00  0.00    +0.146 HD
ENDROOT
BRANCH   4  19
ATOM     18  O4* UNL     1      -1.748   0.021   1.145  0.00  0.00    -0.333 OA
ATOM     19  C1* UNL     1      -1.076   1.089   0.438  0.00  0.00    +0.231 C 
ATOM     20  C2* UNL     1      -1.831   1.296  -0.879  0.00  0.00    +0.187 C 
ATOM     21  C3* UNL     1      -2.555  -0.024  -1.060  0.00  0.00    +0.171 C 
ATOM     22  C4* UNL     1      -2.881  -0.408   0.371  0.00  0.00    +0.175 C 
BRANCH  20  23
ATOM     23  O2* UNL     1      -2.755   2.374  -0.730  0.00  0.00    -0.378 OA
ATOM     24  H2* UNL     1      -2.267   3.204  -0.615  0.00  0.00    +0.211 HD
ENDBRANCH  20  23
BRANCH  21  25
ATOM     25  O3* UNL     1      -3.714   0.076  -1.861  0.00  0.00    -0.379 OA
ATOM     26  H3* UNL     1      -3.462   0.322  -2.764  0.00  0.00    +0.211 HD
ENDBRANCH  21  25
BRANCH  22  27
ATOM     27  C5* UNL     1      -3.100  -1.898   0.563  0.00  0.00    +0.169 C 
BRANCH  27  28
ATOM     28  O5* UNL     1      -3.384  -2.143   1.929  0.00  0.00    -0.379 OA
ATOM     29  H5* UNL     1      -3.526  -3.093   2.065  0.00  0.00    +0.211 HD
ENDBRANCH  27  28
ENDBRANCH  22  27
ENDBRANCH   4  19
TORSDOF 5
