REMARK  Name = 135713853
REMARK  8 active torsions:
REMARK  status: ('A' for Active; 'I' for Inactive)
REMARK    1  A    between atoms: N_1  and  C_9
REMARK    2  A    between atoms: N_1  and  N_16
REMARK    3  A    between atoms: N_2  and  C_10
REMARK    4  A    between atoms: N_2  and  O_12
REMARK    5  A    between atoms: N_3  and  C_11
REMARK    6  A    between atoms: N_3  and  O_14
REMARK    7  A    between atoms: N_16  and  C_19
REMARK    8  A    between atoms: C_19  and  N_20
REMARK                            x       y       z     vdW  Elec       q    Type
REMARK                         _______ _______ _______ _____ _____    ______ ____
ROOT
ATOM      1  C   UNL     1       2.081   1.515  -0.037  0.00  0.00    +0.003 C 
ATOM      2  C   UNL     1       0.783   1.804   0.754  0.00  0.00    +0.021 C 
ATOM      3  C   UNL     1       2.599   0.085   0.247  0.00  0.00    +0.022 C 
ATOM      4  C   UNL     1       3.158   2.521   0.414  0.00  0.00    +0.000 C 
ATOM      5  C   UNL     1       1.847   1.710  -1.548  0.00  0.00    +0.000 C 
ATOM      6  C   UNL     1      -0.288   0.789   0.463  0.00  0.00    +0.114 C 
ATOM      7  C   UNL     1       1.554  -0.973   0.006  0.00  0.00    +0.123 C 
ATOM      8  C   UNL     1       0.162  -0.635   0.428  0.00  0.00    +0.139 C 
ENDROOT
BRANCH   6   9
ATOM      9  N   UNL     1      -1.515   1.119   0.245  0.00  0.00    -0.132 NA
BRANCH   9  10
ATOM     10  N   UNL     1      -2.323   0.063  -0.011  0.00  0.00    -0.244 N 
ATOM     11  H   UNL     1      -1.946  -0.847  -0.014  0.00  0.00    +0.170 HD
BRANCH  10  13
ATOM     12  S   UNL     1      -4.669  -1.053  -0.585  0.00  0.00    -0.018 S 
ATOM     13  C   UNL     1      -3.660   0.241  -0.267  0.00  0.00    +0.143 C 
BRANCH  13  14
ATOM     14  N   UNL     1      -4.128   1.527  -0.249  0.00  0.00    -0.340 N 
ATOM     15  H   UNL     1      -5.080   1.707  -0.426  0.00  0.00    +0.144 HD
ATOM     16  H   UNL     1      -3.514   2.272  -0.059  0.00  0.00    +0.144 HD
ENDBRANCH  13  14
ENDBRANCH  10  13
ENDBRANCH   9  10
ENDBRANCH   6   9
BRANCH   7  17
ATOM     17  N   UNL     1       1.801  -2.131  -0.507  0.00  0.00    -0.088 NA
BRANCH  17  18
ATOM     18  O   UNL     1       3.162  -2.194  -0.813  0.00  0.00    -0.295 OA
ATOM     19  H   UNL     1       3.520  -2.970  -1.196  0.00  0.00    +0.238 HD
ENDBRANCH  17  18
ENDBRANCH   7  17
BRANCH   8  20
ATOM     20  N   UNL     1      -0.624  -1.589   0.799  0.00  0.00    -0.086 NA
BRANCH  20  21
ATOM     21  O   UNL     1       0.060  -2.798   0.660  0.00  0.00    -0.295 OA
ATOM     22  H   UNL     1      -0.362  -3.604   0.885  0.00  0.00    +0.238 HD
ENDBRANCH  20  21
ENDBRANCH   8  20
TORSDOF 8
