REMARK  Name = 135797
REMARK  13 active torsions:
REMARK  status: ('A' for Active; 'I' for Inactive)
REMARK    1  A    between atoms: C_4  and  C_7
REMARK    2  A    between atoms: C_5  and  C_21
REMARK    3  A    between atoms: C_7  and  N_9
REMARK    4  A    between atoms: C_7  and  C_17
REMARK    5  A    between atoms: C_10  and  O_12
REMARK    6  A    between atoms: O_12  and  C_13
REMARK    7  A    between atoms: C_17  and  C_18
REMARK    8  A    between atoms: C_21  and  N_22
REMARK    9  A    between atoms: C_21  and  C_29
REMARK   10  A    between atoms: N_22  and  C_25
REMARK   11  A    between atoms: C_25  and  C_26
REMARK   12  A    between atoms: C_26  and  O_27
REMARK   13  A    between atoms: C_29  and  C_30
REMARK                            x       y       z     vdW  Elec       q    Type
REMARK                         _______ _______ _______ _____ _____    ______ ____
ROOT
ATOM      1  O   UNL     1       0.586  -0.178   2.204  0.00  0.00    -0.273 OA
ATOM      2  O   UNL     1      -1.710  -1.765   1.975  0.00  0.00    -0.277 OA
ATOM      3  N   UNL     1      -0.852  -0.305   0.374  0.00  0.00    -0.256 N 
ATOM      4  C   UNL     1       0.265   0.166   1.069  0.00  0.00    +0.246 C 
ATOM      5  C   UNL     1      -1.768  -1.238   0.866  0.00  0.00    +0.208 C 
ATOM      6  H   UNL     1      -1.005   0.047  -0.533  0.00  0.00    +0.157 HD
ENDROOT
BRANCH   4   7
ATOM      7  C   UNL     1       1.091   1.132   0.225  0.00  0.00    +0.151 C 
BRANCH   7   9
ATOM      8  O   UNL     1       2.863  -0.823  -0.989  0.00  0.00    -0.226 OA
ATOM      9  N   UNL     1       2.479   0.893   0.525  0.00  0.00    -0.264 N 
ATOM     10  C   UNL     1       3.249  -0.064  -0.106  0.00  0.00    +0.402 C 
ATOM     11  H   UNL     1       2.903   1.445   1.222  0.00  0.00    +0.153 HD
BRANCH  10  12
ATOM     12  O   UNL     1       4.519  -0.045   0.400  0.00  0.00    -0.442 OA
BRANCH  12  13
ATOM     13  C   UNL     1       5.431  -0.992  -0.167  0.00  0.00    +0.138 C 
ATOM     14  C   UNL     1       5.550  -0.716  -1.665  0.00  0.00    +0.044 C 
ATOM     15  C   UNL     1       6.780  -0.801   0.523  0.00  0.00    +0.044 C 
ATOM     16  C   UNL     1       4.892  -2.399   0.086  0.00  0.00    +0.044 C 
ENDBRANCH  12  13
ENDBRANCH  10  12
ENDBRANCH   7   9
BRANCH   7  17
ATOM     17  C   UNL     1       0.680   2.580   0.522  0.00  0.00    +0.029 C 
BRANCH  17  18
ATOM     18  C   UNL     1       1.486   3.652  -0.237  0.00  0.00    +0.002 C 
ATOM     19  C   UNL     1       1.319   3.452  -1.746  0.00  0.00    +0.000 C 
ATOM     20  C   UNL     1       1.064   5.072   0.142  0.00  0.00    +0.000 C 
ENDBRANCH  17  18
ENDBRANCH   7  17
ENDBRANCH   4   7
BRANCH   5  21
ATOM     21  C   UNL     1      -2.856  -1.570  -0.152  0.00  0.00    +0.022 C 
BRANCH  21  22
ATOM     22  N   UNL     1      -3.185  -2.986   0.028  0.00  0.00    +0.393 N 
ATOM     23  H   UNL     1      -4.103  -3.171  -0.378  0.00  0.00    -0.084 HD
ATOM     24  H   UNL     1      -3.191  -3.197   1.026  0.00  0.00    -0.084 HD
BRANCH  22  25
ATOM     25  C   UNL     1      -2.196  -3.829  -0.623  0.00  0.00    -0.049 C 
BRANCH  25  26
ATOM     26  C   UNL     1      -2.538  -5.299  -0.437  0.00  0.00    +0.114 C 
BRANCH  26  27
ATOM     27  O   UNL     1      -1.558  -6.084  -1.102  0.00  0.00    -0.384 OA
ATOM     28  H   UNL     1      -1.766  -7.025  -0.990  0.00  0.00    +0.210 HD
ENDBRANCH  26  27
ENDBRANCH  25  26
ENDBRANCH  22  25
ENDBRANCH  21  22
BRANCH  21  29
ATOM     29  C   UNL     1      -4.100  -0.696   0.067  0.00  0.00    +0.014 C 
BRANCH  29  30
ATOM     30  C   UNL     1      -3.831   0.779  -0.122  0.00  0.00    -0.024 C 
ATOM     31  C   UNL     1      -3.429   1.560   0.962  0.00  0.00    -0.004 C 
ATOM     32  C   UNL     1      -3.983   1.360  -1.381  0.00  0.00    -0.004 C 
ATOM     33  C   UNL     1      -3.181   2.921   0.788  0.00  0.00    -0.000 C 
ATOM     34  C   UNL     1      -3.734   2.721  -1.556  0.00  0.00    -0.000 C 
ATOM     35  C   UNL     1      -3.333   3.502  -0.471  0.00  0.00    -0.000 C 
ENDBRANCH  29  30
ENDBRANCH  21  29
ENDBRANCH   5  21
TORSDOF 13
