REMARK  Name = 135783053
REMARK  2 active torsions:
REMARK  status: ('A' for Active; 'I' for Inactive)
REMARK    1  A    between atoms: C_10  and  O_21
REMARK    2  A    between atoms: C_12  and  O_23
REMARK                            x       y       z     vdW  Elec       q    Type
REMARK                         _______ _______ _______ _____ _____    ______ ____
ROOT
ATOM      1  O   UNL     1      -2.395   0.526   1.258  0.00  0.00    -0.334 OA
ATOM      2  O   UNL     1       3.355  -2.178  -0.708  0.00  0.00    -0.267 OA
ATOM      3  N   UNL     1      -0.322   0.236   0.261  0.00  0.00    -0.214 N 
ATOM      4  N   UNL     1       0.442  -1.778  -0.321  0.00  0.00    -0.380 NA
ATOM      5  N   UNL     1       1.744   1.502   0.365  0.00  0.00    -0.355 NA
ATOM      6  N   UNL     1       3.596   0.082  -0.174  0.00  0.00    -0.242 N 
ATOM      7  N   UNL     1       3.934   2.352   0.349  0.00  0.00    -0.321 N 
ATOM      8  C   UNL     1      -3.011  -0.306   0.239  0.00  0.00    +0.179 C 
ATOM      9  C   UNL     1      -1.348   1.221   0.552  0.00  0.00    +0.202 C 
ATOM     10  C   UNL     1      -3.106   0.634  -0.966  0.00  0.00    +0.145 C 
ATOM     11  C   UNL     1      -2.038   1.699  -0.718  0.00  0.00    +0.083 C 
ATOM     12  C   UNL     1      -2.065  -1.507   0.006  0.00  0.00    +0.207 C 
ATOM     13  C   UNL     1      -0.637  -1.074  -0.039  0.00  0.00    +0.197 C 
ATOM     14  C   UNL     1       1.024   0.375   0.163  0.00  0.00    +0.228 C 
ATOM     15  C   UNL     1       1.465  -0.879  -0.194  0.00  0.00    +0.230 C 
ATOM     16  C   UNL     1       2.872  -1.098  -0.391  0.00  0.00    +0.286 C 
ATOM     17  C   UNL     1       3.035   1.329   0.190  0.00  0.00    +0.240 C 
ATOM     18  H   UNL     1       4.573   0.040  -0.282  0.00  0.00    +0.159 HD
ATOM     19  H   UNL     1       3.618   3.250   0.601  0.00  0.00    +0.146 HD
ATOM     20  H   UNL     1       4.895   2.189   0.210  0.00  0.00    +0.146 HD
ENDROOT
BRANCH  10  21
ATOM     21  O   UNL     1      -4.380   1.271  -0.977  0.00  0.00    -0.382 OA
ATOM     22  H   UNL     1      -5.071   0.609  -1.134  0.00  0.00    +0.210 HD
ENDBRANCH  10  21
BRANCH  12  23
ATOM     23  O   UNL     1      -2.165  -2.406   1.106  0.00  0.00    -0.374 OA
ATOM     24  H   UNL     1      -3.079  -2.722   1.184  0.00  0.00    +0.211 HD
ENDBRANCH  12  23
TORSDOF 2
