REMARK  Name = 135767059
REMARK  5 active torsions:
REMARK  status: ('A' for Active; 'I' for Inactive)
REMARK    1  A    between atoms: N_2  and  C1*_32
REMARK    2  A    between atoms: C_7  and  C_15
REMARK    3  A    between atoms: C3*_34  and  O3*_36
REMARK    4  A    between atoms: C4*_35  and  C5*_38
REMARK    5  A    between atoms: C5*_38  and  O5*_39
REMARK                            x       y       z     vdW  Elec       q    Type
REMARK                         _______ _______ _______ _____ _____    ______ ____
ROOT
ATOM      1  O   UNL     1      -3.382  -4.276  -0.360  0.00  0.00    -0.267 OA
ATOM      2  N   UNL     1      -1.691  -0.155   0.397  0.00  0.00    -0.212 N 
ATOM      3  N   UNL     1      -1.246  -2.346   0.372  0.00  0.00    -0.378 NA
ATOM      4  N   UNL     1      -4.022  -0.168  -0.258  0.00  0.00    -0.355 NA
ATOM      5  N   UNL     1      -4.769  -2.415  -0.621  0.00  0.00    -0.242 N 
ATOM      6  N   UNL     1      -6.238  -0.598  -0.909  0.00  0.00    -0.321 N 
ATOM      7  C   UNL     1      -0.756  -1.142   0.592  0.00  0.00    +0.191 C 
ATOM      8  C   UNL     1      -2.849  -0.775   0.030  0.00  0.00    +0.228 C 
ATOM      9  C   UNL     1      -2.543  -2.115   0.024  0.00  0.00    +0.230 C 
ATOM     10  C   UNL     1      -3.562  -3.065  -0.327  0.00  0.00    +0.286 C 
ATOM     11  C   UNL     1      -4.974  -1.016  -0.583  0.00  0.00    +0.240 C 
ATOM     12  H   UNL     1      -5.536  -2.978  -0.875  0.00  0.00    +0.159 HD
ATOM     13  H   UNL     1      -6.455   0.363  -0.904  0.00  0.00    +0.146 HD
ATOM     14  H   UNL     1      -6.928  -1.258  -1.148  0.00  0.00    +0.146 HD
ENDROOT
BRANCH   7  15
ATOM     15  C   UNL     1       0.608  -0.862   0.994  0.00  0.00    +0.044 C 
ATOM     16  C   UNL     1       1.636  -0.640   0.065  0.00  0.00    +0.004 C 
ATOM     17  C   UNL     1       2.944  -0.373   0.532  0.00  0.00    +0.000 C 
ATOM     18  C   UNL     1       3.993  -0.146  -0.393  0.00  0.00    +0.000 C 
ATOM     19  C   UNL     1       3.205  -0.333   1.922  0.00  0.00    +0.000 C 
ATOM     20  C   UNL     1       0.868  -0.823   2.362  0.00  0.00    +0.004 C 
ATOM     21  C   UNL     1       3.732  -0.186  -1.782  0.00  0.00    +0.000 C 
ATOM     22  C   UNL     1       1.396  -0.675  -1.315  0.00  0.00    +0.000 C 
ATOM     23  C   UNL     1       2.156  -0.560   2.824  0.00  0.00    +0.000 C 
ATOM     24  C   UNL     1       5.301   0.121   0.074  0.00  0.00    +0.000 C 
ATOM     25  C   UNL     1       2.429  -0.451  -2.226  0.00  0.00    +0.000 C 
ATOM     26  C   UNL     1       4.508  -0.067   2.365  0.00  0.00    +0.000 C 
ATOM     27  C   UNL     1       5.542   0.157   1.454  0.00  0.00    +0.000 C 
ATOM     28  C   UNL     1       4.781   0.041  -2.685  0.00  0.00    +0.000 C 
ATOM     29  C   UNL     1       6.329   0.344  -0.854  0.00  0.00    +0.000 C 
ATOM     30  C   UNL     1       6.070   0.304  -2.223  0.00  0.00    +0.000 C 
ENDBRANCH   7  15
BRANCH   2  32
ATOM     31  O4* UNL     1      -2.685   1.995   1.002  0.00  0.00    -0.335 OA
ATOM     32  C1* UNL     1      -1.488   1.331   0.556  0.00  0.00    +0.202 C 
ATOM     33  C2* UNL     1      -1.073   2.019  -0.740  0.00  0.00    +0.083 C 
ATOM     34  C3* UNL     1      -1.547   3.435  -0.510  0.00  0.00    +0.144 C 
ATOM     35  C4* UNL     1      -2.829   3.241   0.290  0.00  0.00    +0.173 C 
BRANCH  34  36
ATOM     36  O3* UNL     1      -0.581   4.112   0.290  0.00  0.00    -0.382 OA
ATOM     37  H3* UNL     1       0.234   4.234  -0.221  0.00  0.00    +0.210 HD
ENDBRANCH  34  36
BRANCH  35  38
ATOM     38  C5* UNL     1      -4.064   3.137  -0.594  0.00  0.00    +0.169 C 
BRANCH  38  39
ATOM     39  O5* UNL     1      -5.199   2.948   0.233  0.00  0.00    -0.379 OA
ATOM     40  H5* UNL     1      -5.994   2.880  -0.319  0.00  0.00    +0.211 HD
ENDBRANCH  38  39
ENDBRANCH  35  38
ENDBRANCH   2  32
TORSDOF 5
