REMARK  Name = 135765000
REMARK  11 active torsions:
REMARK  status: ('A' for Active; 'I' for Inactive)
REMARK    1  A    between atoms: C_1  and  C_9
REMARK    2  A    between atoms: C_2  and  N_22
REMARK    3  A    between atoms: N_8  and  CA_11
REMARK    4  A    between atoms: CA_11  and  C_13
REMARK    5  A    between atoms: CA_11  and  CB_16
REMARK    6  A    between atoms: C_13  and  O_14
REMARK    7  A    between atoms: CB_16  and  CG_17
REMARK    8  A    between atoms: CG_17  and  CD_19
REMARK    9  A    between atoms: CD_19  and  OE1_20
REMARK   10  A    between atoms: N_22  and  C_24
REMARK   11  A    between atoms: C_24  and  C_30
REMARK                            x       y       z     vdW  Elec       q    Type
REMARK                         _______ _______ _______ _____ _____    ______ ____
ROOT
ATOM      1  C   UNK A   0       2.173   1.126   0.690  0.00  0.00    +0.053 C 
ATOM      2  C   UNK A   0      -0.579   0.952   0.268  0.00  0.00    +0.045 C 
ATOM      3  C   UNK A   0       1.313   0.917   1.769  0.00  0.00    +0.006 C 
ATOM      4  C   UNK A   0       1.656   1.248  -0.600  0.00  0.00    +0.006 C 
ATOM      5  C   UNK A   0      -0.063   0.830   1.558  0.00  0.00    +0.014 C 
ATOM      6  C   UNK A   0       0.280   1.161  -0.811  0.00  0.00    +0.014 C 
ENDROOT
BRANCH   1   9
ATOM      7  O   UNK A   0       4.055   1.586   2.011  0.00  0.00    -0.270 OA
ATOM      8  N   GLU A   1       4.442   0.847  -0.153  0.00  0.00    -0.293 N 
ATOM      9  C   UNK A   0       3.638   1.217   0.916  0.00  0.00    +0.246 C 
ATOM     10  H   GLU A   1       4.013   0.566  -0.993  0.00  0.00    +0.150 HD
BRANCH   8  11
ATOM     11  CA  GLU A   1       5.882   0.858  -0.082  0.00  0.00    +0.172 C 
BRANCH  11  13
ATOM     12  OXT GLU A   1       5.722   1.410  -2.449  0.00  0.00    -0.248 OA
ATOM     13  C   GLU A   1       6.405   1.266  -1.444  0.00  0.00    +0.332 C 
BRANCH  13  14
ATOM     14  O   GLU A   1       7.744   1.497  -1.423  0.00  0.00    -0.479 OA
ATOM     15  H   GLU A   1       8.229   1.374  -0.631  0.00  0.00    +0.295 HD
ENDBRANCH  13  14
ENDBRANCH  11  13
BRANCH  11  16
ATOM     16  CB  GLU A   1       6.459  -0.466   0.433  0.00  0.00    +0.043 C 
BRANCH  16  17
ATOM     17  CG  GLU A   1       6.182  -1.699  -0.436  0.00  0.00    +0.112 C 
BRANCH  17  19
ATOM     18  OE2 GLU A   1       7.391  -3.080   1.165  0.00  0.00    -0.250 OA
ATOM     19  CD  GLU A   1       6.762  -2.981   0.121  0.00  0.00    +0.314 C 
BRANCH  19  20
ATOM     20  OE1 GLU A   1       6.537  -4.034  -0.707  0.00  0.00    -0.480 OA
ATOM     21  HE1 GLU A   1       6.049  -3.912  -1.498  0.00  0.00    +0.295 HD
ENDBRANCH  19  20
ENDBRANCH  17  19
ENDBRANCH  16  17
ENDBRANCH  11  16
ENDBRANCH   8  11
ENDBRANCH   1   9
BRANCH   2  22
ATOM     22  N   UNK A   0      -1.970   0.864   0.053  0.00  0.00    -0.327 N 
ATOM     23  H   UNK A   0      -2.311   0.953  -0.866  0.00  0.00    +0.147 HD
BRANCH  22  24
ATOM     24  C   UNK A   0      -2.908   0.652   1.112  0.00  0.00    +0.145 C 
BRANCH  24  30
ATOM     25  O   UNK A   0      -6.195  -3.012   0.212  0.00  0.00    -0.267 OA
ATOM     26  N   UNK A   0      -4.869  -0.652   0.479  0.00  0.00    -0.392 NA
ATOM     27  N   UNK A   0      -6.232   1.678  -0.312  0.00  0.00    -0.211 NA
ATOM     28  N   UNK A   0      -8.060  -1.933  -0.641  0.00  0.00    -0.277 N 
ATOM     29  N   UNK A   0      -8.117   0.420  -0.919  0.00  0.00    -0.196 NA
ATOM     30  C   UNK A   0      -4.307   0.568   0.568  0.00  0.00    +0.133 C 
ATOM     31  C   UNK A   0      -6.122  -0.675  -0.014  0.00  0.00    +0.244 C 
ATOM     32  C   UNK A   0      -4.975   1.711   0.180  0.00  0.00    +0.192 C 
ATOM     33  C   UNK A   0      -6.808   0.462  -0.408  0.00  0.00    +0.064 C 
ATOM     34  C   UNK A   0      -6.774  -1.988  -0.128  0.00  0.00    +0.287 C 
ATOM     35  C   UNK A   0      -8.664  -0.748  -1.007  0.00  0.00    +0.230 C 
ATOM     36  H   UNK A   0      -8.563  -2.772  -0.748  0.00  0.00    +0.152 HD
ENDBRANCH  24  30
ENDBRANCH  22  24
ENDBRANCH   2  22
TORSDOF 11
