REMARK  Name = 135740394
REMARK  6 active torsions:
REMARK  status: ('A' for Active; 'I' for Inactive)
REMARK    1  A    between atoms: N_1  and  C1*_16
REMARK    2  A    between atoms: N_5  and  C_9
REMARK    3  A    between atoms: C2*_15  and  O2*_19
REMARK    4  A    between atoms: C3*_17  and  O3*_21
REMARK    5  A    between atoms: C4*_18  and  C5*_23
REMARK    6  A    between atoms: C5*_23  and  O5*_24
REMARK                            x       y       z     vdW  Elec       q    Type
REMARK                         _______ _______ _______ _____ _____    ______ ____
ROOT
ATOM      1  N   UNL     1      -0.339  -0.089   0.208  0.00  0.00    -0.251 N 
ATOM      2  N   UNL     1      -1.930  -1.917   0.559  0.00  0.00    -0.304 N 
ATOM      3  N   UNL     1      -3.754  -0.671   0.213  0.00  0.00    -0.312 N 
ATOM      4  N   UNL     1      -1.331   2.088  -0.277  0.00  0.00    -0.231 NA
ATOM      5  C   UNL     1      -1.585  -0.625   0.283  0.00  0.00    +0.117 C 
ATOM      6  C   UNL     1      -0.332   1.276  -0.064  0.00  0.00    +0.224 C 
ATOM      7  C   UNL     1      -2.688   0.168   0.069  0.00  0.00    +0.106 C 
ATOM      8  C   UNL     1      -2.612   1.565  -0.231  0.00  0.00    +0.157 C 
ATOM      9  C   UNL     1      -3.248  -1.913   0.508  0.00  0.00    +0.183 C 
ATOM     10  H   UNL     1      -1.334  -2.677   0.751  0.00  0.00    +0.150 HD
ATOM     11  H   UNL     1      -4.705  -0.432   0.123  0.00  0.00    +0.149 HD
ENDROOT
BRANCH   1  14
ATOM     12  O4* UNL     1       1.867  -0.041   1.053  0.00  0.00    -0.333 OA
ATOM     13  C2* UNL     1       1.412  -1.449  -0.820  0.00  0.00    +0.187 C 
ATOM     14  C1* UNL     1       0.844  -0.873   0.475  0.00  0.00    +0.225 C 
ATOM     15  C3* UNL     1       2.520  -0.479  -1.175  0.00  0.00    +0.171 C 
ATOM     16  C4* UNL     1       3.025  -0.064   0.202  0.00  0.00    +0.175 C 
BRANCH  13  17
ATOM     17  O2* UNL     1       1.984  -2.728  -0.559  0.00  0.00    -0.378 OA
ATOM     18  H2* UNL     1       1.280  -3.356  -0.331  0.00  0.00    +0.211 HD
ENDBRANCH  13  17
BRANCH  15  19
ATOM     19  O3* UNL     1       1.976   0.637  -1.868  0.00  0.00    -0.379 OA
ATOM     20  H3* UNL     1       1.661   0.353  -2.740  0.00  0.00    +0.211 HD
ENDBRANCH  15  19
BRANCH  16  21
ATOM     21  C5* UNL     1       3.720   1.284   0.263  0.00  0.00    +0.169 C 
BRANCH  21  22
ATOM     22  O5* UNL     1       4.119   1.533   1.601  0.00  0.00    -0.379 OA
ATOM     23  H5* UNL     1       4.565   2.394   1.650  0.00  0.00    +0.211 HD
ENDBRANCH  21  22
ENDBRANCH  16  21
ENDBRANCH   1  14
BRANCH   8  24
ATOM     24  N   UNL     1      -3.649   2.300  -0.442  0.00  0.00    -0.248 NA
ATOM     25  H   UNL     1      -3.542   3.257  -0.644  0.00  0.00    +0.172 HD
ENDBRANCH   8  24
TORSDOF 6
