REMARK  Name = 135753
REMARK  8 active torsions:
REMARK  status: ('A' for Active; 'I' for Inactive)
REMARK    1  A    between atoms: C_1  and  C_3
REMARK    2  A    between atoms: C_1  and  C_13
REMARK    3  A    between atoms: C_3  and  O_4
REMARK    4  A    between atoms: O_4  and  C_5
REMARK    5  A    between atoms: C_8  and  S_11
REMARK    6  A    between atoms: C_13  and  C_15
REMARK    7  A    between atoms: C_15  and  O_16
REMARK    8  A    between atoms: O_16  and  N_19
REMARK                            x       y       z     vdW  Elec       q    Type
REMARK                         _______ _______ _______ _____ _____    ______ ____
ROOT
ATOM      1  C   UNL     1      -0.106  -0.143  -0.680  0.00  0.00    +0.122 C 
ENDROOT
BRANCH   1   3
ATOM      2  O   UNL     1       1.610   0.218   1.014  0.00  0.00    -0.250 OA
ATOM      3  C   UNL     1       1.306  -0.052  -0.140  0.00  0.00    +0.322 C 
BRANCH   3   4
ATOM      4  O   UNL     1       2.185  -0.321  -1.188  0.00  0.00    -0.424 OA
BRANCH   4   5
ATOM      5  C   UNL     1       3.526  -0.264  -0.800  0.00  0.00    +0.148 C 
ATOM      6  C   UNL     1       4.130  -1.413  -0.341  0.00  0.00    +0.038 C 
ATOM      7  C   UNL     1       4.191   0.939  -0.892  0.00  0.00    +0.038 C 
ATOM      8  C   UNL     1       6.168  -0.152  -0.035  0.00  0.00    +0.025 C 
ATOM      9  C   UNL     1       5.469  -1.356   0.048  0.00  0.00    +0.009 C 
ATOM     10  C   UNL     1       5.529   0.996  -0.504  0.00  0.00    +0.009 C 
BRANCH   8  11
ATOM     11  S   UNL     1       7.878  -0.079   0.462  0.00  0.00    -0.113 S 
ATOM     12  C   UNL     1       7.824   1.149   1.797  0.00  0.00    +0.074 C 
ENDBRANCH   8  11
ENDBRANCH   4   5
ENDBRANCH   3   4
ENDBRANCH   1   3
BRANCH   1  13
ATOM     13  C   UNL     1      -1.164   0.120   0.389  0.00  0.00    +0.123 C 
BRANCH  13  15
ATOM     14  O   UNL     1      -2.876  -0.278  -1.295  0.00  0.00    -0.248 OA
ATOM     15  C   UNL     1      -2.577  -0.010  -0.139  0.00  0.00    +0.341 C 
BRANCH  15  16
ATOM     16  O   UNL     1      -3.452   0.230   0.883  0.00  0.00    -0.336 OA
BRANCH  16  19
ATOM     17  O   UNL     1      -5.134   2.373  -0.025  0.00  0.00    -0.267 OA
ATOM     18  O   UNL     1      -5.072  -2.141   0.904  0.00  0.00    -0.267 OA
ATOM     19  N   UNL     1      -4.792   0.122   0.451  0.00  0.00    -0.054 N 
ATOM     20  C   UNL     1      -6.852   0.705  -0.376  0.00  0.00    +0.066 C 
ATOM     21  C   UNL     1      -6.832  -0.793  -0.068  0.00  0.00    +0.066 C 
ATOM     22  C   UNL     1      -5.495   1.208   0.034  0.00  0.00    +0.287 C 
ATOM     23  C   UNL     1      -5.464  -1.058   0.500  0.00  0.00    +0.287 C 
ENDBRANCH  16  19
ENDBRANCH  15  16
ENDBRANCH  13  15
ENDBRANCH   1  13
TORSDOF 8
