135771852
  -OEChem-03292013293D

 35 37  0     1  0  0  0  0  0999 V2000
   -1.7482    0.0206    1.1448 O   0  0  0  0  0  0  0  0  0  0  0  0
   -2.7552    2.3738   -0.7295 O   0  0  0  0  0  0  0  0  0  0  0  0
   -3.7136    0.0759   -1.8607 O   0  0  0  0  0  0  0  0  0  0  0  0
   -3.3841   -2.1428    1.9294 O   0  0  0  0  0  0  0  0  0  0  0  0
    4.3612   -1.2781   -0.4366 O   0  0  0  0  0  0  0  0  0  0  0  0
    2.2230    3.7209    0.8553 O   0  5  0  0  0  0  0  0  0  0  0  0
    0.2169    3.6088   -0.0291 O   0  0  0  0  0  0  0  0  0  0  0  0
    0.3870    0.7654    0.2310 N   0  0  0  0  0  0  0  0  0  0  0  0
    2.5908    1.0673   -0.0015 N   0  0  0  0  0  0  0  0  0  0  0  0
    0.2434   -1.6413    0.0165 N   0  0  0  0  0  0  0  0  0  0  0  0
    1.2846    3.0441    0.3451 N   0  3  0  0  0  0  0  0  0  0  0  0
    2.4221   -2.5754   -0.3317 N   0  0  0  0  0  0  0  0  0  0  0  0
    0.5211   -3.9606   -0.2378 N   0  0  0  0  0  0  0  0  0  0  0  0
   -1.0764    1.0887    0.4375 C   0  0  1  0  0  0  0  0  0  0  0  0
   -1.8315    1.2959   -0.8787 C   0  0  1  0  0  0  0  0  0  0  0  0
   -2.5555   -0.0241   -1.0605 C   0  0  1  0  0  0  0  0  0  0  0  0
   -2.8807   -0.4082    0.3715 C   0  0  1  0  0  0  0  0  0  0  0  0
   -3.1001   -1.8984    0.5631 C   0  0  0  0  0  0  0  0  0  0  0  0
    0.9245   -0.4745    0.0480 C   0  0  0  0  0  0  0  0  0  0  0  0
    1.4288    1.6597    0.1935 C   0  0  0  0  0  0  0  0  0  0  0  0
    2.2737   -0.2559   -0.0911 C   0  0  0  0  0  0  0  0  0  0  0  0
    3.1480   -1.3763   -0.3024 C   0  0  0  0  0  0  0  0  0  0  0  0
    1.0201   -2.6855   -0.1761 C   0  0  0  0  0  0  0  0  0  0  0  0
   -1.1079    1.9531    1.1068 H   0  0  0  0  0  0  0  0  0  0  0  0
   -1.1904    1.5357   -1.7329 H   0  0  0  0  0  0  0  0  0  0  0  0
   -1.8798   -0.7593   -1.5124 H   0  0  0  0  0  0  0  0  0  0  0  0
   -3.7567    0.1382    0.7442 H   0  0  0  0  0  0  0  0  0  0  0  0
   -2.2142   -2.4790    0.2988 H   0  0  0  0  0  0  0  0  0  0  0  0
   -3.9458   -2.2472   -0.0379 H   0  0  0  0  0  0  0  0  0  0  0  0
   -2.2354    3.1794   -0.5660 H   0  0  0  0  0  0  0  0  0  0  0  0
   -3.4420    0.4336   -2.7231 H   0  0  0  0  0  0  0  0  0  0  0  0
   -3.5281   -3.0996    2.0258 H   0  0  0  0  0  0  0  0  0  0  0  0
    2.9457   -3.4341   -0.4761 H   0  0  0  0  0  0  0  0  0  0  0  0
   -0.4714   -4.1425   -0.1373 H   0  0  0  0  0  0  0  0  0  0  0  0
    1.1283   -4.7592   -0.3860 H   0  0  0  0  0  0  0  0  0  0  0  0
  1 14  1  0  0  0  0
  1 17  1  0  0  0  0
  2 15  1  0  0  0  0
  2 30  1  0  0  0  0
  3 16  1  0  0  0  0
  3 31  1  0  0  0  0
  4 18  1  0  0  0  0
  4 32  1  0  0  0  0
  5 22  2  0  0  0  0
  6 11  1  0  0  0  0
  7 11  2  0  0  0  0
  8 14  1  0  0  0  0
  8 19  1  0  0  0  0
  8 20  1  0  0  0  0
  9 20  2  0  0  0  0
  9 21  1  0  0  0  0
 10 19  1  0  0  0  0
 10 23  2  0  0  0  0
 11 20  1  0  0  0  0
 12 22  1  0  0  0  0
 12 23  1  0  0  0  0
 12 33  1  0  0  0  0
 13 23  1  0  0  0  0
 13 34  1  0  0  0  0
 13 35  1  0  0  0  0
 14 15  1  0  0  0  0
 14 24  1  0  0  0  0
 15 16  1  0  0  0  0
 15 25  1  0  0  0  0
 16 17  1  0  0  0  0
 16 26  1  0  0  0  0
 17 18  1  0  0  0  0
 17 27  1  0  0  0  0
 18 28  1  0  0  0  0
 18 29  1  0  0  0  0
 19 21  2  0  0  0  0
 21 22  1  0  0  0  0
M  CHG  2   6  -1  11   1
M  END
> <PUBCHEM_COMPOUND_CID>
135771852

> <PUBCHEM_CONFORMER_RMSD>
0.6

> <PUBCHEM_CONFORMER_DIVERSEORDER>
2
21
13
10
14
19
20
1
12
16
18
9
17
15
6
7
8
3
4
11
5

> <PUBCHEM_MMFF94_PARTIAL_CHARGES>
29
1 -0.56
10 -0.58
11 0.96
12 -0.49
13 -0.85
14 0.54
15 0.28
16 0.28
17 0.28
18 0.28
19 -0.03
2 -0.68
20 0.27
21 0.14
22 0.72
23 0.56
3 -0.68
30 0.4
31 0.4
32 0.4
33 0.37
34 0.4
35 0.4
4 -0.68
5 -0.57
6 -0.52
7 -0.52
8 0.05
9 -0.57

> <PUBCHEM_EFFECTIVE_ROTOR_COUNT>
4

> <PUBCHEM_PHARMACOPHORE_FEATURES>
16
1 1 acceptor
1 12 donor
1 13 donor
1 2 acceptor
1 2 donor
1 3 acceptor
1 3 donor
1 4 acceptor
1 4 donor
1 5 acceptor
1 6 acceptor
1 7 acceptor
4 8 9 11 20 cation
5 1 14 15 16 17 rings
5 8 9 19 20 21 rings
6 10 12 19 21 22 23 rings

> <PUBCHEM_HEAVY_ATOM_COUNT>
23

> <PUBCHEM_ATOM_DEF_STEREO_COUNT>
4

> <PUBCHEM_ATOM_UDEF_STEREO_COUNT>
0

> <PUBCHEM_BOND_DEF_STEREO_COUNT>
0

> <PUBCHEM_BOND_UDEF_STEREO_COUNT>
0

> <PUBCHEM_ISOTOPIC_ATOM_COUNT>
0

> <PUBCHEM_COMPONENT_COUNT>
1

> <PUBCHEM_CACTVS_TAUTO_COUNT>
-1

> <PUBCHEM_CONFORMER_ID>
0817B6CC00000002

> <PUBCHEM_MMFF94_ENERGY>
62.2305

> <PUBCHEM_FEATURE_SELFOVERLAP>
81.477

> <PUBCHEM_SHAPE_FINGERPRINT>
10967382 1 18051131389274920654
11582403 64 16674086817742909565
12403259 226 18335143128221286938
12553582 1 18195812855877653994
12596599 1 17631747083091373431
12788726 201 17547285610474646832
13027679 85 18338805502684777349
13140716 1 18340210674592882600
13583140 156 16665949340321947720
14223421 5 18336265759831622961
16945 1 18268707397297114964
19591789 44 17617669095017052196
20645477 70 18265604563041753879
21160774 45 17473815603656819079
21634736 98 18057871618934127406
221490 88 18337114556901474498
22182313 1 18116707615923458749
2334 1 18411420618064057904
23559900 14 18338221735151570249
238 59 18196065911230009751
2748010 2 18262513839823858805
3084891 72 17688863138598542817
34934 24 18052813646355201468
350125 39 18337965608871075320
458136 41 17834413579980057169
81228 2 17691403010532851008
8809292 202 18118967988048891438
9709674 26 18336816576745110773

> <PUBCHEM_SHAPE_MULTIPOLES>
402.36
5.77
4.33
1.08
0.57
1.18
-0.01
-2.01
0.64
-1.93
-0.58
1.23
-0.15
1.56

> <PUBCHEM_SHAPE_SELFOVERLAP>
875.497

> <PUBCHEM_SHAPE_VOLUME>
215.7

> <PUBCHEM_COORDINATE_TYPE>
2
5
10

$$$$
