REMARK  Name = 135742144
REMARK  5 active torsions:
REMARK  status: ('A' for Active; 'I' for Inactive)
REMARK    1  A    between atoms: N_2  and  C1*_15
REMARK    2  A    between atoms: N_6  and  C_24
REMARK    3  A    between atoms: C3*_16  and  O3*_19
REMARK    4  A    between atoms: C4*_18  and  C5*_21
REMARK    5  A    between atoms: C5*_21  and  O5*_22
REMARK                            x       y       z     vdW  Elec       q    Type
REMARK                         _______ _______ _______ _____ _____    ______ ____
ROOT
ATOM      1  O   UNL     1       3.112   3.269   0.262  0.00  0.00    -0.268 OA
ATOM      2  N   UNL     1      -0.537   0.628  -0.085  0.00  0.00    -0.239 N 
ATOM      3  N   UNL     1       0.195   2.732   0.116  0.00  0.00    -0.240 NA
ATOM      4  N   UNL     1       1.565  -0.573  -0.112  0.00  0.00    -0.356 NA
ATOM      5  N   UNL     1       3.398   0.958   0.079  0.00  0.00    -0.242 N 
ATOM      6  N   UNL     1       3.779  -1.358  -0.100  0.00  0.00    -0.296 N 
ATOM      7  C   UNL     1       0.824   0.556  -0.043  0.00  0.00    +0.211 C 
ATOM      8  C   UNL     1      -0.868   1.957   0.015  0.00  0.00    +0.224 C 
ATOM      9  C   UNL     1       1.242   1.859   0.079  0.00  0.00    +0.176 C 
ATOM     10  C   UNL     1       2.649   2.141   0.152  0.00  0.00    +0.273 C 
ATOM     11  C   UNL     1       2.858  -0.344  -0.048  0.00  0.00    +0.243 C 
ATOM     12  H   UNL     1       4.378   1.040   0.120  0.00  0.00    +0.159 HD
ATOM     13  H   UNL     1       4.736  -1.135  -0.048  0.00  0.00    +0.150 HD
ENDROOT
BRANCH   2  15
ATOM     14  O4* UNL     1      -2.696  -0.143  -0.933  0.00  0.00    -0.335 OA
ATOM     15  C1* UNL     1      -1.508  -0.519  -0.213  0.00  0.00    +0.198 C 
ATOM     16  C3* UNL     1      -3.310  -1.674   0.780  0.00  0.00    +0.144 C 
ATOM     17  C2* UNL     1      -1.975  -1.061   1.133  0.00  0.00    +0.083 C 
ATOM     18  C4* UNL     1      -3.845  -0.733  -0.292  0.00  0.00    +0.173 C 
BRANCH  16  19
ATOM     19  O3* UNL     1      -3.080  -2.962   0.214  0.00  0.00    -0.382 OA
ATOM     20  H3* UNL     1      -2.740  -3.560   0.898  0.00  0.00    +0.210 HD
ENDBRANCH  16  19
BRANCH  18  21
ATOM     21  C5* UNL     1      -4.692   0.394   0.284  0.00  0.00    +0.169 C 
BRANCH  21  22
ATOM     22  O5* UNL     1      -5.134   1.219  -0.780  0.00  0.00    -0.379 OA
ATOM     23  H5* UNL     1      -5.675   1.941  -0.425  0.00  0.00    +0.211 HD
ENDBRANCH  21  22
ENDBRANCH  18  21
ENDBRANCH   2  15
BRANCH   6  24
ATOM     24  C   UNL     1       3.396  -2.730  -0.227  0.00  0.00    +0.090 C 
ATOM     25  C   UNL     1       4.628  -3.613  -0.280  0.00  0.00    +0.023 C 
ENDBRANCH   6  24
TORSDOF 5
