135783065
  -OEChem-03292013293D

 58 60  0     1  0  0  0  0  0999 V2000
   -6.8320    0.9011    0.3233 O   0  0  0  0  0  0  0  0  0  0  0  0
   -3.5238    1.6902   -1.5058 O   0  0  0  0  0  0  0  0  0  0  0  0
    2.5338    4.6612   -1.1914 O   0  0  0  0  0  0  0  0  0  0  0  0
   -5.3539    1.3270    1.9919 O   0  0  0  0  0  0  0  0  0  0  0  0
    5.3481   -1.1656   -2.0602 O   0  0  0  0  0  0  0  0  0  0  0  0
   -5.9932   -3.1720   -1.5968 O   0  0  0  0  0  0  0  0  0  0  0  0
   -7.7987   -1.8511   -1.2202 O   0  0  0  0  0  0  0  0  0  0  0  0
    2.5722    2.7550    0.2310 N   0  0  0  0  0  0  0  0  0  0  0  0
   -3.3928    0.2651    0.3187 N   0  0  0  0  0  0  0  0  0  0  0  0
    3.7311   -3.5064    0.8725 N   0  0  0  0  0  0  0  0  0  0  0  0
    4.8929   -3.2407   -1.1561 N   0  0  0  0  0  0  0  0  0  0  0  0
    4.4772   -5.3823   -0.3193 N   0  0  0  0  0  0  0  0  0  0  0  0
   -4.7434   -0.2424    0.2325 C   0  0  1  0  0  0  0  0  0  0  0  0
    3.2802    2.1628    1.3374 C   0  0  0  0  0  0  0  0  0  0  0  0
   -4.8644   -1.6902    0.7233 C   0  0  0  0  0  0  0  0  0  0  0  0
    3.4057    0.6825    1.2030 C   0  0  0  0  0  0  0  0  0  0  0  0
    1.1792    2.3580    0.0263 C   0  0  0  0  0  0  0  0  0  0  0  0
   -6.2577   -2.3211    0.6072 C   0  0  0  0  0  0  0  0  0  0  0  0
    4.0599    0.1358    0.1003 C   0  0  0  0  0  0  0  0  0  0  0  0
   -1.4781    1.6033   -0.3631 C   0  0  0  0  0  0  0  0  0  0  0  0
    4.1713   -1.2528   -0.0153 C   0  0  0  0  0  0  0  0  0  0  0  0
    2.8686   -0.1529    2.1812 C   0  0  0  0  0  0  0  0  0  0  0  0
   -2.8635    1.2106   -0.5672 C   0  0  0  0  0  0  0  0  0  0  0  0
    0.4178    1.9051    1.1037 C   0  0  0  0  0  0  0  0  0  0  0  0
    0.6120    2.4338   -1.2458 C   0  0  0  0  0  0  0  0  0  0  0  0
    3.6366   -2.1057    0.9594 C   0  0  0  0  0  0  0  0  0  0  0  0
   -0.9109    1.5278    0.9090 C   0  0  0  0  0  0  0  0  0  0  0  0
   -0.7166    2.0565   -1.4404 C   0  0  0  0  0  0  0  0  0  0  0  0
    3.1396    3.7628   -0.6017 C   0  0  0  0  0  0  0  0  0  0  0  0
    2.9838   -1.5392    2.0598 C   0  0  0  0  0  0  0  0  0  0  0  0
   -5.6462    0.7292    0.9644 C   0  0  0  0  0  0  0  0  0  0  0  0
    4.8587   -1.8558   -1.1740 C   0  0  0  0  0  0  0  0  0  0  0  0
   -6.7797   -2.3902   -0.8118 C   0  0  0  0  0  0  0  0  0  0  0  0
    4.6461    3.7302   -0.7217 C   0  0  0  0  0  0  0  0  0  0  0  0
    4.3401   -4.0296   -0.1542 C   0  0  0  0  0  0  0  0  0  0  0  0
   -5.0185   -0.2068   -0.8293 H   0  0  0  0  0  0  0  0  0  0  0  0
    2.7988    2.4622    2.2759 H   0  0  0  0  0  0  0  0  0  0  0  0
    4.2893    2.5782    1.4275 H   0  0  0  0  0  0  0  0  0  0  0  0
   -4.1422   -2.3090    0.1749 H   0  0  0  0  0  0  0  0  0  0  0  0
   -4.5622   -1.7357    1.7780 H   0  0  0  0  0  0  0  0  0  0  0  0
   -2.8144   -0.1171    1.0590 H   0  0  0  0  0  0  0  0  0  0  0  0
   -6.9810   -1.7607    1.2097 H   0  0  0  0  0  0  0  0  0  0  0  0
   -6.2443   -3.3411    1.0088 H   0  0  0  0  0  0  0  0  0  0  0  0
    4.4719    0.7679   -0.6750 H   0  0  0  0  0  0  0  0  0  0  0  0
    2.3652    0.2573    3.0526 H   0  0  0  0  0  0  0  0  0  0  0  0
    0.7913    1.8765    2.1207 H   0  0  0  0  0  0  0  0  0  0  0  0
    1.1848    2.7499   -2.1126 H   0  0  0  0  0  0  0  0  0  0  0  0
   -1.4791    1.2221    1.7825 H   0  0  0  0  0  0  0  0  0  0  0  0
   -1.1366    2.1119   -2.4415 H   0  0  0  0  0  0  0  0  0  0  0  0
    2.5609   -2.1764    2.8328 H   0  0  0  0  0  0  0  0  0  0  0  0
    5.0417    2.7220   -0.8049 H   0  0  0  0  0  0  0  0  0  0  0  0
    5.0926    4.2389    0.1370 H   0  0  0  0  0  0  0  0  0  0  0  0
    4.9402    4.2683   -1.6289 H   0  0  0  0  0  0  0  0  0  0  0  0
    5.3540   -3.7105   -1.9297 H   0  0  0  0  0  0  0  0  0  0  0  0
   -7.4098    1.5421    0.7896 H   0  0  0  0  0  0  0  0  0  0  0  0
    4.1045   -6.0348    0.3618 H   0  0  0  0  0  0  0  0  0  0  0  0
    4.9540   -5.7714   -1.1253 H   0  0  0  0  0  0  0  0  0  0  0  0
   -6.3376   -3.2332   -2.5133 H   0  0  0  0  0  0  0  0  0  0  0  0
  1 31  1  0  0  0  0
  1 55  1  0  0  0  0
  2 23  2  0  0  0  0
  3 29  2  0  0  0  0
  4 31  2  0  0  0  0
  5 32  2  0  0  0  0
  6 33  1  0  0  0  0
  6 58  1  0  0  0  0
  7 33  2  0  0  0  0
  8 14  1  0  0  0  0
  8 17  1  0  0  0  0
  8 29  1  0  0  0  0
  9 13  1  0  0  0  0
  9 23  1  0  0  0  0
  9 41  1  0  0  0  0
 10 26  1  0  0  0  0
 10 35  2  0  0  0  0
 11 32  1  0  0  0  0
 11 35  1  0  0  0  0
 11 54  1  0  0  0  0
 12 35  1  0  0  0  0
 12 56  1  0  0  0  0
 12 57  1  0  0  0  0
 13 15  1  0  0  0  0
 13 31  1  0  0  0  0
 13 36  1  0  0  0  0
 14 16  1  0  0  0  0
 14 37  1  0  0  0  0
 14 38  1  0  0  0  0
 15 18  1  0  0  0  0
 15 39  1  0  0  0  0
 15 40  1  0  0  0  0
 16 19  2  0  0  0  0
 16 22  1  0  0  0  0
 17 24  2  0  0  0  0
 17 25  1  0  0  0  0
 18 33  1  0  0  0  0
 18 42  1  0  0  0  0
 18 43  1  0  0  0  0
 19 21  1  0  0  0  0
 19 44  1  0  0  0  0
 20 23  1  0  0  0  0
 20 27  2  0  0  0  0
 20 28  1  0  0  0  0
 21 26  2  0  0  0  0
 21 32  1  0  0  0  0
 22 30  2  0  0  0  0
 22 45  1  0  0  0  0
 24 27  1  0  0  0  0
 24 46  1  0  0  0  0
 25 28  2  0  0  0  0
 25 47  1  0  0  0  0
 26 30  1  0  0  0  0
 27 48  1  0  0  0  0
 28 49  1  0  0  0  0
 29 34  1  0  0  0  0
 30 50  1  0  0  0  0
 34 51  1  0  0  0  0
 34 52  1  0  0  0  0
 34 53  1  0  0  0  0
M  END
> <PUBCHEM_COMPOUND_CID>
135783065

> <PUBCHEM_CONFORMER_RMSD>
1.2

> <PUBCHEM_CONFORMER_DIVERSEORDER>
124
64
114
136
26
101
30
24
96
133
93
94
58
20
33
117
73
34
90
92
40
112
129
128
55
81
97
130
109
8
62
105
69
132
44
115
3
91
102
75
66
27
35
111
68
47
74
72
80
22
118
79
98
25
19
86
1
54
82
29
70
57
45
53
31
121
65
95
122
88
21
43
32
104
63
23
59
61
13
42
50
18
41
49
10
52
116
85
56
99
125
131
5
84
126
89
15
103
100
51
2
87
67
113
123
6
28
7
120
48
11
37
107
17
83
12
38
4
119
46
16
106
76
60
108
127
71
135
36
77
39
134
78
110
9
14

> <PUBCHEM_MMFF94_PARTIAL_CHARGES>
47
1 -0.65
10 -0.63
11 -0.49
12 -0.85
13 0.36
14 0.44
16 -0.14
17 0.12
18 0.06
19 -0.15
2 -0.57
20 0.09
21 0.09
22 -0.15
23 0.54
24 -0.15
25 -0.15
26 0.18
27 -0.15
28 -0.15
29 0.57
3 -0.57
30 -0.15
31 0.66
32 0.54
33 0.66
34 0.06
35 0.56
4 -0.57
41 0.37
44 0.15
45 0.15
46 0.15
47 0.15
48 0.15
49 0.15
5 -0.57
50 0.15
54 0.37
55 0.5
56 0.4
57 0.4
58 0.5
6 -0.65
7 -0.57
8 -0.48
9 -0.73

> <PUBCHEM_EFFECTIVE_ROTOR_COUNT>
11

> <PUBCHEM_PHARMACOPHORE_FEATURES>
15
1 1 acceptor
1 11 donor
1 12 donor
1 2 acceptor
1 3 acceptor
1 4 acceptor
1 5 acceptor
1 6 acceptor
1 7 acceptor
1 9 donor
3 1 4 31 anion
3 6 7 33 anion
6 10 11 21 26 32 35 rings
6 16 19 21 22 26 30 rings
6 17 20 24 25 27 28 rings

> <PUBCHEM_HEAVY_ATOM_COUNT>
35

> <PUBCHEM_ATOM_DEF_STEREO_COUNT>
1

> <PUBCHEM_ATOM_UDEF_STEREO_COUNT>
0

> <PUBCHEM_BOND_DEF_STEREO_COUNT>
0

> <PUBCHEM_BOND_UDEF_STEREO_COUNT>
0

> <PUBCHEM_ISOTOPIC_ATOM_COUNT>
0

> <PUBCHEM_COMPONENT_COUNT>
1

> <PUBCHEM_CACTVS_TAUTO_COUNT>
-1

> <PUBCHEM_CONFORMER_ID>
0817E2990000007C

> <PUBCHEM_MMFF94_ENERGY>
106.9883

> <PUBCHEM_FEATURE_SELFOVERLAP>
76.316

> <PUBCHEM_SHAPE_FINGERPRINT>
10169797 241 18041005050734714384
10319688 140 18409731798463795838
10928967 22 18043245743346669339
10951579 204 16371825393805306517
11181472 205 18409731799113363597
117089 54 18198627627189104550
1200032 147 13469831723875997322
12107183 9 18197793115623357537
12522641 33 18191592063580193956
12522641 68 17326910967694279284
12623949 98 18261394489573552109
12633257 1 14835825254351271376
13533116 47 18270118049726038129
13692114 37 18051969522853944096
13965767 371 11815312864475241464
14251740 57 18342175587290886144
14251764 30 18267587909787085754
15001296 14 18188764072001256059
15361156 5 18187377510523684305
15467298 65 18199179780085308991
16067689 302 18191308389733403451
20775438 99 18189052147952486154
21307412 95 18048868607488323013
2260408 40 18201429256194560464
25222932 49 18410854361271006582
32027 91 18337103459017081829
3534868 343 18263370359731199909
5372103 7 15214168408376296158
57359948 33 15430855709912040999
6036956 94 9363908860207871179
613672 6 17975669741987578760
6201320 221 17986648507905956847
70251023 43 18264216829128593704
7970288 3 18123190100242268170
9555976 147 17418101971383933491
9831232 110 18408881837299811567
9980921 52 17915433135147700047

> <PUBCHEM_SHAPE_MULTIPOLES>
654.29
17.93
6.14
1.76
34.34
2.96
0.21
15.44
-2.74
-9.45
-2.13
-0.51
0.09
-1.04

> <PUBCHEM_SHAPE_SELFOVERLAP>
1402.103

> <PUBCHEM_SHAPE_VOLUME>
357

> <PUBCHEM_COORDINATE_TYPE>
2
5
10

$$$$
