REMARK  Name = 135765032
REMARK  9 active torsions:
REMARK  status: ('A' for Active; 'I' for Inactive)
REMARK    1  A    between atoms: N_1  and  C_4
REMARK    2  A    between atoms: N_1  and  N_17
REMARK    3  A    between atoms: C_4  and  N_5
REMARK    4  A    between atoms: N_5  and  N_7
REMARK    5  A    between atoms: N_7  and  C_8
REMARK    6  A    between atoms: C_8  and  C_9
REMARK    7  A    between atoms: C_10  and  O_15
REMARK    8  A    between atoms: C_18  and  C_20
REMARK    9  A    between atoms: C_18  and  C_26
REMARK                            x       y       z     vdW  Elec       q    Type
REMARK                         _______ _______ _______ _____ _____    ______ ____
ROOT
ATOM      1  N   UNL     1       0.608  -1.583  -0.001  0.00  0.00    -0.217 N 
ATOM      2  H   UNL     1       0.080  -0.752  -0.003  0.00  0.00    +0.176 HD
ENDROOT
BRANCH   1   4
ATOM      3  S   UNL     1       0.678  -4.309   0.009  0.00  0.00    -0.016 S 
ATOM      4  C   UNL     1      -0.053  -2.798   0.008  0.00  0.00    +0.165 C 
BRANCH   4   5
ATOM      5  N   UNL     1      -1.433  -2.702   0.013  0.00  0.00    -0.243 N 
ATOM      6  H   UNL     1      -1.980  -3.520   0.020  0.00  0.00    +0.170 HD
BRANCH   5   7
ATOM      7  N   UNL     1      -2.037  -1.489   0.010  0.00  0.00    -0.127 NA
BRANCH   7   8
ATOM      8  C   UNL     1      -3.328  -1.535   0.008  0.00  0.00    +0.141 C 
BRANCH   8   9
ATOM      9  C   UNL     1      -4.141  -0.306   0.001  0.00  0.00    +0.031 C 
ATOM     10  C   UNL     1      -5.535  -0.370  -0.003  0.00  0.00    +0.131 C 
ATOM     11  C   UNL     1      -3.500   0.932  -0.003  0.00  0.00    +0.000 C 
ATOM     12  C   UNL     1      -6.287   0.805  -0.012  0.00  0.00    +0.036 C 
ATOM     13  C   UNL     1      -4.252   2.107  -0.011  0.00  0.00    -0.000 C 
ATOM     14  C   UNL     1      -5.645   2.044  -0.016  0.00  0.00    +0.003 C 
BRANCH  10  15
ATOM     15  O   UNL     1      -6.180  -1.570  -0.002  0.00  0.00    -0.506 OA
ATOM     16  H   UNL     1      -5.688  -2.367   0.004  0.00  0.00    +0.292 HD
ENDBRANCH  10  15
ENDBRANCH   8   9
ENDBRANCH   7   8
ENDBRANCH   5   7
ENDBRANCH   4   5
ENDBRANCH   1   4
BRANCH   1  17
ATOM     17  N   UNL     1       1.959  -1.502  -0.007  0.00  0.00    -0.177 NA
ATOM     18  C   UNL     1       2.510  -0.321   0.006  0.00  0.00    +0.134 C 
BRANCH  18  20
ATOM     19  N   UNL     1       4.369   1.199   0.012  0.00  0.00    -0.242 NA
ATOM     20  C   UNL     1       3.976  -0.095   0.002  0.00  0.00    +0.102 C 
ATOM     21  C   UNL     1       4.848  -1.171  -0.013  0.00  0.00    +0.021 C 
ATOM     22  C   UNL     1       6.213  -0.902  -0.017  0.00  0.00    +0.003 C 
ATOM     23  C   UNL     1       6.656   0.416  -0.006  0.00  0.00    +0.021 C 
ATOM     24  C   UNL     1       5.703   1.421   0.008  0.00  0.00    +0.099 C 
ENDBRANCH  18  20
BRANCH  18  26
ATOM     25  N   UNL     1       1.256   1.363  -1.189  0.00  0.00    -0.242 NA
ATOM     26  C   UNL     1       1.613   0.881   0.023  0.00  0.00    +0.102 C 
ATOM     27  C   UNL     1       1.201   1.428   1.227  0.00  0.00    +0.021 C 
ATOM     28  C   UNL     1       0.370   2.542   1.185  0.00  0.00    +0.003 C 
ATOM     29  C   UNL     1      -0.019   3.067  -0.042  0.00  0.00    +0.021 C 
ATOM     30  C   UNL     1       0.448   2.446  -1.190  0.00  0.00    +0.099 C 
ENDBRANCH  18  26
ENDBRANCH   1  17
TORSDOF 9
