135763231
  -OEChem-03292013293D

 32 34  0     1  0  0  0  0  0999 V2000
    2.2395    0.3896    1.0063 O   0  0  0  0  0  0  0  0  0  0  0  0
    1.2221   -2.1821   -1.3026 O   0  0  0  0  0  0  0  0  0  0  0  0
    3.4415   -2.3053    0.3197 O   0  0  0  0  0  0  0  0  0  0  0  0
    4.1527    2.3773    0.5167 O   0  0  0  0  0  0  0  0  0  0  0  0
   -4.1963    1.9979   -0.4524 O   0  0  0  0  0  0  0  0  0  0  0  0
   -0.0449    0.3892    0.1465 N   0  0  0  0  0  0  0  0  0  0  0  0
    0.0293    1.7085   -0.1326 N   0  0  0  0  0  0  0  0  0  0  0  0
   -1.2150    2.1583   -0.3053 N   0  0  0  0  0  0  0  0  0  0  0  0
   -1.7835   -1.2833    0.4001 N   0  0  0  0  0  0  0  0  0  0  0  0
   -3.9280   -0.2688    0.0503 N   0  0  0  0  0  0  0  0  0  0  0  0
   -3.7496   -2.5624    0.5542 N   0  0  0  0  0  0  0  0  0  0  0  0
    1.8231   -0.9732   -0.8833 C   0  0  2  0  0  0  0  0  0  0  0  0
    3.2766   -1.1403   -0.4875 C   0  0  1  0  0  0  0  0  0  0  0  0
    1.2090   -0.4148    0.3963 C   0  0  1  0  0  0  0  0  0  0  0  0
    3.5114    0.0795    0.3944 C   0  0  1  0  0  0  0  0  0  0  0  0
    3.9746    1.3011   -0.3874 C   0  0  0  0  0  0  0  0  0  0  0  0
   -1.3370   -0.0325    0.1585 C   0  0  0  0  0  0  0  0  0  0  0  0
   -2.0500    1.1020   -0.1291 C   0  0  0  0  0  0  0  0  0  0  0  0
   -3.4806    1.0368   -0.2024 C   0  0  0  0  0  0  0  0  0  0  0  0
   -3.0949   -1.3773    0.3396 C   0  0  0  0  0  0  0  0  0  0  0  0
    1.7358   -0.2450   -1.6989 H   0  0  0  0  0  0  0  0  0  0  0  0
    3.9529   -1.2256   -1.3429 H   0  0  0  0  0  0  0  0  0  0  0  0
    0.9139   -1.1998    1.1028 H   0  0  0  0  0  0  0  0  0  0  0  0
    4.2112   -0.1238    1.2129 H   0  0  0  0  0  0  0  0  0  0  0  0
    3.2296    1.6111   -1.1270 H   0  0  0  0  0  0  0  0  0  0  0  0
    4.9255    1.1045   -0.8921 H   0  0  0  0  0  0  0  0  0  0  0  0
    1.7408   -2.5206   -2.0521 H   0  0  0  0  0  0  0  0  0  0  0  0
    4.3782   -2.3503    0.5774 H   0  0  0  0  0  0  0  0  0  0  0  0
    4.4516    3.1425   -0.0036 H   0  0  0  0  0  0  0  0  0  0  0  0
   -4.9305   -0.4315    0.0237 H   0  0  0  0  0  0  0  0  0  0  0  0
   -3.2398   -3.4126    0.7682 H   0  0  0  0  0  0  0  0  0  0  0  0
   -4.7607   -2.6246    0.5054 H   0  0  0  0  0  0  0  0  0  0  0  0
  1 14  1  0  0  0  0
  1 15  1  0  0  0  0
  2 12  1  0  0  0  0
  2 27  1  0  0  0  0
  3 13  1  0  0  0  0
  3 28  1  0  0  0  0
  4 16  1  0  0  0  0
  4 29  1  0  0  0  0
  5 19  2  0  0  0  0
  6  7  1  0  0  0  0
  6 14  1  0  0  0  0
  6 17  1  0  0  0  0
  7  8  2  0  0  0  0
  8 18  1  0  0  0  0
  9 17  1  0  0  0  0
  9 20  2  0  0  0  0
 10 19  1  0  0  0  0
 10 20  1  0  0  0  0
 10 30  1  0  0  0  0
 11 20  1  0  0  0  0
 11 31  1  0  0  0  0
 11 32  1  0  0  0  0
 12 13  1  0  0  0  0
 12 14  1  0  0  0  0
 12 21  1  0  0  0  0
 13 15  1  0  0  0  0
 13 22  1  0  0  0  0
 14 23  1  0  0  0  0
 15 16  1  0  0  0  0
 15 24  1  0  0  0  0
 16 25  1  0  0  0  0
 16 26  1  0  0  0  0
 17 18  2  0  0  0  0
 18 19  1  0  0  0  0
M  END
> <PUBCHEM_COMPOUND_CID>
135763231

> <PUBCHEM_CONFORMER_RMSD>
0.6

> <PUBCHEM_CONFORMER_DIVERSEORDER>
1
9
13
10
15
3
6
12
7
2
5
14
11
4
8

> <PUBCHEM_MMFF94_PARTIAL_CHARGES>
26
1 -0.56
10 -0.49
11 -0.85
12 0.28
13 0.28
14 0.54
15 0.28
16 0.28
17 -0.03
18 0.14
19 0.72
2 -0.68
20 0.56
27 0.4
28 0.4
29 0.4
3 -0.68
30 0.37
31 0.4
32 0.4
4 -0.68
5 -0.57
6 0.31
7 -0.42
8 -0.23
9 -0.58

> <PUBCHEM_EFFECTIVE_ROTOR_COUNT>
3

> <PUBCHEM_PHARMACOPHORE_FEATURES>
13
1 1 acceptor
1 10 donor
1 11 donor
1 2 acceptor
1 2 donor
1 3 acceptor
1 3 donor
1 4 acceptor
1 4 donor
1 5 acceptor
5 1 12 13 14 15 rings
5 6 7 8 17 18 rings
6 9 10 17 18 19 20 rings

> <PUBCHEM_HEAVY_ATOM_COUNT>
20

> <PUBCHEM_ATOM_DEF_STEREO_COUNT>
4

> <PUBCHEM_ATOM_UDEF_STEREO_COUNT>
0

> <PUBCHEM_BOND_DEF_STEREO_COUNT>
0

> <PUBCHEM_BOND_UDEF_STEREO_COUNT>
0

> <PUBCHEM_ISOTOPIC_ATOM_COUNT>
0

> <PUBCHEM_COMPONENT_COUNT>
1

> <PUBCHEM_CACTVS_TAUTO_COUNT>
-1

> <PUBCHEM_CONFORMER_ID>
0817951F00000001

> <PUBCHEM_MMFF94_ENERGY>
48.752

> <PUBCHEM_FEATURE_SELFOVERLAP>
66.163

> <PUBCHEM_SHAPE_FINGERPRINT>
10498660 4 18408324380140245164
10608611 8 18411417276384595596
10616163 171 18411984671476194086
11132069 177 18335417963099280793
11405975 8 18337673014292639954
12633257 1 18196939868165163322
13140716 1 18339648845203906243
13214271 11 18412258467214741005
13296908 3 18409731755044773923
13544592 145 18125167034891077527
14289901 80 18334017211213267874
15196674 1 18410012134714938851
15219456 202 18342457027913120010
15375358 24 18411979135553227061
15375462 6 18410013247644309502
17492 89 18335421261819456282
18175812 5 18412544280103041982
18186145 218 17603864468589589702
19141452 34 18271533078584535259
19591789 44 16678391590127135333
200 152 17202752701334278735
20279233 1 18342740667822542191
20645477 56 18261678069601254325
20645477 70 17988640740283735574
21065198 57 18337953394079121930
21618674 54 18408321103253940178
221490 88 18411707565051045962
23402539 116 18260542325481390238
23557571 272 18337402611704616838
23559900 14 18339357449332912930
2748010 2 18341058445218336767
474 4 17168437068270733124
495365 180 17631429216450133417
5104073 3 18410293596812023321
67856867 119 18259702307615049832
77779 3 18409731759408105120
8809292 202 18337394829234763731
9709674 26 18270121188840963135

> <PUBCHEM_SHAPE_MULTIPOLES>
352.36
8.46
2.59
0.82
0.16
0.21
-0.08
-0.75
0.34
0.19
-0.11
-0.33
0.18
0.99

> <PUBCHEM_SHAPE_SELFOVERLAP>
761.928

> <PUBCHEM_SHAPE_VOLUME>
190.7

> <PUBCHEM_COORDINATE_TYPE>
2
5
10

$$$$
