135754259
  -OEChem-03292013293D

 34 35  0     1  0  0  0  0  0999 V2000
    4.8094    1.4556    0.6670 P   0  0  0  0  0  0  0  0  0  0  0  0
    3.8737    0.1549    0.4593 O   0  0  0  0  0  0  0  0  0  0  0  0
    3.1387   -2.4895   -1.9384 O   0  0  0  0  0  0  0  0  0  0  0  0
   -2.2515    1.3839   -2.1424 O   0  0  0  0  0  0  0  0  0  0  0  0
    4.5338    2.3442   -0.6558 O   0  0  0  0  0  0  0  0  0  0  0  0
    6.2951    0.8680    0.4175 O   0  0  0  0  0  0  0  0  0  0  0  0
    4.6222    2.1725    1.9720 O   0  0  0  0  0  0  0  0  0  0  0  0
   -1.0940   -0.3535   -0.4002 N   0  0  0  0  0  0  0  0  0  0  0  0
   -4.2542    1.3010   -0.9779 N   0  0  0  0  0  0  0  0  0  0  0  0
   -2.6951   -1.2951    1.7092 N   0  0  0  0  0  0  0  0  0  0  0  0
   -4.5149   -0.0270    0.9522 N   0  0  0  0  0  0  0  0  0  0  0  0
   -6.3032    1.2617    0.1509 N   0  0  0  0  0  0  0  0  0  0  0  0
    3.0215   -1.7501   -0.7227 C   0  0  1  0  0  0  0  0  0  0  0  0
    3.9960   -0.5768   -0.7564 C   0  0  0  0  0  0  0  0  0  0  0  0
    1.6024   -1.2731   -0.6116 C   0  0  0  0  0  0  0  0  0  0  0  0
   -0.6248   -1.2173    0.5199 C   0  0  0  0  0  0  0  0  0  0  0  0
    0.7544   -1.6460    0.3764 C   0  0  0  0  0  0  0  0  0  0  0  0
   -2.3770    0.0226   -0.2360 C   0  0  0  0  0  0  0  0  0  0  0  0
   -3.1794   -0.4295    0.7947 C   0  0  0  0  0  0  0  0  0  0  0  0
   -2.9314    0.9629   -1.2151 C   0  0  0  0  0  0  0  0  0  0  0  0
   -1.4102   -1.6793    1.5545 C   0  0  0  0  0  0  0  0  0  0  0  0
   -5.0118    0.8100    0.0828 C   0  0  0  0  0  0  0  0  0  0  0  0
    3.2781   -2.4151    0.1103 H   0  0  0  0  0  0  0  0  0  0  0  0
    5.0198   -0.9501   -0.8671 H   0  0  0  0  0  0  0  0  0  0  0  0
    3.7905    0.0768   -1.6119 H   0  0  0  0  0  0  0  0  0  0  0  0
    1.2608   -0.5980   -1.3935 H   0  0  0  0  0  0  0  0  0  0  0  0
    1.1226   -2.3287    1.1394 H   0  0  0  0  0  0  0  0  0  0  0  0
   -1.0453   -2.3750    2.3020 H   0  0  0  0  0  0  0  0  0  0  0  0
   -4.6993    1.9496   -1.6205 H   0  0  0  0  0  0  0  0  0  0  0  0
    2.5471   -3.2590   -1.8739 H   0  0  0  0  0  0  0  0  0  0  0  0
   -6.9278    0.9574    0.8898 H   0  0  0  0  0  0  0  0  0  0  0  0
   -6.6729    1.9124   -0.5335 H   0  0  0  0  0  0  0  0  0  0  0  0
    4.9529    3.2280   -0.7295 H   0  0  0  0  0  0  0  0  0  0  0  0
    7.0685    1.4500    0.5763 H   0  0  0  0  0  0  0  0  0  0  0  0
  1  2  1  0  0  0  0
  1  5  1  0  0  0  0
  1  6  1  0  0  0  0
  1  7  2  0  0  0  0
  2 14  1  0  0  0  0
  3 13  1  0  0  0  0
  3 30  1  0  0  0  0
  4 20  2  0  0  0  0
  5 33  1  0  0  0  0
  6 34  1  0  0  0  0
  8 16  1  0  0  0  0
  8 18  2  0  0  0  0
  9 20  1  0  0  0  0
  9 22  1  0  0  0  0
  9 29  1  0  0  0  0
 10 19  2  0  0  0  0
 10 21  1  0  0  0  0
 11 19  1  0  0  0  0
 11 22  2  0  0  0  0
 12 22  1  0  0  0  0
 12 31  1  0  0  0  0
 12 32  1  0  0  0  0
 13 14  1  0  0  0  0
 13 15  1  0  0  0  0
 13 23  1  0  0  0  0
 14 24  1  0  0  0  0
 14 25  1  0  0  0  0
 15 17  2  0  0  0  0
 15 26  1  0  0  0  0
 16 17  1  0  0  0  0
 16 21  2  0  0  0  0
 17 27  1  0  0  0  0
 18 19  1  0  0  0  0
 18 20  1  0  0  0  0
 21 28  1  0  0  0  0
M  END
> <PUBCHEM_COMPOUND_CID>
135754259

> <PUBCHEM_CONFORMER_RMSD>
0.8

> <PUBCHEM_CONFORMER_DIVERSEORDER>
1
51
52
27
34
30
31
13
58
23
24
25
17
47
50
45
8
5
33
14
18
15
10
60
29
2
57
7
32
39
46
37
21
59
9
4
20
26
28
6
38
19
53
11
35
16
44
42
49
40
12
48
43
22
36
3
61
41
56
55
54

> <PUBCHEM_MMFF94_PARTIAL_CHARGES>
31
1 1.51
10 -0.62
11 -0.63
12 -0.85
13 0.42
14 0.28
15 -0.29
16 0.34
17 -0.18
18 0.4
19 0.49
2 -0.55
20 0.54
21 0.16
22 0.56
26 0.15
27 0.15
28 0.15
29 0.37
3 -0.68
30 0.4
31 0.4
32 0.4
33 0.5
34 0.5
4 -0.57
5 -0.77
6 -0.77
7 -0.7
8 -0.62
9 -0.49

> <PUBCHEM_EFFECTIVE_ROTOR_COUNT>
5

> <PUBCHEM_PHARMACOPHORE_FEATURES>
13
1 12 donor
1 3 acceptor
1 3 donor
1 4 acceptor
1 5 acceptor
1 6 acceptor
1 7 acceptor
1 8 acceptor
1 9 donor
3 10 11 19 cation
4 1 5 6 7 anion
6 8 10 16 18 19 21 rings
6 9 11 18 19 20 22 rings

> <PUBCHEM_HEAVY_ATOM_COUNT>
22

> <PUBCHEM_ATOM_DEF_STEREO_COUNT>
0

> <PUBCHEM_ATOM_UDEF_STEREO_COUNT>
1

> <PUBCHEM_BOND_DEF_STEREO_COUNT>
1

> <PUBCHEM_BOND_UDEF_STEREO_COUNT>
0

> <PUBCHEM_ISOTOPIC_ATOM_COUNT>
0

> <PUBCHEM_COMPONENT_COUNT>
1

> <PUBCHEM_CACTVS_TAUTO_COUNT>
-1

> <PUBCHEM_CONFORMER_ID>
0817721300000001

> <PUBCHEM_MMFF94_ENERGY>
14.8446

> <PUBCHEM_FEATURE_SELFOVERLAP>
66.099

> <PUBCHEM_SHAPE_FINGERPRINT>
10319926 262 17894909646771033970
11112241 14 18059000821507523977
11595378 159 16081363047060452764
12035758 1 17749687233422195889
12236239 1 16271929268341389662
12403259 415 18041840601851124438
12633257 1 17603584170724309260
12769317 202 18202560696682482930
13402501 40 18334573547054729452
14251764 38 18408888412763411756
173720 79 16081369640141265419
20645477 56 18333455330522534903
21033648 29 18337103571076673656
212916 134 17603303743361039603
21307412 95 11455885880357016845
21792934 111 17024023758383843445
23557571 272 18187943810018995874
23559900 14 17896051961594949822
2916195 48 18335136475606725465
3004659 81 15482112652934571758
341906 21 17603870009414023214
34797466 226 18131073689208200847
4371632 12 16627975503196470352
474 4 17775287192463170266
495365 180 18336265644021305274
5104073 3 17387415636739395801
543368 44 17060333058888487465
574716 61 16630239303138580808

> <PUBCHEM_SHAPE_MULTIPOLES>
396.48
13.7
2.33
1.61
3.9
0.1
-0.09
9.06
1.68
2.34
-0.13
0.3
-0.03
2.94

> <PUBCHEM_SHAPE_SELFOVERLAP>
823.297

> <PUBCHEM_SHAPE_VOLUME>
227.1

> <PUBCHEM_COORDINATE_TYPE>
2
5
10

$$$$
