REMARK  Name = 135764598
REMARK  6 active torsions:
REMARK  status: ('A' for Active; 'I' for Inactive)
REMARK    1  A    between atoms: N_2  and  C1*_16
REMARK    2  A    between atoms: N_3  and  C_27
REMARK    3  A    between atoms: C2*_17  and  O2*_20
REMARK    4  A    between atoms: C3*_18  and  O3*_22
REMARK    5  A    between atoms: C4*_19  and  C5*_24
REMARK    6  A    between atoms: C5*_24  and  O5*_25
REMARK                            x       y       z     vdW  Elec       q    Type
REMARK                         _______ _______ _______ _____ _____    ______ ____
ROOT
ATOM      1  O   UNL     1      -4.173  -1.233   0.075  0.00  0.00    -0.273 OA
ATOM      2  N   UNL     1       0.220  -0.013  -0.390  0.00  0.00    -0.247 N 
ATOM      3  N   UNL     1      -1.245  -1.735  -0.121  0.00  0.00    -0.243 NA
ATOM      4  N   UNL     1      -1.489   1.828  -0.389  0.00  0.00    -0.361 NA
ATOM      5  N   UNL     1      -3.702   1.025  -0.142  0.00  0.00    -0.246 N 
ATOM      6  N   UNL     1      -3.297   3.320  -0.349  0.00  0.00    -0.321 N 
ATOM      7  C   UNL     1       0.195  -1.475  -0.229  0.00  0.00    +0.173 C 
ATOM      8  C   UNL     1      -1.080   0.518  -0.326  0.00  0.00    +0.189 C 
ATOM      9  C   UNL     1      -1.921  -0.528  -0.174  0.00  0.00    +0.204 C 
ATOM     10  C   UNL     1      -3.370  -0.320  -0.066  0.00  0.00    +0.252 C 
ATOM     11  C   UNL     1      -2.773   2.055  -0.298  0.00  0.00    +0.239 C 
ATOM     12  H   UNL     1      -4.654   1.269  -0.082  0.00  0.00    +0.159 HD
ATOM     13  H   UNL     1      -2.701   4.096  -0.458  0.00  0.00    +0.146 HD
ATOM     14  H   UNL     1      -4.270   3.453  -0.277  0.00  0.00    +0.146 HD
ENDROOT
BRANCH   2  16
ATOM     15  O4* UNL     1       2.463   0.011  -1.156  0.00  0.00    -0.333 OA
ATOM     16  C1* UNL     1       1.460   0.720  -0.406  0.00  0.00    +0.225 C 
ATOM     17  C2* UNL     1       2.011   0.872   1.004  0.00  0.00    +0.187 C 
ATOM     18  C3* UNL     1       3.503   0.938   0.757  0.00  0.00    +0.171 C 
ATOM     19  C4* UNL     1       3.681  -0.052  -0.385  0.00  0.00    +0.175 C 
BRANCH  17  20
ATOM     20  O2* UNL     1       1.524   2.029   1.654  0.00  0.00    -0.378 OA
ATOM     21  H2* UNL     1       0.568   1.944   1.792  0.00  0.00    +0.211 HD
ENDBRANCH  17  20
BRANCH  18  22
ATOM     22  O3* UNL     1       3.869   2.232   0.278  0.00  0.00    -0.379 OA
ATOM     23  H3* UNL     1       3.763   2.882   0.991  0.00  0.00    +0.211 HD
ENDBRANCH  18  22
BRANCH  19  24
ATOM     24  C5* UNL     1       3.871  -1.488   0.087  0.00  0.00    +0.169 C 
BRANCH  24  25
ATOM     25  O5* UNL     1       4.016  -2.322  -1.049  0.00  0.00    -0.379 OA
ATOM     26  H5* UNL     1       4.138  -3.241  -0.762  0.00  0.00    +0.211 HD
ENDBRANCH  24  25
ENDBRANCH  19  24
ENDBRANCH   2  16
BRANCH   3  27
ATOM     27  C   UNL     1      -1.760  -3.063   0.074  0.00  0.00    +0.074 C 
ATOM     28  C   UNL     1      -2.004  -3.317   1.549  0.00  0.00    +0.019 C 
ENDBRANCH   3  27
TORSDOF 6
