135764866
  -OEChem-03292013293D

 33 33  0     0  0  0  0  0  0999 V2000
   -3.5325   -1.6351   -0.2991 P   0  0  0  0  0  0  0  0  0  0  0  0
   -2.4473   -0.4428   -0.4154 O   0  0  0  0  0  0  0  0  0  0  0  0
    2.4564    1.7209   -0.6642 O   0  0  0  0  0  0  0  0  0  0  0  0
   -2.8090   -2.6790    0.7019 O   0  0  0  0  0  0  0  0  0  0  0  0
   -4.7073   -0.9994    0.6123 O   0  0  0  0  0  0  0  0  0  0  0  0
   -3.9797   -2.2181   -1.6077 O   0  0  0  0  0  0  0  0  0  0  0  0
    2.0889   -2.1961   -0.0715 O   0  0  0  0  0  0  0  0  0  0  0  0
    4.3236   -1.8260    0.4143 O   0  0  0  0  0  0  0  0  0  0  0  0
   -0.5343    3.5930    0.2598 N   0  0  0  0  0  0  0  0  0  0  0  0
    1.9829   -0.8105    0.1086 N   0  0  0  0  0  0  0  0  0  0  0  0
   -0.9908    1.2265    0.4498 C   0  0  0  0  0  0  0  0  0  0  0  0
    0.3057    0.9360    0.0398 C   0  0  0  0  0  0  0  0  0  0  0  0
   -1.9757    0.1597    0.7842 C   0  0  0  0  0  0  0  0  0  0  0  0
    1.1826    1.9724   -0.2604 C   0  0  0  0  0  0  0  0  0  0  0  0
    0.7180    3.2717   -0.1354 C   0  0  0  0  0  0  0  0  0  0  0  0
   -1.3583    2.5593    0.5430 C   0  0  0  0  0  0  0  0  0  0  0  0
    0.7476   -0.4493   -0.0763 C   0  0  0  0  0  0  0  0  0  0  0  0
    1.6190    4.4224   -0.4450 C   0  0  0  0  0  0  0  0  0  0  0  0
    3.3893   -2.5621    0.1252 C   0  0  0  0  0  0  0  0  0  0  0  0
    3.5208   -4.0436   -0.0638 C   0  0  0  0  0  0  0  0  0  0  0  0
   -1.5227   -0.5921    1.4398 H   0  0  0  0  0  0  0  0  0  0  0  0
   -2.8271    0.5825    1.3293 H   0  0  0  0  0  0  0  0  0  0  0  0
   -2.3558    2.8532    0.8548 H   0  0  0  0  0  0  0  0  0  0  0  0
   -0.0096   -1.2187   -0.3050 H   0  0  0  0  0  0  0  0  0  0  0  0
    1.9454    4.3905   -1.4895 H   0  0  0  0  0  0  0  0  0  0  0  0
    1.0970    5.3740   -0.2951 H   0  0  0  0  0  0  0  0  0  0  0  0
    2.4918    4.4216    0.2158 H   0  0  0  0  0  0  0  0  0  0  0  0
    2.9422    2.5425   -0.8348 H   0  0  0  0  0  0  0  0  0  0  0  0
   -5.5201   -1.5245    0.7729 H   0  0  0  0  0  0  0  0  0  0  0  0
   -3.2313   -3.5488    0.8667 H   0  0  0  0  0  0  0  0  0  0  0  0
    2.9031   -4.5674    0.6700 H   0  0  0  0  0  0  0  0  0  0  0  0
    4.5639   -4.3371    0.0857 H   0  0  0  0  0  0  0  0  0  0  0  0
    3.2259   -4.3155   -1.0805 H   0  0  0  0  0  0  0  0  0  0  0  0
  1  2  1  0  0  0  0
  1  4  1  0  0  0  0
  1  5  1  0  0  0  0
  1  6  2  0  0  0  0
  2 13  1  0  0  0  0
  3 14  1  0  0  0  0
  3 28  1  0  0  0  0
  4 30  1  0  0  0  0
  5 29  1  0  0  0  0
  7 10  1  0  0  0  0
  7 19  1  0  0  0  0
  8 19  2  0  0  0  0
  9 15  2  0  0  0  0
  9 16  1  0  0  0  0
 10 17  2  0  0  0  0
 11 12  1  0  0  0  0
 11 13  1  0  0  0  0
 11 16  2  0  0  0  0
 12 14  2  0  0  0  0
 12 17  1  0  0  0  0
 13 21  1  0  0  0  0
 13 22  1  0  0  0  0
 14 15  1  0  0  0  0
 15 18  1  0  0  0  0
 16 23  1  0  0  0  0
 17 24  1  0  0  0  0
 18 25  1  0  0  0  0
 18 26  1  0  0  0  0
 18 27  1  0  0  0  0
 19 20  1  0  0  0  0
 20 31  1  0  0  0  0
 20 32  1  0  0  0  0
 20 33  1  0  0  0  0
M  END
> <PUBCHEM_COMPOUND_CID>
135764866

> <PUBCHEM_CONFORMER_RMSD>
0.8

> <PUBCHEM_CONFORMER_DIVERSEORDER>
1
14
21
12
4
41
28
53
25
54
45
57
13
47
29
19
26
9
30
37
33
34
5
11
55
22
23
20
10
39
50
16
7
35
43
36
38
32
2
51
49
24
18
48
17
15
46
8
56
52
44
6
27
42
3
40
31

> <PUBCHEM_MMFF94_PARTIAL_CHARGES>
25
1 1.51
10 -0.51
11 -0.14
12 0.09
13 0.42
14 0.08
15 0.17
16 0.16
17 0.3
18 0.14
19 0.66
2 -0.55
20 0.06
23 0.15
24 0.06
28 0.45
29 0.5
3 -0.53
30 0.5
4 -0.77
5 -0.77
6 -0.7
7 -0.09
8 -0.57
9 -0.62

> <PUBCHEM_EFFECTIVE_ROTOR_COUNT>
6

> <PUBCHEM_PHARMACOPHORE_FEATURES>
9
1 10 acceptor
1 3 donor
1 4 acceptor
1 5 acceptor
1 6 acceptor
1 8 acceptor
1 9 acceptor
4 1 4 5 6 anion
6 9 11 12 14 15 16 rings

> <PUBCHEM_HEAVY_ATOM_COUNT>
20

> <PUBCHEM_ATOM_DEF_STEREO_COUNT>
0

> <PUBCHEM_ATOM_UDEF_STEREO_COUNT>
0

> <PUBCHEM_BOND_DEF_STEREO_COUNT>
1

> <PUBCHEM_BOND_UDEF_STEREO_COUNT>
0

> <PUBCHEM_ISOTOPIC_ATOM_COUNT>
0

> <PUBCHEM_COMPONENT_COUNT>
1

> <PUBCHEM_CACTVS_TAUTO_COUNT>
-1

> <PUBCHEM_CONFORMER_ID>
08179B8200000001

> <PUBCHEM_MMFF94_ENERGY>
11.1629

> <PUBCHEM_FEATURE_SELFOVERLAP>
45.723

> <PUBCHEM_SHAPE_FINGERPRINT>
10411042 1 18337957787857494307
11056379 131 17978802203539810302
11265709 11 18410857624923814219
12107183 9 18269571476994736787
12173636 292 17184186146361931100
12553582 1 18339096903273185559
12730499 353 17831861622873357099
13004483 165 18267289937814929235
13083527 12 18339346552874055184
13140716 1 18196378026213330904
138480 1 18410294747868863842
14508225 48 18267571429970950741
14844126 61 17903634086316000106
15042514 8 17977674104123817745
15927050 60 17474675426551180836
17539 30 18050835629047131703
19591789 44 17401211569324752114
20510252 161 17188970117191410136
20645477 70 18046614883671914771
21452121 199 18338501019494181954
23402539 116 17764860299995174405
23557571 272 17912647900321295958
23598288 3 17684400285056936136
23728640 28 17616537254896334346
257057 1 18411135801249655368
3060560 45 17760921140743208493
3091708 16 9067959903690342488
458136 41 17903649818949619889
59682541 52 17981291755974532135
81228 2 18124016954307815385

> <PUBCHEM_SHAPE_MULTIPOLES>
364.39
6.9
6.04
0.84
1.6
3.7
-0.13
-10.78
-0.02
1.63
-0.75
-0.56
-0.25
-1.02

> <PUBCHEM_SHAPE_SELFOVERLAP>
736.68

> <PUBCHEM_SHAPE_VOLUME>
215.2

> <PUBCHEM_COORDINATE_TYPE>
2
5
10

$$$$
