REMARK  Name = 135767898
REMARK  4 active torsions:
REMARK  status: ('A' for Active; 'I' for Inactive)
REMARK    1  A    between atoms: C_5  and  C_12
REMARK    2  A    between atoms: C_8  and  O_19
REMARK    3  A    between atoms: C_13  and  C_16
REMARK    4  A    between atoms: C_16  and  O_17
REMARK                            x       y       z     vdW  Elec       q    Type
REMARK                         _______ _______ _______ _____ _____    ______ ____
ROOT
ATOM      1  S   UNK     1       0.633   1.299   0.000  0.00  0.00    -0.050 S 
ATOM      2  N   UNK     1       0.881  -1.268   0.000  0.00  0.00    -0.396 NA
ATOM      3  C   UNK     1       2.232   0.656   0.000  0.00  0.00    +0.061 C 
ATOM      4  C   UNK     1       2.164  -0.740   0.000  0.00  0.00    +0.120 C 
ATOM      5  C   UNK     1       0.004  -0.291   0.001  0.00  0.00    +0.196 C 
ATOM      6  C   UNK     1       3.460   1.339  -0.001  0.00  0.00    +0.045 C 
ATOM      7  C   UNK     1       3.368  -1.477   0.001  0.00  0.00    +0.089 C 
ATOM      8  C   UNK     1       4.636   0.585   0.000  0.00  0.00    +0.130 C 
ATOM      9  C   UNK     1       4.594  -0.805   0.001  0.00  0.00    +0.018 C 
ENDROOT
BRANCH   5  12
ATOM     10  S   UNK     1      -2.023  -2.122  -0.001  0.00  0.00    -0.071 S 
ATOM     11  N   UNK     1      -2.275   0.450   0.001  0.00  0.00    -0.389 NA
ATOM     12  C   UNK     1      -1.394  -0.526   0.001  0.00  0.00    +0.193 C 
ATOM     13  C   UNK     1      -3.544  -0.094   0.001  0.00  0.00    +0.196 C 
ATOM     14  C   UNK     1      -3.609  -1.472  -0.001  0.00  0.00    +0.130 C 
BRANCH  13  16
ATOM     15  O   UNK     1      -5.888   0.389  -0.002  0.00  0.00    -0.243 OA
ATOM     16  C   UNK     1      -4.698   0.760   0.000  0.00  0.00    +0.365 C 
BRANCH  16  17
ATOM     17  O   UNK     1      -4.383   2.092   0.002  0.00  0.00    -0.476 OA
ATOM     18  H   UNK     1      -3.485   2.361   0.003  0.00  0.00    +0.295 HD
ENDBRANCH  16  17
ENDBRANCH  13  16
ENDBRANCH   5  12
BRANCH   8  19
ATOM     19  O   UNK     1       5.841   1.223  -0.002  0.00  0.00    -0.506 OA
ATOM     20  H   UNK     1       5.876   2.160  -0.002  0.00  0.00    +0.292 HD
ENDBRANCH   8  19
TORSDOF 4
