REMARK  Name = 135764867
REMARK  8 active torsions:
REMARK  status: ('A' for Active; 'I' for Inactive)
REMARK    1  A    between atoms: C_2  and  C_24
REMARK    2  A    between atoms: C_8  and  N_13
REMARK    3  A    between atoms: C_9  and  O_11
REMARK    4  A    between atoms: N_13  and  N_14
REMARK    5  A    between atoms: N_14  and  C_15
REMARK    6  A    between atoms: C_17  and  N_23
REMARK    7  A    between atoms: C_24  and  C_25
REMARK    8  A    between atoms: C_25  and  N_26
REMARK                            x       y       z     vdW  Elec       q    Type
REMARK                         _______ _______ _______ _____ _____    ______ ____
ROOT
ATOM      1  N   UNL     1      -4.467   2.305   0.057  0.00  0.00    -0.312 N 
ATOM      2  C   UNL     1      -5.531   0.386  -0.276  0.00  0.00    -0.008 C 
ATOM      3  C   UNL     1      -4.132   0.143  -0.375  0.00  0.00    +0.014 C 
ATOM      4  C   UNL     1      -3.488   1.363  -0.162  0.00  0.00    +0.050 C 
ATOM      5  C   UNL     1      -5.705   1.724  -0.009  0.00  0.00    +0.058 C 
ATOM      6  C   UNL     1      -3.351  -1.002  -0.627  0.00  0.00    +0.039 C 
ATOM      7  C   UNL     1      -2.095   1.496  -0.188  0.00  0.00    +0.036 C 
ATOM      8  C   UNL     1      -1.340   0.347  -0.440  0.00  0.00    +0.124 C 
ATOM      9  C   UNL     1      -1.956  -0.884  -0.655  0.00  0.00    +0.150 C 
ATOM     10  H   UNL     1      -4.301   3.259   0.237  0.00  0.00    +0.152 HD
ENDROOT
BRANCH   9  11
ATOM     11  O   UNL     1      -1.209  -2.000  -0.900  0.00  0.00    -0.504 OA
ATOM     12  H   UNL     1      -1.631  -2.824  -1.045  0.00  0.00    +0.292 HD
ENDBRANCH   9  11
BRANCH   8  13
ATOM     13  N   UNL     1       0.057   0.450  -0.472  0.00  0.00    -0.125 NA
BRANCH  13  14
ATOM     14  N   UNL     1       0.525   0.258   0.674  0.00  0.00    -0.128 NA
BRANCH  14  15
ATOM     15  C   UNL     1       1.926   0.361   0.642  0.00  0.00    +0.091 C 
ATOM     16  C   UNL     1       2.703  -0.770   0.395  0.00  0.00    +0.042 C 
ATOM     17  C   UNL     1       4.094  -0.668   0.364  0.00  0.00    +0.144 C 
ATOM     18  C   UNL     1       2.539   1.595   0.858  0.00  0.00    +0.018 C 
ATOM     19  C   UNL     1       4.708   0.566   0.580  0.00  0.00    +0.024 C 
ATOM     20  C   UNL     1       3.930   1.698   0.827  0.00  0.00    +0.003 C 
BRANCH  17  23
ATOM     21  O   UNL     1       5.156  -2.124  -1.075  0.00  0.00    -0.126 OA
ATOM     22  O   UNL     1       5.234  -2.541   1.079  0.00  0.00    -0.126 OA
ATOM     23  N   UNL     1       4.867  -1.835   0.110  0.00  0.00    +0.058 N 
ENDBRANCH  17  23
ENDBRANCH  14  15
ENDBRANCH  13  14
ENDBRANCH   8  13
BRANCH   2  24
ATOM     24  C   UNL     1      -6.610  -0.611  -0.429  0.00  0.00    +0.004 C 
BRANCH  24  25
ATOM     25  C   UNL     1      -7.204  -1.053   0.922  0.00  0.00    -0.081 C 
BRANCH  25  26
ATOM     26  N   UNL     1      -8.248  -2.059   0.759  0.00  0.00    +0.381 N 
ATOM     27  H   UNL     1      -8.612  -2.322   1.675  0.00  0.00    -0.089 HD
ATOM     28  H   UNL     1      -7.858  -2.881   0.299  0.00  0.00    -0.089 HD
ATOM     29  H   UNL     1      -9.003  -1.676   0.190  0.00  0.00    -0.089 HD
ENDBRANCH  25  26
ENDBRANCH  24  25
ENDBRANCH   2  24
TORSDOF 8
REMARK  Name = 135764867
REMARK  8 active torsions:
REMARK  status: ('A' for Active; 'I' for Inactive)
REMARK    1  A    between atoms: C_2  and  C_24
REMARK    2  A    between atoms: C_8  and  N_13
REMARK    3  A    between atoms: C_9  and  O_11
REMARK    4  A    between atoms: N_13  and  N_14
REMARK    5  A    between atoms: N_14  and  C_15
REMARK    6  A    between atoms: C_17  and  N_23
REMARK    7  A    between atoms: C_24  and  C_25
REMARK    8  A    between atoms: C_25  and  N_26
REMARK                            x       y       z     vdW  Elec       q    Type
REMARK                         _______ _______ _______ _____ _____    ______ ____
ROOT
ATOM      1  N   UNL     1       6.541   0.959  -0.586  0.00  0.00    +0.000 NA
ATOM      2  N   UNL     1       6.951   1.199  -1.624  0.00  0.00    +0.000 NA
ENDROOT
TORSDOF 0
