REMARK  Name = 135789923
REMARK  8 active torsions:
REMARK  status: ('A' for Active; 'I' for Inactive)
REMARK    1  A    between atoms: N_1  and  C_2
REMARK    2  A    between atoms: N_1  and  N_16
REMARK    3  A    between atoms: C_2  and  C_4
REMARK    4  A    between atoms: C_5  and  C_12
REMARK    5  A    between atoms: C_6  and  O_10
REMARK    6  A    between atoms: C_12  and  O_13
REMARK    7  A    between atoms: C_17  and  C_19
REMARK    8  A    between atoms: C_22  and  O_25
REMARK                            x       y       z     vdW  Elec       q    Type
REMARK                         _______ _______ _______ _____ _____    ______ ____
ROOT
ATOM      1  N   UNL     1      -1.346  -2.201  -0.835  0.00  0.00    -0.126 NA
ENDROOT
BRANCH   1   3
ATOM      2  O   UNL     1       1.219  -3.127  -1.055  0.00  0.00    -0.269 OA
ATOM      3  N   UNL     1      -0.272  -1.442  -0.511  0.00  0.00    -0.228 N 
ATOM      4  C   UNL     1       1.013  -1.970  -0.645  0.00  0.00    +0.260 C 
ATOM      5  H   UNL     1      -0.398  -0.522  -0.183  0.00  0.00    +0.171 HD
BRANCH   4   6
ATOM      6  C   UNL     1       2.124  -1.097  -0.301  0.00  0.00    +0.055 C 
ATOM      7  C   UNL     1       1.983   0.287  -0.409  0.00  0.00    +0.008 C 
ATOM      8  C   UNL     1       3.331  -1.642   0.138  0.00  0.00    +0.008 C 
ATOM      9  C   UNL     1       4.254   0.579   0.361  0.00  0.00    +0.139 C 
ATOM     10  C   UNL     1       3.047   1.125  -0.077  0.00  0.00    +0.037 C 
ATOM     11  C   UNL     1       4.395  -0.805   0.469  0.00  0.00    +0.037 C 
BRANCH   9  12
ATOM     12  O   UNL     1       5.293   1.396   0.685  0.00  0.00    -0.471 OA
ATOM     13  C   UNL     1       5.080   2.801   0.551  0.00  0.00    +0.252 C 
ENDBRANCH   9  12
ENDBRANCH   4   6
ENDBRANCH   1   3
BRANCH   1  14
ATOM     14  C   UNL     1      -2.481  -1.604  -0.669  0.00  0.00    +0.141 C 
BRANCH  14  16
ATOM     15  N   UNL     1      -2.735   2.408   0.767  0.00  0.00    -0.245 NA
ATOM     16  C   UNL     1      -2.568  -0.220  -0.171  0.00  0.00    +0.032 C 
ATOM     17  C   UNL     1      -2.661   0.029   1.194  0.00  0.00    +0.026 C 
ATOM     18  C   UNL     1      -2.559   0.843  -1.067  0.00  0.00    +0.144 C 
ATOM     19  C   UNL     1      -2.644   2.126  -0.552  0.00  0.00    +0.093 C 
ATOM     20  C   UNL     1      -2.741   1.349   1.608  0.00  0.00    +0.096 C 
ATOM     21  C   UNL     1      -2.638   3.304  -1.471  0.00  0.00    +0.055 C 
BRANCH  18  22
ATOM     22  O   UNL     1      -2.471   0.631  -2.407  0.00  0.00    -0.505 OA
ATOM     23  H   UNL     1      -2.414  -0.242  -2.741  0.00  0.00    +0.292 HD
ENDBRANCH  18  22
BRANCH  17  24
ATOM     24  C   UNL     1      -2.676  -1.067   2.203  0.00  0.00    +0.165 C 
BRANCH  24  25
ATOM     25  O   UNL     1      -3.949  -1.703   2.193  0.00  0.00    -0.377 OA
ATOM     26  H   UNL     1      -3.959  -2.417   2.849  0.00  0.00    +0.211 HD
ENDBRANCH  24  25
ENDBRANCH  17  24
ENDBRANCH  14  16
ENDBRANCH   1  14
TORSDOF 8
