135764911
  -OEChem-03292013293D

 28 29  0     1  0  0  0  0  0999 V2000
    2.9618    1.2007    1.5807 O   0  0  0  0  0  0  0  0  0  0  0  0
    3.7571   -0.9653   -1.2840 O   0  0  0  0  0  0  0  0  0  0  0  0
   -2.9637   -2.3130   -0.2104 O   0  0  0  0  0  0  0  0  0  0  0  0
    0.5585    0.7589    0.3959 N   0  0  0  0  0  0  0  0  0  0  0  0
   -0.3098   -1.9087    0.2247 N   0  0  0  0  0  0  0  0  0  0  0  0
   -3.3598   -0.0294   -0.2494 N   0  0  0  0  0  0  0  0  0  0  0  0
   -1.6247    1.5379    0.0502 N   0  0  0  0  0  0  0  0  0  0  0  0
   -3.8282    2.2621   -0.2996 N   0  0  0  0  0  0  0  0  0  0  0  0
    2.8445    0.0272    0.7587 C   0  0  2  0  0  0  0  0  0  0  0  0
    3.7090    0.2328   -0.5122 C   0  0  2  0  0  0  0  0  0  0  0  0
    1.4073   -0.2834    0.5220 C   0  0  0  0  0  0  0  0  0  0  0  0
    3.2039    1.3567   -1.4062 C   0  0  0  0  0  0  0  0  0  0  0  0
   -0.7389    0.4570    0.1817 C   0  0  0  0  0  0  0  0  0  0  0  0
   -1.1474   -0.8609    0.1005 C   0  0  0  0  0  0  0  0  0  0  0  0
    0.9813   -1.5919    0.4379 C   0  0  0  0  0  0  0  0  0  0  0  0
   -2.5643   -1.1582   -0.1328 C   0  0  0  0  0  0  0  0  0  0  0  0
   -2.8866    1.2773   -0.1578 C   0  0  0  0  0  0  0  0  0  0  0  0
    3.2791   -0.7950    1.3420 H   0  0  0  0  0  0  0  0  0  0  0  0
    4.7342    0.4710   -0.2035 H   0  0  0  0  0  0  0  0  0  0  0  0
    2.2397    1.1078   -1.8617 H   0  0  0  0  0  0  0  0  0  0  0  0
    3.1086    2.2998   -0.8603 H   0  0  0  0  0  0  0  0  0  0  0  0
    3.8989    1.5157   -2.2386 H   0  0  0  0  0  0  0  0  0  0  0  0
    1.6575   -2.4329    0.5367 H   0  0  0  0  0  0  0  0  0  0  0  0
    3.9059    1.3264    1.7772 H   0  0  0  0  0  0  0  0  0  0  0  0
    4.3421   -0.8033   -2.0437 H   0  0  0  0  0  0  0  0  0  0  0  0
   -4.3532   -0.1654   -0.4123 H   0  0  0  0  0  0  0  0  0  0  0  0
   -3.5745    3.2427   -0.2472 H   0  0  0  0  0  0  0  0  0  0  0  0
   -4.8047    2.0412   -0.4607 H   0  0  0  0  0  0  0  0  0  0  0  0
  1  9  1  0  0  0  0
  1 24  1  0  0  0  0
  2 10  1  0  0  0  0
  2 25  1  0  0  0  0
  3 16  2  0  0  0  0
  4 11  1  0  0  0  0
  4 13  2  0  0  0  0
  5 14  2  0  0  0  0
  5 15  1  0  0  0  0
  6 16  1  0  0  0  0
  6 17  1  0  0  0  0
  6 26  1  0  0  0  0
  7 13  1  0  0  0  0
  7 17  2  0  0  0  0
  8 17  1  0  0  0  0
  8 27  1  0  0  0  0
  8 28  1  0  0  0  0
  9 10  1  0  0  0  0
  9 11  1  0  0  0  0
  9 18  1  0  0  0  0
 10 12  1  0  0  0  0
 10 19  1  0  0  0  0
 11 15  2  0  0  0  0
 12 20  1  0  0  0  0
 12 21  1  0  0  0  0
 12 22  1  0  0  0  0
 13 14  1  0  0  0  0
 14 16  1  0  0  0  0
 15 23  1  0  0  0  0
M  END
> <PUBCHEM_COMPOUND_CID>
135764911

> <PUBCHEM_CONFORMER_RMSD>
0.6

> <PUBCHEM_CONFORMER_DIVERSEORDER>
1
27
9
5
7
21
26
19
25
17
13
15
8
24
28
22
12
11
18
4
20
14
2
16
3
6
10
23

> <PUBCHEM_MMFF94_PARTIAL_CHARGES>
22
1 -0.68
10 0.28
11 0.17
13 0.49
14 0.4
15 0.16
16 0.54
17 0.56
2 -0.68
23 0.15
24 0.4
25 0.4
26 0.37
27 0.4
28 0.4
3 -0.57
4 -0.62
5 -0.62
6 -0.49
7 -0.63
8 -0.85
9 0.42

> <PUBCHEM_EFFECTIVE_ROTOR_COUNT>
2

> <PUBCHEM_PHARMACOPHORE_FEATURES>
11
1 1 acceptor
1 1 donor
1 2 acceptor
1 2 donor
1 3 acceptor
1 5 acceptor
1 6 donor
1 8 donor
3 4 7 13 cation
6 4 5 11 13 14 15 rings
6 6 7 13 14 16 17 rings

> <PUBCHEM_HEAVY_ATOM_COUNT>
17

> <PUBCHEM_ATOM_DEF_STEREO_COUNT>
0

> <PUBCHEM_ATOM_UDEF_STEREO_COUNT>
2

> <PUBCHEM_BOND_DEF_STEREO_COUNT>
0

> <PUBCHEM_BOND_UDEF_STEREO_COUNT>
0

> <PUBCHEM_ISOTOPIC_ATOM_COUNT>
0

> <PUBCHEM_COMPONENT_COUNT>
1

> <PUBCHEM_CACTVS_TAUTO_COUNT>
-1

> <PUBCHEM_CONFORMER_ID>
08179BAF00000001

> <PUBCHEM_MMFF94_ENERGY>
41.8021

> <PUBCHEM_FEATURE_SELFOVERLAP>
55.913

> <PUBCHEM_SHAPE_FINGERPRINT>
10498660 4 18335417963073108612
10608611 8 18271516580723354672
10646746 165 18341041986919307408
10922523 26 18202283636478640566
11132069 177 18408878538253335505
11206711 2 18339072791542609071
12173636 292 18410287017201700181
12186901 62 18341342140392251351
13296908 3 17632576088755992218
13380535 21 18339645534053263179
15219456 202 17917989516449612336
15775835 57 18260832557458671468
16752209 62 18337946887240812603
16945 1 18264484151628427035
18186145 218 17988928881170800912
20279233 1 17775562048678739914
20510252 161 18271241745897718809
20645476 183 18113903770941504394
20645477 70 16702304542371010452
20871999 31 18339369651081618148
21501502 16 18335692798220225195
22802520 49 18060424594839274978
23402539 116 18409445891360475812
23493267 7 17967822630036077130
23557571 272 18271523208227053512
23559900 14 18272651217426847464
2748010 2 17618495931945636275
474 4 16661779975635043444
4990 188 17917428679208799996
6049 1 17988363775027817432
7364860 26 18125713483533142330
77492 1 17603577552052851936

> <PUBCHEM_SHAPE_MULTIPOLES>
307.34
7.03
2.1
1.01
0.95
0.15
0
-1.99
1.58
-1.75
0.18
1.22
-0.21
-0.05

> <PUBCHEM_SHAPE_SELFOVERLAP>
657.656

> <PUBCHEM_SHAPE_VOLUME>
169.5

> <PUBCHEM_COORDINATE_TYPE>
2
5
10

$$$$
