135775
  -OEChem-03292013323D

 38 38  0     1  0  0  0  0  0999 V2000
   -0.9792   -0.4077   -2.4246 O   0  0  0  0  0  0  0  0  0  0  0  0
   -3.5154    1.7063    2.1051 O   0  0  0  0  0  0  0  0  0  0  0  0
   -1.9263   -2.9790    1.1859 O   0  0  0  0  0  0  0  0  0  0  0  0
   -3.9584    0.2988    0.3677 O   0  0  0  0  0  0  0  0  0  0  0  0
   -2.2783   -2.2824   -0.9449 O   0  0  0  0  0  0  0  0  0  0  0  0
   -1.2746    0.2144   -0.1730 N   0  0  0  0  0  0  0  0  0  0  0  0
    3.9485    0.5568    0.4345 N   0  0  0  0  0  0  0  0  0  0  0  0
    6.1141    1.3818    0.4496 N   0  0  0  0  0  0  0  0  0  0  0  0
    5.8203   -0.7393   -0.3312 N   0  0  0  0  0  0  0  0  0  0  0  0
   -1.7925    1.3543    0.5489 C   0  0  1  0  0  0  0  0  0  0  0  0
   -0.8160   -0.9807    0.5068 C   0  0  2  0  0  0  0  0  0  0  0  0
   -1.7396    2.4725   -0.4773 C   0  0  0  0  0  0  0  0  0  0  0  0
   -1.8816    1.7582   -1.8200 C   0  0  0  0  0  0  0  0  0  0  0  0
   -1.3077    0.3865   -1.5558 C   0  0  0  0  0  0  0  0  0  0  0  0
    0.6462   -1.3113    0.1951 C   0  0  0  0  0  0  0  0  0  0  0  0
    1.6277   -0.1740    0.5020 C   0  0  0  0  0  0  0  0  0  0  0  0
   -3.1968    1.0437    0.9663 C   0  0  0  0  0  0  0  0  0  0  0  0
   -1.7539   -2.1181    0.1490 C   0  0  0  0  0  0  0  0  0  0  0  0
    3.0543   -0.5609    0.1272 C   0  0  0  0  0  0  0  0  0  0  0  0
    5.2092    0.3801    0.1886 C   0  0  0  0  0  0  0  0  0  0  0  0
   -1.1599    1.5581    1.4190 H   0  0  0  0  0  0  0  0  0  0  0  0
   -0.9160   -0.7958    1.5843 H   0  0  0  0  0  0  0  0  0  0  0  0
   -0.7584    2.9622   -0.4360 H   0  0  0  0  0  0  0  0  0  0  0  0
   -2.5055    3.2414   -0.3364 H   0  0  0  0  0  0  0  0  0  0  0  0
   -1.3260    2.2686   -2.6105 H   0  0  0  0  0  0  0  0  0  0  0  0
   -2.9316    1.6515   -2.1093 H   0  0  0  0  0  0  0  0  0  0  0  0
    0.9360   -2.2005    0.7703 H   0  0  0  0  0  0  0  0  0  0  0  0
    0.7476   -1.5982   -0.8593 H   0  0  0  0  0  0  0  0  0  0  0  0
    1.5778    0.0786    1.5683 H   0  0  0  0  0  0  0  0  0  0  0  0
    1.3494    0.7317   -0.0495 H   0  0  0  0  0  0  0  0  0  0  0  0
    3.0962   -0.7966   -0.9431 H   0  0  0  0  0  0  0  0  0  0  0  0
    3.3469   -1.4515    0.6966 H   0  0  0  0  0  0  0  0  0  0  0  0
   -4.4332    1.5167    2.3946 H   0  0  0  0  0  0  0  0  0  0  0  0
   -2.5196   -3.7232    0.9480 H   0  0  0  0  0  0  0  0  0  0  0  0
    5.8146    2.2706    0.8357 H   0  0  0  0  0  0  0  0  0  0  0  0
    7.1041    1.2640    0.2636 H   0  0  0  0  0  0  0  0  0  0  0  0
    6.8230   -0.7645   -0.4822 H   0  0  0  0  0  0  0  0  0  0  0  0
    5.3001   -1.5724   -0.5824 H   0  0  0  0  0  0  0  0  0  0  0  0
  1 14  2  0  0  0  0
  2 17  1  0  0  0  0
  2 33  1  0  0  0  0
  3 18  1  0  0  0  0
  3 34  1  0  0  0  0
  4 17  2  0  0  0  0
  5 18  2  0  0  0  0
  6 10  1  0  0  0  0
  6 11  1  0  0  0  0
  6 14  1  0  0  0  0
  7 19  1  0  0  0  0
  7 20  2  0  0  0  0
  8 20  1  0  0  0  0
  8 35  1  0  0  0  0
  8 36  1  0  0  0  0
  9 20  1  0  0  0  0
  9 37  1  0  0  0  0
  9 38  1  0  0  0  0
 10 12  1  0  0  0  0
 10 17  1  0  0  0  0
 10 21  1  0  0  0  0
 11 15  1  0  0  0  0
 11 18  1  0  0  0  0
 11 22  1  0  0  0  0
 12 13  1  0  0  0  0
 12 23  1  0  0  0  0
 12 24  1  0  0  0  0
 13 14  1  0  0  0  0
 13 25  1  0  0  0  0
 13 26  1  0  0  0  0
 15 16  1  0  0  0  0
 15 27  1  0  0  0  0
 15 28  1  0  0  0  0
 16 19  1  0  0  0  0
 16 29  1  0  0  0  0
 16 30  1  0  0  0  0
 19 31  1  0  0  0  0
 19 32  1  0  0  0  0
M  END
> <PUBCHEM_COMPOUND_CID>
135775

> <PUBCHEM_CONFORMER_RMSD>
0.8

> <PUBCHEM_CONFORMER_DIVERSEORDER>
1
69
61
27
37
87
75
22
105
51
45
24
114
59
60
99
88
62
73
50
6
2
89
90
110
54
79
74
109
63
44
96
14
25
112
107
7
31
93
49
43
29
76
8
53
47
33
83
55
20
17
77
3
111
30
56
82
71
85
108
52
104
34
102
84
36
66
41
72
16
86
80
116
23
94
18
106
40
58
97
91
5
78
57
64
113
21
46
68
10
48
103
26
39
11
92
28
101
95
42
65
70
12
67
4
9
32
15
115
100
38
19
81
98
35
13

> <PUBCHEM_MMFF94_PARTIAL_CHARGES>
23
1 -0.57
10 0.36
11 0.36
13 0.06
14 0.57
17 0.66
18 0.66
19 0.25
2 -0.65
20 0.55
3 -0.65
33 0.5
34 0.5
35 0.4
36 0.4
37 0.4
38 0.4
4 -0.57
5 -0.57
6 -0.66
7 -0.7
8 -0.85
9 -0.85

> <PUBCHEM_EFFECTIVE_ROTOR_COUNT>
7.8

> <PUBCHEM_PHARMACOPHORE_FEATURES>
11
1 1 acceptor
1 2 acceptor
1 3 acceptor
1 4 acceptor
1 5 acceptor
1 8 donor
1 9 donor
3 2 4 17 anion
3 3 5 18 anion
4 7 8 9 20 cation
5 6 10 12 13 14 rings

> <PUBCHEM_HEAVY_ATOM_COUNT>
20

> <PUBCHEM_ATOM_DEF_STEREO_COUNT>
2

> <PUBCHEM_ATOM_UDEF_STEREO_COUNT>
0

> <PUBCHEM_BOND_DEF_STEREO_COUNT>
0

> <PUBCHEM_BOND_UDEF_STEREO_COUNT>
0

> <PUBCHEM_ISOTOPIC_ATOM_COUNT>
0

> <PUBCHEM_COMPONENT_COUNT>
1

> <PUBCHEM_CACTVS_TAUTO_COUNT>
4

> <PUBCHEM_CONFORMER_ID>
0002125F00000001

> <PUBCHEM_MMFF94_ENERGY>
43.3024

> <PUBCHEM_FEATURE_SELFOVERLAP>
55.998

> <PUBCHEM_SHAPE_FINGERPRINT>
10680689 15 17894629254099369714
11405975 8 18411417281497279778
12173636 292 18337107869690090430
12403814 3 17822010899992975089
13583140 156 16443334356899605744
14142880 1 18411136952538001251
15534591 1 17845931831932547521
16945 1 17751100036890852483
20645477 56 18334297526912876718
21202864 24 18336555962187381499
21623110 236 17898291851617174340
21756936 100 18059853913892207616
22224240 67 18340218393092264585
2306618 200 17531513369524711510
23227448 37 18410293635678160044
23419403 2 17759220174890634631
23557571 272 18341618165477592774
27216 239 17749385914952915268
347723 3 11312054327630890873
81228 2 18335980969235618659

> <PUBCHEM_SHAPE_MULTIPOLES>
362.32
9.62
2.53
1.55
22.12
1
0.5
-3.21
-2.32
-2.43
-0.13
-1.75
-0.44
0.03

> <PUBCHEM_SHAPE_SELFOVERLAP>
735.647

> <PUBCHEM_SHAPE_VOLUME>
208.8

> <PUBCHEM_COORDINATE_TYPE>
2
5
10

$$$$
