REMARK  Name = 135742509
REMARK  5 active torsions:
REMARK  status: ('A' for Active; 'I' for Inactive)
REMARK    1  A    between atoms: N_2  and  C_18
REMARK    2  A    between atoms: C_16  and  O_20
REMARK    3  A    between atoms: C_17  and  O_22
REMARK    4  A    between atoms: C_19  and  C_24
REMARK    5  A    between atoms: C_24  and  O_25
REMARK                            x       y       z     vdW  Elec       q    Type
REMARK                         _______ _______ _______ _____ _____    ______ ____
ROOT
ATOM      1  O   UNL     1       4.417  -1.697  -1.182  0.00  0.00    -0.268 OA
ATOM      2  N   UNL     1       0.310  -0.407   0.191  0.00  0.00    -0.237 N 
ATOM      3  N   UNL     1       1.477  -1.988  -0.877  0.00  0.00    -0.240 NA
ATOM      4  N   UNL     1       2.083   1.136   0.772  0.00  0.00    -0.357 NA
ATOM      5  N   UNL     1       4.190   0.316  -0.021  0.00  0.00    -0.243 N 
ATOM      6  N   UNL     1       4.055   2.359   1.142  0.00  0.00    -0.321 N 
ATOM      7  C   UNL     1       1.612   0.000   0.212  0.00  0.00    +0.211 C 
ATOM      8  C   UNL     1       0.280  -1.608  -0.475  0.00  0.00    +0.224 C 
ATOM      9  C   UNL     1       2.300  -0.989  -0.450  0.00  0.00    +0.176 C 
ATOM     10  C   UNL     1       3.723  -0.868  -0.608  0.00  0.00    +0.273 C 
ATOM     11  C   UNL     1       3.385   1.273   0.642  0.00  0.00    +0.239 C 
ATOM     12  H   UNL     1       5.157   0.496  -0.073  0.00  0.00    +0.159 HD
ATOM     13  H   UNL     1       3.561   3.067   1.616  0.00  0.00    +0.146 HD
ATOM     14  H   UNL     1       5.030   2.431   1.027  0.00  0.00    +0.146 HD
ENDROOT
BRANCH   2  18
ATOM     15  O   UNL     1      -1.877  -0.629   1.246  0.00  0.00    -0.333 OA
ATOM     16  C   UNL     1      -2.781   0.420  -0.651  0.00  0.00    +0.176 C 
ATOM     17  C   UNL     1      -1.577   1.236  -0.222  0.00  0.00    +0.187 C 
ATOM     18  C   UNL     1      -0.882   0.312   0.782  0.00  0.00    +0.226 C 
ATOM     19  C   UNL     1      -3.136  -0.318   0.627  0.00  0.00    +0.176 C 
BRANCH  16  20
ATOM     20  O   UNL     1      -3.852   1.206  -1.127  0.00  0.00    -0.348 OA
ATOM     21  C   UNL     1      -3.639   1.608  -2.471  0.00  0.00    +0.174 C 
ENDBRANCH  16  20
BRANCH  17  22
ATOM     22  O   UNL     1      -1.977   2.437   0.438  0.00  0.00    -0.378 OA
ATOM     23  H   UNL     1      -2.418   3.024  -0.197  0.00  0.00    +0.211 HD
ENDBRANCH  17  22
BRANCH  19  24
ATOM     24  C   UNL     1      -3.922  -1.595   0.390  0.00  0.00    +0.169 C 
BRANCH  24  25
ATOM     25  O   UNL     1      -4.188  -2.203   1.642  0.00  0.00    -0.379 OA
ATOM     26  H   UNL     1      -4.690  -3.021   1.504  0.00  0.00    +0.211 HD
ENDBRANCH  24  25
ENDBRANCH  19  24
ENDBRANCH   2  18
TORSDOF 5
