REMARK  Name = 135764860
REMARK  7 active torsions:
REMARK  status: ('A' for Active; 'I' for Inactive)
REMARK    1  A    between atoms: N_2  and  C_15
REMARK    2  A    between atoms: C_15  and  C_17
REMARK    3  A    between atoms: C_15  and  O_18
REMARK    4  A    between atoms: O_18  and  C_19
REMARK    5  A    between atoms: C_19  and  C_21
REMARK    6  A    between atoms: C_19  and  C_22
REMARK    7  A    between atoms: C_22  and  O_23
REMARK                            x       y       z     vdW  Elec       q    Type
REMARK                         _______ _______ _______ _____ _____    ______ ____
ROOT
ATOM      1  O   UNL     1      -4.322   1.505   0.203  0.00  0.00    -0.268 OA
ATOM      2  N   UNL     1      -0.062   0.265   1.054  0.00  0.00    -0.232 N 
ATOM      3  N   UNL     1      -1.690   1.711   1.564  0.00  0.00    -0.240 NA
ATOM      4  N   UNL     1      -1.177  -1.090  -0.613  0.00  0.00    -0.357 NA
ATOM      5  N   UNL     1      -3.418  -0.311  -0.952  0.00  0.00    -0.243 N 
ATOM      6  N   UNL     1      -2.588  -2.152  -2.163  0.00  0.00    -0.321 N 
ATOM      7  C   UNL     1      -1.131  -0.076   0.279  0.00  0.00    +0.212 C 
ATOM      8  C   UNL     1      -2.111   0.827   0.615  0.00  0.00    +0.176 C 
ATOM      9  C   UNL     1      -0.447   1.346   1.809  0.00  0.00    +0.224 C 
ATOM     10  C   UNL     1      -3.392   0.746  -0.031  0.00  0.00    +0.273 C 
ATOM     11  C   UNL     1      -2.340  -1.188  -1.221  0.00  0.00    +0.239 C 
ATOM     12  H   UNL     1      -4.254  -0.455  -1.452  0.00  0.00    +0.159 HD
ATOM     13  H   UNL     1      -1.885  -2.799  -2.402  0.00  0.00    +0.146 HD
ATOM     14  H   UNL     1      -3.469  -2.199  -2.599  0.00  0.00    +0.146 HD
ENDROOT
BRANCH   2  15
ATOM     15  C   UNL     1       1.232  -0.374   1.085  0.00  0.00    +0.263 C 
BRANCH  15  17
ATOM     16  O   UNL     1       1.427  -2.787   0.876  0.00  0.00    -0.284 OA
ATOM     17  C   UNL     1       1.103  -1.812   1.547  0.00  0.00    +0.258 C 
ENDBRANCH  15  17
BRANCH  15  18
ATOM     18  O   UNL     1       1.833  -0.386  -0.207  0.00  0.00    -0.323 OA
BRANCH  18  19
ATOM     19  C   UNL     1       2.698   0.721  -0.425  0.00  0.00    +0.211 C 
BRANCH  19  21
ATOM     20  O   UNL     1       4.395  -0.719   0.543  0.00  0.00    -0.286 OA
ATOM     21  C   UNL     1       4.088   0.367   0.061  0.00  0.00    +0.239 C 
ENDBRANCH  19  21
BRANCH  19  22
ATOM     22  C   UNL     1       2.724   1.038  -1.913  0.00  0.00    +0.175 C 
BRANCH  22  23
ATOM     23  O   UNL     1       3.181   2.368  -2.112  0.00  0.00    -0.379 OA
ATOM     24  H   UNL     1       3.195   2.565  -3.062  0.00  0.00    +0.211 HD
ENDBRANCH  22  23
ENDBRANCH  19  22
ENDBRANCH  18  19
ENDBRANCH  15  18
ENDBRANCH   2  15
TORSDOF 7
