REMARK  Name = 135784
REMARK  7 active torsions:
REMARK  status: ('A' for Active; 'I' for Inactive)
REMARK    1  A    between atoms: C_1  and  N_6
REMARK    2  A    between atoms: C_1  and  C_16
REMARK    3  A    between atoms: C_1  and  C_26
REMARK    4  A    between atoms: N_7  and  C_14
REMARK    5  A    between atoms: C_21  and  O_22
REMARK    6  A    between atoms: N_25  and  C_30
REMARK    7  A    between atoms: N_29  and  S_33
REMARK                            x       y       z     vdW  Elec       q    Type
REMARK                         _______ _______ _______ _____ _____    ______ ____
ROOT
ATOM      1  C   UNL     1      -0.058   0.473  -0.697  0.00  0.00    +0.173 C 
ENDROOT
BRANCH   1   6
ATOM      2  O   UNL     1       1.645  -1.417  -1.943  0.00  0.00    -0.252 OA
ATOM      3  O   UNL     1       3.510   0.913   1.042  0.00  0.00    -0.264 OA
ATOM      4  O   UNL     1       6.128   0.971   1.023  0.00  0.00    -0.265 OA
ATOM      5  N   UNL     1       3.486  -0.709  -0.675  0.00  0.00    -0.205 N 
ATOM      6  N   UNL     1       1.346   0.278  -0.417  0.00  0.00    -0.279 N 
ATOM      7  N   UNL     1       6.180  -1.165   0.086  0.00  0.00    -0.271 N 
ATOM      8  C   UNL     1       4.364  -1.587  -1.446  0.00  0.00    +0.124 C 
ATOM      9  C   UNL     1       5.404  -2.214  -0.545  0.00  0.00    +0.116 C 
ATOM     10  C   UNL     1       2.116  -0.676  -1.075  0.00  0.00    +0.311 C 
ATOM     11  C   UNL     1       4.079   0.112   0.308  0.00  0.00    +0.310 C 
ATOM     12  C   UNL     1       5.575   0.011   0.498  0.00  0.00    +0.303 C 
ATOM     13  H   UNL     1       1.775   0.841   0.267  0.00  0.00    +0.152 HD
BRANCH   7  14
ATOM     14  C   UNL     1       7.587  -1.424   0.346  0.00  0.00    +0.094 C 
ATOM     15  C   UNL     1       7.785  -2.127   1.672  0.00  0.00    +0.023 C 
ENDBRANCH   7  14
ENDBRANCH   1   6
BRANCH   1  16
ATOM     16  C   UNL     1      -0.485   1.903  -0.462  0.00  0.00    +0.005 C 
ATOM     17  C   UNL     1      -0.959   2.673  -1.524  0.00  0.00    +0.001 C 
ATOM     18  C   UNL     1      -0.407   2.452   0.818  0.00  0.00    +0.001 C 
ATOM     19  C   UNL     1      -1.355   3.993  -1.306  0.00  0.00    +0.036 C 
ATOM     20  C   UNL     1      -0.802   3.772   1.035  0.00  0.00    +0.036 C 
ATOM     21  C   UNL     1      -1.276   4.542  -0.027  0.00  0.00    +0.134 C 
BRANCH  21  22
ATOM     22  O   UNL     1      -1.662   5.830   0.185  0.00  0.00    -0.506 OA
ATOM     23  H   UNL     1      -1.980   6.347  -0.528  0.00  0.00    +0.292 HD
ENDBRANCH  21  22
ENDBRANCH   1  16
BRANCH   1  26
ATOM     24  O   UNL     1      -0.526  -0.817   1.303  0.00  0.00    -0.273 OA
ATOM     25  N   UNL     1      -2.000  -0.957  -0.481  0.00  0.00    -0.295 N 
ATOM     26  C   UNL     1      -0.853  -0.504   0.159  0.00  0.00    +0.245 C 
ATOM     27  H   UNL     1      -2.181  -0.653  -1.400  0.00  0.00    +0.150 HD
BRANCH  25  30
ATOM     28  O   UNL     1      -4.690  -2.279  -1.736  0.00  0.00    -0.271 OA
ATOM     29  N   UNL     1      -5.028  -1.745   0.554  0.00  0.00    -0.154 N 
ATOM     30  C   UNL     1      -2.956  -1.876   0.163  0.00  0.00    +0.172 C 
ATOM     31  C   UNL     1      -3.834  -1.221   1.251  0.00  0.00    +0.148 C 
ATOM     32  C   UNL     1      -4.298  -2.057  -0.614  0.00  0.00    +0.264 C 
BRANCH  29  33
ATOM     33  S   UNL     1      -6.643  -1.281   0.655  0.00  0.00    +0.096 S 
ATOM     34  O   UNL     1      -7.471  -2.539   0.012  0.00  0.00    -0.050 OA
ATOM     35  O   UNL     1      -6.869  -0.135  -0.220  0.00  0.00    -0.050 OA
ATOM     36  O   UNL     1      -7.031  -1.191   2.060  0.00  0.00    -0.050 OA
ENDBRANCH  29  33
ENDBRANCH  25  30
ENDBRANCH   1  26
TORSDOF 7
