REMARK  Name = 135764862
REMARK  10 active torsions:
REMARK  status: ('A' for Active; 'I' for Inactive)
REMARK    1  A    between atoms: C_1  and  N_3
REMARK    2  A    between atoms: C_1  and  C_14
REMARK    3  A    between atoms: C_1  and  O_15
REMARK    4  A    between atoms: O_15  and  C_16
REMARK    5  A    between atoms: C_16  and  C_18
REMARK    6  A    between atoms: C_16  and  C_19
REMARK    7  A    between atoms: C_19  and  O_20
REMARK    8  A    between atoms: O_20  and  P_21
REMARK    9  A    between atoms: P_21  and  O_23
REMARK   10  A    between atoms: P_21  and  O_25
REMARK                            x       y       z     vdW  Elec       q    Type
REMARK                         _______ _______ _______ _____ _____    ______ ____
ROOT
ATOM      1  C   UNL     1      -0.576  -1.884   0.468  0.00  0.00    +0.262 C 
ENDROOT
BRANCH   1   3
ATOM      2  O   UNL     1      -4.337   2.703   0.650  0.00  0.00    -0.268 OA
ATOM      3  N   UNL     1      -1.472  -0.795   0.773  0.00  0.00    -0.243 N 
ATOM      4  N   UNL     1      -2.669   0.645   1.998  0.00  0.00    -0.241 NA
ATOM      5  N   UNL     1      -2.050  -0.060  -1.463  0.00  0.00    -0.232 NA
ATOM      6  N   UNL     1      -3.574   1.797  -1.362  0.00  0.00    -0.279 N 
ATOM      7  C   UNL     1      -2.123   0.010  -0.114  0.00  0.00    +0.154 C 
ATOM      8  C   UNL     1      -2.847   0.882   0.666  0.00  0.00    +0.162 C 
ATOM      9  C   UNL     1      -1.833  -0.374   2.030  0.00  0.00    +0.223 C 
ATOM     10  C   UNL     1      -3.664   1.886   0.034  0.00  0.00    +0.267 C 
ATOM     11  C   UNL     1      -2.789   0.849  -2.029  0.00  0.00    +0.220 C 
ATOM     12  H   UNL     1      -4.092   2.436  -1.903  0.00  0.00    +0.152 HD
ENDBRANCH   1   3
BRANCH   1  14
ATOM     13  O   UNL     1      -1.003  -3.347  -1.424  0.00  0.00    -0.284 OA
ATOM     14  C   UNL     1      -1.303  -2.973  -0.294  0.00  0.00    +0.258 C 
ENDBRANCH   1  14
BRANCH   1  15
ATOM     15  O   UNL     1       0.514  -1.444  -0.338  0.00  0.00    -0.323 OA
BRANCH  15  16
ATOM     16  C   UNL     1       1.659  -1.086   0.425  0.00  0.00    +0.212 C 
BRANCH  16  18
ATOM     17  O   UNL     1       2.245  -3.431   0.202  0.00  0.00    -0.286 OA
ATOM     18  C   UNL     1       2.512  -2.318   0.645  0.00  0.00    +0.239 C 
ENDBRANCH  16  18
BRANCH  16  19
ATOM     19  C   UNL     1       2.444  -0.028  -0.334  0.00  0.00    +0.191 C 
BRANCH  19  20
ATOM     20  O   UNL     1       3.299   0.669   0.561  0.00  0.00    -0.270 OA
BRANCH  20  21
ATOM     21  P   UNL     1       4.235   1.848  -0.031  0.00  0.00    +0.473 P 
ATOM     22  O   UNL     1       5.107   2.534   0.979  0.00  0.00    -0.227 OA
BRANCH  21  23
ATOM     23  O   UNL     1       3.195   2.809  -0.813  0.00  0.00    -0.303 OA
ATOM     24  H   UNL     1       2.677   2.281  -1.441  0.00  0.00    +0.222 HD
ENDBRANCH  21  23
BRANCH  21  25
ATOM     25  O   UNL     1       5.029   1.107  -1.229  0.00  0.00    -0.303 OA
ATOM     26  H   UNL     1       4.392   0.693  -1.832  0.00  0.00    +0.222 HD
ENDBRANCH  21  25
ENDBRANCH  20  21
ENDBRANCH  19  20
ENDBRANCH  16  19
ENDBRANCH  15  16
ENDBRANCH   1  15
TORSDOF 10
