135764598
  -OEChem-03292013293D

 41 43  0     1  0  0  0  0  0999 V2000
    2.4628    0.0108   -1.1564 O   0  0  0  0  0  0  0  0  0  0  0  0
    1.5243    2.0286    1.6544 O   0  0  0  0  0  0  0  0  0  0  0  0
    3.8689    2.2323    0.2784 O   0  0  0  0  0  0  0  0  0  0  0  0
    4.0162   -2.3222   -1.0487 O   0  0  0  0  0  0  0  0  0  0  0  0
   -4.1733   -1.2334    0.0750 O   0  0  0  0  0  0  0  0  0  0  0  0
    0.2200   -0.0132   -0.3895 N   0  0  3  0  0  0  0  0  0  0  0  0
   -1.2449   -1.7351   -0.1213 N   0  0  3  0  0  0  0  0  0  0  0  0
   -1.4887    1.8281   -0.3890 N   0  0  0  0  0  0  0  0  0  0  0  0
   -3.7018    1.0249   -0.1417 N   0  0  0  0  0  0  0  0  0  0  0  0
   -3.2973    3.3199   -0.3489 N   0  0  0  0  0  0  0  0  0  0  0  0
    1.4603    0.7198   -0.4056 C   0  0  1  0  0  0  0  0  0  0  0  0
    2.0106    0.8720    1.0036 C   0  0  1  0  0  0  0  0  0  0  0  0
    3.5031    0.9384    0.7572 C   0  0  1  0  0  0  0  0  0  0  0  0
    3.6814   -0.0519   -0.3845 C   0  0  1  0  0  0  0  0  0  0  0  0
    0.1950   -1.4753   -0.2291 C   0  0  0  0  0  0  0  0  0  0  0  0
   -1.0798    0.5182   -0.3260 C   0  0  0  0  0  0  0  0  0  0  0  0
   -1.9210   -0.5284   -0.1738 C   0  0  0  0  0  0  0  0  0  0  0  0
    3.8714   -1.4876    0.0869 C   0  0  0  0  0  0  0  0  0  0  0  0
   -1.7598   -3.0632    0.0737 C   0  0  0  0  0  0  0  0  0  0  0  0
   -3.3703   -0.3203   -0.0657 C   0  0  0  0  0  0  0  0  0  0  0  0
   -2.0041   -3.3172    1.5488 C   0  0  0  0  0  0  0  0  0  0  0  0
   -2.7731    2.0549   -0.2978 C   0  0  0  0  0  0  0  0  0  0  0  0
    1.3180    1.6943   -0.8884 H   0  0  0  0  0  0  0  0  0  0  0  0
    1.7747    0.0045    1.6301 H   0  0  0  0  0  0  0  0  0  0  0  0
    4.1020    0.7258    1.6473 H   0  0  0  0  0  0  0  0  0  0  0  0
    4.4966    0.2288   -1.0610 H   0  0  0  0  0  0  0  0  0  0  0  0
    0.7050   -1.7942    0.6841 H   0  0  0  0  0  0  0  0  0  0  0  0
    0.6181   -1.9773   -1.1052 H   0  0  0  0  0  0  0  0  0  0  0  0
    4.7736   -1.5751    0.7005 H   0  0  0  0  0  0  0  0  0  0  0  0
    3.0158   -1.8505    0.6611 H   0  0  0  0  0  0  0  0  0  0  0  0
   -2.6822   -3.2137   -0.4973 H   0  0  0  0  0  0  0  0  0  0  0  0
   -1.0430   -3.8019   -0.3042 H   0  0  0  0  0  0  0  0  0  0  0  0
    2.0053    2.1149    2.4951 H   0  0  0  0  0  0  0  0  0  0  0  0
    4.8245    2.2161    0.0987 H   0  0  0  0  0  0  0  0  0  0  0  0
   -1.0782   -3.2136    2.1247 H   0  0  0  0  0  0  0  0  0  0  0  0
   -2.7340   -2.6163    1.9658 H   0  0  0  0  0  0  0  0  0  0  0  0
   -2.3851   -4.3320    1.7004 H   0  0  0  0  0  0  0  0  0  0  0  0
   -4.6842    1.2750   -0.0774 H   0  0  0  0  0  0  0  0  0  0  0  0
    4.1436   -3.2297   -0.7234 H   0  0  0  0  0  0  0  0  0  0  0  0
   -2.6997    4.1317   -0.4604 H   0  0  0  0  0  0  0  0  0  0  0  0
   -4.2957    3.4822   -0.2768 H   0  0  0  0  0  0  0  0  0  0  0  0
  1 11  1  0  0  0  0
  1 14  1  0  0  0  0
  2 12  1  0  0  0  0
  2 33  1  0  0  0  0
  3 13  1  0  0  0  0
  3 34  1  0  0  0  0
  4 18  1  0  0  0  0
  4 39  1  0  0  0  0
  5 20  2  0  0  0  0
  6 11  1  0  0  0  0
  6 15  1  0  0  0  0
  6 16  1  0  0  0  0
  7 15  1  0  0  0  0
  7 17  1  0  0  0  0
  7 19  1  0  0  0  0
  8 16  1  0  0  0  0
  8 22  2  0  0  0  0
  9 20  1  0  0  0  0
  9 22  1  0  0  0  0
  9 38  1  0  0  0  0
 10 22  1  0  0  0  0
 10 40  1  0  0  0  0
 10 41  1  0  0  0  0
 11 12  1  0  0  0  0
 11 23  1  0  0  0  0
 12 13  1  0  0  0  0
 12 24  1  0  0  0  0
 13 14  1  0  0  0  0
 13 25  1  0  0  0  0
 14 18  1  0  0  0  0
 14 26  1  0  0  0  0
 15 27  1  0  0  0  0
 15 28  1  0  0  0  0
 16 17  2  0  0  0  0
 17 20  1  0  0  0  0
 18 29  1  0  0  0  0
 18 30  1  0  0  0  0
 19 21  1  0  0  0  0
 19 31  1  0  0  0  0
 19 32  1  0  0  0  0
 21 35  1  0  0  0  0
 21 36  1  0  0  0  0
 21 37  1  0  0  0  0
M  END
> <PUBCHEM_COMPOUND_CID>
135764598

> <PUBCHEM_CONFORMER_RMSD>
0.8

> <PUBCHEM_CONFORMER_DIVERSEORDER>
1
2
13
3
5
7
9
12
14
10
8
6
4
11

> <PUBCHEM_MMFF94_PARTIAL_CHARGES>
27
1 -0.56
10 -0.85
11 0.65
12 0.28
13 0.28
14 0.28
15 0.74
16 0.27
17 0.11
18 0.28
19 0.37
2 -0.68
20 0.62
22 0.56
3 -0.68
33 0.4
34 0.4
38 0.37
39 0.4
4 -0.68
40 0.4
41 0.4
5 -0.57
6 -0.84
7 -0.84
8 -0.62
9 -0.49

> <PUBCHEM_EFFECTIVE_ROTOR_COUNT>
4.6

> <PUBCHEM_PHARMACOPHORE_FEATURES>
15
1 1 acceptor
1 10 donor
1 2 acceptor
1 2 donor
1 3 acceptor
1 3 donor
1 4 acceptor
1 4 donor
1 5 acceptor
1 6 cation
1 7 cation
1 9 donor
5 1 11 12 13 14 rings
5 6 7 15 16 17 rings
6 8 9 16 17 20 22 rings

> <PUBCHEM_HEAVY_ATOM_COUNT>
22

> <PUBCHEM_ATOM_DEF_STEREO_COUNT>
4

> <PUBCHEM_ATOM_UDEF_STEREO_COUNT>
0

> <PUBCHEM_BOND_DEF_STEREO_COUNT>
0

> <PUBCHEM_BOND_UDEF_STEREO_COUNT>
0

> <PUBCHEM_ISOTOPIC_ATOM_COUNT>
0

> <PUBCHEM_COMPONENT_COUNT>
1

> <PUBCHEM_CACTVS_TAUTO_COUNT>
-1

> <PUBCHEM_CONFORMER_ID>
08179A7600000001

> <PUBCHEM_MMFF94_ENERGY>
73.5923

> <PUBCHEM_FEATURE_SELFOVERLAP>
76.338

> <PUBCHEM_SHAPE_FINGERPRINT>
10366900 7 18128246994456594416
10608611 8 18342171193766481332
10616163 171 18266178516559034246
10646746 165 18411978027335905988
1100329 8 16324851765299925824
12173636 292 18336260163584461501
12403259 226 18342734130961412885
12500047 106 18410007715594537572
12553582 1 17615420589138139934
12788726 201 17679594598957932715
13134695 92 16916207872566798224
13140716 1 17975136749399268737
14178342 30 18189043343574931842
14223421 5 18268706297922481440
14866123 147 16617029431446265454
15042514 8 18262245529434068163
15196674 1 18411980239085580501
15295992 7 18130792269527858779
16752209 62 18187914085008769447
16945 1 18335422421670654679
17804303 29 18411141299097795470
18186145 218 18131075887556443828
19049666 15 18342736329958184370
19591789 44 18337390431304381531
20510252 161 18413388752573570577
20645477 70 17561091315081358230
21524375 3 18267862779446648989
23402539 116 18341040935042833631
23557571 272 18191300692006217976
23558518 356 18335137613393166391
23559900 14 18412261761860877876
2748010 2 17979916334892902695
3084891 72 18053941753896287744
3091708 16 9343270975841175491
350125 39 18337677386938631453
5104073 3 18411982442377352328
59755656 215 18336545998317097839
633830 44 18198893721839896901
7364860 26 17762615088887622271
81228 2 18190452943108989567
8809292 202 18412266112182655166
9709674 26 18412263960652297718
9981440 41 16982321682458957216

> <PUBCHEM_SHAPE_MULTIPOLES>
398.5
7.82
3.52
1.02
3.03
0.88
-0.29
-0.63
0.31
-2.46
-0.64
0.49
0.17
1.61

> <PUBCHEM_SHAPE_SELFOVERLAP>
848.921

> <PUBCHEM_SHAPE_VOLUME>
221.4

> <PUBCHEM_COORDINATE_TYPE>
2
5
10

$$$$
