REMARK  Name = 135764879
REMARK  9 active torsions:
REMARK  status: ('A' for Active; 'I' for Inactive)
REMARK    1  A    between atoms: C_2  and  C_19
REMARK    2  A    between atoms: C_3  and  C_11
REMARK    3  A    between atoms: C_4  and  O_8
REMARK    4  A    between atoms: N_10  and  C_11
REMARK    5  A    between atoms: N_10  and  N_13
REMARK    6  A    between atoms: C_19  and  O_20
REMARK    7  A    between atoms: O_20  and  P_21
REMARK    8  A    between atoms: P_21  and  O_23
REMARK    9  A    between atoms: P_21  and  O_25
REMARK                            x       y       z     vdW  Elec       q    Type
REMARK                         _______ _______ _______ _____ _____    ______ ____
ROOT
ATOM      1  N   UNL     1      -0.714   3.566   0.266  0.00  0.00    -0.245 NA
ATOM      2  C   UNL     1      -1.065   1.181   0.451  0.00  0.00    +0.027 C 
ATOM      3  C   UNL     1       0.242   0.949   0.038  0.00  0.00    +0.032 C 
ATOM      4  C   UNL     1       1.072   2.024  -0.262  0.00  0.00    +0.144 C 
ATOM      5  C   UNL     1       0.550   3.301  -0.133  0.00  0.00    +0.093 C 
ATOM      6  C   UNL     1      -1.491   2.496   0.549  0.00  0.00    +0.097 C 
ATOM      7  C   UNL     1       1.399   4.491  -0.442  0.00  0.00    +0.055 C 
ENDROOT
BRANCH   4   8
ATOM      8  O   UNL     1       2.354   1.830  -0.669  0.00  0.00    -0.505 OA
ATOM      9  H   UNL     1       2.693   0.960  -0.752  0.00  0.00    +0.292 HD
ENDBRANCH   4   8
BRANCH   3  10
ATOM     10  C   UNL     1       0.745  -0.415  -0.083  0.00  0.00    +0.141 C 
BRANCH  10  11
ATOM     11  N   UNL     1       1.997  -0.718   0.100  0.00  0.00    -0.125 NA
BRANCH  11  13
ATOM     12  O   UNL     1       4.538  -1.731   0.408  0.00  0.00    -0.252 OA
ATOM     13  N   UNL     1       2.283  -2.030  -0.052  0.00  0.00    -0.216 N 
ATOM     14  N   UNL     1       3.718  -3.822  -0.069  0.00  0.00    -0.312 N 
ATOM     15  C   UNL     1       3.589  -2.458   0.120  0.00  0.00    +0.312 C 
ATOM     16  H   UNL     1       1.574  -2.673  -0.283  0.00  0.00    +0.172 HD
ATOM     17  H   UNL     1       4.599  -4.251   0.025  0.00  0.00    +0.147 HD
ATOM     18  H   UNL     1       2.929  -4.364  -0.299  0.00  0.00    +0.147 HD
ENDBRANCH  11  13
ENDBRANCH  10  11
ENDBRANCH   3  10
BRANCH   2  19
ATOM     19  C   UNL     1      -2.001   0.071   0.785  0.00  0.00    +0.181 C 
BRANCH  19  20
ATOM     20  O   UNL     1      -2.448  -0.549  -0.415  0.00  0.00    -0.268 OA
BRANCH  20  21
ATOM     21  P   UNL     1      -3.479  -1.788  -0.299  0.00  0.00    +0.473 P 
ATOM     22  O   UNL     1      -3.903  -2.388  -1.608  0.00  0.00    -0.227 OA
BRANCH  21  23
ATOM     23  O   UNL     1      -2.708  -2.802   0.698  0.00  0.00    -0.303 OA
ATOM     24  H   UNL     1      -2.472  -2.335   1.515  0.00  0.00    +0.222 HD
ENDBRANCH  21  23
BRANCH  21  25
ATOM     25  O   UNL     1      -4.679  -1.208   0.617  0.00  0.00    -0.303 OA
ATOM     26  H   UNL     1      -4.312  -0.843   1.437  0.00  0.00    +0.222 HD
ENDBRANCH  21  25
ENDBRANCH  20  21
ENDBRANCH  19  20
ENDBRANCH   2  19
TORSDOF 9
