REMARK  Name = 135718464
REMARK  3 active torsions:
REMARK  status: ('A' for Active; 'I' for Inactive)
REMARK    1  A    between atoms: C_5  and  C_20
REMARK    2  A    between atoms: C_6  and  O_22
REMARK    3  A    between atoms: C_8  and  C_16
REMARK                            x       y       z     vdW  Elec       q    Type
REMARK                         _______ _______ _______ _____ _____    ______ ____
ROOT
ATOM      1  O   UNL     1      -0.973   2.214  -0.115  0.00  0.00    -0.285 OA
ATOM      2  N   UNL     1       1.694   2.554  -0.071  0.00  0.00    -0.295 NA
ATOM      3  C   UNL     1      -0.863  -0.144  -0.012  0.00  0.00    +0.046 C 
ATOM      4  C   UNL     1      -0.007  -1.251   0.046  0.00  0.00    +0.037 C 
ATOM      5  C   UNL     1      -2.256  -0.294  -0.027  0.00  0.00    +0.038 C 
ATOM      6  C   UNL     1       1.466  -1.081   0.060  0.00  0.00    +0.140 C 
ATOM      7  C   UNL     1      -0.287   1.205  -0.058  0.00  0.00    +0.213 C 
ATOM      8  C   UNL     1       2.053   0.134   0.024  0.00  0.00    +0.107 C 
ATOM      9  C   UNL     1       1.206   1.357  -0.036  0.00  0.00    +0.118 C 
ATOM     10  C   UNL     1      -0.598  -2.526   0.089  0.00  0.00    +0.003 C 
ATOM     11  C   UNL     1      -2.816  -1.567   0.015  0.00  0.00    +0.003 C 
ATOM     12  C   UNL     1      -1.988  -2.683   0.074  0.00  0.00    +0.000 C 
ATOM     13  H   UNL     1       1.090   3.331  -0.111  0.00  0.00    +0.187 HD
ENDROOT
BRANCH   8  16
ATOM     14  O   UNL     1       4.088   0.896   0.935  0.00  0.00    -0.270 OA
ATOM     15  N   UNL     1       4.136  -0.338  -1.016  0.00  0.00    -0.325 N 
ATOM     16  C   UNL     1       3.522   0.279   0.043  0.00  0.00    +0.247 C 
ATOM     17  H   UNL     1       5.116  -0.305  -1.104  0.00  0.00    +0.145 HD
ATOM     18  H   UNL     1       3.597  -0.813  -1.689  0.00  0.00    +0.145 HD
ENDBRANCH   8  16
BRANCH   5  20
ATOM     19  O   UNL     1      -3.606   1.263  -1.175  0.00  0.00    -0.291 OA
ATOM     20  C   UNL     1      -3.203   0.814  -0.086  0.00  0.00    +0.174 C 
ATOM     21  C   UNL     1      -3.719   1.448   1.198  0.00  0.00    +0.077 C 
ENDBRANCH   5  20
BRANCH   6  22
ATOM     22  O   UNL     1       2.153  -2.279   0.113  0.00  0.00    -0.505 OA
ATOM     23  H   UNL     1       1.682  -3.089   0.136  0.00  0.00    +0.292 HD
ENDBRANCH   6  22
TORSDOF 3
