REMARK  Name = 135777640
REMARK  11 active torsions:
REMARK  status: ('A' for Active; 'I' for Inactive)
REMARK    1  A    between atoms: C_1  and  N_22
REMARK    2  A    between atoms: C_2  and  C_9
REMARK    3  A    between atoms: N_8  and  CA_11
REMARK    4  A    between atoms: CA_11  and  C_13
REMARK    5  A    between atoms: CA_11  and  CB_16
REMARK    6  A    between atoms: C_13  and  O_14
REMARK    7  A    between atoms: CB_16  and  CG_17
REMARK    8  A    between atoms: CG_17  and  CD_19
REMARK    9  A    between atoms: CD_19  and  OE1_20
REMARK   10  A    between atoms: N_22  and  C_24
REMARK   11  A    between atoms: C_24  and  C_29
REMARK                            x       y       z     vdW  Elec       q    Type
REMARK                         _______ _______ _______ _____ _____    ______ ____
ROOT
ATOM      1  C   UNL     1      -0.803  -2.971  -0.216  0.00  0.00    +0.048 C 
ATOM      2  C   UNL     1       1.871  -2.202  -0.016  0.00  0.00    +0.053 C 
ATOM      3  C   UNL     1       0.139  -3.487  -1.105  0.00  0.00    +0.015 C 
ATOM      4  C   UNL     1      -0.409  -2.071   0.774  0.00  0.00    +0.015 C 
ATOM      5  C   UNL     1       1.476  -3.102  -1.006  0.00  0.00    +0.006 C 
ATOM      6  C   UNL     1       0.928  -1.686   0.874  0.00  0.00    +0.006 C 
ENDROOT
BRANCH   2   9
ATOM      7  O   UNL     1       4.169  -2.548  -0.326  0.00  0.00    -0.270 OA
ATOM      8  N   UNL     1       3.524  -0.542   0.642  0.00  0.00    -0.293 N 
ATOM      9  C   ACE A   0       3.264  -1.800   0.086  0.00  0.00    +0.246 C 
ATOM     10  H   UNL     1       2.760  -0.002   0.949  0.00  0.00    +0.150 HD
BRANCH   8  11
ATOM     11  CA  UNL     1       4.852   0.008   0.790  0.00  0.00    +0.172 C 
BRANCH  11  13
ATOM     12  OXT UNL     1       3.896   1.069   2.763  0.00  0.00    -0.248 OA
ATOM     13  C   UNL     1       4.874   0.816   2.071  0.00  0.00    +0.332 C 
BRANCH  13  14
ATOM     14  O   UNL     1       6.132   1.210   2.401  0.00  0.00    -0.479 OA
ATOM     15  H   UNL     1       6.852   0.995   1.842  0.00  0.00    +0.295 HD
ENDBRANCH  13  14
ENDBRANCH  11  13
BRANCH  11  16
ATOM     16  CB  UNL     1       5.309   0.794  -0.445  0.00  0.00    +0.043 C 
BRANCH  16  17
ATOM     17  CG  UNL     1       4.476   2.033  -0.795  0.00  0.00    +0.112 C 
BRANCH  17  19
ATOM     18  OE2 UNL     1       5.913   2.436  -2.720  0.00  0.00    -0.250 OA
ATOM     19  CD  UNL     1       4.960   2.765  -2.028  0.00  0.00    +0.314 C 
BRANCH  19  20
ATOM     20  OE1 UNL     1       4.226   3.883  -2.267  0.00  0.00    -0.480 OA
ATOM     21  HE1 UNL     1       3.503   4.097  -1.710  0.00  0.00    +0.295 HD
ENDBRANCH  19  20
ENDBRANCH  17  19
ENDBRANCH  16  17
ENDBRANCH  11  16
ENDBRANCH   8  11
ENDBRANCH   2   9
BRANCH   1  22
ATOM     22  N   UNL     1      -2.146  -3.357  -0.315  0.00  0.00    -0.302 N 
ATOM     23  C   UNL     1      -2.566  -4.301  -1.349  0.00  0.00    +0.112 C 
BRANCH  22  24
ATOM     24  C   UNL     1      -3.145  -2.845   0.598  0.00  0.00    +0.117 C 
BRANCH  24  29
ATOM     25  O   UNL     1      -3.307   1.930   2.615  0.00  0.00    -0.270 OA
ATOM     26  N   UNL     1      -4.981   2.285  -1.095  0.00  0.00    -0.377 NA
ATOM     27  N   UNL     1      -4.294   3.202   0.960  0.00  0.00    -0.244 N 
ATOM     28  N   UNL     1      -5.286   4.568  -0.656  0.00  0.00    -0.321 N 
ATOM     29  C   UNL     1      -3.620  -1.498   0.169  0.00  0.00    -0.006 C 
ATOM     30  C   UNL     1      -3.487  -0.406   1.025  0.00  0.00    +0.004 C 
ATOM     31  C   UNL     1      -3.936   0.851   0.611  0.00  0.00    +0.079 C 
ATOM     32  C   UNL     1      -4.197  -1.333  -1.090  0.00  0.00    -0.021 C 
ATOM     33  C   UNL     1      -4.518   1.034  -0.650  0.00  0.00    +0.121 C 
ATOM     34  C   UNL     1      -4.643  -0.073  -1.496  0.00  0.00    +0.085 C 
ATOM     35  C   UNL     1      -3.807   2.023   1.500  0.00  0.00    +0.254 C 
ATOM     36  C   UNL     1      -4.862   3.314  -0.304  0.00  0.00    +0.237 C 
ATOM     37  H   UNL     1      -4.234   4.017   1.509  0.00  0.00    +0.159 HD
ATOM     38  H   UNL     1      -5.698   4.719  -1.537  0.00  0.00    +0.146 HD
ATOM     39  H   UNL     1      -5.178   5.318  -0.028  0.00  0.00    +0.146 HD
ENDBRANCH  24  29
ENDBRANCH  22  24
ENDBRANCH   1  22
TORSDOF 11
