REMARK  Name = 135799
REMARK  12 active torsions:
REMARK  status: ('A' for Active; 'I' for Inactive)
REMARK    1  A    between atoms: C_4  and  C_7
REMARK    2  A    between atoms: C_5  and  C_24
REMARK    3  A    between atoms: C_7  and  N_9
REMARK    4  A    between atoms: N_9  and  C_12
REMARK    5  A    between atoms: C_12  and  C_14
REMARK    6  A    between atoms: C_12  and  C_17
REMARK    7  A    between atoms: C_14  and  C_16
REMARK    8  A    between atoms: C_17  and  C_18
REMARK    9  A    between atoms: C_24  and  N_27
REMARK   10  A    between atoms: C_28  and  O_30
REMARK   11  A    between atoms: O_30  and  C_31
REMARK   12  A    between atoms: C_31  and  C_32
REMARK                            x       y       z     vdW  Elec       q    Type
REMARK                         _______ _______ _______ _____ _____    ______ ____
ROOT
ATOM      1  O   UNL     1       1.093  -0.460   2.093  0.00  0.00    -0.277 OA
ATOM      2  O   UNL     1      -1.126   0.803   0.944  0.00  0.00    -0.273 OA
ATOM      3  N   UNL     1       0.192  -0.861  -0.019  0.00  0.00    -0.256 N 
ATOM      4  C   UNL     1       1.102  -1.062   1.022  0.00  0.00    +0.208 C 
ATOM      5  C   UNL     1      -0.862   0.056   0.005  0.00  0.00    +0.246 C 
ATOM      6  H   UNL     1       0.302  -1.406  -0.832  0.00  0.00    +0.157 HD
ENDROOT
BRANCH   4   7
ATOM      7  C   UNL     1       2.143  -2.119   0.676  0.00  0.00    +0.018 C 
ATOM      8  C   UNL     1       1.706  -3.507   1.128  0.00  0.00    -0.014 C 
BRANCH   7   9
ATOM      9  N   UNL     1       3.372  -1.739   1.367  0.00  0.00    +0.397 N 
ATOM     10  H   UNL     1       3.139  -1.388   2.296  0.00  0.00    -0.083 HD
ATOM     11  H   UNL     1       3.974  -2.559   1.438  0.00  0.00    -0.083 HD
BRANCH   9  12
ATOM     12  C   UNL     1       4.080  -0.703   0.630  0.00  0.00    +0.004 C 
BRANCH  12  14
ATOM     13  O   UNL     1       5.689  -2.268  -0.269  0.00  0.00    -0.297 OA
ATOM     14  C   UNL     1       4.821  -1.423  -0.493  0.00  0.00    +0.148 C 
BRANCH  14  16
ATOM     15 CL   UNL     1       5.856  -1.306  -2.936  0.00  0.00    -0.105 Cl
ATOM     16  C   UNL     1       4.439  -1.069  -1.908  0.00  0.00    +0.157 C 
ENDBRANCH  14  16
ENDBRANCH  12  14
BRANCH  12  17
ATOM     17  C   UNL     1       5.038   0.049   1.566  0.00  0.00    +0.012 C 
BRANCH  17  18
ATOM     18  C   UNL     1       5.812   1.135   0.855  0.00  0.00    -0.024 C 
ATOM     19  C   UNL     1       5.295   2.429   0.785  0.00  0.00    -0.004 C 
ATOM     20  C   UNL     1       7.044   0.843   0.269  0.00  0.00    -0.004 C 
ATOM     21  C   UNL     1       6.010   3.431   0.129  0.00  0.00    -0.000 C 
ATOM     22  C   UNL     1       7.758   1.846  -0.387  0.00  0.00    -0.000 C 
ATOM     23  C   UNL     1       7.242   3.139  -0.458  0.00  0.00    -0.000 C 
ENDBRANCH  17  18
ENDBRANCH  12  17
ENDBRANCH   9  12
ENDBRANCH   7   9
ENDBRANCH   4   7
BRANCH   5  24
ATOM     24  C   UNL     1      -1.635   0.067  -1.309  0.00  0.00    +0.151 C 
ATOM     25  C   UNL     1      -1.041   1.075  -2.280  0.00  0.00    +0.031 C 
BRANCH  24  27
ATOM     26  O   UNL     1      -3.764  -1.782  -0.614  0.00  0.00    -0.226 OA
ATOM     27  N   UNL     1      -3.011   0.375  -1.020  0.00  0.00    -0.264 N 
ATOM     28  C   UNL     1      -3.962  -0.575  -0.697  0.00  0.00    +0.402 C 
ATOM     29  H   UNL     1      -3.292   1.318  -1.055  0.00  0.00    +0.153 HD
BRANCH  28  30
ATOM     30  O   UNL     1      -5.168   0.031  -0.480  0.00  0.00    -0.430 OA
BRANCH  30  31
ATOM     31  C   UNL     1      -6.250  -0.840  -0.134  0.00  0.00    +0.237 C 
BRANCH  31  32
ATOM     32  C   UNL     1      -7.492  -0.022   0.068  0.00  0.00    +0.021 C 
ATOM     33  C   UNL     1      -7.795   0.484   1.332  0.00  0.00    -0.001 C 
ATOM     34  C   UNL     1      -8.342   0.233  -1.008  0.00  0.00    -0.001 C 
ATOM     35  C   UNL     1      -8.949   1.245   1.520  0.00  0.00    -0.000 C 
ATOM     36  C   UNL     1      -9.496   0.994  -0.820  0.00  0.00    -0.000 C 
ATOM     37  C   UNL     1      -9.799   1.500   0.445  0.00  0.00    -0.000 C 
ENDBRANCH  31  32
ENDBRANCH  30  31
ENDBRANCH  28  30
ENDBRANCH  24  27
ENDBRANCH   5  24
TORSDOF 12
