REMARK  Name = 135783065
REMARK  11 active torsions:
REMARK  status: ('A' for Active; 'I' for Inactive)
REMARK    1  A    between atoms: C_1  and  N_23
REMARK    2  A    between atoms: C_2  and  C_9
REMARK    3  A    between atoms: N_8  and  CA_11
REMARK    4  A    between atoms: CA_11  and  C_13
REMARK    5  A    between atoms: CA_11  and  CB_16
REMARK    6  A    between atoms: C_13  and  O_14
REMARK    7  A    between atoms: CB_16  and  CG_17
REMARK    8  A    between atoms: CG_17  and  CD_19
REMARK    9  A    between atoms: CD_19  and  OE1_20
REMARK   10  A    between atoms: N_23  and  C_26
REMARK   11  A    between atoms: C_26  and  C_31
REMARK                            x       y       z     vdW  Elec       q    Type
REMARK                         _______ _______ _______ _____ _____    ______ ____
ROOT
ATOM      1  C   UNL     1       1.179   2.358   0.026  0.00  0.00    +0.054 C 
ATOM      2  C   UNL     1      -1.478   1.603  -0.363  0.00  0.00    +0.053 C 
ATOM      3  C   UNL     1       0.418   1.905   1.104  0.00  0.00    +0.015 C 
ATOM      4  C   UNL     1       0.612   2.434  -1.246  0.00  0.00    +0.015 C 
ATOM      5  C   UNL     1      -0.911   1.528   0.909  0.00  0.00    +0.006 C 
ATOM      6  C   UNL     1      -0.717   2.057  -1.440  0.00  0.00    +0.006 C 
ENDROOT
BRANCH   2   9
ATOM      7  O   UNL     1      -3.524   1.690  -1.506  0.00  0.00    -0.270 OA
ATOM      8  N   UNL     1      -3.393   0.265   0.319  0.00  0.00    -0.293 N 
ATOM      9  C   ACE A   0      -2.864   1.211  -0.567  0.00  0.00    +0.246 C 
ATOM     10  H   UNL     1      -2.814  -0.073   1.040  0.00  0.00    +0.150 HD
BRANCH   8  11
ATOM     11  CA  UNL     1      -4.743  -0.242   0.233  0.00  0.00    +0.172 C 
BRANCH  11  13
ATOM     12  OXT UNL     1      -5.354   1.327   1.992  0.00  0.00    -0.248 OA
ATOM     13  C   UNL     1      -5.646   0.729   0.964  0.00  0.00    +0.332 C 
BRANCH  13  14
ATOM     14  O   UNL     1      -6.832   0.901   0.323  0.00  0.00    -0.479 OA
ATOM     15  H   UNL     1      -7.014   0.422  -0.461  0.00  0.00    +0.295 HD
ENDBRANCH  13  14
ENDBRANCH  11  13
BRANCH  11  16
ATOM     16  CB  UNL     1      -4.864  -1.690   0.723  0.00  0.00    +0.043 C 
BRANCH  16  17
ATOM     17  CG  UNL     1      -6.258  -2.321   0.607  0.00  0.00    +0.112 C 
BRANCH  17  19
ATOM     18  OE2 UNL     1      -7.799  -1.851  -1.220  0.00  0.00    -0.250 OA
ATOM     19  CD  UNL     1      -6.780  -2.390  -0.812  0.00  0.00    +0.314 C 
BRANCH  19  20
ATOM     20  OE1 UNL     1      -5.993  -3.172  -1.597  0.00  0.00    -0.480 OA
ATOM     21  HE1 UNL     1      -5.221  -3.566  -1.242  0.00  0.00    +0.295 HD
ENDBRANCH  19  20
ENDBRANCH  17  19
ENDBRANCH  16  17
ENDBRANCH  11  16
ENDBRANCH   8  11
ENDBRANCH   2   9
BRANCH   1  23
ATOM     22  O   UNL     1       2.534   4.661  -1.191  0.00  0.00    -0.275 OA
ATOM     23  N   UNL     1       2.572   2.755   0.231  0.00  0.00    -0.254 N 
ATOM     24  C   UNL     1       3.140   3.763  -0.602  0.00  0.00    +0.230 C 
ATOM     25  C   UNL     1       4.646   3.730  -0.722  0.00  0.00    +0.095 C 
BRANCH  23  26
ATOM     26  C   UNL     1       3.280   2.163   1.337  0.00  0.00    +0.124 C 
BRANCH  26  31
ATOM     27  O   UNL     1       5.348  -1.166  -2.060  0.00  0.00    -0.270 OA
ATOM     28  N   UNL     1       3.731  -3.506   0.873  0.00  0.00    -0.377 NA
ATOM     29  N   UNL     1       4.893  -3.241  -1.156  0.00  0.00    -0.244 N 
ATOM     30  N   UNL     1       4.477  -5.382  -0.319  0.00  0.00    -0.321 N 
ATOM     31  C   UNL     1       3.406   0.682   1.203  0.00  0.00    -0.006 C 
ATOM     32  C   UNL     1       4.060   0.136   0.100  0.00  0.00    +0.004 C 
ATOM     33  C   UNL     1       4.171  -1.253  -0.015  0.00  0.00    +0.079 C 
ATOM     34  C   UNL     1       2.869  -0.153   2.181  0.00  0.00    -0.021 C 
ATOM     35  C   UNL     1       3.637  -2.106   0.959  0.00  0.00    +0.121 C 
ATOM     36  C   UNL     1       2.984  -1.539   2.060  0.00  0.00    +0.085 C 
ATOM     37  C   UNL     1       4.859  -1.856  -1.174  0.00  0.00    +0.254 C 
ATOM     38  C   UNL     1       4.340  -4.030  -0.154  0.00  0.00    +0.237 C 
ATOM     39  H   UNL     1       5.340  -3.698  -1.905  0.00  0.00    +0.159 HD
ATOM     40  H   UNL     1       4.109  -6.000   0.353  0.00  0.00    +0.146 HD
ATOM     41  H   UNL     1       4.944  -5.737  -1.110  0.00  0.00    +0.146 HD
ENDBRANCH  26  31
ENDBRANCH  23  26
ENDBRANCH   1  23
TORSDOF 11
