REMARK  Name = 135738798
REMARK  7 active torsions:
REMARK  status: ('A' for Active; 'I' for Inactive)
REMARK    1  A    between atoms: N_1  and  C_18
REMARK    2  A    between atoms: C_2  and  C_6
REMARK    3  A    between atoms: C_7  and  O_14
REMARK    4  A    between atoms: C_8  and  C_12
REMARK    5  A    between atoms: C_10  and  O_16
REMARK    6  A    between atoms: C_19  and  N_25
REMARK    7  A    between atoms: C_21  and  O_29
REMARK                            x       y       z     vdW  Elec       q    Type
REMARK                         _______ _______ _______ _____ _____    ______ ____
ROOT
ATOM      1  N   UNL     1       0.351  -0.396   0.547  0.00  0.00    -0.246 NA
ATOM      2  C   UNL     1      -0.396   0.192  -0.346  0.00  0.00    +0.069 C 
ATOM      3  C   UNL     1       0.293   0.527  -1.657  0.00  0.00    +0.052 C 
ENDROOT
BRANCH   2   6
ATOM      4  O   UNL     1      -3.582   2.232  -0.315  0.00  0.00    -0.389 OA
ATOM      5  O   UNL     1      -1.429   2.876  -0.578  0.00  0.00    -0.244 OA
ATOM      6  C   UNL     1      -1.815   0.566  -0.233  0.00  0.00    +0.123 A 
ATOM      7  C   UNL     1      -2.728  -0.394  -0.011  0.00  0.00    +0.150 A 
ATOM      8  C   UNL     1      -4.134  -0.066   0.115  0.00  0.00    +0.140 A 
ATOM      9  C   UNL     1      -2.242   1.978  -0.385  0.00  0.00    +0.352 A 
ATOM     10  C   UNL     1      -4.521   1.211  -0.046  0.00  0.00    +0.301 A 
BRANCH   8  12
ATOM     11  O   UNL     1      -5.734  -1.696  -0.423  0.00  0.00    -0.291 OA
ATOM     12  C   UNL     1      -5.162  -1.060   0.461  0.00  0.00    +0.183 C 
ATOM     13  C   UNL     1      -5.476  -1.268   1.918  0.00  0.00    +0.078 C 
ENDBRANCH   8  12
BRANCH   7  14
ATOM     14  O   UNL     1      -2.363  -1.724   0.082  0.00  0.00    -0.505 OA
ATOM     15  H   UNL     1      -1.462  -1.969   0.004  0.00  0.00    +0.292 HD
ENDBRANCH   7  14
BRANCH  10  16
ATOM     16  O   UNL     1      -5.839   1.601   0.065  0.00  0.00    -0.479 OA
ATOM     17  H   UNL     1      -6.072   2.501  -0.053  0.00  0.00    +0.295 HD
ENDBRANCH  10  16
ENDBRANCH   2   6
BRANCH   1  18
ATOM     18  C   UNL     1       1.696  -0.675   0.255  0.00  0.00    +0.116 C 
ATOM     19  C   UNL     1       4.013   0.009   0.271  0.00  0.00    +0.052 C 
ATOM     20  C   UNL     1       2.674   0.273   0.556  0.00  0.00    +0.037 C 
ATOM     21  C   UNL     1       2.058  -1.888  -0.331  0.00  0.00    +0.151 C 
ATOM     22  C   UNL     1       4.375  -1.204  -0.315  0.00  0.00    +0.018 C 
ATOM     23  C   UNL     1       3.397  -2.152  -0.616  0.00  0.00    +0.039 C 
BRANCH  19  25
ATOM     24  O   UNL     1       6.995  -0.062  -0.138  0.00  0.00    -0.275 OA
ATOM     25  N   UNL     1       4.991   0.957   0.571  0.00  0.00    -0.284 N 
ATOM     26  C   UNL     1       6.374   0.871   0.360  0.00  0.00    +0.227 C 
ATOM     27  C   UNL     1       7.089   2.115   0.825  0.00  0.00    +0.095 C 
ATOM     28  H   UNL     1       4.670   1.792   0.983  0.00  0.00    +0.155 HD
ENDBRANCH  19  25
BRANCH  21  29
ATOM     29  O   UNL     1       1.116  -2.825  -0.632  0.00  0.00    -0.504 OA
ATOM     30  H   UNL     1       0.213  -2.659  -0.445  0.00  0.00    +0.292 HD
ENDBRANCH  21  29
ENDBRANCH   1  18
TORSDOF 7
