REMARK  Name = 135718449
REMARK  6 active torsions:
REMARK  status: ('A' for Active; 'I' for Inactive)
REMARK    1  A    between atoms: N_2  and  O_16
REMARK    2  A    between atoms: O_16  and  C_17
REMARK    3  A    between atoms: C_17  and  O_18
REMARK    4  A    between atoms: C_17  and  C_20
REMARK    5  A    between atoms: C_20  and  C_21
REMARK    6  A    between atoms: C_21  and  O_22
REMARK                            x       y       z     vdW  Elec       q    Type
REMARK                         _______ _______ _______ _____ _____    ______ ____
ROOT
ATOM      1  O   UNL     1      -4.199   1.099   0.665  0.00  0.00    -0.267 OA
ATOM      2  N   UNL     1       0.165   0.682  -0.426  0.00  0.00    -0.159 N 
ATOM      3  N   UNL     1      -1.454   2.111   0.154  0.00  0.00    -0.378 NA
ATOM      4  N   UNL     1      -1.062  -1.405  -0.422  0.00  0.00    -0.351 NA
ATOM      5  N   UNL     1      -3.351  -1.020   0.172  0.00  0.00    -0.242 N 
ATOM      6  N   UNL     1      -2.583  -3.193  -0.309  0.00  0.00    -0.321 N 
ATOM      7  C   UNL     1      -0.963  -0.067  -0.262  0.00  0.00    +0.257 C 
ATOM      8  C   UNL     1      -0.181   1.985  -0.165  0.00  0.00    +0.199 C 
ATOM      9  C   UNL     1      -1.935   0.837   0.093  0.00  0.00    +0.235 C 
ATOM     10  C   UNL     1      -3.270   0.368   0.344  0.00  0.00    +0.286 C 
ATOM     11  C   UNL     1       0.806   3.081  -0.250  0.00  0.00    +0.089 C 
ATOM     12  C   UNL     1      -2.275  -1.862  -0.198  0.00  0.00    +0.240 C 
ATOM     13  H   UNL     1      -4.227  -1.445   0.321  0.00  0.00    +0.159 HD
ATOM     14  H   UNL     1      -1.886  -3.840  -0.563  0.00  0.00    +0.146 HD
ATOM     15  H   UNL     1      -3.501  -3.502  -0.134  0.00  0.00    +0.146 HD
ENDROOT
BRANCH   2  16
ATOM     16  O   UNL     1       1.418   0.215  -0.787  0.00  0.00    -0.221 OA
BRANCH  16  17
ATOM     17  C   UNL     1       2.307  -0.176   0.255  0.00  0.00    +0.261 C 
BRANCH  17  18
ATOM     18  O   UNL     1       2.006  -1.473   0.764  0.00  0.00    -0.358 OA
ATOM     19  H   UNL     1       1.110  -1.475   1.136  0.00  0.00    +0.213 HD
ENDBRANCH  17  18
BRANCH  17  20
ATOM     20  C   UNL     1       3.719  -0.155  -0.337  0.00  0.00    +0.095 C 
BRANCH  20  21
ATOM     21  C   UNL     1       4.793  -0.529   0.676  0.00  0.00    +0.142 C 
BRANCH  21  22
ATOM     22  O   UNL     1       6.060  -0.497   0.033  0.00  0.00    -0.382 OA
ATOM     23  H   UNL     1       6.752  -0.734   0.671  0.00  0.00    +0.210 HD
ENDBRANCH  21  22
ENDBRANCH  20  21
ENDBRANCH  17  20
ENDBRANCH  16  17
ENDBRANCH   2  16
TORSDOF 6
