REMARK  Name = 135764911
REMARK  4 active torsions:
REMARK  status: ('A' for Active; 'I' for Inactive)
REMARK    1  A    between atoms: C_7  and  C_16
REMARK    2  A    between atoms: C_16  and  O_17
REMARK    3  A    between atoms: C_16  and  C_19
REMARK    4  A    between atoms: C_19  and  O_21
REMARK                            x       y       z     vdW  Elec       q    Type
REMARK                         _______ _______ _______ _____ _____    ______ ____
ROOT
ATOM      1  O   UNL     1      -2.964  -2.313  -0.210  0.00  0.00    -0.267 OA
ATOM      2  N   UNL     1       0.558   0.759   0.396  0.00  0.00    -0.343 NA
ATOM      3  N   UNL     1      -0.310  -1.909   0.225  0.00  0.00    -0.248 NA
ATOM      4  N   UNL     1      -3.360  -0.029  -0.249  0.00  0.00    -0.242 N 
ATOM      5  N   UNL     1      -1.625   1.538   0.050  0.00  0.00    -0.308 NA
ATOM      6  N   UNL     1      -3.828   2.262  -0.300  0.00  0.00    -0.320 N 
ATOM      7  C   UNL     1       1.407  -0.283   0.522  0.00  0.00    +0.153 C 
ATOM      8  C   UNL     1      -0.739   0.457   0.182  0.00  0.00    +0.163 C 
ATOM      9  C   UNL     1      -1.147  -0.861   0.101  0.00  0.00    +0.216 C 
ATOM     10  C   UNL     1       0.981  -1.592   0.438  0.00  0.00    +0.184 C 
ATOM     11  C   UNL     1      -2.564  -1.158  -0.133  0.00  0.00    +0.281 C 
ATOM     12  C   UNL     1      -2.887   1.277  -0.158  0.00  0.00    +0.249 C 
ATOM     13  H   UNL     1      -4.323  -0.160  -0.407  0.00  0.00    +0.159 HD
ATOM     14  H   UNL     1      -4.771   2.023  -0.455  0.00  0.00    +0.146 HD
ATOM     15  H   UNL     1      -3.563   3.209  -0.246  0.00  0.00    +0.146 HD
ENDROOT
BRANCH   7  16
ATOM     16  C   UNL     1       2.845   0.027   0.759  0.00  0.00    +0.188 C 
BRANCH  16  17
ATOM     17  O   UNL     1       2.962   1.201   1.581  0.00  0.00    -0.376 OA
ATOM     18  H   UNL     1       3.900   1.398   1.731  0.00  0.00    +0.211 HD
ENDBRANCH  16  17
BRANCH  16  19
ATOM     19  C   UNL     1       3.709   0.233  -0.512  0.00  0.00    +0.144 C 
ATOM     20  C   UNL     1       3.204   1.357  -1.406  0.00  0.00    +0.035 C 
BRANCH  19  21
ATOM     21  O   UNL     1       3.757  -0.965  -1.284  0.00  0.00    -0.382 OA
ATOM     22  H   UNL     1       4.077  -1.694  -0.730  0.00  0.00    +0.210 HD
ENDBRANCH  19  21
ENDBRANCH  16  19
ENDBRANCH   7  16
TORSDOF 4
