REMARK  Name = 135777637
REMARK  6 active torsions:
REMARK  status: ('A' for Active; 'I' for Inactive)
REMARK    1  A    between atoms: N_2  and  C1*_16
REMARK    2  A    between atoms: C_8  and  O_27
REMARK    3  A    between atoms: C2*_17  and  O2*_20
REMARK    4  A    between atoms: C3*_18  and  O3*_22
REMARK    5  A    between atoms: C4*_19  and  C5*_24
REMARK    6  A    between atoms: C5*_24  and  O5*_25
REMARK                            x       y       z     vdW  Elec       q    Type
REMARK                         _______ _______ _______ _____ _____    ______ ____
ROOT
ATOM      1  O   UNL     1      -4.527   0.016  -0.282  0.00  0.00    -0.267 OA
ATOM      2  N   UNL     1      -0.122  -0.837   0.259  0.00  0.00    -0.179 N 
ATOM      3  N   UNL     1      -2.163  -1.740   0.110  0.00  0.00    -0.346 NA
ATOM      4  N   UNL     1      -0.658   1.512   0.017  0.00  0.00    -0.355 NA
ATOM      5  N   UNL     1      -3.020   1.801  -0.259  0.00  0.00    -0.242 N 
ATOM      6  N   UNL     1      -1.575   3.659  -0.249  0.00  0.00    -0.321 N 
ATOM      7  C   UNL     1      -0.988   0.203   0.084  0.00  0.00    +0.230 C 
ATOM      8  C   UNL     1      -0.877  -1.984   0.267  0.00  0.00    +0.351 C 
ATOM      9  C   UNL     1      -2.228  -0.383  -0.004  0.00  0.00    +0.234 C 
ATOM     10  C   UNL     1      -3.384   0.448  -0.193  0.00  0.00    +0.286 C 
ATOM     11  C   UNL     1      -1.699   2.297  -0.156  0.00  0.00    +0.240 C 
ATOM     12  H   UNL     1      -3.742   2.458  -0.388  0.00  0.00    +0.159 HD
ATOM     13  H   UNL     1      -0.687   4.078  -0.186  0.00  0.00    +0.146 HD
ATOM     14  H   UNL     1      -2.375   4.218  -0.378  0.00  0.00    +0.146 HD
ENDROOT
BRANCH   2  16
ATOM     15  O4* UNL     1       1.768   0.476   1.073  0.00  0.00    -0.333 OA
ATOM     16  C1* UNL     1       1.377  -0.747   0.415  0.00  0.00    +0.232 C 
ATOM     17  C2* UNL     1       2.116  -0.754  -0.919  0.00  0.00    +0.187 C 
ATOM     18  C3* UNL     1       3.408  -0.044  -0.566  0.00  0.00    +0.171 C 
ATOM     19  C4* UNL     1       2.932   1.022   0.413  0.00  0.00    +0.175 C 
BRANCH  17  20
ATOM     20  O2* UNL     1       2.323  -2.056  -1.429  0.00  0.00    -0.378 OA
ATOM     21  H2* UNL     1       1.467  -2.462  -1.637  0.00  0.00    +0.211 HD
ENDBRANCH  17  20
BRANCH  18  22
ATOM     22  O3* UNL     1       4.285  -0.925   0.135  0.00  0.00    -0.379 OA
ATOM     23  H3* UNL     1       4.602  -1.615  -0.470  0.00  0.00    +0.211 HD
ENDBRANCH  18  22
BRANCH  19  24
ATOM     24  C5* UNL     1       2.528   2.321  -0.270  0.00  0.00    +0.169 C 
BRANCH  24  25
ATOM     25  O5* UNL     1       2.092   3.237   0.720  0.00  0.00    -0.379 OA
ATOM     26  H5* UNL     1       1.832   4.070   0.297  0.00  0.00    +0.211 HD
ENDBRANCH  24  25
ENDBRANCH  19  24
ENDBRANCH   2  16
BRANCH   8  27
ATOM     27  O   UNL     1      -0.351  -3.190   0.420  0.00  0.00    -0.436 OA
ATOM     28  C   UNL     1      -1.237  -4.330   0.415  0.00  0.00    +0.257 C 
ENDBRANCH   8  27
TORSDOF 6
