REMARK  Name = 135765026
REMARK  6 active torsions:
REMARK  status: ('A' for Active; 'I' for Inactive)
REMARK    1  A    between atoms: C_7  and  C_20
REMARK    2  A    between atoms: C_8  and  C_24
REMARK    3  A    between atoms: C_9  and  O_15
REMARK    4  A    between atoms: C_10  and  O_17
REMARK    5  A    between atoms: C_20  and  O_21
REMARK    6  A    between atoms: C_24  and  O_25
REMARK                            x       y       z     vdW  Elec       q    Type
REMARK                         _______ _______ _______ _____ _____    ______ ____
ROOT
ATOM      1  N   UNL     1       0.899   1.043  -0.069  0.00  0.00    -0.393 NA
ATOM      2  N   UNL     1      -0.899  -1.043  -0.068  0.00  0.00    -0.393 NA
ATOM      3  C   UNL     1       1.334  -0.227  -0.069  0.00  0.00    +0.170 C 
ATOM      4  C   UNL     1      -1.334   0.227  -0.069  0.00  0.00    +0.170 C 
ATOM      5  C   UNL     1       0.421  -1.286  -0.069  0.00  0.00    +0.194 C 
ATOM      6  C   UNL     1      -0.421   1.286  -0.069  0.00  0.00    +0.194 C 
ATOM      7  C   UNL     1       2.700  -0.505  -0.069  0.00  0.00    +0.108 C 
ATOM      8  C   UNL     1      -2.700   0.505  -0.069  0.00  0.00    +0.108 C 
ATOM      9  C   UNL     1       0.899  -2.595  -0.069  0.00  0.00    +0.166 C 
ATOM     10  C   UNL     1      -0.899   2.595  -0.068  0.00  0.00    +0.166 C 
ATOM     11  C   UNL     1       3.171  -1.817  -0.069  0.00  0.00    +0.012 C 
ATOM     12  C   UNL     1      -3.171   1.817  -0.069  0.00  0.00    +0.012 C 
ATOM     13  C   UNL     1       2.266  -2.868  -0.069  0.00  0.00    +0.040 C 
ATOM     14  C   UNL     1      -2.266   2.868  -0.069  0.00  0.00    +0.040 C 
ENDROOT
BRANCH   9  15
ATOM     15  O   UNL     1       0.025  -3.645  -0.068  0.00  0.00    -0.503 OA
ATOM     16  H   UNL     1      -0.899  -3.486  -0.068  0.00  0.00    +0.292 HD
ENDBRANCH   9  15
BRANCH  10  17
ATOM     17  O   UNL     1      -0.025   3.645  -0.069  0.00  0.00    -0.503 OA
ATOM     18  H   UNL     1       0.899   3.486  -0.069  0.00  0.00    +0.292 HD
ENDBRANCH  10  17
BRANCH   7  20
ATOM     19  O   UNL     1       3.491   1.685  -0.580  0.00  0.00    -0.245 OA
ATOM     20  C   UNL     1       3.679   0.576  -0.070  0.00  0.00    +0.344 C 
BRANCH  20  21
ATOM     21  O   UNL     1       4.830   0.205   0.567  0.00  0.00    -0.441 OA
ATOM     22  C   UNL     1       5.872   1.185   0.633  0.00  0.00    +0.256 C 
ENDBRANCH  20  21
ENDBRANCH   7  20
BRANCH   8  24
ATOM     23  O   UNL     1      -3.491  -1.685  -0.580  0.00  0.00    -0.245 OA
ATOM     24  C   UNL     1      -3.679  -0.576  -0.069  0.00  0.00    +0.344 C 
BRANCH  24  25
ATOM     25  O   UNL     1      -4.831  -0.205   0.567  0.00  0.00    -0.441 OA
ATOM     26  C   UNL     1      -5.872  -1.185   0.632  0.00  0.00    +0.256 C 
ENDBRANCH  24  25
ENDBRANCH   8  24
TORSDOF 6
