REMARK  Name = 135775
REMARK  10 active torsions:
REMARK  status: ('A' for Active; 'I' for Inactive)
REMARK    1  A    between atoms: C_1  and  N_3
REMARK    2  A    between atoms: C_1  and  C_13
REMARK    3  A    between atoms: C_1  and  C_16
REMARK    4  A    between atoms: C_4  and  C_9
REMARK    5  A    between atoms: C_9  and  O_10
REMARK    6  A    between atoms: C_13  and  O_14
REMARK    7  A    between atoms: C_16  and  C_17
REMARK    8  A    between atoms: C_17  and  C_18
REMARK    9  A    between atoms: C_18  and  N_19
REMARK   10  A    between atoms: N_19  and  C_22
REMARK                            x       y       z     vdW  Elec       q    Type
REMARK                         _______ _______ _______ _____ _____    ______ ____
ROOT
ATOM      1  C   UNL     1      -0.816  -0.981   0.507  0.00  0.00    +0.175 C 
ENDROOT
BRANCH   1   3
ATOM      2  O   UNL     1      -0.979  -0.408  -2.425  0.00  0.00    -0.275 OA
ATOM      3  N   UNL     1      -1.275   0.214  -0.173  0.00  0.00    -0.263 N 
ATOM      4  C   UNL     1      -1.792   1.354   0.549  0.00  0.00    +0.175 C 
ATOM      5  C   UNL     1      -1.740   2.473  -0.477  0.00  0.00    +0.041 C 
ATOM      6  C   UNL     1      -1.882   1.758  -1.820  0.00  0.00    +0.088 C 
ATOM      7  C   UNL     1      -1.308   0.387  -1.556  0.00  0.00    +0.226 C 
BRANCH   4   9
ATOM      8  O   UNL     1      -3.958   0.299   0.368  0.00  0.00    -0.248 OA
ATOM      9  C   UNL     1      -3.197   1.044   0.966  0.00  0.00    +0.332 C 
BRANCH   9  10
ATOM     10  O   UNL     1      -3.515   1.706   2.105  0.00  0.00    -0.479 OA
ATOM     11  H   UNL     1      -2.884   2.264   2.515  0.00  0.00    +0.295 HD
ENDBRANCH   9  10
ENDBRANCH   4   9
ENDBRANCH   1   3
BRANCH   1  13
ATOM     12  O   UNL     1      -2.278  -2.282  -0.945  0.00  0.00    -0.248 OA
ATOM     13  C   UNL     1      -1.754  -2.118   0.149  0.00  0.00    +0.332 C 
BRANCH  13  14
ATOM     14  O   UNL     1      -1.926  -2.979   1.186  0.00  0.00    -0.479 OA
ATOM     15  H   UNL     1      -1.505  -2.814   2.007  0.00  0.00    +0.295 HD
ENDBRANCH  13  14
ENDBRANCH   1  13
BRANCH   1  16
ATOM     16  C   UNL     1       0.646  -1.311   0.195  0.00  0.00    +0.033 C 
BRANCH  16  17
ATOM     17  C   UNL     1       1.628  -0.174   0.502  0.00  0.00    +0.029 C 
BRANCH  17  18
ATOM     18  C   UNL     1       3.054  -0.561   0.127  0.00  0.00    +0.129 C 
BRANCH  18  19
ATOM     19  N   UNL     1       3.949   0.557   0.434  0.00  0.00    -0.240 NA
BRANCH  19  22
ATOM     20  N   UNL     1       6.114   1.382   0.450  0.00  0.00    -0.370 N 
ATOM     21  N   UNL     1       5.820  -0.739  -0.331  0.00  0.00    -0.370 N 
ATOM     22  C   UNL     1       5.209   0.380   0.189  0.00  0.00    +0.189 C 
ATOM     23  H   UNL     1       5.806   2.238   0.825  0.00  0.00    +0.159 HD
ATOM     24  H   UNL     1       7.070   1.243   0.261  0.00  0.00    +0.159 HD
ATOM     25  H   UNL     1       5.283  -1.531  -0.562  0.00  0.00    +0.159 HD
ATOM     26  H   UNL     1       6.795  -0.748  -0.472  0.00  0.00    +0.159 HD
ENDBRANCH  19  22
ENDBRANCH  18  19
ENDBRANCH  17  18
ENDBRANCH  16  17
ENDBRANCH   1  16
TORSDOF 10
