135738798
  -OEChem-03292013293D

 42 43  0     0  0  0  0  0  0999 V2000
   -3.5822    2.2325   -0.3154 O   0  0  0  0  0  0  0  0  0  0  0  0
   -2.3627   -1.7238    0.0815 O   0  0  0  0  0  0  0  0  0  0  0  0
    1.1156   -2.8253   -0.6319 O   0  0  0  0  0  0  0  0  0  0  0  0
   -5.8387    1.6014    0.0653 O   0  0  0  0  0  0  0  0  0  0  0  0
   -1.4293    2.8763   -0.5776 O   0  0  0  0  0  0  0  0  0  0  0  0
   -5.7336   -1.6962   -0.4228 O   0  0  0  0  0  0  0  0  0  0  0  0
    6.9955   -0.0619   -0.1375 O   0  0  0  0  0  0  0  0  0  0  0  0
    0.3514   -0.3955    0.5474 N   0  0  0  0  0  0  0  0  0  0  0  0
    4.9912    0.9574    0.5713 N   0  0  0  0  0  0  0  0  0  0  0  0
   -1.8149    0.5664   -0.2328 C   0  0  0  0  0  0  0  0  0  0  0  0
   -0.3961    0.1920   -0.3465 C   0  0  0  0  0  0  0  0  0  0  0  0
   -2.7278   -0.3938   -0.0112 C   0  0  0  0  0  0  0  0  0  0  0  0
   -4.1337   -0.0656    0.1148 C   0  0  0  0  0  0  0  0  0  0  0  0
    1.6958   -0.6747    0.2551 C   0  0  0  0  0  0  0  0  0  0  0  0
   -2.2422    1.9779   -0.3847 C   0  0  0  0  0  0  0  0  0  0  0  0
    4.0130    0.0088    0.2708 C   0  0  0  0  0  0  0  0  0  0  0  0
    2.6735    0.2734    0.5560 C   0  0  0  0  0  0  0  0  0  0  0  0
    2.0576   -1.8877   -0.3311 C   0  0  0  0  0  0  0  0  0  0  0  0
    0.2928    0.5266   -1.6569 C   0  0  0  0  0  0  0  0  0  0  0  0
   -4.5213    1.2106   -0.0461 C   0  0  0  0  0  0  0  0  0  0  0  0
    4.3748   -1.2042   -0.3152 C   0  0  0  0  0  0  0  0  0  0  0  0
   -5.1625   -1.0596    0.4608 C   0  0  0  0  0  0  0  0  0  0  0  0
    3.3972   -2.1525   -0.6161 C   0  0  0  0  0  0  0  0  0  0  0  0
   -5.4759   -1.2685    1.9177 C   0  0  0  0  0  0  0  0  0  0  0  0
    6.3737    0.8712    0.3600 C   0  0  0  0  0  0  0  0  0  0  0  0
    7.0888    2.1149    0.8251 C   0  0  0  0  0  0  0  0  0  0  0  0
    2.3876    1.2179    1.0142 H   0  0  0  0  0  0  0  0  0  0  0  0
    1.0858    1.2647   -1.5096 H   0  0  0  0  0  0  0  0  0  0  0  0
   -0.4254    0.9690   -2.3563 H   0  0  0  0  0  0  0  0  0  0  0  0
    0.6784   -0.3686   -2.1510 H   0  0  0  0  0  0  0  0  0  0  0  0
    5.3896   -1.4807   -0.5649 H   0  0  0  0  0  0  0  0  0  0  0  0
    3.6920   -3.0937   -1.0728 H   0  0  0  0  0  0  0  0  0  0  0  0
    4.6474    1.8157    0.9971 H   0  0  0  0  0  0  0  0  0  0  0  0
   -6.5241   -1.0181    2.1000 H   0  0  0  0  0  0  0  0  0  0  0  0
   -4.8496   -0.6334    2.5507 H   0  0  0  0  0  0  0  0  0  0  0  0
   -5.2862   -2.3127    2.1795 H   0  0  0  0  0  0  0  0  0  0  0  0
   -3.1555   -2.2739    0.1867 H   0  0  0  0  0  0  0  0  0  0  0  0
   -5.8406    2.5634   -0.0814 H   0  0  0  0  0  0  0  0  0  0  0  0
    1.5519   -3.5964   -1.0331 H   0  0  0  0  0  0  0  0  0  0  0  0
    8.1659    2.0019    0.6733 H   0  0  0  0  0  0  0  0  0  0  0  0
    6.7376    2.9784    0.2532 H   0  0  0  0  0  0  0  0  0  0  0  0
    6.8963    2.2781    1.8892 H   0  0  0  0  0  0  0  0  0  0  0  0
  1 15  1  0  0  0  0
  1 20  1  0  0  0  0
  2 12  1  0  0  0  0
  2 37  1  0  0  0  0
  3 18  1  0  0  0  0
  3 39  1  0  0  0  0
  4 20  1  0  0  0  0
  4 38  1  0  0  0  0
  5 15  2  0  0  0  0
  6 22  2  0  0  0  0
  7 25  2  0  0  0  0
  8 11  2  0  0  0  0
  8 14  1  0  0  0  0
  9 16  1  0  0  0  0
  9 25  1  0  0  0  0
  9 33  1  0  0  0  0
 10 11  1  0  0  0  0
 10 12  2  0  0  0  0
 10 15  1  0  0  0  0
 11 19  1  0  0  0  0
 12 13  1  0  0  0  0
 13 20  2  0  0  0  0
 13 22  1  0  0  0  0
 14 17  1  0  0  0  0
 14 18  2  0  0  0  0
 16 17  2  0  0  0  0
 16 21  1  0  0  0  0
 17 27  1  0  0  0  0
 18 23  1  0  0  0  0
 19 28  1  0  0  0  0
 19 29  1  0  0  0  0
 19 30  1  0  0  0  0
 21 23  2  0  0  0  0
 21 31  1  0  0  0  0
 22 24  1  0  0  0  0
 23 32  1  0  0  0  0
 24 34  1  0  0  0  0
 24 35  1  0  0  0  0
 24 36  1  0  0  0  0
 25 26  1  0  0  0  0
 26 40  1  0  0  0  0
 26 41  1  0  0  0  0
 26 42  1  0  0  0  0
M  END
> <PUBCHEM_COMPOUND_CID>
135738798

> <PUBCHEM_CONFORMER_RMSD>
0.8

> <PUBCHEM_CONFORMER_DIVERSEORDER>
1
20
41
40
38
33
35
22
4
16
29
9
37
34
30
15
18
7
32
23
17
21
36
27
11
31
19
25
10
39
24
28
12
8
2
26
6
3
13
14
5

> <PUBCHEM_MMFF94_PARTIAL_CHARGES>
33
1 -0.23
10 0.03
11 0.37
12 0.08
13 0.01
14 0.18
15 0.71
16 0.12
17 -0.15
18 0.08
19 0.06
2 -0.53
20 0.15
21 -0.15
22 0.49
23 -0.15
24 0.06
25 0.57
26 0.06
27 0.15
3 -0.53
31 0.15
32 0.15
33 0.37
37 0.45
38 0.45
39 0.45
4 -0.53
5 -0.57
6 -0.57
7 -0.57
8 -0.63
9 -0.55

> <PUBCHEM_EFFECTIVE_ROTOR_COUNT>
5

> <PUBCHEM_PHARMACOPHORE_FEATURES>
10
1 2 donor
1 3 donor
1 4 donor
1 5 acceptor
1 6 acceptor
1 7 acceptor
1 8 acceptor
1 9 donor
6 1 10 12 13 15 20 rings
6 14 16 17 18 21 23 rings

> <PUBCHEM_HEAVY_ATOM_COUNT>
26

> <PUBCHEM_ATOM_DEF_STEREO_COUNT>
0

> <PUBCHEM_ATOM_UDEF_STEREO_COUNT>
0

> <PUBCHEM_BOND_DEF_STEREO_COUNT>
0

> <PUBCHEM_BOND_UDEF_STEREO_COUNT>
0

> <PUBCHEM_ISOTOPIC_ATOM_COUNT>
0

> <PUBCHEM_COMPONENT_COUNT>
1

> <PUBCHEM_CACTVS_TAUTO_COUNT>
-1

> <PUBCHEM_CONFORMER_ID>
081735AE00000001

> <PUBCHEM_MMFF94_ENERGY>
88.9272

> <PUBCHEM_FEATURE_SELFOVERLAP>
50.748

> <PUBCHEM_SHAPE_FINGERPRINT>
10 15 18335415816533459592
10369192 42 18271804670820327844
10835480 77 18337947892527235469
11315181 36 17385726928327955617
12236239 1 17385722487268390066
12616971 3 16298682602785570645
12730499 353 18343868814656838898
13402501 40 18411980269456345792
13782708 43 18263366893744923230
14251732 16 18410291428270269456
14341114 176 18341618092262467668
1454969 45 18339074998897265247
14933364 13 18412826889573870648
15183329 4 9871478603259474828
15196674 1 18411136892419359399
15927050 60 17546734111121165676
15961568 22 18260268543060801804
17349148 13 15791741766945127715
17844677 252 18270970050403421505
17980427 23 17967819365866233116
1813 80 17312829251286943999
18608769 82 18271240629354154858
19611394 137 17969796356808806378
22224240 67 18339357569391719202
23559900 14 17980758229834531470
2747138 104 18261688059188607643
3246875 12 18340201990316696424
34797466 226 17989210304734615092
350125 39 18412543245338099088
3545911 37 18413388718282234832
4073 2 18261117348276995515
4325135 7 18411698811332430695
4340502 62 18343586257205912582
5104073 3 18263928747821626098
59682541 35 18337675337986128267
59755656 215 18341897372948870094
6442390 28 18410011018593712950
67856867 119 18041285468670097517
9709674 26 18336835195355109279

> <PUBCHEM_SHAPE_MULTIPOLES>
484.02
16.71
2.55
1.01
11.34
0.2
0.11
3.56
4.67
-0.3
-0.35
-0.46
-0.1
1.84

> <PUBCHEM_SHAPE_SELFOVERLAP>
1037.18

> <PUBCHEM_SHAPE_VOLUME>
266.7

> <PUBCHEM_COORDINATE_TYPE>
2
5
10

$$$$
