135705572
  -OEChem-03292013293D

 38 43  0     0  0  0  0  0  0999 V2000
    6.4064    2.2270    0.0004 O   0  0  0  0  0  0  0  0  0  0  0  0
    2.3423   -3.4457   -0.0007 O   0  0  0  0  0  0  0  0  0  0  0  0
   -6.3424   -0.9039   -0.0007 O   0  0  0  0  0  0  0  0  0  0  0  0
   -3.9259    3.2896    0.0002 O   0  0  0  0  0  0  0  0  0  0  0  0
    1.5966    1.8610    0.0012 N   0  0  0  0  0  0  0  0  0  0  0  0
   -1.4555    1.8585    0.0003 N   0  0  0  0  0  0  0  0  0  0  0  0
    0.0257   -3.7898    0.0005 N   0  0  0  0  0  0  0  0  0  0  0  0
    1.5251   -0.4763    0.0002 C   0  0  0  0  0  0  0  0  0  0  0  0
    2.8913   -0.0697    0.0000 C   0  0  0  0  0  0  0  0  0  0  0  0
    0.8060    0.8242    0.0006 C   0  0  0  0  0  0  0  0  0  0  0  0
   -1.3811   -0.4698    0.0005 C   0  0  0  0  0  0  0  0  0  0  0  0
   -0.6630    0.8253    0.0005 C   0  0  0  0  0  0  0  0  0  0  0  0
    0.7977   -1.5930    0.0006 C   0  0  0  0  0  0  0  0  0  0  0  0
   -0.6480   -1.5796    0.0009 C   0  0  0  0  0  0  0  0  0  0  0  0
    4.1339   -0.8817   -0.0003 C   0  0  0  0  0  0  0  0  0  0  0  0
    2.8567    1.2770    0.0008 C   0  0  0  0  0  0  0  0  0  0  0  0
   -2.7579   -0.0794    0.0003 C   0  0  0  0  0  0  0  0  0  0  0  0
    5.4291   -0.0303   -0.0048 C   0  0  0  0  0  0  0  0  0  0  0  0
   -2.7150    1.2701    0.0002 C   0  0  0  0  0  0  0  0  0  0  0  0
    4.0488    2.0724    0.0019 C   0  0  0  0  0  0  0  0  0  0  0  0
    5.2497    1.4730   -0.0005 C   0  0  0  0  0  0  0  0  0  0  0  0
    1.1959   -3.0292    0.0001 C   0  0  0  0  0  0  0  0  0  0  0  0
   -1.0060   -2.9957    0.0012 C   0  0  0  0  0  0  0  0  0  0  0  0
   -3.9833   -0.8220    0.0004 C   0  0  0  0  0  0  0  0  0  0  0  0
   -3.9666    2.0603   -0.0005 C   0  0  0  0  0  0  0  0  0  0  0  0
   -5.2975    1.3130   -0.0023 C   0  0  0  0  0  0  0  0  0  0  0  0
   -5.1631   -0.1852   -0.0008 C   0  0  0  0  0  0  0  0  0  0  0  0
    4.1459   -1.5333    0.8819 H   0  0  0  0  0  0  0  0  0  0  0  0
    4.1431   -1.5380   -0.8789 H   0  0  0  0  0  0  0  0  0  0  0  0
    6.0222   -0.3073   -0.8861 H   0  0  0  0  0  0  0  0  0  0  0  0
    6.0312   -0.3119    0.8687 H   0  0  0  0  0  0  0  0  0  0  0  0
    3.9594    3.1533    0.0047 H   0  0  0  0  0  0  0  0  0  0  0  0
   -2.0538   -3.3205    0.0017 H   0  0  0  0  0  0  0  0  0  0  0  0
   -3.9400   -1.9050    0.0014 H   0  0  0  0  0  0  0  0  0  0  0  0
   -5.8494    1.6248   -0.8961 H   0  0  0  0  0  0  0  0  0  0  0  0
   -5.8525    1.6262    0.8890 H   0  0  0  0  0  0  0  0  0  0  0  0
    7.1602    1.6123   -0.0023 H   0  0  0  0  0  0  0  0  0  0  0  0
   -7.0772   -0.2665   -0.0019 H   0  0  0  0  0  0  0  0  0  0  0  0
  1 21  1  0  0  0  0
  1 37  1  0  0  0  0
  2 22  2  0  0  0  0
  3 27  1  0  0  0  0
  3 38  1  0  0  0  0
  4 25  2  0  0  0  0
  5 10  2  0  0  0  0
  5 16  1  0  0  0  0
  6 12  2  0  0  0  0
  6 19  1  0  0  0  0
  7 22  1  0  0  0  0
  7 23  2  0  0  0  0
  8  9  1  0  0  0  0
  8 10  1  0  0  0  0
  8 13  2  0  0  0  0
  9 15  1  0  0  0  0
  9 16  2  0  0  0  0
 10 12  1  0  0  0  0
 11 12  1  0  0  0  0
 11 14  2  0  0  0  0
 11 17  1  0  0  0  0
 13 14  1  0  0  0  0
 13 22  1  0  0  0  0
 14 23  1  0  0  0  0
 15 18  1  0  0  0  0
 15 28  1  0  0  0  0
 15 29  1  0  0  0  0
 16 20  1  0  0  0  0
 17 19  2  0  0  0  0
 17 24  1  0  0  0  0
 18 21  1  0  0  0  0
 18 30  1  0  0  0  0
 18 31  1  0  0  0  0
 19 25  1  0  0  0  0
 20 21  2  0  0  0  0
 20 32  1  0  0  0  0
 23 33  1  0  0  0  0
 24 27  2  0  0  0  0
 24 34  1  0  0  0  0
 25 26  1  0  0  0  0
 26 27  1  0  0  0  0
 26 35  1  0  0  0  0
 26 36  1  0  0  0  0
M  END
> <PUBCHEM_COMPOUND_CID>
135705572

> <PUBCHEM_CONFORMER_RMSD>
0.6

> <PUBCHEM_CONFORMER_DIVERSEORDER>
1

> <PUBCHEM_MMFF94_PARTIAL_CHARGES>
31
1 -0.53
10 0.44
11 0.01
12 0.44
13 0.01
14 0.01
15 0.14
16 0.17
18 0.14
19 0.19
2 -0.57
20 -0.15
21 -0.06
22 0.77
23 0.38
24 -0.15
25 0.49
26 0.2
27 -0.06
3 -0.53
32 0.15
33 0.06
34 0.15
37 0.45
38 0.45
4 -0.57
5 -0.62
6 -0.62
7 -0.66
8 0.01
9 -0.14

> <PUBCHEM_EFFECTIVE_ROTOR_COUNT>
0.6

> <PUBCHEM_PHARMACOPHORE_FEATURES>
14
1 1 donor
1 2 acceptor
1 3 donor
1 4 acceptor
1 5 acceptor
1 6 acceptor
1 7 acceptor
1 7 donor
5 5 8 9 10 16 rings
5 6 11 12 17 19 rings
5 7 13 14 22 23 rings
6 17 19 24 25 26 27 rings
6 8 10 11 12 13 14 rings
6 9 15 16 18 20 21 rings

> <PUBCHEM_HEAVY_ATOM_COUNT>
27

> <PUBCHEM_ATOM_DEF_STEREO_COUNT>
0

> <PUBCHEM_ATOM_UDEF_STEREO_COUNT>
0

> <PUBCHEM_BOND_DEF_STEREO_COUNT>
0

> <PUBCHEM_BOND_UDEF_STEREO_COUNT>
0

> <PUBCHEM_ISOTOPIC_ATOM_COUNT>
0

> <PUBCHEM_COMPONENT_COUNT>
1

> <PUBCHEM_CACTVS_TAUTO_COUNT>
-1

> <PUBCHEM_CONFORMER_ID>
0816B3E400000001

> <PUBCHEM_MMFF94_ENERGY>
99.9054

> <PUBCHEM_FEATURE_SELFOVERLAP>
71.547

> <PUBCHEM_SHAPE_FINGERPRINT>
10050765 1 18266459794436507209
10319926 262 18054771044475311448
10493431 412 18410011069900724596
10967382 1 18410855447291050982
1100329 8 18194683902207080137
11578080 2 16735220501797273471
11963148 33 18335976588839248235
12107183 9 17548138831672251497
12236239 1 17917713496049809865
12390115 104 18271259251979318705
12592029 89 18410012109103767866
12788726 201 17902220441017766282
12838862 33 18266721627610265245
13140716 1 18048882089153586739
13631057 29 18201153365033666159
138480 1 17762055441500697066
14787075 74 18201998867404412473
14790565 3 18410296908559465876
15042514 8 18047757280348012715
15196674 1 18410856529617450372
15664445 248 17481436979821152894
15927050 60 18411699915693862086
17492 89 18267021661969161795
18608769 82 18268149927922728907
18681886 176 18336824285974686368
19591789 44 18411136939399846246
20028762 73 18273209815724681239
21033648 29 18342447179712152600
21197605 99 18340209686640329383
21236236 1 18268992171009591295
21267235 1 18411144631707372423
21279426 13 18268996397362321348
221490 88 18265340504231521931
22182313 1 18194428720973046598
22393880 68 18268719303046524399
23366157 5 17970352516171323827
23558518 356 17684085065107782256
23559900 14 18051125887580466323
23569917 315 18411140233968011670
3178227 256 18337685216811777177
335352 9 18410857664522707326
3380486 145 18118143565757800155
350125 39 18410855490488728297
4073 2 18186527617556567185
474229 33 18409730694520076691
5104073 3 18190749639787447161
5265222 85 18193850456131125108
5486654 2 18340208595417390781
59755656 215 18409731742191592247
6138700 20 18266744584970221694
6376802 90 17749662984316040663
6669772 16 18131077030440056982
9709674 26 18335708183373243731
9981440 41 18335142003055738219

> <PUBCHEM_SHAPE_MULTIPOLES>
517.23
12.28
3.72
0.59
0.08
2.43
0
-7.58
-0.01
-0.54
0
-0.01
0
0

> <PUBCHEM_SHAPE_SELFOVERLAP>
1209.848

> <PUBCHEM_SHAPE_VOLUME>
259.9

> <PUBCHEM_COORDINATE_TYPE>
2
5
10

$$$$
