135761164
  -OEChem-03292013293D

 55 57  0     1  0  0  0  0  0999 V2000
    4.9070   -0.4671    2.7117 O   0  0  0  0  0  0  0  0  0  0  0  0
    3.8316    3.0712    1.3245 O   0  0  0  0  0  0  0  0  0  0  0  0
   -4.0898   -0.4772   -1.8150 O   0  0  0  0  0  0  0  0  0  0  0  0
   -6.2053    1.2567    2.4461 O   0  5  0  0  0  0  0  0  0  0  0  0
   -7.4014    1.7846    0.5745 O   0  0  0  0  0  0  0  0  0  0  0  0
   -9.3749   -1.5684   -0.3737 O   0  5  0  0  0  0  0  0  0  0  0  0
   -7.3954   -2.1720   -1.3398 O   0  0  0  0  0  0  0  0  0  0  0  0
    4.6949    1.1492    0.2831 N   0  0  0  0  0  0  0  0  0  0  0  0
    5.7498   -0.0588   -1.9568 N   0  0  0  0  0  0  0  0  0  0  0  0
    1.8099    1.5572   -0.6096 N   0  0  0  0  0  0  0  0  0  0  0  0
    6.5863   -1.8845   -0.6719 N   0  0  0  0  0  0  0  0  0  0  0  0
    6.3081   -1.9130    1.6477 N   0  0  0  0  0  0  0  0  0  0  0  0
   -4.4042    0.3831    0.3152 N   0  0  0  0  0  0  0  0  0  0  0  0
    7.5009   -3.6205    0.6065 N   0  0  0  0  0  0  0  0  0  0  0  0
    4.1960    1.5600   -1.0503 C   0  0  1  0  0  0  0  0  0  0  0  0
    5.2386    1.2774   -2.1308 C   0  0  0  0  0  0  0  0  0  0  0  0
    2.8478    0.8957   -1.3513 C   0  0  0  0  0  0  0  0  0  0  0  0
    5.3816   -0.0746    0.3809 C   0  0  0  0  0  0  0  0  0  0  0  0
    5.8973   -0.6851   -0.7237 C   0  0  0  0  0  0  0  0  0  0  0  0
    5.5105   -0.7900    1.6935 C   0  0  0  0  0  0  0  0  0  0  0  0
    4.4352    2.0021    1.3557 C   0  0  0  0  0  0  0  0  0  0  0  0
    0.4692    1.1959   -0.6600 C   0  0  0  0  0  0  0  0  0  0  0  0
    6.7970   -2.4527    0.4771 C   0  0  0  0  0  0  0  0  0  0  0  0
    0.0622    0.1328   -1.4662 C   0  0  0  0  0  0  0  0  0  0  0  0
   -0.4702    1.8974    0.0958 C   0  0  0  0  0  0  0  0  0  0  0  0
   -5.8061    0.0492    0.4258 C   0  0  1  0  0  0  0  0  0  0  0  0
   -2.2233    0.4727   -0.7605 C   0  0  0  0  0  0  0  0  0  0  0  0
   -5.9935   -1.3618    1.0015 C   0  0  0  0  0  0  0  0  0  0  0  0
   -1.2839   -0.2288   -1.5165 C   0  0  0  0  0  0  0  0  0  0  0  0
   -1.8163    1.5358    0.0455 C   0  0  0  0  0  0  0  0  0  0  0  0
   -3.6265    0.0947   -0.8123 C   0  0  0  0  0  0  0  0  0  0  0  0
   -7.4463   -1.8398    0.9905 C   0  0  0  0  0  0  0  0  0  0  0  0
   -6.5407    1.1334    1.2356 C   0  0  0  0  0  0  0  0  0  0  0  0
   -8.1461   -1.8547   -0.3727 C   0  0  0  0  0  0  0  0  0  0  0  0
    4.0469    2.6486   -1.0477 H   0  0  0  0  0  0  0  0  0  0  0  0
    4.8265    1.4034   -3.1374 H   0  0  0  0  0  0  0  0  0  0  0  0
    6.0734    1.9814   -2.0296 H   0  0  0  0  0  0  0  0  0  0  0  0
    2.8798   -0.1722   -1.1045 H   0  0  0  0  0  0  0  0  0  0  0  0
    2.6343    0.9916   -2.4229 H   0  0  0  0  0  0  0  0  0  0  0  0
    6.1783   -0.5278   -2.7479 H   0  0  0  0  0  0  0  0  0  0  0  0
    2.0529    2.3422   -0.0151 H   0  0  0  0  0  0  0  0  0  0  0  0
    4.9010    1.6856    2.2951 H   0  0  0  0  0  0  0  0  0  0  0  0
    6.4669   -2.4209    2.5129 H   0  0  0  0  0  0  0  0  0  0  0  0
    0.7599   -0.4397   -2.0702 H   0  0  0  0  0  0  0  0  0  0  0  0
   -0.1671    2.7321    0.7231 H   0  0  0  0  0  0  0  0  0  0  0  0
   -6.2092    0.0692   -0.5939 H   0  0  0  0  0  0  0  0  0  0  0  0
   -5.6174   -1.3993    2.0319 H   0  0  0  0  0  0  0  0  0  0  0  0
   -5.3795   -2.0711    0.4313 H   0  0  0  0  0  0  0  0  0  0  0  0
   -1.5802   -1.0630   -2.1473 H   0  0  0  0  0  0  0  0  0  0  0  0
   -2.5180    2.1278    0.6257 H   0  0  0  0  0  0  0  0  0  0  0  0
   -3.9657    0.7700    1.1445 H   0  0  0  0  0  0  0  0  0  0  0  0
   -7.4841   -2.8642    1.3812 H   0  0  0  0  0  0  0  0  0  0  0  0
   -8.0359   -1.2237    1.6805 H   0  0  0  0  0  0  0  0  0  0  0  0
    7.8931   -4.0896   -0.2027 H   0  0  0  0  0  0  0  0  0  0  0  0
    7.6509   -4.0503    1.5127 H   0  0  0  0  0  0  0  0  0  0  0  0
  1 20  2  0  0  0  0
  2 21  2  0  0  0  0
  3 31  2  0  0  0  0
  4 33  1  0  0  0  0
  5 33  2  0  0  0  0
  6 34  1  0  0  0  0
  7 34  2  0  0  0  0
  8 15  1  0  0  0  0
  8 18  1  0  0  0  0
  8 21  1  0  0  0  0
  9 16  1  0  0  0  0
  9 19  1  0  0  0  0
  9 40  1  0  0  0  0
 10 17  1  0  0  0  0
 10 22  1  0  0  0  0
 10 41  1  0  0  0  0
 11 19  1  0  0  0  0
 11 23  2  0  0  0  0
 12 20  1  0  0  0  0
 12 23  1  0  0  0  0
 12 43  1  0  0  0  0
 13 26  1  0  0  0  0
 13 31  1  0  0  0  0
 13 51  1  0  0  0  0
 14 23  1  0  0  0  0
 14 54  1  0  0  0  0
 14 55  1  0  0  0  0
 15 16  1  0  0  0  0
 15 17  1  0  0  0  0
 15 35  1  0  0  0  0
 16 36  1  0  0  0  0
 16 37  1  0  0  0  0
 17 38  1  0  0  0  0
 17 39  1  0  0  0  0
 18 19  2  0  0  0  0
 18 20  1  0  0  0  0
 21 42  1  0  0  0  0
 22 24  2  0  0  0  0
 22 25  1  0  0  0  0
 24 29  1  0  0  0  0
 24 44  1  0  0  0  0
 25 30  2  0  0  0  0
 25 45  1  0  0  0  0
 26 28  1  0  0  0  0
 26 33  1  0  0  0  0
 26 46  1  0  0  0  0
 27 29  2  0  0  0  0
 27 30  1  0  0  0  0
 27 31  1  0  0  0  0
 28 32  1  0  0  0  0
 28 47  1  0  0  0  0
 28 48  1  0  0  0  0
 29 49  1  0  0  0  0
 30 50  1  0  0  0  0
 32 34  1  0  0  0  0
 32 52  1  0  0  0  0
 32 53  1  0  0  0  0
M  CHG  2   4  -1   6  -1
M  END
> <PUBCHEM_COMPOUND_CID>
135761164

> <PUBCHEM_CONFORMER_RMSD>
1.2

> <PUBCHEM_CONFORMER_DIVERSEORDER>
1
87
36
10
82
31
65
73
61
56
75
43
81
58
89
25
6
27
50
51
28
40
78
59
76
2
77
84
39
55
41
54
67
53
72
38
35
68
46
47
18
57
37
86
4
45
29
60
49
44
66
5
88
62
52
70
32
42
85
3
83
64
17
19
24
71
12
9
14
11
74
7
79
48
20
34
26
80
16
33
13
30
23
15
63
69
8
22
21

> <PUBCHEM_MMFF94_PARTIAL_CHARGES>
44
1 -0.57
10 -0.87
11 -0.62
12 -0.49
13 -0.73
14 -0.85
15 0.3
16 0.37
17 0.37
18 0.12
19 0.27
2 -0.57
20 0.62
21 0.57
22 0.1
23 0.56
24 -0.15
25 -0.15
26 0.19
27 0.09
29 -0.15
3 -0.57
30 -0.15
31 0.54
32 -0.11
33 0.91
34 0.91
4 -0.9
40 0.4
41 0.4
42 0.06
43 0.37
44 0.15
45 0.15
49 0.15
5 -0.9
50 0.15
51 0.37
54 0.4
55 0.4
6 -0.9
7 -0.9
8 -0.47
9 -0.87

> <PUBCHEM_EFFECTIVE_ROTOR_COUNT>
11.8

> <PUBCHEM_PHARMACOPHORE_FEATURES>
19
1 1 acceptor
1 10 cation
1 10 donor
1 12 donor
1 13 donor
1 14 donor
1 2 acceptor
1 3 acceptor
1 4 acceptor
1 5 acceptor
1 6 acceptor
1 7 acceptor
1 9 cation
1 9 donor
3 4 5 33 anion
3 6 7 34 anion
6 11 12 18 19 20 23 rings
6 22 24 25 27 29 30 rings
6 8 9 15 16 18 19 rings

> <PUBCHEM_HEAVY_ATOM_COUNT>
34

> <PUBCHEM_ATOM_DEF_STEREO_COUNT>
2

> <PUBCHEM_ATOM_UDEF_STEREO_COUNT>
0

> <PUBCHEM_BOND_DEF_STEREO_COUNT>
0

> <PUBCHEM_BOND_UDEF_STEREO_COUNT>
0

> <PUBCHEM_ISOTOPIC_ATOM_COUNT>
0

> <PUBCHEM_COMPONENT_COUNT>
1

> <PUBCHEM_CACTVS_TAUTO_COUNT>
-1

> <PUBCHEM_CONFORMER_ID>
08178D0C00000001

> <PUBCHEM_MMFF94_ENERGY>
102.9045

> <PUBCHEM_FEATURE_SELFOVERLAP>
96.608

> <PUBCHEM_SHAPE_FINGERPRINT>
10 15 17632300133398131105
11408170 132 13190602941799051463
11456790 92 15985106263274285562
11578821 258 10591778558696976187
12539765 74 8718835292607407041
13533116 47 17894917338909975492
13782708 43 17822004337477892165
14347424 109 18131347514685140456
15082195 135 12035442827333426030
15183329 4 16298383591452258145
15352257 5 17894354388544928787
15840311 113 11959741477045581273
1754908 1 15769781290804509703
21033648 29 14548730729803914748
21130935 74 18336550503320657083
21150785 3 10953749905907867885
21792934 111 17274544217980443993
23081809 10 18410580617045661085
23522609 53 18046097979789548837
23569943 247 18262235500084169275
24771293 8 11815889054968798394
25269216 80 11747232264040372657
2838139 119 13542477427564239337
328310 630 10952056650117897067
397830 11 15410610441154313815
4093350 32 9943532924732959112
4616759 239 16487266491556573747
474113 269 18410283727942904543
4918590 3 11959723881250729101
504579 68 14056993923640918335
5104073 3 17774718765930554716
57359948 33 10953725721437439794
9831232 110 17531518794253275786
9962374 69 18334289890751246486

> <PUBCHEM_SHAPE_MULTIPOLES>
623.75
28.42
2.81
2.01
32.06
1.33
0.44
19.83
4.81
-3.44
0.72
-1.2
-0.24
-2.43

> <PUBCHEM_SHAPE_SELFOVERLAP>
1326.845

> <PUBCHEM_SHAPE_VOLUME>
340.2

> <PUBCHEM_COORDINATE_TYPE>
2
5
10

$$$$
