REMARK  Name = 135783055
REMARK  7 active torsions:
REMARK  status: ('A' for Active; 'I' for Inactive)
REMARK    1  A    between atoms: N_2  and  C_17
REMARK    2  A    between atoms: C_18  and  C_28
REMARK    3  A    between atoms: C_20  and  O_21
REMARK    4  A    between atoms: O_21  and  P_22
REMARK    5  A    between atoms: P_22  and  O_24
REMARK    6  A    between atoms: P_22  and  O_26
REMARK    7  A    between atoms: C_28  and  O_29
REMARK                            x       y       z     vdW  Elec       q    Type
REMARK                         _______ _______ _______ _____ _____    ______ ____
ROOT
ATOM      1  O   UNL     1      -4.651  -0.686   1.709  0.00  0.00    -0.273 OA
ATOM      2  N   UNL     1      -0.729  -0.559  -0.660  0.00  0.00    -0.245 N 
ATOM      3  N   UNL     1      -1.945  -1.650   0.926  0.00  0.00    -0.241 NA
ATOM      4  N   UNL     1      -2.411   1.249  -1.125  0.00  0.00    -0.361 NA
ATOM      5  N   UNL     1      -4.374   1.032   0.180  0.00  0.00    -0.246 N 
ATOM      6  N   UNL     1      -4.158   2.797  -1.341  0.00  0.00    -0.321 N 
ATOM      7  C   UNL     1      -0.639  -1.703   0.260  0.00  0.00    +0.173 C 
ATOM      8  C   UNL     1      -1.951   0.117  -0.497  0.00  0.00    +0.190 C 
ATOM      9  C   UNL     1      -2.647  -0.559   0.443  0.00  0.00    +0.204 C 
ATOM     10  C   UNL     1      -2.308  -2.590   1.951  0.00  0.00    +0.092 C 
ATOM     11  C   UNL     1      -3.982  -0.111   0.861  0.00  0.00    +0.252 C 
ATOM     12  C   UNL     1      -3.596   1.680  -0.781  0.00  0.00    +0.239 C 
ATOM     13  H   UNL     1      -5.258   1.411   0.388  0.00  0.00    +0.159 HD
ATOM     14  H   UNL     1      -3.667   3.305  -2.026  0.00  0.00    +0.146 HD
ATOM     15  H   UNL     1      -5.054   3.093  -1.057  0.00  0.00    +0.146 HD
ENDROOT
BRANCH   2  17
ATOM     16  O   UNL     1       1.133  -1.274  -1.950  0.00  0.00    -0.326 OA
ATOM     17  C   UNL     1       0.400  -0.136  -1.446  0.00  0.00    +0.222 C 
ATOM     18  C   UNL     1       2.465  -1.258  -1.385  0.00  0.00    +0.203 C 
ATOM     19  C   UNL     1       1.353   0.625  -0.598  0.00  0.00    +0.060 C 
ATOM     20  C   UNL     1       2.517  -0.020  -0.573  0.00  0.00    +0.156 C 
BRANCH  20  21
ATOM     21  O   UNL     1       3.648   0.382   0.071  0.00  0.00    -0.405 OA
BRANCH  21  22
ATOM     22  P   UNL     1       3.737   1.746   0.924  0.00  0.00    +0.528 P 
ATOM     23  O   UNL     1       3.470   3.016   0.171  0.00  0.00    -0.216 OA
BRANCH  22  24
ATOM     24  O   UNL     1       5.209   1.664   1.592  0.00  0.00    -0.293 OA
ATOM     25  H   UNL     1       5.305   0.819   2.059  0.00  0.00    +0.223 HD
ENDBRANCH  22  24
BRANCH  22  26
ATOM     26  O   UNL     1       2.758   1.489   2.187  0.00  0.00    -0.293 OA
ATOM     27  H   UNL     1       2.996   0.653   2.616  0.00  0.00    +0.223 HD
ENDBRANCH  22  26
ENDBRANCH  21  22
ENDBRANCH  20  21
BRANCH  18  28
ATOM     28  C   UNL     1       2.658  -2.531  -0.575  0.00  0.00    +0.175 C 
BRANCH  28  29
ATOM     29  O   UNL     1       4.044  -2.717  -0.343  0.00  0.00    -0.379 OA
ATOM     30  H   UNL     1       4.179  -3.527   0.173  0.00  0.00    +0.211 HD
ENDBRANCH  28  29
ENDBRANCH  18  28
ENDBRANCH   2  17
TORSDOF 7
