REMARK  Name = 135765031
REMARK  4 active torsions:
REMARK  status: ('A' for Active; 'I' for Inactive)
REMARK    1  A    between atoms: C_7  and  C_16
REMARK    2  A    between atoms: C_16  and  O_17
REMARK    3  A    between atoms: C_16  and  C_19
REMARK    4  A    between atoms: C_19  and  O_21
REMARK                            x       y       z     vdW  Elec       q    Type
REMARK                         _______ _______ _______ _____ _____    ______ ____
ROOT
ATOM      1  O   UNL     1      -3.151  -2.133  -0.352  0.00  0.00    -0.267 OA
ATOM      2  N   UNL     1       0.669   0.537   0.346  0.00  0.00    -0.343 NA
ATOM      3  N   UNL     1      -0.455  -2.013  -0.021  0.00  0.00    -0.248 NA
ATOM      4  N   UNL     1      -3.330   0.171  -0.163  0.00  0.00    -0.242 N 
ATOM      5  N   UNL     1      -1.444   1.539   0.187  0.00  0.00    -0.308 NA
ATOM      6  N   UNL     1      -3.582   2.489   0.020  0.00  0.00    -0.320 N 
ATOM      7  C   UNL     1       1.420  -0.585   0.333  0.00  0.00    +0.153 C 
ATOM      8  C   UNL     1      -0.659   0.375   0.174  0.00  0.00    +0.163 C 
ATOM      9  C   UNL     1      -1.194  -0.887  -0.006  0.00  0.00    +0.216 C 
ATOM     10  C   UNL     1       0.869  -1.836   0.152  0.00  0.00    +0.184 C 
ATOM     11  C   UNL     1      -2.641  -1.031  -0.191  0.00  0.00    +0.281 C 
ATOM     12  C   UNL     1      -2.732   1.415   0.023  0.00  0.00    +0.249 C 
ATOM     13  H   UNL     1      -4.307   0.143  -0.282  0.00  0.00    +0.159 HD
ATOM     14  H   UNL     1      -4.548   2.353  -0.107  0.00  0.00    +0.146 HD
ATOM     15  H   UNL     1      -3.225   3.398   0.146  0.00  0.00    +0.146 HD
ENDROOT
BRANCH   7  16
ATOM     16  C   UNL     1       2.889  -0.429   0.521  0.00  0.00    +0.188 C 
BRANCH  16  17
ATOM     17  O   UNL     1       3.162   0.072   1.841  0.00  0.00    -0.376 OA
ATOM     18  H   UNL     1       4.120   0.171   1.958  0.00  0.00    +0.211 HD
ENDBRANCH  16  17
BRANCH  16  19
ATOM     19  C   UNL     1       3.609   0.483  -0.506  0.00  0.00    +0.144 C 
ATOM     20  C   UNL     1       3.443   0.012  -1.944  0.00  0.00    +0.035 C 
BRANCH  19  21
ATOM     21  O   UNL     1       3.126   1.821  -0.415  0.00  0.00    -0.382 OA
ATOM     22  H   UNL     1       3.224   2.139   0.496  0.00  0.00    +0.210 HD
ENDBRANCH  19  21
ENDBRANCH  16  19
ENDBRANCH   7  16
TORSDOF 4
