REMARK  Name = 135854983
REMARK  4 active torsions:
REMARK  status: ('A' for Active; 'I' for Inactive)
REMARK    1  A    between atoms: C_5  and  N_13
REMARK    2  A    between atoms: N_13  and  C_15
REMARK    3  A    between atoms: C_15  and  C_16
REMARK    4  A    between atoms: C_16  and  O_17
REMARK                            x       y       z     vdW  Elec       q    Type
REMARK                         _______ _______ _______ _____ _____    ______ ____
ROOT
ATOM      1  O   UNL     1      -0.529   2.430   0.215  0.00  0.00    -0.272 OA
ATOM      2  N   UNL     1      -2.342   1.034  -0.030  0.00  0.00    -0.246 N 
ATOM      3  N   UNL     1      -2.090  -1.298  -0.076  0.00  0.00    -0.361 NA
ATOM      4  N   UNL     1      -4.213  -0.331  -0.283  0.00  0.00    -0.321 N 
ATOM      5  C   UNL     1      -0.151   0.080   0.184  0.00  0.00    +0.220 C 
ATOM      6  C   UNL     1      -0.720  -1.147   0.082  0.00  0.00    +0.184 C 
ATOM      7  C   UNL     1      -1.000   1.300   0.128  0.00  0.00    +0.255 C 
ATOM      8  C   UNL     1      -2.854  -0.246  -0.128  0.00  0.00    +0.239 C 
ATOM      9  H   UNL     1      -2.967   1.793  -0.075  0.00  0.00    +0.159 HD
ATOM     10  H   UNL     1      -4.757   0.488  -0.318  0.00  0.00    +0.146 HD
ATOM     11  H   UNL     1      -4.645  -1.213  -0.359  0.00  0.00    +0.146 HD
ATOM     12  N   UNL     1       0.067  -2.279   0.134  0.00  0.00    -0.335 N 
ATOM     13  H   UNL     1      -0.346  -3.169   0.059  0.00  0.00    +0.144 HD
ATOM     14  H   UNL     1       1.042  -2.196   0.245  0.00  0.00    +0.144 HD
ENDROOT
BRANCH   5  16
ATOM     15  O   UNL     1       3.073  -0.104   1.692  0.00  0.00    -0.265 OA
ATOM     16  N   UNL     1       1.191   0.289   0.340  0.00  0.00    -0.257 N 
ATOM     17  C   UNL     1       1.879  -0.220   1.437  0.00  0.00    +0.304 C 
BRANCH  16  18
ATOM     18  C   UNL     1       1.894   1.064  -0.676  0.00  0.00    +0.126 C 
BRANCH  18  19
ATOM     19  C   UNL     1       2.431   0.175  -1.783  0.00  0.00    +0.159 C 
BRANCH  19  20
ATOM     20  O   UNL     1       3.364  -0.748  -1.236  0.00  0.00    -0.380 OA
ATOM     21  H   UNL     1       3.708  -1.317  -1.943  0.00  0.00    +0.211 HD
ENDBRANCH  19  20
ENDBRANCH  18  19
ENDBRANCH  16  18
ENDBRANCH   5  16
TORSDOF 4
