REMARK  Name = 135836
REMARK  4 active torsions:
REMARK  status: ('A' for Active; 'I' for Inactive)
REMARK    1  A    between atoms: C_7  and  O_24
REMARK    2  A    between atoms: C_8  and  C_16
REMARK    3  A    between atoms: O_24  and  C_26
REMARK    4  A    between atoms: C_26  and  C_27
REMARK                            x       y       z     vdW  Elec       q    Type
REMARK                         _______ _______ _______ _____ _____    ______ ____
ROOT
ATOM      1  S   UNL     1       2.368  -2.183   0.701  0.00  0.00    +0.077 S 
ATOM      2  O   UNL     1       1.765  -1.956   2.000  0.00  0.00    -0.150 OA
ATOM      3  O   UNL     1       3.262  -3.303   0.471  0.00  0.00    -0.150 OA
ATOM      4  N   UNL     1       1.149  -2.194  -0.519  0.00  0.00    -0.181 N 
ATOM      5  C   UNL     1       3.259  -0.728   0.288  0.00  0.00    +0.128 C 
ATOM      6  C   UNL     1       2.579   0.307  -0.357  0.00  0.00    +0.055 C 
ATOM      7  C   UNL     1       1.125   0.215  -0.610  0.00  0.00    +0.169 C 
ATOM      8  C   UNL     1       0.450  -0.946  -0.693  0.00  0.00    +0.157 C 
ATOM      9  C   UNL     1       4.628  -0.673   0.558  0.00  0.00    +0.020 C 
ATOM     10  C   UNL     1       3.335   1.425  -0.746  0.00  0.00    +0.004 C 
ATOM     11  C   UNL     1       0.416  -3.476  -0.677  0.00  0.00    +0.139 C 
ATOM     12  C   UNL     1       5.351   0.452   0.176  0.00  0.00    +0.001 C 
ATOM     13  C   UNL     1       4.707   1.498  -0.479  0.00  0.00    +0.000 C 
ENDROOT
BRANCH   8  16
ATOM     14  O   UNL     1      -1.352  -0.991  -2.179  0.00  0.00    -0.268 OA
ATOM     15  N   UNL     1      -1.770  -0.864   0.135  0.00  0.00    -0.265 N 
ATOM     16  C   UNL     1      -0.986  -0.937  -1.007  0.00  0.00    +0.269 C 
ATOM     17  H   UNL     1      -1.288  -0.828   0.992  0.00  0.00    +0.157 HD
ATOM     18  N   UNL     1      -3.748  -0.760   1.427  0.00  0.00    -0.229 NA
ATOM     19  C   UNL     1      -3.184  -0.833   0.209  0.00  0.00    +0.134 C 
ATOM     20  C   UNL     1      -3.872  -0.883  -0.984  0.00  0.00    +0.034 C 
ATOM     21  C   UNL     1      -5.260  -0.854  -0.921  0.00  0.00    +0.004 C 
ATOM     22  C   UNL     1      -5.099  -0.734   1.448  0.00  0.00    +0.100 C 
ATOM     23  C   UNL     1      -5.894  -0.779   0.314  0.00  0.00    +0.021 C 
ENDBRANCH   8  16
BRANCH   7  24
ATOM     24  O   UNL     1       0.452   1.420  -0.757  0.00  0.00    -0.423 OA
BRANCH  24  26
ATOM     25  O   UNL     1       0.073   1.437   1.530  0.00  0.00    -0.250 OA
ATOM     26  C   UNL     1      -0.036   1.937   0.416  0.00  0.00    +0.320 C 
BRANCH  26  27
ATOM     27  C   UNL     1      -0.746   3.269   0.138  0.00  0.00    +0.090 C 
ATOM     28  C   UNL     1      -1.304   3.836   1.451  0.00  0.00    +0.011 C 
ATOM     29  C   UNL     1      -1.910   3.037  -0.839  0.00  0.00    +0.011 C 
ATOM     30  C   UNL     1       0.244   4.258  -0.494  0.00  0.00    +0.011 C 
ENDBRANCH  26  27
ENDBRANCH  24  26
ENDBRANCH   7  24
TORSDOF 4
