REMARK  Name = 135849776
REMARK  5 active torsions:
REMARK  status: ('A' for Active; 'I' for Inactive)
REMARK    1  A    between atoms: N_2  and  C_19
REMARK    2  A    between atoms: C_16  and  C_24
REMARK    3  A    between atoms: C_17  and  O_20
REMARK    4  A    between atoms: C_18  and  O_22
REMARK    5  A    between atoms: C_24  and  O_26
REMARK                            x       y       z     vdW  Elec       q    Type
REMARK                         _______ _______ _______ _____ _____    ______ ____
ROOT
ATOM      1  O   UNL     1      -1.661  -2.200   0.645  0.00  0.00    -0.272 OA
ATOM      2  N   UNL     1      -0.305   0.468   0.160  0.00  0.00    -0.207 NA
ATOM      3  N   UNL     1      -1.448   2.316  -0.343  0.00  0.00    -0.194 NA
ATOM      4  N   UNL     1      -3.624  -1.044   0.233  0.00  0.00    -0.245 N 
ATOM      5  N   UNL     1      -3.706   1.296  -0.295  0.00  0.00    -0.323 NA
ATOM      6  N   UNL     1      -5.668   0.026  -0.168  0.00  0.00    -0.320 N 
ATOM      7  C   UNL     1      -1.621   0.108   0.135  0.00  0.00    +0.236 C 
ATOM      8  C   UNL     1      -0.252   1.806  -0.134  0.00  0.00    +0.216 C 
ATOM      9  C   UNL     1      -2.305   1.260  -0.176  0.00  0.00    +0.087 C 
ATOM     10  C   UNL     1      -2.241  -1.156   0.368  0.00  0.00    +0.259 C 
ATOM     11  C   UNL     1      -4.304   0.146  -0.086  0.00  0.00    +0.248 C 
ATOM     12  H   UNL     1      -4.164  -1.855   0.372  0.00  0.00    +0.159 HD
ATOM     13  H   UNL     1      -6.096  -0.846  -0.007  0.00  0.00    +0.146 HD
ATOM     14  H   UNL     1      -6.219   0.811  -0.387  0.00  0.00    +0.146 HD
ENDROOT
BRANCH   2  19
ATOM     15  O   UNL     1       1.944   0.319   1.097  0.00  0.00    -0.336 OA
ATOM     16  C   UNL     1       3.212  -0.078   0.528  0.00  0.00    +0.173 C 
ATOM     17  C   UNL     1       2.926  -1.282  -0.360  0.00  0.00    +0.171 C 
ATOM     18  C   UNL     1       1.501  -1.019  -0.805  0.00  0.00    +0.183 C 
ATOM     19  C   UNL     1       0.883  -0.417   0.453  0.00  0.00    +0.208 C 
BRANCH  17  20
ATOM     20  O   UNL     1       2.985  -2.453   0.453  0.00  0.00    -0.379 OA
ATOM     21  H   UNL     1       3.902  -2.608   0.730  0.00  0.00    +0.211 HD
ENDBRANCH  17  20
BRANCH  18  22
ATOM     22  O   UNL     1       0.835  -2.187  -1.243  0.00  0.00    -0.378 OA
ATOM     23  H   UNL     1       1.268  -2.525  -2.042  0.00  0.00    +0.211 HD
ENDBRANCH  18  22
BRANCH  16  24
ATOM     24  C   UNL     1       3.782   1.107  -0.239  0.00  0.00    +0.140 C 
ATOM     25  C   UNL     1       4.093   2.278   0.680  0.00  0.00    +0.034 C 
BRANCH  24  26
ATOM     26  O   UNL     1       4.974   0.703  -0.905  0.00  0.00    -0.382 OA
ATOM     27  H   UNL     1       4.779  -0.044  -1.492  0.00  0.00    +0.210 HD
ENDBRANCH  24  26
ENDBRANCH  16  24
ENDBRANCH   2  19
TORSDOF 5
