REMARK  Name = 135801683
REMARK  4 active torsions:
REMARK  status: ('A' for Active; 'I' for Inactive)
REMARK    1  A    between atoms: C_2  and  O_20
REMARK    2  A    between atoms: C_4  and  C_17
REMARK    3  A    between atoms: C_5  and  C_8
REMARK    4  A    between atoms: C_9  and  O_13
REMARK                            x       y       z     vdW  Elec       q    Type
REMARK                         _______ _______ _______ _____ _____    ______ ____
ROOT
ATOM      1  N   UNL     1       0.920   0.596   0.582  0.00  0.00    -0.263 NA
ATOM      2  C   UNL     1       0.640  -1.650  -0.202  0.00  0.00    +0.127 C 
ATOM      3  C   UNL     1       2.086  -1.216  -0.428  0.00  0.00    +0.066 C 
ATOM      4  C   UNL     1       2.237  -0.060   0.544  0.00  0.00    +0.181 C 
ATOM      5  C   UNL     1       0.059  -0.295   0.183  0.00  0.00    +0.099 C 
ATOM      6  C   UNL     1       0.069  -2.309  -1.448  0.00  0.00    +0.036 C 
ENDROOT
BRANCH   5   8
ATOM      7  N   UNL     1      -2.212  -1.031   0.312  0.00  0.00    -0.240 NA
ATOM      8  C   UNL     1      -1.387   0.022   0.117  0.00  0.00    +0.130 C 
ATOM      9  C   UNL     1      -1.824   1.313  -0.133  0.00  0.00    +0.152 C 
ATOM     10  C   UNL     1      -3.195   1.538  -0.185  0.00  0.00    +0.040 C 
ATOM     11  C   UNL     1      -3.538  -0.774   0.254  0.00  0.00    +0.099 C 
ATOM     12  C   UNL     1      -4.075   0.480   0.011  0.00  0.00    +0.024 C 
BRANCH   9  13
ATOM     13  O   UNL     1      -0.956   2.340  -0.325  0.00  0.00    -0.504 OA
ATOM     14  H   UNL     1      -0.032   2.185  -0.290  0.00  0.00    +0.292 HD
ENDBRANCH   9  13
ENDBRANCH   5   8
BRANCH   4  17
ATOM     15  O   UNL     1       2.861   2.106  -0.232  0.00  0.00    -0.273 OA
ATOM     16  N   UNL     1       4.501   0.506  -0.021  0.00  0.00    -0.327 N 
ATOM     17  C   UNL     1       3.208   0.966   0.067  0.00  0.00    +0.242 C 
ATOM     18  H   UNL     1       5.218   1.108  -0.327  0.00  0.00    +0.145 HD
ATOM     19  H   UNL     1       4.711  -0.424   0.222  0.00  0.00    +0.145 HD
ENDBRANCH   4  17
BRANCH   2  20
ATOM     20  O   UNL     1       0.607  -2.530   0.905  0.00  0.00    -0.381 OA
ATOM     21  H   UNL     1       0.977  -2.085   1.684  0.00  0.00    +0.211 HD
ENDBRANCH   2  20
TORSDOF 4
