135849764
  -OEChem-03292013293D

 22 23  0     0  0  0  0  0  0999 V2000
   -0.2793   -2.1126   -0.6713 O   0  0  0  0  0  0  0  0  0  0  0  0
   -4.1545   -0.8465    0.0915 O   0  0  0  0  0  0  0  0  0  0  0  0
   -2.4043   -0.4730    1.4913 O   0  0  0  0  0  0  0  0  0  0  0  0
   -0.9617    0.8332   -0.4536 N   0  0  0  0  0  0  0  0  0  0  0  0
    0.5611    2.3773    0.0652 N   0  0  0  0  0  0  0  0  0  0  0  0
    1.8707   -1.4435   -0.1295 N   0  0  0  0  0  0  0  0  0  0  0  0
    2.4897    0.8379    0.2865 N   0  0  0  0  0  0  0  0  0  0  0  0
    4.0766   -0.8785    0.4133 N   0  0  0  0  0  0  0  0  0  0  0  0
    0.2160    0.1661   -0.2836 C   0  0  0  0  0  0  0  0  0  0  0  0
    1.1384    1.1354    0.0344 C   0  0  0  0  0  0  0  0  0  0  0  0
   -2.2453    0.2715   -0.7991 C   0  0  0  0  0  0  0  0  0  0  0  0
    0.5189   -1.2247   -0.3913 C   0  0  0  0  0  0  0  0  0  0  0  0
   -0.7032    2.1611   -0.2333 C   0  0  0  0  0  0  0  0  0  0  0  0
    2.7969   -0.4358    0.1939 C   0  0  0  0  0  0  0  0  0  0  0  0
   -2.9199   -0.3678    0.3857 C   0  0  0  0  0  0  0  0  0  0  0  0
   -2.0963   -0.4670   -1.5918 H   0  0  0  0  0  0  0  0  0  0  0  0
   -2.8786    1.0812   -1.1762 H   0  0  0  0  0  0  0  0  0  0  0  0
   -1.4701    2.9207   -0.3023 H   0  0  0  0  0  0  0  0  0  0  0  0
    2.2098   -2.3999   -0.1755 H   0  0  0  0  0  0  0  0  0  0  0  0
    4.8213   -0.2332    0.6531 H   0  0  0  0  0  0  0  0  0  0  0  0
    4.3159   -1.8615    0.3425 H   0  0  0  0  0  0  0  0  0  0  0  0
   -4.5765   -1.2726    0.8678 H   0  0  0  0  0  0  0  0  0  0  0  0
  1 12  2  0  0  0  0
  2 15  1  0  0  0  0
  2 22  1  0  0  0  0
  3 15  2  0  0  0  0
  4  9  1  0  0  0  0
  4 11  1  0  0  0  0
  4 13  1  0  0  0  0
  5 10  1  0  0  0  0
  5 13  2  0  0  0  0
  6 12  1  0  0  0  0
  6 14  1  0  0  0  0
  6 19  1  0  0  0  0
  7 10  1  0  0  0  0
  7 14  2  0  0  0  0
  8 14  1  0  0  0  0
  8 20  1  0  0  0  0
  8 21  1  0  0  0  0
  9 10  2  0  0  0  0
  9 12  1  0  0  0  0
 11 15  1  0  0  0  0
 11 16  1  0  0  0  0
 11 17  1  0  0  0  0
 13 18  1  0  0  0  0
M  END
> <PUBCHEM_COMPOUND_CID>
135849764

> <PUBCHEM_CONFORMER_RMSD>
0.6

> <PUBCHEM_CONFORMER_DIVERSEORDER>
1
4
5
3
2

> <PUBCHEM_MMFF94_PARTIAL_CHARGES>
20
1 -0.57
10 0.35
11 0.32
12 0.71
13 0.04
14 0.56
15 0.66
18 0.15
19 0.37
2 -0.65
20 0.4
21 0.4
22 0.5
3 -0.57
4 0.05
5 -0.57
6 -0.49
7 -0.57
8 -0.85
9 -0.24

> <PUBCHEM_EFFECTIVE_ROTOR_COUNT>
2

> <PUBCHEM_PHARMACOPHORE_FEATURES>
9
1 1 acceptor
1 2 acceptor
1 3 acceptor
1 6 donor
1 8 donor
3 2 3 15 anion
3 4 5 13 cation
5 4 5 9 10 13 rings
6 6 7 9 10 12 14 rings

> <PUBCHEM_HEAVY_ATOM_COUNT>
15

> <PUBCHEM_ATOM_DEF_STEREO_COUNT>
0

> <PUBCHEM_ATOM_UDEF_STEREO_COUNT>
0

> <PUBCHEM_BOND_DEF_STEREO_COUNT>
0

> <PUBCHEM_BOND_UDEF_STEREO_COUNT>
0

> <PUBCHEM_ISOTOPIC_ATOM_COUNT>
0

> <PUBCHEM_COMPONENT_COUNT>
1

> <PUBCHEM_CACTVS_TAUTO_COUNT>
-1

> <PUBCHEM_CONFORMER_ID>
0818E72400000001

> <PUBCHEM_MMFF94_ENERGY>
25.3077

> <PUBCHEM_FEATURE_SELFOVERLAP>
45.898

> <PUBCHEM_SHAPE_FINGERPRINT>
10219947 1 18412547634456643163
108231 29 18411979161259772888
11132069 177 18130495388503710198
11471102 22 18411145735566780211
11543360 7 15864083069722730862
12032990 46 18411419471360712886
12138202 97 17680417854147172013
12382932 28 18197221351884782713
13140716 1 18268983370805861050
13172582 1 18343018925636568110
13380535 76 17834100957868828444
14251717 144 18340484564778778023
15309172 13 18272930509721791630
16945 1 18341607135811510204
17844478 74 18410294670780725692
193761 8 17762894772604319262
200 152 18131058347532122717
20201158 50 18260548909587224803
20871998 184 18270955726961731204
20871998 22 18270973331742650599
21061003 4 18413389817371966953
22721475 48 18334021579158123333
2334 1 17979908638343104782
23463225 33 18409448102508964796
2748010 2 18125714583244626252
81228 2 17974305226282394625
8809292 202 18117280246347997803

> <PUBCHEM_SHAPE_MULTIPOLES>
266.18
5.28
2.05
0.83
0.42
0.69
-0.12
-2.16
-1.14
-0.24
0.21
0.41
-0.11
0.22

> <PUBCHEM_SHAPE_SELFOVERLAP>
578.186

> <PUBCHEM_SHAPE_VOLUME>
144.2

> <PUBCHEM_COORDINATE_TYPE>
2
5
10

$$$$
