135849776
  -OEChem-03292013293D

 36 38  0     1  0  0  0  0  0999 V2000
    1.9441    0.3187    1.0965 O   0  0  0  0  0  0  0  0  0  0  0  0
    2.9853   -2.4528    0.4534 O   0  0  0  0  0  0  0  0  0  0  0  0
    0.8349   -2.1866   -1.2429 O   0  0  0  0  0  0  0  0  0  0  0  0
    4.9739    0.7034   -0.9049 O   0  0  0  0  0  0  0  0  0  0  0  0
   -1.6605   -2.1996    0.6453 O   0  0  0  0  0  0  0  0  0  0  0  0
   -0.3050    0.4684    0.1601 N   0  0  0  0  0  0  0  0  0  0  0  0
   -1.4484    2.3155   -0.3432 N   0  0  0  0  0  0  0  0  0  0  0  0
   -3.6245   -1.0435    0.2333 N   0  0  0  0  0  0  0  0  0  0  0  0
   -3.7060    1.2965   -0.2950 N   0  0  0  0  0  0  0  0  0  0  0  0
   -5.6681    0.0257   -0.1675 N   0  0  0  0  0  0  0  0  0  0  0  0
    3.2123   -0.0778    0.5281 C   0  0  1  0  0  0  0  0  0  0  0  0
    2.9260   -1.2820   -0.3600 C   0  0  2  0  0  0  0  0  0  0  0  0
    1.5011   -1.0193   -0.8047 C   0  0  2  0  0  0  0  0  0  0  0  0
    0.8831   -0.4169    0.4528 C   0  0  1  0  0  0  0  0  0  0  0  0
    3.7822    1.1075   -0.2388 C   0  0  1  0  0  0  0  0  0  0  0  0
   -1.6205    0.1084    0.1353 C   0  0  0  0  0  0  0  0  0  0  0  0
    4.0927    2.2784    0.6801 C   0  0  0  0  0  0  0  0  0  0  0  0
   -0.2521    1.8062   -0.1338 C   0  0  0  0  0  0  0  0  0  0  0  0
   -2.3052    1.2599   -0.1758 C   0  0  0  0  0  0  0  0  0  0  0  0
   -2.2415   -1.1558    0.3677 C   0  0  0  0  0  0  0  0  0  0  0  0
   -4.3040    0.1458   -0.0857 C   0  0  0  0  0  0  0  0  0  0  0  0
    3.8814   -0.3496    1.3533 H   0  0  0  0  0  0  0  0  0  0  0  0
    3.6144   -1.4283   -1.1966 H   0  0  0  0  0  0  0  0  0  0  0  0
    1.4909   -0.2903   -1.6242 H   0  0  0  0  0  0  0  0  0  0  0  0
    0.5277   -1.1728    1.1602 H   0  0  0  0  0  0  0  0  0  0  0  0
    3.0712    1.4484   -1.0003 H   0  0  0  0  0  0  0  0  0  0  0  0
    4.8357    1.9978    1.4347 H   0  0  0  0  0  0  0  0  0  0  0  0
    3.1965    2.6451    1.1892 H   0  0  0  0  0  0  0  0  0  0  0  0
    4.5262    3.1074    0.1098 H   0  0  0  0  0  0  0  0  0  0  0  0
    3.9096   -2.5656    0.7342 H   0  0  0  0  0  0  0  0  0  0  0  0
    1.3542   -2.5612   -1.9746 H   0  0  0  0  0  0  0  0  0  0  0  0
    0.6783    2.3546   -0.1852 H   0  0  0  0  0  0  0  0  0  0  0  0
    5.3079    1.4698   -1.4017 H   0  0  0  0  0  0  0  0  0  0  0  0
   -4.1805   -1.8817    0.3758 H   0  0  0  0  0  0  0  0  0  0  0  0
   -6.2526    0.8236   -0.3920 H   0  0  0  0  0  0  0  0  0  0  0  0
   -6.1317   -0.8617   -0.0066 H   0  0  0  0  0  0  0  0  0  0  0  0
  1 11  1  0  0  0  0
  1 14  1  0  0  0  0
  2 12  1  0  0  0  0
  2 30  1  0  0  0  0
  3 13  1  0  0  0  0
  3 31  1  0  0  0  0
  4 15  1  0  0  0  0
  4 33  1  0  0  0  0
  5 20  2  0  0  0  0
  6 14  1  0  0  0  0
  6 16  1  0  0  0  0
  6 18  1  0  0  0  0
  7 18  2  0  0  0  0
  7 19  1  0  0  0  0
  8 20  1  0  0  0  0
  8 21  1  0  0  0  0
  8 34  1  0  0  0  0
  9 19  1  0  0  0  0
  9 21  2  0  0  0  0
 10 21  1  0  0  0  0
 10 35  1  0  0  0  0
 10 36  1  0  0  0  0
 11 12  1  0  0  0  0
 11 15  1  0  0  0  0
 11 22  1  0  0  0  0
 12 13  1  0  0  0  0
 12 23  1  0  0  0  0
 13 14  1  0  0  0  0
 13 24  1  0  0  0  0
 14 25  1  0  0  0  0
 15 17  1  0  0  0  0
 15 26  1  0  0  0  0
 16 19  2  0  0  0  0
 16 20  1  0  0  0  0
 17 27  1  0  0  0  0
 17 28  1  0  0  0  0
 17 29  1  0  0  0  0
 18 32  1  0  0  0  0
M  END
> <PUBCHEM_COMPOUND_CID>
135849776

> <PUBCHEM_CONFORMER_RMSD>
0.6

> <PUBCHEM_CONFORMER_DIVERSEORDER>
1
11
9
15
10
5
13
7
16
4
12
2
3
8
14
6

> <PUBCHEM_MMFF94_PARTIAL_CHARGES>
27
1 -0.56
10 -0.85
11 0.28
12 0.28
13 0.28
14 0.54
15 0.28
16 -0.24
18 0.04
19 0.35
2 -0.68
20 0.71
21 0.56
3 -0.68
30 0.4
31 0.4
32 0.15
33 0.4
34 0.37
35 0.4
36 0.4
4 -0.68
5 -0.57
6 0.05
7 -0.57
8 -0.49
9 -0.57

> <PUBCHEM_EFFECTIVE_ROTOR_COUNT>
3

> <PUBCHEM_PHARMACOPHORE_FEATURES>
14
1 1 acceptor
1 10 donor
1 2 acceptor
1 2 donor
1 3 acceptor
1 3 donor
1 4 acceptor
1 4 donor
1 5 acceptor
1 8 donor
3 6 7 18 cation
5 1 11 12 13 14 rings
5 6 7 16 18 19 rings
6 8 9 16 19 20 21 rings

> <PUBCHEM_HEAVY_ATOM_COUNT>
21

> <PUBCHEM_ATOM_DEF_STEREO_COUNT>
5

> <PUBCHEM_ATOM_UDEF_STEREO_COUNT>
0

> <PUBCHEM_BOND_DEF_STEREO_COUNT>
0

> <PUBCHEM_BOND_UDEF_STEREO_COUNT>
0

> <PUBCHEM_ISOTOPIC_ATOM_COUNT>
0

> <PUBCHEM_COMPONENT_COUNT>
1

> <PUBCHEM_CACTVS_TAUTO_COUNT>
-1

> <PUBCHEM_CONFORMER_ID>
0818E73000000001

> <PUBCHEM_MMFF94_ENERGY>
52.0495

> <PUBCHEM_FEATURE_SELFOVERLAP>
71.23

> <PUBCHEM_SHAPE_FINGERPRINT>
10366900 7 18202845465382346185
10498660 4 18409449202210717564
10608611 8 18338795615754477432
10616163 171 18411421755903629590
10759866 29 18334017181576082766
10906281 52 18337126630481934877
11132069 177 18336263547844734032
11578080 2 14546808718906918729
12011746 2 18342741831484308068
12236239 1 16950280706628516027
12403259 226 18047186345965550390
12403260 363 18194110828936504043
12633257 1 18123472674545392882
15196674 1 18337390448832001073
15219456 202 18413388713449015498
15375358 24 18410292527634275563
15375462 6 18409450271894710638
200 152 17489582325547619555
20510252 161 18339922611163122801
20645477 70 18271244924094844470
21267235 1 18337398153439204546
21501502 16 18269277859237884496
23227448 37 17984137343079152836
23402539 116 18335413599486322143
23557571 272 18262533605179160362
23559900 14 18267296530816289562
2871803 45 18410014321175123910
296302 2 18413390947206523267
34934 24 18337104669828762899
350125 39 18410291389990103522
3545911 37 18334297573909629636
4340502 62 15791732984449307489
4409770 3 16454590886609536070
474 4 17241056495544068588
5104073 3 18336548218419382577
5283173 99 18042393652401353069
5374978 207 18334007281169823272
58051976 378 18413671309892322844
59755656 215 18410297995792424718
7364860 26 18339078186464735354
9709674 26 18268433442787430503

> <PUBCHEM_SHAPE_MULTIPOLES>
377.92
9.29
2.39
0.85
2.8
0.2
-0.04
-1.99
-0.38
-1.14
-0.04
-0.48
0.14
0.58

> <PUBCHEM_SHAPE_SELFOVERLAP>
816.787

> <PUBCHEM_SHAPE_VOLUME>
207.1

> <PUBCHEM_COORDINATE_TYPE>
2
5
10

$$$$
