REMARK  Name = 135839
REMARK  11 active torsions:
REMARK  status: ('A' for Active; 'I' for Inactive)
REMARK    1  A    between atoms: C_1  and  N_19
REMARK    2  A    between atoms: C_4  and  N_7
REMARK    3  A    between atoms: C_6  and  N_10
REMARK    4  A    between atoms: N_10  and  N_11
REMARK    5  A    between atoms: N_11  and  C_14
REMARK    6  A    between atoms: N_19  and  C_20
REMARK    7  A    between atoms: N_19  and  C_27
REMARK    8  A    between atoms: C_20  and  C_21
REMARK    9  A    between atoms: C_21  and  C_22
REMARK   10  A    between atoms: C_22  and  S_23
REMARK   11  A    between atoms: C_27  and  C_28
REMARK                            x       y       z     vdW  Elec       q    Type
REMARK                         _______ _______ _______ _____ _____    ______ ____
ROOT
ATOM      1  C   UNL     1       1.483   1.272   0.241  0.00  0.00    +0.049 C 
ATOM      2  C   UNL     1       1.019   0.155   0.945  0.00  0.00    +0.030 C 
ATOM      3  C   UNL     1       0.563   2.133  -0.366  0.00  0.00    +0.016 C 
ATOM      4  C   UNL     1      -0.350  -0.097   1.041  0.00  0.00    +0.060 C 
ATOM      5  C   UNL     1      -0.806   1.881  -0.269  0.00  0.00    +0.021 C 
ATOM      6  C   UNL     1      -1.262   0.766   0.434  0.00  0.00    +0.102 C 
ENDROOT
BRANCH   4   7
ATOM      7  N   UNL     1      -0.793  -1.230   1.758  0.00  0.00    -0.356 N 
ATOM      8  H   UNL     1      -0.139  -1.831   2.182  0.00  0.00    +0.142 HD
ATOM      9  H   UNL     1      -1.756  -1.419   1.834  0.00  0.00    +0.142 HD
ENDBRANCH   4   7
BRANCH   6  10
ATOM     10  N   UNL     1      -2.641   0.532   0.518  0.00  0.00    -0.125 NA
BRANCH  10  11
ATOM     11  N   UNL     1      -3.011  -0.181  -0.443  0.00  0.00    -0.109 NA
BRANCH  11  14
ATOM     12 BR   UNL     1      -8.955  -1.023  -0.186  0.00  0.00    -0.047 Br
ATOM     13  N   UNL     1      -5.179   0.485  -0.983  0.00  0.00    -0.225 NA
ATOM     14  C   UNL     1      -4.394  -0.416  -0.358  0.00  0.00    +0.170 C 
ATOM     15  C   UNL     1      -4.862  -1.516   0.336  0.00  0.00    +0.038 C 
ATOM     16  C   UNL     1      -6.238  -1.706   0.392  0.00  0.00    +0.011 C 
ATOM     17  C   UNL     1      -6.511   0.268  -0.907  0.00  0.00    +0.107 C 
ATOM     18  C   UNL     1      -7.086  -0.802  -0.239  0.00  0.00    +0.054 C 
ENDBRANCH  11  14
ENDBRANCH  10  11
ENDBRANCH   6  10
BRANCH   1  19
ATOM     19  N   UNL     1       2.859   1.525   0.144  0.00  0.00    -0.307 N 
BRANCH  19  20
ATOM     20  C   UNL     1       3.830   0.660   0.771  0.00  0.00    +0.093 C 
BRANCH  20  21
ATOM     21  C   UNL     1       4.117  -0.559  -0.099  0.00  0.00    +0.047 C 
BRANCH  21  22
ATOM     22  C   UNL     1       5.171  -1.476   0.510  0.00  0.00    +0.160 C 
BRANCH  22  23
ATOM     23  S   UNL     1       5.498  -2.860  -0.536  0.00  0.00    +0.023 S 
ATOM     24  O   UNL     1       6.758  -3.467   0.303  0.00  0.00    -0.069 OA
ATOM     25  O   UNL     1       5.979  -2.377  -1.818  0.00  0.00    -0.069 OA
ATOM     26  O   UNL     1       4.386  -3.788  -0.444  0.00  0.00    -0.069 OA
ENDBRANCH  22  23
ENDBRANCH  21  22
ENDBRANCH  20  21
ENDBRANCH  19  20
BRANCH  19  27
ATOM     27  C   UNL     1       3.337   2.695  -0.595  0.00  0.00    +0.091 C 
BRANCH  27  28
ATOM     28  C   UNL     1       3.280   3.944   0.278  0.00  0.00    +0.021 C 
ATOM     29  C   UNL     1       3.809   5.184  -0.431  0.00  0.00    +0.002 C 
ENDBRANCH  27  28
ENDBRANCH  19  27
ENDBRANCH   1  19
TORSDOF 11
