REMARK  Name = 135849769
REMARK  4 active torsions:
REMARK  status: ('A' for Active; 'I' for Inactive)
REMARK    1  A    between atoms: C_4  and  O_22
REMARK    2  A    between atoms: C_8  and  O_24
REMARK    3  A    between atoms: C_13  and  O_26
REMARK    4  A    between atoms: C_14  and  C_19
REMARK                            x       y       z     vdW  Elec       q    Type
REMARK                         _______ _______ _______ _____ _____    ______ ____
ROOT
ATOM      1  O   UNL     1      -2.191   1.161  -1.357  0.00  0.00    -0.349 OA
ATOM      2  O   UNL     1       0.150  -2.899   0.266  0.00  0.00    -0.285 OA
ATOM      3  N   UNL     1       2.712  -2.226   0.519  0.00  0.00    -0.295 NA
ATOM      4  C   UNL     1      -2.088  -0.830   0.099  0.00  0.00    +0.137 C 
ATOM      5  C   UNL     1      -1.354   1.584  -0.253  0.00  0.00    +0.167 C 
ATOM      6  C   UNL     1      -2.577   0.018   1.292  0.00  0.00    +0.066 C 
ATOM      7  C   UNL     1      -2.618  -0.219  -1.229  0.00  0.00    +0.144 C 
ATOM      8  C   UNL     1      -2.222   1.494   1.024  0.00  0.00    +0.145 C 
ATOM      9  C   UNL     1      -0.582  -0.653   0.047  0.00  0.00    +0.046 C 
ATOM     10  C   UNL     1      -0.183   0.615  -0.154  0.00  0.00    +0.042 C 
ATOM     11  C   UNL     1      -4.134  -0.266  -1.387  0.00  0.00    +0.035 C 
ATOM     12  C   UNL     1       0.423  -1.712   0.177  0.00  0.00    +0.211 C 
ATOM     13  C   UNL     1       1.204   1.010  -0.267  0.00  0.00    +0.138 C 
ATOM     14  C   UNL     1       2.216   0.133  -0.091  0.00  0.00    +0.106 C 
ATOM     15  C   UNL     1       1.874  -1.294   0.213  0.00  0.00    +0.118 C 
ATOM     16  H   UNL     1       2.389  -3.138   0.703  0.00  0.00    +0.187 HD
ENDROOT
BRANCH  14  19
ATOM     17  O   UNL     1       3.957   1.715   0.103  0.00  0.00    -0.270 OA
ATOM     18  N   UNL     1       4.466  -0.413  -0.636  0.00  0.00    -0.325 N 
ATOM     19  C   UNL     1       3.619   0.573  -0.191  0.00  0.00    +0.247 C 
ATOM     20  H   UNL     1       5.427  -0.226  -0.739  0.00  0.00    +0.145 HD
ATOM     21  H   UNL     1       4.112  -1.306  -0.850  0.00  0.00    +0.145 HD
ENDBRANCH  14  19
BRANCH   4  22
ATOM     22  O   UNL     1      -2.494  -2.174   0.259  0.00  0.00    -0.380 OA
ATOM     23  H   UNL     1      -3.463  -2.218   0.284  0.00  0.00    +0.211 HD
ENDBRANCH   4  22
BRANCH   8  24
ATOM     24  O   UNL     1      -1.539   2.039   2.144  0.00  0.00    -0.382 OA
ATOM     25  H   UNL     1      -1.318   2.967   1.968  0.00  0.00    +0.210 HD
ENDBRANCH   8  24
BRANCH  13  26
ATOM     26  O   UNL     1       1.362   2.345  -0.579  0.00  0.00    -0.506 OA
ATOM     27  H   UNL     1       0.609   2.892  -0.686  0.00  0.00    +0.292 HD
ENDBRANCH  13  26
TORSDOF 4
