REMARK  Name = 135856019
REMARK  4 active torsions:
REMARK  status: ('A' for Active; 'I' for Inactive)
REMARK    1  A    between atoms: N_2  and  C_16
REMARK    2  A    between atoms: C_17  and  C_23
REMARK    3  A    between atoms: C_19  and  O_21
REMARK    4  A    between atoms: C_23  and  O_24
REMARK                            x       y       z     vdW  Elec       q    Type
REMARK                         _______ _______ _______ _____ _____    ______ ____
ROOT
ATOM      1  O   UNL     1       4.751   0.240   0.380  0.00  0.00    -0.268 OA
ATOM      2  N   UNL     1       0.409   1.273  -0.324  0.00  0.00    -0.260 N 
ATOM      3  N   UNL     1       2.478   2.092  -0.097  0.00  0.00    -0.240 NA
ATOM      4  N   UNL     1       0.839  -1.096  -0.068  0.00  0.00    -0.357 NA
ATOM      5  N   UNL     1       3.175  -1.481   0.297  0.00  0.00    -0.243 N 
ATOM      6  N   UNL     1       1.656  -3.278   0.229  0.00  0.00    -0.321 N 
ATOM      7  C   UNL     1       1.224   0.199  -0.120  0.00  0.00    +0.210 C 
ATOM      8  C   UNL     1       1.210   2.389  -0.302  0.00  0.00    +0.222 C 
ATOM      9  C   UNL     1       2.483   0.733   0.016  0.00  0.00    +0.176 C 
ATOM     10  C   UNL     1       3.597  -0.145   0.247  0.00  0.00    +0.273 C 
ATOM     11  C   UNL     1       1.840  -1.923   0.143  0.00  0.00    +0.239 C 
ATOM     12  H   UNL     1       3.864  -2.167   0.451  0.00  0.00    +0.159 HD
ATOM     13  H   UNL     1       0.754  -3.660   0.132  0.00  0.00    +0.146 HD
ATOM     14  H   UNL     1       2.427  -3.870   0.387  0.00  0.00    +0.146 HD
ENDROOT
BRANCH   2  16
ATOM     15  F   UNL     1      -2.226   1.626   1.517  0.00  0.00    -0.235 F 
ATOM     16  C   UNL     1      -1.089   1.257  -0.535  0.00  0.00    +0.112 C 
ATOM     17  C   UNL     1      -3.064  -0.016   0.038  0.00  0.00    +0.090 C 
ATOM     18  C   UNL     1      -1.842   0.650   0.658  0.00  0.00    +0.184 C 
ATOM     19  C   UNL     1      -2.473  -0.648  -1.219  0.00  0.00    +0.117 C 
ATOM     20  C   UNL     1      -1.546   0.441  -1.763  0.00  0.00    +0.052 C 
BRANCH  19  21
ATOM     21  O   UNL     1      -3.467  -0.974  -2.171  0.00  0.00    -0.384 OA
ATOM     22  H   UNL     1      -4.045  -1.664  -1.812  0.00  0.00    +0.210 HD
ENDBRANCH  19  21
BRANCH  17  23
ATOM     23  C   UNL     1      -3.727  -1.017   0.973  0.00  0.00    +0.142 C 
BRANCH  23  24
ATOM     24  O   UNL     1      -4.227  -0.322   2.103  0.00  0.00    -0.382 OA
ATOM     25  H   UNL     1      -4.653  -0.951   2.707  0.00  0.00    +0.210 HD
ENDBRANCH  23  24
ENDBRANCH  17  23
ENDBRANCH   2  16
TORSDOF 4
