135854977
  -OEChem-03292013293D

 33 35  0     1  0  0  0  0  0999 V2000
    2.2135    0.4591    0.9764 O   0  0  0  0  0  0  0  0  0  0  0  0
    1.1251   -2.1347   -1.2746 O   0  0  0  0  0  0  0  0  0  0  0  0
    3.3332   -2.2879    0.3605 O   0  0  0  0  0  0  0  0  0  0  0  0
    4.1900    2.3736    0.4479 O   0  0  0  0  0  0  0  0  0  0  0  0
   -1.3109   -2.1931    0.6888 O   0  0  0  0  0  0  0  0  0  0  0  0
   -0.0663    0.5092    0.1062 N   0  0  0  0  0  0  0  0  0  0  0  0
   -1.2894    2.3036   -0.4009 N   0  0  0  0  0  0  0  0  0  0  0  0
   -3.3263   -1.1159    0.3125 N   0  0  0  0  0  0  0  0  0  0  0  0
   -3.5068    1.2075   -0.2623 N   0  0  0  0  0  0  0  0  0  0  0  0
   -5.4177   -0.1280   -0.0482 N   0  0  0  0  0  0  0  0  0  0  0  0
    1.7620   -0.9355   -0.8818 C   0  0  1  0  0  0  0  0  0  0  0  0
    1.1607   -0.3273    0.3811 C   0  0  1  0  0  0  0  0  0  0  0  0
    3.2081   -1.1382   -0.4753 C   0  0  1  0  0  0  0  0  0  0  0  0
    3.4775    0.0947    0.3780 C   0  0  1  0  0  0  0  0  0  0  0  0
    3.9818    1.2819   -0.4308 C   0  0  0  0  0  0  0  0  0  0  0  0
   -1.3684    0.1029    0.1291 C   0  0  0  0  0  0  0  0  0  0  0  0
   -0.0700    1.8411   -0.2175 C   0  0  0  0  0  0  0  0  0  0  0  0
   -2.1026    1.2226   -0.1852 C   0  0  0  0  0  0  0  0  0  0  0  0
   -1.9367   -1.1768    0.4070 C   0  0  0  0  0  0  0  0  0  0  0  0
   -4.0569    0.0415   -0.0106 C   0  0  0  0  0  0  0  0  0  0  0  0
    0.8536   -1.0793    1.1148 H   0  0  0  0  0  0  0  0  0  0  0  0
    1.7017   -0.2253   -1.7155 H   0  0  0  0  0  0  0  0  0  0  0  0
    3.8846   -1.2653   -1.3252 H   0  0  0  0  0  0  0  0  0  0  0  0
    4.1674   -0.1105    1.2045 H   0  0  0  0  0  0  0  0  0  0  0  0
    3.2511    1.5967   -1.1823 H   0  0  0  0  0  0  0  0  0  0  0  0
    4.9284    1.0433   -0.9253 H   0  0  0  0  0  0  0  0  0  0  0  0
    1.6358   -2.5073   -2.0135 H   0  0  0  0  0  0  0  0  0  0  0  0
    4.2670   -2.3558    0.6236 H   0  0  0  0  0  0  0  0  0  0  0  0
    0.8385    2.4205   -0.3086 H   0  0  0  0  0  0  0  0  0  0  0  0
    4.5137    3.1166   -0.0894 H   0  0  0  0  0  0  0  0  0  0  0  0
   -3.8476   -1.9697    0.4897 H   0  0  0  0  0  0  0  0  0  0  0  0
   -6.0366    0.6437   -0.2715 H   0  0  0  0  0  0  0  0  0  0  0  0
   -5.8444   -1.0273    0.1455 H   0  0  0  0  0  0  0  0  0  0  0  0
  1 12  1  0  0  0  0
  1 14  1  0  0  0  0
  2 11  1  0  0  0  0
  2 27  1  0  0  0  0
  3 13  1  0  0  0  0
  3 28  1  0  0  0  0
  4 15  1  0  0  0  0
  4 30  1  0  0  0  0
  5 19  2  0  0  0  0
  6 12  1  0  0  0  0
  6 16  1  0  0  0  0
  6 17  1  0  0  0  0
  7 17  2  0  0  0  0
  7 18  1  0  0  0  0
  8 19  1  0  0  0  0
  8 20  1  0  0  0  0
  8 31  1  0  0  0  0
  9 18  1  0  0  0  0
  9 20  2  0  0  0  0
 10 20  1  0  0  0  0
 10 32  1  0  0  0  0
 10 33  1  0  0  0  0
 11 12  1  0  0  0  0
 11 13  1  0  0  0  0
 11 22  1  0  0  0  0
 12 21  1  0  0  0  0
 13 14  1  0  0  0  0
 13 23  1  0  0  0  0
 14 15  1  0  0  0  0
 14 24  1  0  0  0  0
 15 25  1  0  0  0  0
 15 26  1  0  0  0  0
 16 18  2  0  0  0  0
 16 19  1  0  0  0  0
 17 29  1  0  0  0  0
M  END
> <PUBCHEM_COMPOUND_CID>
135854977

> <PUBCHEM_CONFORMER_RMSD>
0.6

> <PUBCHEM_CONFORMER_DIVERSEORDER>
1
7
4
3
9
2
6
8
5

> <PUBCHEM_MMFF94_PARTIAL_CHARGES>
27
1 -0.56
10 -0.85
11 0.28
12 0.54
13 0.28
14 0.28
15 0.28
16 -0.24
17 0.04
18 0.35
19 0.71
2 -0.68
20 0.56
27 0.4
28 0.4
29 0.15
3 -0.68
30 0.4
31 0.37
32 0.4
33 0.4
4 -0.68
5 -0.57
6 0.05
7 -0.57
8 -0.49
9 -0.57

> <PUBCHEM_EFFECTIVE_ROTOR_COUNT>
3

> <PUBCHEM_PHARMACOPHORE_FEATURES>
14
1 1 acceptor
1 10 donor
1 2 acceptor
1 2 donor
1 3 acceptor
1 3 donor
1 4 acceptor
1 4 donor
1 5 acceptor
1 8 donor
3 6 7 17 cation
5 1 11 12 13 14 rings
5 6 7 16 17 18 rings
6 8 9 16 18 19 20 rings

> <PUBCHEM_HEAVY_ATOM_COUNT>
20

> <PUBCHEM_ATOM_DEF_STEREO_COUNT>
4

> <PUBCHEM_ATOM_UDEF_STEREO_COUNT>
0

> <PUBCHEM_BOND_DEF_STEREO_COUNT>
0

> <PUBCHEM_BOND_UDEF_STEREO_COUNT>
0

> <PUBCHEM_ISOTOPIC_ATOM_COUNT>
0

> <PUBCHEM_COMPONENT_COUNT>
1

> <PUBCHEM_CACTVS_TAUTO_COUNT>
-1

> <PUBCHEM_CONFORMER_ID>
0818FB8100000001

> <PUBCHEM_MMFF94_ENERGY>
49.0093

> <PUBCHEM_FEATURE_SELFOVERLAP>
71.234

> <PUBCHEM_SHAPE_FINGERPRINT>
10608611 8 18410572842985874340
10616163 171 18339364183456563214
10906281 52 18337127747067995285
10967382 1 18409449206368365744
11132069 177 18336546122359407208
11578080 2 14546530546702049425
12011746 2 18342181085060093252
12236239 1 16805604750284421571
12403259 226 18119526527471612246
14115302 16 17385734603287041243
15196674 1 18409448059997070161
15219456 202 18413671296696080562
15375358 24 18410012160658887459
15375462 6 18409450289148341948
16945 1 18334305287359539896
18186145 218 18263926527365809397
19141452 34 18273496780550083127
200 152 17489583420627181891
20510252 161 18339923719175046865
20645477 70 18271808986502759286
21029758 11 18412259554369318697
21267235 1 18336836307329321034
21501502 16 18269561550475813576
23402539 116 18336255735177630639
23557571 272 17603862278167286548
23559900 14 18338793395530627010
2748010 2 18338808887003014047
2871803 45 18336828602126291575
296302 2 18342460365371747365
3286 77 17489016072432142514
34934 24 18337105777856400738
3545911 37 18334859433126058524
4340502 62 15791730798268749313
44154327 71 18341051908304304244
474 4 16951139494362199156
5104073 3 18409451349710099633
5374978 207 18334009488877978392
58051976 378 18413108372855568892
69090 78 18343578534564687375
7364860 26 18267306619615703789
81228 2 18189915118609157633
8809292 202 18337677403849696186
9709674 26 18340492144805582070

> <PUBCHEM_SHAPE_MULTIPOLES>
357.34
8.43
2.36
0.82
2.89
0.05
0.07
0.88
-0.19
-1.27
0.11
-0.35
-0.18
0.62

> <PUBCHEM_SHAPE_SELFOVERLAP>
775.5

> <PUBCHEM_SHAPE_VOLUME>
194.7

> <PUBCHEM_COORDINATE_TYPE>
2
5
10

$$$$
