REMARK  Name = 135849775
REMARK  5 active torsions:
REMARK  status: ('A' for Active; 'I' for Inactive)
REMARK    1  A    between atoms: C_2  and  C_21
REMARK    2  A    between atoms: C_3  and  O_17
REMARK    3  A    between atoms: C_4  and  O_19
REMARK    4  A    between atoms: C_5  and  N_7
REMARK    5  A    between atoms: C_21  and  O_23
REMARK                            x       y       z     vdW  Elec       q    Type
REMARK                         _______ _______ _______ _____ _____    ______ ____
ROOT
ATOM      1  O   UNL     1       1.652   0.317   1.100  0.00  0.00    -0.336 OA
ATOM      2  C   UNL     1       2.923  -0.081   0.539  0.00  0.00    +0.173 C 
ATOM      3  C   UNL     1       2.640  -1.285  -0.351  0.00  0.00    +0.171 C 
ATOM      4  C   UNL     1       1.219  -1.019  -0.805  0.00  0.00    +0.183 C 
ATOM      5  C   UNL     1       0.594  -0.416   0.449  0.00  0.00    +0.208 C 
ENDROOT
BRANCH   5   7
ATOM      6  O   UNL     1      -1.952  -2.197   0.624  0.00  0.00    -0.272 OA
ATOM      7  N   UNL     1      -0.591   0.472   0.148  0.00  0.00    -0.208 NA
ATOM      8  N   UNL     1      -1.726   2.323  -0.362  0.00  0.00    -0.204 NA
ATOM      9  N   UNL     1      -3.914  -1.044   0.198  0.00  0.00    -0.281 N 
ATOM     10  N   UNL     1      -3.989   1.307  -0.333  0.00  0.00    -0.200 NA
ATOM     11  C   UNL     1      -1.907   0.114   0.114  0.00  0.00    +0.224 C 
ATOM     12  C   UNL     1      -0.532   1.810  -0.145  0.00  0.00    +0.215 C 
ATOM     13  C   UNL     1      -2.587   1.270  -0.203  0.00  0.00    +0.029 C 
ATOM     14  C   UNL     1      -2.532  -1.154   0.342  0.00  0.00    +0.253 C 
ATOM     15  C   UNL     1      -4.549   0.153  -0.124  0.00  0.00    +0.229 C 
ATOM     16  H   UNL     1      -4.465  -1.848   0.329  0.00  0.00    +0.151 HD
ENDBRANCH   5   7
BRANCH   3  17
ATOM     17  O   UNL     1       2.692  -2.456   0.463  0.00  0.00    -0.379 OA
ATOM     18  H   UNL     1       3.606  -2.613   0.746  0.00  0.00    +0.211 HD
ENDBRANCH   3  17
BRANCH   4  19
ATOM     19  O   UNL     1       0.553  -2.185  -1.248  0.00  0.00    -0.378 OA
ATOM     20  H   UNL     1       0.991  -2.525  -2.044  0.00  0.00    +0.211 HD
ENDBRANCH   4  19
BRANCH   2  21
ATOM     21  C   UNL     1       3.501   1.103  -0.223  0.00  0.00    +0.140 C 
ATOM     22  C   UNL     1       3.807   2.273   0.698  0.00  0.00    +0.034 C 
BRANCH  21  23
ATOM     23  O   UNL     1       4.696   0.697  -0.882  0.00  0.00    -0.382 OA
ATOM     24  H   UNL     1       4.503  -0.050  -1.470  0.00  0.00    +0.210 HD
ENDBRANCH  21  23
ENDBRANCH   2  21
TORSDOF 5
