REMARK  Name = 135855769
REMARK  4 active torsions:
REMARK  status: ('A' for Active; 'I' for Inactive)
REMARK    1  A    between atoms: N_2  and  C_16
REMARK    2  A    between atoms: C_17  and  C_23
REMARK    3  A    between atoms: C_19  and  O_21
REMARK    4  A    between atoms: C_23  and  O_24
REMARK                            x       y       z     vdW  Elec       q    Type
REMARK                         _______ _______ _______ _____ _____    ______ ____
ROOT
ATOM      1  O   UNL     1      -4.793  -0.088   0.240  0.00  0.00    -0.268 OA
ATOM      2  N   UNL     1      -0.445  -1.313   0.197  0.00  0.00    -0.260 N 
ATOM      3  N   UNL     1      -2.552  -2.030   0.410  0.00  0.00    -0.240 NA
ATOM      4  N   UNL     1      -0.813   1.057  -0.133  0.00  0.00    -0.357 NA
ATOM      5  N   UNL     1      -3.158   1.547  -0.084  0.00  0.00    -0.243 N 
ATOM      6  N   UNL     1      -1.578   3.260  -0.417  0.00  0.00    -0.321 N 
ATOM      7  C   UNL     1      -1.237  -0.209   0.075  0.00  0.00    +0.210 C 
ATOM      8  C   UNL     1      -1.282  -2.383   0.397  0.00  0.00    +0.222 C 
ATOM      9  C   UNL     1      -2.520  -0.682   0.210  0.00  0.00    +0.176 C 
ATOM     10  C   UNL     1      -3.619   0.241   0.131  0.00  0.00    +0.273 C 
ATOM     11  C   UNL     1      -1.800   1.924  -0.209  0.00  0.00    +0.239 C 
ATOM     12  H   UNL     1      -3.834   2.259  -0.155  0.00  0.00    +0.159 HD
ATOM     13  H   UNL     1      -0.658   3.597  -0.513  0.00  0.00    +0.146 HD
ATOM     14  H   UNL     1      -2.338   3.883  -0.469  0.00  0.00    +0.146 HD
ENDROOT
BRANCH   2  16
ATOM     15  F   UNL     1       2.221  -1.937  -1.843  0.00  0.00    -0.233 F 
ATOM     16  C   UNL     1       1.064  -1.366   0.128  0.00  0.00    +0.112 C 
ATOM     17  C   UNL     1       3.113  -0.207   0.611  0.00  0.00    +0.061 C 
ATOM     18  C   UNL     1       1.745  -0.521   1.216  0.00  0.00    +0.028 C 
ATOM     19  C   UNL     1       2.770   0.118  -0.846  0.00  0.00    +0.147 C 
ATOM     20  C   UNL     1       1.660  -0.870  -1.206  0.00  0.00    +0.206 C 
BRANCH  19  21
ATOM     21  O   UNL     1       2.280   1.447  -0.972  0.00  0.00    -0.382 OA
ATOM     22  H   UNL     1       2.983   2.075  -0.743  0.00  0.00    +0.210 HD
ENDBRANCH  19  21
BRANCH  17  23
ATOM     23  C   UNL     1       3.844   0.898   1.357  0.00  0.00    +0.140 C 
BRANCH  23  24
ATOM     24  O   UNL     1       5.100   1.114   0.737  0.00  0.00    -0.382 OA
ATOM     25  H   UNL     1       5.575   1.818   1.205  0.00  0.00    +0.210 HD
ENDBRANCH  23  24
ENDBRANCH  17  23
ENDBRANCH   2  16
TORSDOF 4
