REMARK  Name = 135849764
REMARK  3 active torsions:
REMARK  status: ('A' for Active; 'I' for Inactive)
REMARK    1  A    between atoms: N_2  and  C_15
REMARK    2  A    between atoms: C_15  and  C_17
REMARK    3  A    between atoms: C_17  and  O_18
REMARK                            x       y       z     vdW  Elec       q    Type
REMARK                         _______ _______ _______ _____ _____    ______ ____
ROOT
ATOM      1  O   UNL     1      -0.279  -2.113  -0.671  0.00  0.00    -0.272 OA
ATOM      2  N   UNL     1      -0.962   0.833  -0.454  0.00  0.00    -0.222 NA
ATOM      3  N   UNL     1       0.561   2.377   0.065  0.00  0.00    -0.194 NA
ATOM      4  N   UNL     1       1.871  -1.444  -0.130  0.00  0.00    -0.245 N 
ATOM      5  N   UNL     1       2.490   0.838   0.286  0.00  0.00    -0.323 NA
ATOM      6  N   UNL     1       4.077  -0.878   0.413  0.00  0.00    -0.320 N 
ATOM      7  C   UNL     1       0.216   0.166  -0.284  0.00  0.00    +0.235 C 
ATOM      8  C   UNL     1       1.138   1.135   0.034  0.00  0.00    +0.087 C 
ATOM      9  C   UNL     1       0.519  -1.225  -0.391  0.00  0.00    +0.259 C 
ATOM     10  C   UNL     1      -0.703   2.161  -0.233  0.00  0.00    +0.214 C 
ATOM     11  C   UNL     1       2.797  -0.436   0.194  0.00  0.00    +0.248 C 
ATOM     12  H   UNL     1       2.201  -2.370  -0.174  0.00  0.00    +0.159 HD
ATOM     13  H   UNL     1       4.285  -1.838   0.339  0.00  0.00    +0.146 HD
ATOM     14  H   UNL     1       4.786  -0.237   0.645  0.00  0.00    +0.146 HD
ENDROOT
BRANCH   2  15
ATOM     15  C   UNL     1      -2.245   0.272  -0.799  0.00  0.00    +0.186 C 
BRANCH  15  17
ATOM     16  O   UNL     1      -2.404  -0.473   1.491  0.00  0.00    -0.249 OA
ATOM     17  C   UNL     1      -2.920  -0.368   0.386  0.00  0.00    +0.330 C 
BRANCH  17  18
ATOM     18  O   UNL     1      -4.154  -0.847   0.091  0.00  0.00    -0.479 OA
ATOM     19  H   UNL     1      -4.505  -0.740  -0.771  0.00  0.00    +0.295 HD
ENDBRANCH  17  18
ENDBRANCH  15  17
ENDBRANCH   2  15
TORSDOF 3
