REMARK  Name = 135854980
REMARK  7 active torsions:
REMARK  status: ('A' for Active; 'I' for Inactive)
REMARK    1  A    between atoms: N_2  and  C1*_31
REMARK    2  A    between atoms: C_7  and  C_15
REMARK    3  A    between atoms: C_20  and  C_21
REMARK    4  A    between atoms: C_26  and  N_27
REMARK    5  A    between atoms: C3*_33  and  O3*_35
REMARK    6  A    between atoms: C4*_34  and  C5*_37
REMARK    7  A    between atoms: C5*_37  and  O5*_38
REMARK                            x       y       z     vdW  Elec       q    Type
REMARK                         _______ _______ _______ _____ _____    ______ ____
ROOT
ATOM      1  O   UNL     1      -3.702  -4.243  -0.322  0.00  0.00    -0.267 OA
ATOM      2  N   UNL     1      -1.745  -0.189   0.067  0.00  0.00    -0.212 N 
ATOM      3  N   UNL     1      -1.389  -2.387  -0.151  0.00  0.00    -0.378 NA
ATOM      4  N   UNL     1      -4.164  -0.131   0.084  0.00  0.00    -0.355 NA
ATOM      5  N   UNL     1      -5.051  -2.346  -0.129  0.00  0.00    -0.242 N 
ATOM      6  N   UNL     1      -6.486  -0.490   0.059  0.00  0.00    -0.321 N 
ATOM      7  C   UNL     1      -0.822  -1.202  -0.037  0.00  0.00    +0.191 C 
ATOM      8  C   UNL     1      -2.977  -0.772   0.015  0.00  0.00    +0.228 C 
ATOM      9  C   UNL     1      -2.725  -2.116  -0.118  0.00  0.00    +0.230 C 
ATOM     10  C   UNL     1      -3.829  -3.031  -0.202  0.00  0.00    +0.286 C 
ATOM     11  C   UNL     1      -5.194  -0.945   0.009  0.00  0.00    +0.240 C 
ATOM     12  H   UNL     1      -5.874  -2.883  -0.178  0.00  0.00    +0.159 HD
ATOM     13  H   UNL     1      -6.665   0.474   0.155  0.00  0.00    +0.146 HD
ATOM     14  H   UNL     1      -7.235  -1.126   0.000  0.00  0.00    +0.146 HD
ENDROOT
BRANCH   7  15
ATOM     15  C   UNL     1       0.605  -0.966  -0.021  0.00  0.00    +0.044 C 
ATOM     16  C   UNL     1       1.288  -0.734  -1.215  0.00  0.00    +0.004 C 
ATOM     17  C   UNL     1       1.298  -0.971   1.190  0.00  0.00    +0.004 C 
ATOM     18  C   UNL     1       2.664  -0.507  -1.198  0.00  0.00    +0.000 C 
ATOM     19  C   UNL     1       2.674  -0.743   1.206  0.00  0.00    +0.000 C 
ATOM     20  C   UNL     1       3.357  -0.511   0.012  0.00  0.00    +0.000 C 
BRANCH  20  21
ATOM     21  C   UNL     1       4.784  -0.274   0.030  0.00  0.00    +0.000 C 
ATOM     22  C   UNL     1       5.370   0.535  -0.943  0.00  0.00    +0.001 C 
ATOM     23  C   UNL     1       5.575  -0.855   1.022  0.00  0.00    +0.001 C 
ATOM     24  C   UNL     1       6.745   0.764  -0.925  0.00  0.00    +0.014 C 
ATOM     25  C   UNL     1       6.951  -0.627   1.040  0.00  0.00    +0.014 C 
ATOM     26  C   UNL     1       7.536   0.183   0.066  0.00  0.00    +0.042 C 
BRANCH  26  27
ATOM     27  N   UNL     1       8.927   0.414   0.085  0.00  0.00    -0.357 N 
ATOM     28  H   UNL     1       9.340   0.985  -0.602  0.00  0.00    +0.142 HD
ATOM     29  H   UNL     1       9.485   0.003   0.784  0.00  0.00    +0.142 HD
ENDBRANCH  26  27
ENDBRANCH  20  21
ENDBRANCH   7  15
BRANCH   2  31
ATOM     30  O4* UNL     1      -2.468   1.955   0.991  0.00  0.00    -0.335 OA
ATOM     31  C1* UNL     1      -1.461   1.285   0.210  0.00  0.00    +0.202 C 
ATOM     32  C2* UNL     1      -1.399   2.014  -1.127  0.00  0.00    +0.083 C 
ATOM     33  C3* UNL     1      -1.749   3.430  -0.731  0.00  0.00    +0.144 C 
ATOM     34  C4* UNL     1      -2.765   3.230   0.387  0.00  0.00    +0.173 C 
BRANCH  33  35
ATOM     35  O3* UNL     1      -0.579   4.055  -0.208  0.00  0.00    -0.382 OA
ATOM     36  H3* UNL     1       0.066   4.181  -0.921  0.00  0.00    +0.210 HD
ENDBRANCH  33  35
BRANCH  34  37
ATOM     37  C5* UNL     1      -4.199   3.186  -0.123  0.00  0.00    +0.169 C 
BRANCH  37  38
ATOM     38  O5* UNL     1      -5.066   2.987   0.980  0.00  0.00    -0.379 OA
ATOM     39  H5* UNL     1      -5.984   2.957   0.668  0.00  0.00    +0.211 HD
ENDBRANCH  37  38
ENDBRANCH  34  37
ENDBRANCH   2  31
TORSDOF 7
