135849753
  -OEChem-03292013293D

 38 40  0     0  0  0  0  0  0999 V2000
   -4.8148   -1.2635   -0.6379 S   0  0  0  0  0  0  0  0  0  0  0  0
   -1.8199    2.5716    0.9794 O   0  0  0  0  0  0  0  0  0  0  0  0
   -4.1860    1.6092   -0.0351 O   0  0  0  0  0  0  0  0  0  0  0  0
    3.9161   -2.8474    1.1566 O   0  0  0  0  0  0  0  0  0  0  0  0
    5.6872   -2.0203   -0.8140 O   0  0  0  0  0  0  0  0  0  0  0  0
   -4.8663   -0.7460   -2.1868 O   0  0  0  0  0  0  0  0  0  0  0  0
   -4.6990   -2.7131   -0.6761 O   0  0  0  0  0  0  0  0  0  0  0  0
   -5.8968   -0.6224    0.0909 O   0  0  0  0  0  0  0  0  0  0  0  0
    1.1652    2.4294   -0.0471 N   0  0  0  0  0  0  0  0  0  0  0  0
    0.3907    0.8695    1.5952 C   0  0  0  0  0  0  0  0  0  0  0  0
    1.3918    1.2355    0.5460 C   0  0  0  0  0  0  0  0  0  0  0  0
   -0.9197    0.3573    1.0366 C   0  0  0  0  0  0  0  0  0  0  0  0
    2.4568    0.3879    0.2345 C   0  0  0  0  0  0  0  0  0  0  0  0
    3.3540    0.8115   -0.7676 C   0  0  0  0  0  0  0  0  0  0  0  0
   -1.9668    1.2344    0.7538 C   0  0  0  0  0  0  0  0  0  0  0  0
   -1.0731   -1.0096    0.8048 C   0  0  0  0  0  0  0  0  0  0  0  0
   -3.3204   -0.6224    0.0073 C   0  0  0  0  0  0  0  0  0  0  0  0
   -3.1672    0.7447    0.2391 C   0  0  0  0  0  0  0  0  0  0  0  0
    2.6568   -0.8462    0.8747 C   0  0  0  0  0  0  0  0  0  0  0  0
   -2.2733   -1.4994    0.2902 C   0  0  0  0  0  0  0  0  0  0  0  0
    4.4377   -0.0145   -1.1082 C   0  0  0  0  0  0  0  0  0  0  0  0
    3.1374    2.0445   -1.3937 C   0  0  0  0  0  0  0  0  0  0  0  0
    3.7384   -1.6539    0.5241 C   0  0  0  0  0  0  0  0  0  0  0  0
    4.6268   -1.2390   -0.4653 C   0  0  0  0  0  0  0  0  0  0  0  0
    2.0444    2.8022   -1.0014 C   0  0  0  0  0  0  0  0  0  0  0  0
    0.1915    1.7728    2.1904 H   0  0  0  0  0  0  0  0  0  0  0  0
    0.7668    0.1826    2.3591 H   0  0  0  0  0  0  0  0  0  0  0  0
   -0.2716   -1.7086    1.0233 H   0  0  0  0  0  0  0  0  0  0  0  0
    1.9922   -1.2160    1.6472 H   0  0  0  0  0  0  0  0  0  0  0  0
   -2.3599   -2.5684    0.1202 H   0  0  0  0  0  0  0  0  0  0  0  0
    5.1367    0.3026   -1.8801 H   0  0  0  0  0  0  0  0  0  0  0  0
    3.8013    2.4117   -2.1703 H   0  0  0  0  0  0  0  0  0  0  0  0
    1.8428    3.7632   -1.4633 H   0  0  0  0  0  0  0  0  0  0  0  0
   -2.6925    2.9772    1.1091 H   0  0  0  0  0  0  0  0  0  0  0  0
   -3.8249    2.4951   -0.2012 H   0  0  0  0  0  0  0  0  0  0  0  0
    3.2071   -2.9716    1.8105 H   0  0  0  0  0  0  0  0  0  0  0  0
    6.1938   -1.5741   -1.5142 H   0  0  0  0  0  0  0  0  0  0  0  0
   -4.8978    0.2325   -2.3058 H   0  0  0  0  0  0  0  0  0  0  0  0
  1  6  1  0  0  0  0
  1  7  2  0  0  0  0
  1  8  2  0  0  0  0
  1 17  1  0  0  0  0
  2 15  1  0  0  0  0
  2 34  1  0  0  0  0
  3 18  1  0  0  0  0
  3 35  1  0  0  0  0
  4 23  1  0  0  0  0
  4 36  1  0  0  0  0
  5 24  1  0  0  0  0
  5 37  1  0  0  0  0
  6 38  1  0  0  0  0
  9 11  2  0  0  0  0
  9 25  1  0  0  0  0
 10 11  1  0  0  0  0
 10 12  1  0  0  0  0
 10 26  1  0  0  0  0
 10 27  1  0  0  0  0
 11 13  1  0  0  0  0
 12 15  2  0  0  0  0
 12 16  1  0  0  0  0
 13 14  1  0  0  0  0
 13 19  2  0  0  0  0
 14 21  2  0  0  0  0
 14 22  1  0  0  0  0
 15 18  1  0  0  0  0
 16 20  2  0  0  0  0
 16 28  1  0  0  0  0
 17 18  2  0  0  0  0
 17 20  1  0  0  0  0
 19 23  1  0  0  0  0
 19 29  1  0  0  0  0
 20 30  1  0  0  0  0
 21 24  1  0  0  0  0
 21 31  1  0  0  0  0
 22 25  2  0  0  0  0
 22 32  1  0  0  0  0
 23 24  2  0  0  0  0
 25 33  1  0  0  0  0
M  END
> <PUBCHEM_COMPOUND_CID>
135849753

> <PUBCHEM_CONFORMER_RMSD>
0.6

> <PUBCHEM_CONFORMER_DIVERSEORDER>
4
1
14
3
16
15
18
12
13
5
2
9
19
7
17
8
6
10
11

> <PUBCHEM_MMFF94_PARTIAL_CHARGES>
34
1 1.49
10 0.29
11 0.17
12 -0.14
15 0.08
16 -0.15
17 -0.01
18 0.08
19 -0.15
2 -0.53
20 -0.15
21 -0.15
22 -0.15
23 0.08
24 0.08
25 0.16
28 0.15
29 0.15
3 -0.53
30 0.15
31 0.15
32 0.15
33 0.15
34 0.45
35 0.45
36 0.45
37 0.45
38 0.5
4 -0.53
5 -0.53
6 -0.68
7 -0.65
8 -0.65
9 -0.62

> <PUBCHEM_EFFECTIVE_ROTOR_COUNT>
3

> <PUBCHEM_PHARMACOPHORE_FEATURES>
12
1 2 donor
1 3 donor
1 4 donor
1 5 donor
1 6 acceptor
1 7 acceptor
1 8 acceptor
1 9 acceptor
4 1 6 7 8 anion
6 12 15 16 17 18 20 rings
6 13 14 19 21 23 24 rings
6 9 11 13 14 22 25 rings

> <PUBCHEM_HEAVY_ATOM_COUNT>
25

> <PUBCHEM_ATOM_DEF_STEREO_COUNT>
0

> <PUBCHEM_ATOM_UDEF_STEREO_COUNT>
0

> <PUBCHEM_BOND_DEF_STEREO_COUNT>
0

> <PUBCHEM_BOND_UDEF_STEREO_COUNT>
0

> <PUBCHEM_ISOTOPIC_ATOM_COUNT>
0

> <PUBCHEM_COMPONENT_COUNT>
1

> <PUBCHEM_CACTVS_TAUTO_COUNT>
-1

> <PUBCHEM_CONFORMER_ID>
0818E71900000004

> <PUBCHEM_MMFF94_ENERGY>
66.7355

> <PUBCHEM_FEATURE_SELFOVERLAP>
60.99

> <PUBCHEM_SHAPE_FINGERPRINT>
10042902 136 17985277283424237310
10062212 137 18272653420265061537
10498660 4 14634867569634069077
10622 236 18265321820644217266
10670039 82 14273725218859629742
10928967 22 17916304012469917615
11578080 2 18271795784285637960
11796584 16 18059580135359630540
12363563 72 16917354735654955896
12553582 1 18115039481033322698
12788726 201 17987536882497547065
12892183 10 11095895903576920861
12969540 114 15719389551431332603
13533116 47 18337675329549063629
13675066 3 13326587271562615521
14251751 18 17704067412962927287
14347332 77 18410570682986264821
14576447 43 18409171000383889922
15183329 4 18187643574883092599
15420108 30 17331400865942860953
15484559 13 13955058591482847535
16752209 62 18343581832793453467
17349148 13 18131918147828190503
17492 89 18411421747308706035
18681886 176 18343301470883341178
19784866 240 18131358496261894603
20626108 58 18343018878819176288
20645477 70 18334860570991549234
20775438 99 17551767632356030463
221357 26 18113897152365077637
22950370 63 18269842085456112171
23522609 53 17984173545659496369
23559900 14 18337667628303378403
25222932 49 17199377445286775047
3004659 81 18410292506001339418
312423 11 18340498845233677545
34797466 226 16806162302392574631
392239 28 10518828203116427205
4280585 95 17837790932520826446
44062 13 18343582911188726389
46194498 28 17530968037521799140
463206 1 17917427674434976967
5281201 14 18113613512751119581
633830 44 17385445401796209689
7471813 234 18412827984569140884
7808743 9 11242261770015864908
960060 61 18339359789852465735
9709674 26 18263932192369468899
9841814 1 16558191638822143424
9981440 41 17685502344149802936

> <PUBCHEM_SHAPE_MULTIPOLES>
472.27
12.03
2.92
1.36
5.9
0.25
0.24
-7.28
4.86
-1.6
0.14
0.12
0.07
-1.7

> <PUBCHEM_SHAPE_SELFOVERLAP>
1035.345

> <PUBCHEM_SHAPE_VOLUME>
256.5

> <PUBCHEM_COORDINATE_TYPE>
2
5
10

$$$$
