REMARK  Name = 135820
REMARK  11 active torsions:
REMARK  status: ('A' for Active; 'I' for Inactive)
REMARK    1  A    between atoms: C_2  and  O_16
REMARK    2  A    between atoms: C_2  and  C_19
REMARK    3  A    between atoms: C_3  and  C_27
REMARK    4  A    between atoms: C_5  and  N_9
REMARK    5  A    between atoms: C_19  and  C_20
REMARK    6  A    between atoms: C_20  and  C_21
REMARK    7  A    between atoms: C_21  and  C_22
REMARK    8  A    between atoms: C_22  and  C_23
REMARK    9  A    between atoms: C_23  and  C_24
REMARK   10  A    between atoms: C_24  and  C_25
REMARK   11  A    between atoms: C_27  and  O_28
REMARK                            x       y       z     vdW  Elec       q    Type
REMARK                         _______ _______ _______ _____ _____    ______ ____
ROOT
ATOM      1  O   UNL     1       1.488  -0.449  -1.635  0.00  0.00    -0.334 OA
ATOM      2  C   UNL     1      -0.121  -1.475  -0.234  0.00  0.00    +0.170 C 
ATOM      3  C   UNL     1       0.073  -0.438  -1.337  0.00  0.00    +0.177 C 
ATOM      4  C   UNL     1       1.191  -1.421   0.516  0.00  0.00    +0.088 C 
ATOM      5  C   UNL     1       2.186  -1.158  -0.602  0.00  0.00    +0.202 C 
ENDROOT
BRANCH   5   9
ATOM      6  F   UNL     1       4.099   3.149   0.161  0.00  0.00    -0.198 F 
ATOM      7  O   UNL     1       4.668  -2.227   0.313  0.00  0.00    -0.252 OA
ATOM      8  O   UNL     1       6.408   1.991   1.009  0.00  0.00    -0.267 OA
ATOM      9  N   UNL     1       3.313  -0.384  -0.173  0.00  0.00    -0.216 N 
ATOM     10  N   UNL     1       5.534  -0.127   0.659  0.00  0.00    -0.234 N 
ATOM     11  C   UNL     1       4.510  -1.005   0.267  0.00  0.00    +0.316 C 
ATOM     12  C   UNL     1       3.216   1.004  -0.193  0.00  0.00    +0.105 C 
ATOM     13  C   UNL     1       4.207   1.808   0.186  0.00  0.00    +0.208 C 
ATOM     14  C   UNL     1       5.488   1.260   0.657  0.00  0.00    +0.282 C 
ATOM     15  H   UNL     1       6.373  -0.540   0.967  0.00  0.00    +0.159 HD
ENDBRANCH   5   9
BRANCH   2  16
ATOM     16  O   UNL     1      -0.289  -2.756  -0.831  0.00  0.00    -0.377 OA
ATOM     17  H   UNL     1       0.467  -2.945  -1.409  0.00  0.00    +0.211 HD
ENDBRANCH   2  16
BRANCH   2  19
ATOM     18  O   UNL     1      -1.206  -1.056   1.842  0.00  0.00    -0.294 OA
ATOM     19  C   UNL     1      -1.321  -1.265   0.634  0.00  0.00    +0.177 C 
BRANCH  19  20
ATOM     20  C   UNL     1      -2.682  -1.302  -0.030  0.00  0.00    +0.067 C 
BRANCH  20  21
ATOM     21  C   UNL     1      -3.691  -0.363   0.625  0.00  0.00    +0.008 C 
BRANCH  21  22
ATOM     22  C   UNL     1      -5.067  -0.422  -0.044  0.00  0.00    +0.000 C 
BRANCH  22  23
ATOM     23  C   UNL     1      -6.046   0.551   0.617  0.00  0.00    +0.000 C 
BRANCH  23  24
ATOM     24  C   UNL     1      -7.431   0.470  -0.028  0.00  0.00    +0.000 C 
BRANCH  24  25
ATOM     25  C   UNL     1      -8.418   1.418   0.654  0.00  0.00    +0.000 C 
ATOM     26  C   UNL     1      -9.787   1.366  -0.005  0.00  0.00    +0.000 C 
ENDBRANCH  24  25
ENDBRANCH  23  24
ENDBRANCH  22  23
ENDBRANCH  21  22
ENDBRANCH  20  21
ENDBRANCH  19  20
ENDBRANCH   2  19
BRANCH   3  27
ATOM     27  C   UNL     1      -0.283   0.996  -0.957  0.00  0.00    +0.170 C 
BRANCH  27  28
ATOM     28  O   UNL     1      -0.040   1.832  -2.073  0.00  0.00    -0.379 OA
ATOM     29  H   UNL     1      -0.262   2.749  -1.846  0.00  0.00    +0.211 HD
ENDBRANCH  27  28
ENDBRANCH   3  27
TORSDOF 11
