135846070
  -OEChem-03292013293D

 63 66  0     0  0  0  0  0  0999 V2000
    6.3643    1.0020   -1.8437 O   0  0  0  0  0  0  0  0  0  0  0  0
    5.1708   -0.7501    2.4509 O   0  0  0  0  0  0  0  0  0  0  0  0
    7.0532    0.3876    0.7680 O   0  0  0  0  0  0  0  0  0  0  0  0
   -4.4614   -5.0215   -1.0919 O   0  0  0  0  0  0  0  0  0  0  0  0
   -2.7404    5.1748    0.7198 O   0  0  0  0  0  0  0  0  0  0  0  0
   -5.5504    1.7651   -0.6214 O   0  0  0  0  0  0  0  0  0  0  0  0
    0.3910    1.2486   -0.4049 N   0  0  0  0  0  0  0  0  0  0  0  0
   -0.9708    0.3592    1.1071 N   0  0  0  0  0  0  0  0  0  0  0  0
   -1.1953    2.7472    0.5971 N   0  0  0  0  0  0  0  0  0  0  0  0
   -3.2969    1.8702   -0.0709 N   0  0  0  0  0  0  0  0  0  0  0  0
   -4.4973    3.7600    0.0242 N   0  0  0  0  0  0  0  0  0  0  0  0
    0.7339   -0.0717   -0.3230 C   0  0  0  0  0  0  0  0  0  0  0  0
   -0.1203   -0.5996    0.6163 C   0  0  0  0  0  0  0  0  0  0  0  0
    1.8101   -0.6811   -1.1249 C   0  0  0  0  0  0  0  0  0  0  0  0
   -0.2004   -1.9855    1.1045 C   0  0  0  0  0  0  0  0  0  0  0  0
    3.2167   -0.3940   -0.6173 C   0  0  0  0  0  0  0  0  0  0  0  0
   -0.6366    1.4603    0.4716 C   0  0  0  0  0  0  0  0  0  0  0  0
   -1.3448   -2.8009    0.5152 C   0  0  0  0  0  0  0  0  0  0  0  0
    1.0081    2.2343   -1.2644 C   0  0  0  0  0  0  0  0  0  0  0  0
    3.5602   -0.7049    0.6985 C   0  0  0  0  0  0  0  0  0  0  0  0
    4.1617    0.1797   -1.4676 C   0  0  0  0  0  0  0  0  0  0  0  0
    5.4501    0.4429   -1.0023 C   0  0  0  0  0  0  0  0  0  0  0  0
    4.8486   -0.4420    1.1637 C   0  0  0  0  0  0  0  0  0  0  0  0
   -1.0990   -3.6957   -0.5262 C   0  0  0  0  0  0  0  0  0  0  0  0
   -2.6380   -2.6525    1.0166 C   0  0  0  0  0  0  0  0  0  0  0  0
    5.7936    0.1318    0.3133 C   0  0  0  0  0  0  0  0  0  0  0  0
   -2.4450    2.8471    0.3241 C   0  0  0  0  0  0  0  0  0  0  0  0
   -2.1462   -4.4422   -1.0661 C   0  0  0  0  0  0  0  0  0  0  0  0
   -3.6852   -3.3989    0.4768 C   0  0  0  0  0  0  0  0  0  0  0  0
   -3.4394   -4.2938   -0.5646 C   0  0  0  0  0  0  0  0  0  0  0  0
   -3.2316    4.1163    0.3927 C   0  0  0  0  0  0  0  0  0  0  0  0
   -4.5646    2.3981   -0.2635 C   0  0  0  0  0  0  0  0  0  0  0  0
   -5.6182    4.6738   -0.0567 C   0  0  0  0  0  0  0  0  0  0  0  0
    5.9316    1.2888   -3.1722 C   0  0  0  0  0  0  0  0  0  0  0  0
    4.1462   -1.3340    3.2534 C   0  0  0  0  0  0  0  0  0  0  0  0
   -5.7583   -4.8195   -0.5323 C   0  0  0  0  0  0  0  0  0  0  0  0
    1.7151   -0.3717   -2.1731 H   0  0  0  0  0  0  0  0  0  0  0  0
    1.6926   -1.7723   -1.1493 H   0  0  0  0  0  0  0  0  0  0  0  0
   -0.3141   -1.9769    2.1971 H   0  0  0  0  0  0  0  0  0  0  0  0
    0.7433   -2.5169    0.9303 H   0  0  0  0  0  0  0  0  0  0  0  0
    1.0840    1.8294   -2.2761 H   0  0  0  0  0  0  0  0  0  0  0  0
    1.9970    2.4677   -0.8629 H   0  0  0  0  0  0  0  0  0  0  0  0
    0.4020    3.1421   -1.2978 H   0  0  0  0  0  0  0  0  0  0  0  0
    2.7942   -1.1598    1.3150 H   0  0  0  0  0  0  0  0  0  0  0  0
    3.8390    0.4005   -2.4793 H   0  0  0  0  0  0  0  0  0  0  0  0
   -0.0966   -3.8195   -0.9270 H   0  0  0  0  0  0  0  0  0  0  0  0
   -2.8409   -1.9586    1.8282 H   0  0  0  0  0  0  0  0  0  0  0  0
   -1.9488   -5.1373   -1.8776 H   0  0  0  0  0  0  0  0  0  0  0  0
   -4.6643   -3.2342    0.9133 H   0  0  0  0  0  0  0  0  0  0  0  0
   -3.0627    0.8941   -0.2106 H   0  0  0  0  0  0  0  0  0  0  0  0
   -6.0078    4.6583   -1.0785 H   0  0  0  0  0  0  0  0  0  0  0  0
   -5.3147    5.6872    0.2166 H   0  0  0  0  0  0  0  0  0  0  0  0
   -6.4054    4.3206    0.6155 H   0  0  0  0  0  0  0  0  0  0  0  0
    7.1066    0.1071    1.6981 H   0  0  0  0  0  0  0  0  0  0  0  0
    5.6604    0.3766   -3.7146 H   0  0  0  0  0  0  0  0  0  0  0  0
    5.1309    2.0362   -3.1839 H   0  0  0  0  0  0  0  0  0  0  0  0
    6.7839    1.7295   -3.7000 H   0  0  0  0  0  0  0  0  0  0  0  0
    3.8357   -2.3101    2.8651 H   0  0  0  0  0  0  0  0  0  0  0  0
    4.5757   -1.5099    4.2452 H   0  0  0  0  0  0  0  0  0  0  0  0
    3.3012   -0.6505    3.3909 H   0  0  0  0  0  0  0  0  0  0  0  0
   -6.4486   -5.4774   -1.0705 H   0  0  0  0  0  0  0  0  0  0  0  0
   -6.1083   -3.7933   -0.6878 H   0  0  0  0  0  0  0  0  0  0  0  0
   -5.7921   -5.1145    0.5220 H   0  0  0  0  0  0  0  0  0  0  0  0
  1 22  1  0  0  0  0
  1 34  1  0  0  0  0
  2 23  1  0  0  0  0
  2 35  1  0  0  0  0
  3 26  1  0  0  0  0
  3 54  1  0  0  0  0
  4 30  1  0  0  0  0
  4 36  1  0  0  0  0
  5 31  2  0  0  0  0
  6 32  2  0  0  0  0
  7 12  1  0  0  0  0
  7 17  1  0  0  0  0
  7 19  1  0  0  0  0
  8 13  1  0  0  0  0
  8 17  2  0  0  0  0
  9 17  1  0  0  0  0
  9 27  2  0  0  0  0
 10 27  1  0  0  0  0
 10 32  1  0  0  0  0
 10 50  1  0  0  0  0
 11 31  1  0  0  0  0
 11 32  1  0  0  0  0
 11 33  1  0  0  0  0
 12 13  2  0  0  0  0
 12 14  1  0  0  0  0
 13 15  1  0  0  0  0
 14 16  1  0  0  0  0
 14 37  1  0  0  0  0
 14 38  1  0  0  0  0
 15 18  1  0  0  0  0
 15 39  1  0  0  0  0
 15 40  1  0  0  0  0
 16 20  2  0  0  0  0
 16 21  1  0  0  0  0
 18 24  2  0  0  0  0
 18 25  1  0  0  0  0
 19 41  1  0  0  0  0
 19 42  1  0  0  0  0
 19 43  1  0  0  0  0
 20 23  1  0  0  0  0
 20 44  1  0  0  0  0
 21 22  2  0  0  0  0
 21 45  1  0  0  0  0
 22 26  1  0  0  0  0
 23 26  2  0  0  0  0
 24 28  1  0  0  0  0
 24 46  1  0  0  0  0
 25 29  2  0  0  0  0
 25 47  1  0  0  0  0
 27 31  1  0  0  0  0
 28 30  2  0  0  0  0
 28 48  1  0  0  0  0
 29 30  1  0  0  0  0
 29 49  1  0  0  0  0
 33 51  1  0  0  0  0
 33 52  1  0  0  0  0
 33 53  1  0  0  0  0
 34 55  1  0  0  0  0
 34 56  1  0  0  0  0
 34 57  1  0  0  0  0
 35 58  1  0  0  0  0
 35 59  1  0  0  0  0
 35 60  1  0  0  0  0
 36 61  1  0  0  0  0
 36 62  1  0  0  0  0
 36 63  1  0  0  0  0
M  END
> <PUBCHEM_COMPOUND_CID>
135846070

> <PUBCHEM_CONFORMER_RMSD>
1

> <PUBCHEM_CONFORMER_DIVERSEORDER>
1
276
141
271
272
227
164
77
102
142
45
211
207
47
193
5
263
83
168
250
260
201
192
241
200
229
146
125
55
53
41
92
176
115
95
255
126
171
56
127
130
212
79
265
238
261
166
162
199
240
13
90
101
78
203
266
237
243
52
152
106
104
15
72
170
113
235
149
264
91
144
111
184
258
195
22
160
2
216
173
73
112
99
273
217
245
178
116
123
196
76
134
136
256
225
274
120
69
114
117
175
275
128
179
139
66
64
183
122
58
223
147
181
42
148
67
188
88
249
233
133
86
30
242
48
109
153
6
202
33
43
269
270
65
214
180
94
277
167
159
49
31
34
248
124
137
220
26
213
135
50
218
28
231
12
219
81
198
29
169
172
70
21
131
14
150
246
51
57
16
215
165
140
97
98
187
155
163
107
118
20
103
25
68
194
23
36
129
236
206
234
157
222
75
209
3
61
100
87
221
105
151
7
143
177
154
244
27
93
24
226
84
191
247
158
205
46
257
197
11
253
59
224
156
251
110
8
54
4
108
252
190
204
19
174
267
208
71
96
228
18
262
37
9
189
121
38
40
35
62
138
74
82
119
210
39
63
10
232
85
259
89
185
80
230
182
32
254
17
145
161
44
60
186
268
239
132

> <PUBCHEM_MMFF94_PARTIAL_CHARGES>
44
1 -0.36
10 -0.49
11 -0.42
12 -0.33
13 0.05
14 0.32
15 0.32
16 -0.14
17 0.31
18 -0.14
19 0.26
2 -0.36
20 -0.15
21 -0.15
22 0.08
23 0.08
24 -0.15
25 -0.15
26 0.08
27 0.51
28 -0.15
29 -0.15
3 -0.53
30 0.08
31 0.63
32 0.69
33 0.3
34 0.28
35 0.28
36 0.28
4 -0.36
44 0.15
45 0.15
46 0.15
47 0.15
48 0.15
49 0.15
5 -0.57
50 0.37
54 0.45
6 -0.57
7 0.05
8 -0.57
9 -0.58

> <PUBCHEM_EFFECTIVE_ROTOR_COUNT>
8.4

> <PUBCHEM_PHARMACOPHORE_FEATURES>
12
1 1 acceptor
1 10 donor
1 2 acceptor
1 3 donor
1 4 acceptor
1 5 acceptor
1 6 acceptor
4 7 8 9 17 cation
5 10 11 27 31 32 rings
5 7 8 12 13 17 rings
6 16 20 21 22 23 26 rings
6 18 24 25 28 29 30 rings

> <PUBCHEM_HEAVY_ATOM_COUNT>
36

> <PUBCHEM_ATOM_DEF_STEREO_COUNT>
0

> <PUBCHEM_ATOM_UDEF_STEREO_COUNT>
0

> <PUBCHEM_BOND_DEF_STEREO_COUNT>
1

> <PUBCHEM_BOND_UDEF_STEREO_COUNT>
0

> <PUBCHEM_ISOTOPIC_ATOM_COUNT>
0

> <PUBCHEM_COMPONENT_COUNT>
1

> <PUBCHEM_CACTVS_TAUTO_COUNT>
-1

> <PUBCHEM_CONFORMER_ID>
0818D8B600000001

> <PUBCHEM_MMFF94_ENERGY>
111.8447

> <PUBCHEM_FEATURE_SELFOVERLAP>
60.899

> <PUBCHEM_SHAPE_FINGERPRINT>
10675989 125 17326626197960291308
11991303 11 18261672571768471415
12788726 201 18262806292800762434
12977781 61 17844829017681332390
13540713 5 18113616786138769226
13590594 115 18194124247095111395
13692114 37 18124865768932329139
13757389 114 18337125470651257788
13782708 43 17274004448493222526
14068700 675 18192429890706705966
14068700 686 17903926556794544877
14117953 113 18270113639459795951
14294032 229 18340497707610845179
14556957 393 17973467656267313076
15198563 99 18268721665399811365
15400415 2 17979636737097241545
15927050 60 18266458707061552650
18365409 1 18411138014033428973
19319366 153 17838605670631116045
20511986 3 17821446859476816548
2132832 1 18116153466336954268
21703447 108 17980760755586583368
23929065 36 18340475772727372912
24180151 214 17630044846108127281
25147074 1 17967250914877265378
3103668 31 18410291458952414215
38695281 34 18192714436817134957
4066623 53 18048583009701931919
5028188 123 18408610259046115310
6697151 62 17762880462312470143
9658208 31 18271520880338811970

> <PUBCHEM_SHAPE_MULTIPOLES>
680.74
15.03
7.58
1.94
14.81
0.25
-0.27
-2.32
2.79
-22.11
0.93
4.53
0.51
-3.51

> <PUBCHEM_SHAPE_SELFOVERLAP>
1477.984

> <PUBCHEM_SHAPE_VOLUME>
373.5

> <PUBCHEM_COORDINATE_TYPE>
2
5
10

$$$$
