REMARK  Name = 135858154
REMARK  10 active torsions:
REMARK  status: ('A' for Active; 'I' for Inactive)
REMARK    1  A    between atoms: C_1  and  C_13
REMARK    2  A    between atoms: C_3  and  O_10
REMARK    3  A    between atoms: C_4  and  N_9
REMARK    4  A    between atoms: N_12  and  C_13
REMARK    5  A    between atoms: N_12  and  C_14
REMARK    6  A    between atoms: C_14  and  C_15
REMARK    7  A    between atoms: C_15  and  N_16
REMARK    8  A    between atoms: N_16  and  C_19
REMARK    9  A    between atoms: C_19  and  C_20
REMARK   10  A    between atoms: C_20  and  O_21
REMARK                            x       y       z     vdW  Elec       q    Type
REMARK                         _______ _______ _______ _____ _____    ______ ____
ROOT
ATOM      1  C   UNL     1      -1.550   0.936   0.006  0.00  0.00    +0.031 C 
ATOM      2  C   UNL     1      -1.914  -0.410   0.007  0.00  0.00    +0.024 C 
ATOM      3  C   UNL     1      -2.533   1.925  -0.007  0.00  0.00    +0.131 C 
ATOM      4  C   UNL     1      -3.263  -0.767  -0.005  0.00  0.00    +0.143 C 
ATOM      5  C   UNL     1      -3.881   1.568  -0.019  0.00  0.00    +0.038 C 
ATOM      6  C   UNL     1      -4.246   0.222  -0.018  0.00  0.00    +0.027 C 
ENDROOT
BRANCH   4   9
ATOM      7  O   UNL     1      -4.853  -2.437  -0.007  0.00  0.00    -0.126 OA
ATOM      8  O   UNL     1      -2.735  -3.012   0.012  0.00  0.00    -0.126 OA
ATOM      9  N   UNL     1      -3.635  -2.138   0.000  0.00  0.00    +0.058 N 
ENDBRANCH   4   9
BRANCH   3  10
ATOM     10  O   UNL     1      -2.197   3.246  -0.011  0.00  0.00    -0.506 OA
ATOM     11  H   UNL     1      -1.295   3.500  -0.003  0.00  0.00    +0.292 HD
ENDBRANCH   3  10
BRANCH   1  12
ATOM     12  C   UNL     1      -0.137   1.288   0.016  0.00  0.00    +0.118 C 
BRANCH  12  13
ATOM     13  N   UNL     1       0.810   0.399   0.026  0.00  0.00    -0.215 NA
BRANCH  13  14
ATOM     14  C   UNL     1       2.153   0.972   0.034  0.00  0.00    +0.066 C 
BRANCH  14  15
ATOM     15  C   UNL     1       3.172  -0.158   0.019  0.00  0.00    -0.063 C 
BRANCH  15  16
ATOM     16  N   UNL     1       4.526   0.381  -0.003  0.00  0.00    +0.386 N 
ATOM     17  H   UNL     1       4.673   0.949   0.832  0.00  0.00    -0.084 HD
ATOM     18  H   UNL     1       4.638   0.947  -0.844  0.00  0.00    -0.084 HD
BRANCH  16  19
ATOM     19  C   UNL     1       5.512  -0.691  -0.029  0.00  0.00    -0.049 C 
BRANCH  19  20
ATOM     20  C   UNL     1       6.922  -0.124  -0.007  0.00  0.00    +0.114 C 
BRANCH  20  21
ATOM     21  O   UNL     1       7.849  -1.202  -0.015  0.00  0.00    -0.384 OA
ATOM     22  H   UNL     1       8.753  -0.851  -0.002  0.00  0.00    +0.210 HD
ENDBRANCH  20  21
ENDBRANCH  19  20
ENDBRANCH  16  19
ENDBRANCH  15  16
ENDBRANCH  14  15
ENDBRANCH  13  14
ENDBRANCH  12  13
ENDBRANCH   1  12
TORSDOF 10
