REMARK  Name = 135862
REMARK  9 active torsions:
REMARK  status: ('A' for Active; 'I' for Inactive)
REMARK    1  A    between atoms: C_2  and  O_11
REMARK    2  A    between atoms: C_4  and  O_23
REMARK    3  A    between atoms: O_11  and  C_12
REMARK    4  A    between atoms: C_12  and  C_13
REMARK    5  A    between atoms: C_13  and  O_14
REMARK    6  A    between atoms: C_13  and  C_16
REMARK    7  A    between atoms: C_16  and  N_17
REMARK    8  A    between atoms: N_17  and  C_20
REMARK    9  A    between atoms: O_23  and  S_24
REMARK                            x       y       z     vdW  Elec       q    Type
REMARK                         _______ _______ _______ _____ _____    ______ ____
ROOT
ATOM      1  C   UNL     1       0.812   1.024   0.122  0.00  0.00    +0.037 C 
ATOM      2  C   UNL     1       0.007   0.126   0.842  0.00  0.00    +0.139 C 
ATOM      3  C   UNL     1       2.023   0.563  -0.448  0.00  0.00    +0.040 C 
ATOM      4  C   UNL     1       2.393  -0.781  -0.282  0.00  0.00    +0.176 C 
ATOM      5  C   UNL     1       0.389  -1.207   0.997  0.00  0.00    +0.040 C 
ATOM      6  C   UNL     1       0.443   2.368  -0.044  0.00  0.00    +0.003 C 
ATOM      7  C   UNL     1       1.580  -1.659   0.436  0.00  0.00    +0.043 C 
ATOM      8  C   UNL     1       2.829   1.461  -1.167  0.00  0.00    +0.003 C 
ATOM      9  C   UNL     1       1.255   3.247  -0.761  0.00  0.00    +0.000 C 
ATOM     10  C   UNL     1       2.446   2.794  -1.322  0.00  0.00    +0.000 C 
ENDROOT
BRANCH   2  11
ATOM     11  O   UNL     1      -1.169   0.524   1.411  0.00  0.00    -0.473 OA
BRANCH  11  12
ATOM     12  C   UNL     1      -2.353  -0.137   0.975  0.00  0.00    +0.232 C 
BRANCH  12  13
ATOM     13  C   UNL     1      -3.531   0.827   1.099  0.00  0.00    +0.133 C 
BRANCH  13  14
ATOM     14  O   UNL     1      -3.675   1.196   2.474  0.00  0.00    -0.383 OA
ATOM     15  H   UNL     1      -4.421   1.809   2.568  0.00  0.00    +0.210 HD
ENDBRANCH  13  14
BRANCH  13  16
ATOM     16  C   UNL     1      -4.857   0.228   0.624  0.00  0.00    -0.048 C 
BRANCH  16  17
ATOM     17  N   UNL     1      -4.792  -0.214  -0.762  0.00  0.00    +0.387 N 
ATOM     18  H   UNL     1      -4.039  -0.894  -0.861  0.00  0.00    -0.084 HD
ATOM     19  H   UNL     1      -4.620   0.598  -1.355  0.00  0.00    -0.084 HD
BRANCH  17  20
ATOM     20  C   UNL     1      -6.047  -0.831  -1.171  0.00  0.00    -0.062 C 
ATOM     21  C   UNL     1      -6.357  -2.036  -0.289  0.00  0.00    -0.023 C 
ATOM     22  C   UNL     1      -5.960  -1.235  -2.640  0.00  0.00    -0.023 C 
ENDBRANCH  17  20
ENDBRANCH  16  17
ENDBRANCH  13  16
ENDBRANCH  12  13
ENDBRANCH  11  12
ENDBRANCH   2  11
BRANCH   4  23
ATOM     23  O   UNL     1       3.551  -1.271  -0.814  0.00  0.00    -0.322 OA
BRANCH  23  24
ATOM     24  S   UNL     1       4.923  -1.213   0.087  0.00  0.00    +0.282 S 
ATOM     25  O   UNL     1       6.083  -1.748  -0.929  0.00  0.00    -0.105 OA
ATOM     26  O   UNL     1       5.218   0.170   0.414  0.00  0.00    -0.105 OA
ATOM     27  O   UNL     1       4.790  -2.195   1.148  0.00  0.00    -0.012 OA
ENDBRANCH  23  24
ENDBRANCH   4  23
TORSDOF 9
