REMARK  Name = 135849753
REMARK  7 active torsions:
REMARK  status: ('A' for Active; 'I' for Inactive)
REMARK    1  A    between atoms: C_1  and  C_3
REMARK    2  A    between atoms: C_1  and  C_16
REMARK    3  A    between atoms: C_9  and  O_12
REMARK    4  A    between atoms: C_10  and  O_14
REMARK    5  A    between atoms: C_17  and  O_26
REMARK    6  A    between atoms: C_19  and  S_22
REMARK    7  A    between atoms: C_20  and  O_28
REMARK                            x       y       z     vdW  Elec       q    Type
REMARK                         _______ _______ _______ _____ _____    ______ ____
ROOT
ATOM      1  C   UNL     1       0.391   0.870   1.595  0.00  0.00    +0.075 C 
ENDROOT
BRANCH   1   3
ATOM      2  N   UNL     1       1.165   2.429  -0.047  0.00  0.00    -0.248 NA
ATOM      3  C   UNL     1       1.392   1.236   0.546  0.00  0.00    +0.064 C 
ATOM      4  C   UNL     1       2.457   0.388   0.234  0.00  0.00    +0.017 C 
ATOM      5  C   UNL     1       3.354   0.811  -0.768  0.00  0.00    +0.006 C 
ATOM      6  C   UNL     1       2.657  -0.846   0.875  0.00  0.00    +0.041 C 
ATOM      7  C   UNL     1       4.438  -0.015  -1.108  0.00  0.00    +0.040 C 
ATOM      8  C   UNL     1       3.137   2.045  -1.394  0.00  0.00    +0.021 C 
ATOM      9  C   UNL     1       3.738  -1.654   0.524  0.00  0.00    +0.168 C 
ATOM     10  C   UNL     1       4.627  -1.239  -0.465  0.00  0.00    +0.167 C 
ATOM     11  C   UNL     1       2.044   2.802  -1.001  0.00  0.00    +0.098 C 
BRANCH   9  12
ATOM     12  O   UNL     1       3.916  -2.847   1.157  0.00  0.00    -0.503 OA
ATOM     13  H   UNL     1       3.314  -3.120   1.821  0.00  0.00    +0.292 HD
ENDBRANCH   9  12
BRANCH  10  14
ATOM     14  O   UNL     1       5.687  -2.020  -0.814  0.00  0.00    -0.503 OA
ATOM     15  H   UNL     1       6.281  -1.735  -1.480  0.00  0.00    +0.292 HD
ENDBRANCH  10  14
ENDBRANCH   1   3
BRANCH   1  16
ATOM     16  C   UNL     1      -0.920   0.357   1.037  0.00  0.00    +0.021 C 
ATOM     17  C   UNL     1      -1.967   1.234   0.754  0.00  0.00    +0.165 C 
ATOM     18  C   UNL     1      -1.073  -1.010   0.805  0.00  0.00    +0.001 C 
ATOM     19  C   UNL     1      -3.320  -0.622   0.007  0.00  0.00    +0.149 C 
ATOM     20  C   UNL     1      -3.167   0.745   0.239  0.00  0.00    +0.185 C 
ATOM     21  C   UNL     1      -2.273  -1.499   0.290  0.00  0.00    +0.022 C 
BRANCH  19  22
ATOM     22  S   UNL     1      -4.815  -1.264  -0.638  0.00  0.00    +0.045 S 
ATOM     23  O   UNL     1      -4.866  -0.746  -2.187  0.00  0.00    -0.065 OA
ATOM     24  O   UNL     1      -4.699  -2.713  -0.676  0.00  0.00    -0.065 OA
ATOM     25  O   UNL     1      -5.897  -0.622   0.091  0.00  0.00    -0.065 OA
ENDBRANCH  19  22
BRANCH  17  26
ATOM     26  O   UNL     1      -1.820   2.572   0.979  0.00  0.00    -0.503 OA
ATOM     27  H   UNL     1      -1.014   2.903   1.325  0.00  0.00    +0.292 HD
ENDBRANCH  17  26
BRANCH  20  28
ATOM     28  O   UNL     1      -4.186   1.609  -0.035  0.00  0.00    -0.502 OA
ATOM     29  H   UNL     1      -4.077   2.526   0.123  0.00  0.00    +0.292 HD
ENDBRANCH  20  28
ENDBRANCH   1  16
TORSDOF 7
