REMARK  Name = 135846070
REMARK  9 active torsions:
REMARK  status: ('A' for Active; 'I' for Inactive)
REMARK    1  A    between atoms: C_3  and  C_17
REMARK    2  A    between atoms: C_4  and  C_30
REMARK    3  A    between atoms: C_5  and  N_9
REMARK    4  A    between atoms: C_17  and  C_18
REMARK    5  A    between atoms: C_21  and  O_24
REMARK    6  A    between atoms: C_22  and  O_26
REMARK    7  A    between atoms: C_23  and  O_28
REMARK    8  A    between atoms: C_30  and  C_31
REMARK    9  A    between atoms: C_36  and  O_37
REMARK                            x       y       z     vdW  Elec       q    Type
REMARK                         _______ _______ _______ _____ _____    ______ ____
ROOT
ATOM      1  N   UNL     1       0.391   1.249  -0.405  0.00  0.00    -0.262 N 
ATOM      2  N   UNL     1      -0.971   0.359   1.107  0.00  0.00    -0.376 NA
ATOM      3  C   UNL     1       0.734  -0.072  -0.323  0.00  0.00    +0.129 C 
ATOM      4  C   UNL     1      -0.120  -0.600   0.616  0.00  0.00    +0.113 C 
ATOM      5  C   UNL     1      -0.637   1.460   0.472  0.00  0.00    +0.274 C 
ATOM      6  C   UNL     1       1.008   2.234  -1.264  0.00  0.00    +0.116 C 
ENDROOT
BRANCH   5   9
ATOM      7  O   UNL     1      -2.740   5.175   0.720  0.00  0.00    -0.266 OA
ATOM      8  O   UNL     1      -5.550   1.765  -0.621  0.00  0.00    -0.252 OA
ATOM      9  N   UNL     1      -1.195   2.747   0.597  0.00  0.00    -0.183 NA
ATOM     10  N   UNL     1      -3.297   1.870  -0.071  0.00  0.00    -0.249 N 
ATOM     11  N   UNL     1      -4.497   3.760   0.024  0.00  0.00    -0.206 N 
ATOM     12  C   UNL     1      -2.445   2.847   0.324  0.00  0.00    +0.194 C 
ATOM     13  C   UNL     1      -3.232   4.116   0.393  0.00  0.00    +0.288 C 
ATOM     14  C   UNL     1      -4.565   2.398  -0.264  0.00  0.00    +0.315 C 
ATOM     15  C   UNL     1      -5.618   4.674  -0.057  0.00  0.00    +0.125 C 
ATOM     16  H   UNL     1      -3.052   0.926  -0.202  0.00  0.00    +0.158 HD
ENDBRANCH   5   9
BRANCH   3  17
ATOM     17  C   UNL     1       1.810  -0.681  -1.125  0.00  0.00    +0.053 C 
BRANCH  17  18
ATOM     18  C   UNL     1       3.217  -0.394  -0.617  0.00  0.00    -0.014 C 
ATOM     19  C   UNL     1       3.560  -0.705   0.699  0.00  0.00    +0.036 C 
ATOM     20  C   UNL     1       4.162   0.180  -1.468  0.00  0.00    +0.036 C 
ATOM     21  C   UNL     1       5.450   0.443  -1.002  0.00  0.00    +0.175 C 
ATOM     22  C   UNL     1       4.849  -0.442   1.164  0.00  0.00    +0.175 C 
ATOM     23  C   UNL     1       5.794   0.132   0.313  0.00  0.00    +0.202 C 
BRANCH  21  24
ATOM     24  O   UNL     1       6.364   1.002  -1.844  0.00  0.00    -0.468 OA
ATOM     25  C   UNL     1       5.932   1.289  -3.172  0.00  0.00    +0.253 C 
ENDBRANCH  21  24
BRANCH  22  26
ATOM     26  O   UNL     1       5.171  -0.750   2.451  0.00  0.00    -0.468 OA
ATOM     27  C   UNL     1       4.146  -1.334   3.253  0.00  0.00    +0.253 C 
ENDBRANCH  22  26
BRANCH  23  28
ATOM     28  O   UNL     1       7.053   0.388   0.768  0.00  0.00    -0.501 OA
ATOM     29  H   UNL     1       7.688   0.773   0.197  0.00  0.00    +0.292 HD
ENDBRANCH  23  28
ENDBRANCH  17  18
ENDBRANCH   3  17
BRANCH   4  30
ATOM     30  C   UNL     1      -0.200  -1.986   1.105  0.00  0.00    +0.082 C 
BRANCH  30  31
ATOM     31  C   UNL     1      -1.345  -2.801   0.515  0.00  0.00    -0.015 C 
ATOM     32  C   UNL     1      -1.099  -3.696  -0.526  0.00  0.00    -0.001 C 
ATOM     33  C   UNL     1      -2.638  -2.652   1.017  0.00  0.00    -0.001 C 
ATOM     34  C   UNL     1      -2.146  -4.442  -1.066  0.00  0.00    +0.037 C 
ATOM     35  C   UNL     1      -3.685  -3.399   0.477  0.00  0.00    +0.037 C 
ATOM     36  C   UNL     1      -3.439  -4.294  -0.565  0.00  0.00    +0.139 C 
BRANCH  36  37
ATOM     37  O   UNL     1      -4.461  -5.021  -1.092  0.00  0.00    -0.471 OA
ATOM     38  C   UNL     1      -5.758  -4.819  -0.532  0.00  0.00    +0.252 C 
ENDBRANCH  36  37
ENDBRANCH  30  31
ENDBRANCH   4  30
TORSDOF 9
