REMARK  Name = 135807
REMARK  6 active torsions:
REMARK  status: ('A' for Active; 'I' for Inactive)
REMARK    1  A    between atoms: C_2  and  C_10
REMARK    2  A    between atoms: C_3  and  C_20
REMARK    3  A    between atoms: C_4  and  C_24
REMARK    4  A    between atoms: C_11  and  N_17
REMARK    5  A    between atoms: C_20  and  O_21
REMARK    6  A    between atoms: C_24  and  O_25
REMARK                            x       y       z     vdW  Elec       q    Type
REMARK                         _______ _______ _______ _____ _____    ______ ____
ROOT
ATOM      1  N   UNL     1      -1.668  -2.715   0.096  0.00  0.00    -0.334 N 
ATOM      2  C   UNL     1      -0.330  -0.275  -0.425  0.00  0.00    +0.012 C 
ATOM      3  C   UNL     1      -1.829  -0.363  -0.113  0.00  0.00    +0.071 C 
ATOM      4  C   UNL     1       0.396  -1.614  -0.259  0.00  0.00    +0.085 C 
ATOM      5  C   UNL     1      -2.427  -1.554   0.113  0.00  0.00    +0.098 C 
ATOM      6  C   UNL     1      -0.290  -2.758  -0.038  0.00  0.00    +0.028 C 
ATOM      7  C   UNL     1      -3.893  -1.760   0.388  0.00  0.00    +0.026 C 
ATOM      8  C   UNL     1       0.317  -4.129   0.087  0.00  0.00    +0.047 C 
ATOM      9  H   UNL     1      -2.145  -3.572   0.186  0.00  0.00    +0.147 HD
ENDROOT
BRANCH   2  10
ATOM     10  C   UNL     1       0.314   0.768   0.443  0.00  0.00    +0.019 C 
ATOM     11  C   UNL     1       0.909   1.891  -0.120  0.00  0.00    +0.091 C 
ATOM     12  C   UNL     1       0.304   0.588   1.822  0.00  0.00    +0.002 C 
ATOM     13  C   UNL     1       1.501   2.847   0.706  0.00  0.00    +0.020 C 
ATOM     14  C   UNL     1       0.895   1.544   2.648  0.00  0.00    +0.000 C 
ATOM     15  C   UNL     1       1.494   2.673   2.090  0.00  0.00    +0.002 C 
BRANCH  11  17
ATOM     16  S   UNL     1       3.147   0.995  -2.762  0.00  0.00    +0.021 S 
ATOM     17  N   UNL     1       0.926   2.083  -1.507  0.00  0.00    -0.196 NA
ATOM     18  C   UNL     1       1.875   1.615  -2.029  0.00  0.00    +0.041 C 
ENDBRANCH  11  17
ENDBRANCH   2  10
BRANCH   3  20
ATOM     19  O   UNL     1      -2.642   1.557   1.015  0.00  0.00    -0.245 OA
ATOM     20  C   UNL     1      -2.556   0.913  -0.014  0.00  0.00    +0.339 C 
BRANCH  20  21
ATOM     21  O   UNL     1      -3.077   1.204  -1.231  0.00  0.00    -0.442 OA
ATOM     22  C   UNL     1      -3.819   2.426  -1.297  0.00  0.00    +0.256 C 
ENDBRANCH  20  21
ENDBRANCH   3  20
BRANCH   4  24
ATOM     23  O   UNL     1       2.508  -1.738  -1.326  0.00  0.00    -0.245 OA
ATOM     24  C   UNL     1       1.866  -1.577  -0.304  0.00  0.00    +0.342 C 
BRANCH  24  25
ATOM     25  O   UNL     1       2.328  -1.342   0.948  0.00  0.00    -0.441 OA
ATOM     26  C   UNL     1       3.752  -1.277   1.067  0.00  0.00    +0.256 C 
ENDBRANCH  24  25
ENDBRANCH   4  24
TORSDOF 6
