REMARK  Name = 135804809
REMARK  8 active torsions:
REMARK  status: ('A' for Active; 'I' for Inactive)
REMARK    1  A    between atoms: C_2  and  O_17
REMARK    2  A    between atoms: C_3  and  O_19
REMARK    3  A    between atoms: C_4  and  N_7
REMARK    4  A    between atoms: C_5  and  C_21
REMARK    5  A    between atoms: C_21  and  O_22
REMARK    6  A    between atoms: O_22  and  P_23
REMARK    7  A    between atoms: P_23  and  O_25
REMARK    8  A    between atoms: P_23  and  O_27
REMARK                            x       y       z     vdW  Elec       q    Type
REMARK                         _______ _______ _______ _____ _____    ______ ____
ROOT
ATOM      1  O   UNL     1       1.038  -0.786   1.085  0.00  0.00    -0.332 OA
ATOM      2  C   UNL     1       0.210  -1.929  -0.815  0.00  0.00    +0.188 C 
ATOM      3  C   UNL     1       1.520  -2.572  -0.406  0.00  0.00    +0.171 C 
ATOM      4  C   UNL     1      -0.196  -1.199   0.462  0.00  0.00    +0.243 C 
ATOM      5  C   UNL     1       2.139  -1.503   0.484  0.00  0.00    +0.176 C 
ENDROOT
BRANCH   4   7
ATOM      6  O   UNL     1      -4.669   2.724  -0.391  0.00  0.00    -0.274 OA
ATOM      7  N   UNL     1      -1.106  -0.022   0.204  0.00  0.00    -0.170 N 
ATOM      8  N   UNL     1      -0.569   1.186  -0.066  0.00  0.00    -0.177 NA
ATOM      9  N   UNL     1      -3.254  -1.095   0.450  0.00  0.00    -0.236 NA
ATOM     10  N   UNL     1      -5.039   0.477   0.109  0.00  0.00    -0.283 N 
ATOM     11  C   UNL     1      -2.468  -0.018   0.209  0.00  0.00    +0.141 C 
ATOM     12  C   UNL     1      -2.842   1.274  -0.076  0.00  0.00    +0.174 C 
ATOM     13  C   UNL     1      -1.638   1.975  -0.236  0.00  0.00    +0.108 C 
ATOM     14  C   UNL     1      -4.244   1.602  -0.144  0.00  0.00    +0.236 C 
ATOM     15  C   UNL     1      -4.517  -0.790   0.388  0.00  0.00    +0.220 C 
ATOM     16  H   UNL     1      -6.017   0.584   0.090  0.00  0.00    +0.151 HD
ENDBRANCH   4   7
BRANCH   2  17
ATOM     17  O   UNL     1      -0.756  -2.866  -1.246  0.00  0.00    -0.378 OA
ATOM     18  H   UNL     1      -0.447  -3.298  -2.058  0.00  0.00    +0.211 HD
ENDBRANCH   2  17
BRANCH   3  19
ATOM     19  O   UNL     1       1.278  -3.727   0.396  0.00  0.00    -0.379 OA
ATOM     20  H   UNL     1       0.882  -4.424  -0.150  0.00  0.00    +0.211 HD
ENDBRANCH   3  19
BRANCH   5  21
ATOM     21  C   UNL     1       2.993  -0.505  -0.287  0.00  0.00    +0.186 C 
BRANCH  21  22
ATOM     22  O   UNL     1       3.510   0.449   0.624  0.00  0.00    -0.271 OA
BRANCH  22  23
ATOM     23  P   UNL     1       4.459   1.629   0.051  0.00  0.00    +0.473 P 
ATOM     24  O   UNL     1       4.963   2.594   1.084  0.00  0.00    -0.227 OA
BRANCH  23  25
ATOM     25  O   UNL     1       5.609   0.816  -0.743  0.00  0.00    -0.303 OA
ATOM     26  H   UNL     1       5.197   0.219  -1.387  0.00  0.00    +0.222 HD
ENDBRANCH  23  25
BRANCH  23  27
ATOM     27  O   UNL     1       3.579   2.285  -1.137  0.00  0.00    -0.303 OA
ATOM     28  H   UNL     1       3.298   1.590  -1.753  0.00  0.00    +0.222 HD
ENDBRANCH  23  27
ENDBRANCH  22  23
ENDBRANCH  21  22
ENDBRANCH   5  21
TORSDOF 8
