REMARK  Name = 135854977
REMARK  5 active torsions:
REMARK  status: ('A' for Active; 'I' for Inactive)
REMARK    1  A    between atoms: N_2  and  C1*_17
REMARK    2  A    between atoms: C2*_16  and  O2*_20
REMARK    3  A    between atoms: C3*_18  and  O3*_22
REMARK    4  A    between atoms: C4*_19  and  C5*_24
REMARK    5  A    between atoms: C5*_24  and  O5*_25
REMARK                            x       y       z     vdW  Elec       q    Type
REMARK                         _______ _______ _______ _____ _____    ______ ____
ROOT
ATOM      1  O   UNL     1      -1.311  -2.193   0.689  0.00  0.00    -0.272 OA
ATOM      2  N   UNL     1      -0.066   0.509   0.106  0.00  0.00    -0.207 NA
ATOM      3  N   UNL     1      -1.289   2.304  -0.401  0.00  0.00    -0.194 NA
ATOM      4  N   UNL     1      -3.326  -1.116   0.313  0.00  0.00    -0.245 N 
ATOM      5  N   UNL     1      -3.507   1.208  -0.262  0.00  0.00    -0.323 NA
ATOM      6  N   UNL     1      -5.418  -0.128  -0.048  0.00  0.00    -0.320 N 
ATOM      7  C   UNL     1      -1.368   0.103   0.129  0.00  0.00    +0.236 C 
ATOM      8  C   UNL     1      -0.070   1.841  -0.217  0.00  0.00    +0.216 C 
ATOM      9  C   UNL     1      -2.103   1.223  -0.185  0.00  0.00    +0.087 C 
ATOM     10  C   UNL     1      -1.937  -1.177   0.407  0.00  0.00    +0.259 C 
ATOM     11  C   UNL     1      -4.057   0.042  -0.011  0.00  0.00    +0.248 C 
ATOM     12  H   UNL     1      -3.833  -1.943   0.484  0.00  0.00    +0.159 HD
ATOM     13  H   UNL     1      -5.809  -1.011   0.144  0.00  0.00    +0.146 HD
ATOM     14  H   UNL     1      -6.003   0.633  -0.267  0.00  0.00    +0.146 HD
ENDROOT
BRANCH   2  17
ATOM     15  O4* UNL     1       2.213   0.459   0.976  0.00  0.00    -0.336 OA
ATOM     16  C2* UNL     1       1.762  -0.935  -0.882  0.00  0.00    +0.183 C 
ATOM     17  C1* UNL     1       1.161  -0.327   0.381  0.00  0.00    +0.208 C 
ATOM     18  C3* UNL     1       3.208  -1.138  -0.475  0.00  0.00    +0.171 C 
ATOM     19  C4* UNL     1       3.478   0.095   0.378  0.00  0.00    +0.175 C 
BRANCH  16  20
ATOM     20  O2* UNL     1       1.125  -2.135  -1.275  0.00  0.00    -0.378 OA
ATOM     21  H2* UNL     1       0.207  -1.947  -1.523  0.00  0.00    +0.211 HD
ENDBRANCH  16  20
BRANCH  18  22
ATOM     22  O3* UNL     1       3.333  -2.288   0.360  0.00  0.00    -0.379 OA
ATOM     23  H3* UNL     1       3.166  -3.088  -0.162  0.00  0.00    +0.211 HD
ENDBRANCH  18  22
BRANCH  19  24
ATOM     24  C5* UNL     1       3.982   1.282  -0.431  0.00  0.00    +0.169 C 
BRANCH  24  25
ATOM     25  O5* UNL     1       4.190   2.374   0.448  0.00  0.00    -0.379 OA
ATOM     26  H5* UNL     1       4.512   3.137  -0.056  0.00  0.00    +0.211 HD
ENDBRANCH  24  25
ENDBRANCH  19  24
ENDBRANCH   2  17
TORSDOF 5
