REMARK  Name = 135887
REMARK  6 active torsions:
REMARK  status: ('A' for Active; 'I' for Inactive)
REMARK    1  A    between atoms: C_3  and  O_21
REMARK    2  A    between atoms: C_4  and  O_23
REMARK    3  A    between atoms: C_4  and  C_27
REMARK    4  A    between atoms: C_20  and  O_25
REMARK    5  A    between atoms: C_27  and  C_31
REMARK    6  A    between atoms: C_27  and  O_38
REMARK                            x       y       z     vdW  Elec       q    Type
REMARK                         _______ _______ _______ _____ _____    ______ ____
ROOT
ATOM      1  O   UNL     1      -5.090  -2.421   0.469  0.00  0.00    -0.296 OA
ATOM      2  C   UNL     1       0.154  -0.421  -0.244  0.00  0.00    +0.047 C 
ATOM      3  C   UNL     1      -0.567   0.914   0.105  0.00  0.00    +0.091 C 
ATOM      4  C   UNL     1       1.608  -0.112   0.241  0.00  0.00    +0.116 C 
ATOM      5  C   UNL     1      -2.018   0.938  -0.416  0.00  0.00    +0.030 C 
ATOM      6  C   UNL     1      -2.830  -0.255   0.186  0.00  0.00    +0.013 C 
ATOM      7  C   UNL     1      -0.587  -1.556   0.486  0.00  0.00    +0.005 C 
ATOM      8  C   UNL     1       0.406   1.969  -0.425  0.00  0.00    +0.029 C 
ATOM      9  C   UNL     1       1.811   1.374  -0.162  0.00  0.00    +0.032 C 
ATOM     10  C   UNL     1      -2.071  -1.611   0.079  0.00  0.00    +0.001 C 
ATOM     11  C   UNL     1      -4.288  -0.295  -0.405  0.00  0.00    +0.067 C 
ATOM     12  C   UNL     1      -2.723   2.275  -0.123  0.00  0.00    +0.028 C 
ATOM     13  C   UNL     1       0.174  -0.729  -1.771  0.00  0.00    +0.005 C 
ATOM     14  C   UNL     1      -4.925   1.096  -0.399  0.00  0.00    -0.040 C 
ATOM     15  C   UNL     1      -4.209   2.225  -0.274  0.00  0.00    -0.034 C 
ATOM     16  C   UNL     1      -5.162  -1.191   0.499  0.00  0.00    +0.156 C 
ATOM     17  C   UNL     1      -4.348  -0.849  -1.842  0.00  0.00    +0.011 C 
ATOM     18  C   UNL     1      -6.434   1.152  -0.464  0.00  0.00    +0.052 C 
ATOM     19  C   UNL     1      -6.106  -0.505   1.466  0.00  0.00    +0.094 C 
ATOM     20  C   UNL     1      -7.083   0.376   0.690  0.00  0.00    +0.122 C 
ENDROOT
BRANCH   3  21
ATOM     21  O   UNL     1      -0.618   1.065   1.538  0.00  0.00    -0.387 OA
ATOM     22  H   UNL     1      -1.228   0.410   1.911  0.00  0.00    +0.210 HD
ENDBRANCH   3  21
BRANCH   4  23
ATOM     23  O   UNL     1       1.704  -0.182   1.669  0.00  0.00    -0.384 OA
ATOM     24  H   UNL     1       1.018   0.375   2.067  0.00  0.00    +0.210 HD
ENDBRANCH   4  23
BRANCH  20  25
ATOM     25  O   UNL     1      -8.122  -0.440   0.147  0.00  0.00    -0.384 OA
ATOM     26  H   UNL     1      -8.745   0.116  -0.347  0.00  0.00    +0.210 HD
ENDBRANCH  20  25
BRANCH   4  27
ATOM     27  C   UNL     1       2.715  -1.009  -0.310  0.00  0.00    +0.147 C 
ATOM     28  C   UNL     1       2.452  -2.474   0.035  0.00  0.00    +0.035 C 
BRANCH  27  31
ATOM     29  O   UNL     1       4.290   0.790  -0.196  0.00  0.00    -0.447 OA
ATOM     30  O   UNL     1       5.666   2.574  -0.127  0.00  0.00    -0.245 OA
ATOM     31  C   UNL     1       4.073  -0.571   0.218  0.00  0.00    +0.200 C 
ATOM     32  C   UNL     1       5.189  -1.450  -0.318  0.00  0.00    +0.068 C 
ATOM     33  C   UNL     1       6.514  -0.872   0.098  0.00  0.00    -0.038 C 
ATOM     34  C   UNL     1       5.509   1.362  -0.015  0.00  0.00    +0.337 C 
ATOM     35  C   UNL     1       6.653   0.454   0.295  0.00  0.00    +0.046 C 
ATOM     36  C   UNL     1       7.614  -1.887   0.244  0.00  0.00    +0.026 C 
ATOM     37  C   UNL     1       7.904   1.143   0.758  0.00  0.00    +0.037 C 
ENDBRANCH  27  31
BRANCH  27  38
ATOM     38  O   UNL     1       2.743  -0.876  -1.732  0.00  0.00    -0.381 OA
ATOM     39  H   UNL     1       2.909   0.050  -1.967  0.00  0.00    +0.210 HD
ENDBRANCH  27  38
ENDBRANCH   4  27
TORSDOF 6
