REMARK  Name = 135816739
REMARK  4 active torsions:
REMARK  status: ('A' for Active; 'I' for Inactive)
REMARK    1  A    between atoms: N_2  and  C_16
REMARK    2  A    between atoms: C_17  and  O_20
REMARK    3  A    between atoms: C_19  and  C_22
REMARK    4  A    between atoms: C_22  and  N_23
REMARK                            x       y       z     vdW  Elec       q    Type
REMARK                         _______ _______ _______ _____ _____    ______ ____
ROOT
ATOM      1  O   UNL     1       4.158  -1.948  -0.313  0.00  0.00    -0.268 OA
ATOM      2  N   UNL     1      -0.037  -0.317   0.091  0.00  0.00    -0.239 N 
ATOM      3  N   UNL     1       1.196  -2.158  -0.214  0.00  0.00    -0.240 NA
ATOM      4  N   UNL     1       1.701   1.361   0.247  0.00  0.00    -0.357 NA
ATOM      5  N   UNL     1       3.859   0.345   0.015  0.00  0.00    -0.243 N 
ATOM      6  N   UNL     1       3.652   2.667   0.342  0.00  0.00    -0.321 N 
ATOM      7  C   UNL     1       1.265   0.091   0.091  0.00  0.00    +0.211 C 
ATOM      8  C   UNL     1      -0.026  -1.678  -0.096  0.00  0.00    +0.224 C 
ATOM      9  C   UNL     1       1.994  -1.058  -0.098  0.00  0.00    +0.176 C 
ATOM     10  C   UNL     1       3.427  -0.979  -0.149  0.00  0.00    +0.273 C 
ATOM     11  C   UNL     1       3.012   1.463   0.204  0.00  0.00    +0.239 C 
ATOM     12  H   UNL     1       4.829   0.510  -0.005  0.00  0.00    +0.159 HD
ATOM     13  H   UNL     1       3.128   3.490   0.478  0.00  0.00    +0.146 HD
ATOM     14  H   UNL     1       4.635   2.710   0.305  0.00  0.00    +0.146 HD
ENDROOT
BRANCH   2  16
ATOM     15  O   UNL     1      -2.329  -0.159   0.925  0.00  0.00    -0.340 OA
ATOM     16  C   UNL     1      -1.262   0.545   0.262  0.00  0.00    +0.198 C 
ATOM     17  C   UNL     1      -3.283   1.281  -0.709  0.00  0.00    +0.140 C 
ATOM     18  C   UNL     1      -1.834   1.040  -1.062  0.00  0.00    +0.083 C 
ATOM     19  C   UNL     1      -3.581   0.169   0.289  0.00  0.00    +0.122 C 
BRANCH  17  20
ATOM     20  O   UNL     1      -3.387   2.546  -0.062  0.00  0.00    -0.382 OA
ATOM     21  H   UNL     1      -3.197   3.252  -0.700  0.00  0.00    +0.210 HD
ENDBRANCH  17  20
BRANCH  19  22
ATOM     22  C   UNL     1      -4.115  -1.092  -0.376  0.00  0.00    -0.053 C 
BRANCH  22  23
ATOM     23  N   UNL     1      -4.409  -2.120   0.613  0.00  0.00    +0.382 N 
ATOM     24  H   UNL     1      -4.765  -2.952   0.142  0.00  0.00    -0.089 HD
ATOM     25  H   UNL     1      -5.112  -1.773   1.266  0.00  0.00    -0.089 HD
ATOM     26  H   UNL     1      -3.558  -2.355   1.123  0.00  0.00    -0.089 HD
ENDBRANCH  22  23
ENDBRANCH  19  22
ENDBRANCH   2  16
TORSDOF 4
