REMARK  Name = 135804808
REMARK  5 active torsions:
REMARK  status: ('A' for Active; 'I' for Inactive)
REMARK    1  A    between atoms: C2*_2  and  O2*_17
REMARK    2  A    between atoms: C3*_3  and  O3*_19
REMARK    3  A    between atoms: C1*_4  and  N_7
REMARK    4  A    between atoms: C4*_5  and  C5*_21
REMARK    5  A    between atoms: C5*_21  and  O5*_22
REMARK                            x       y       z     vdW  Elec       q    Type
REMARK                         _______ _______ _______ _____ _____    ______ ____
ROOT
ATOM      1  O4* UNL     1       2.029   0.488  -0.991  0.00  0.00    -0.332 OA
ATOM      2  C2* UNL     1       1.688  -1.004   0.818  0.00  0.00    +0.188 C 
ATOM      3  C3* UNL     1       3.160  -1.018   0.457  0.00  0.00    +0.171 C 
ATOM      4  C1* UNL     1       1.050  -0.414  -0.435  0.00  0.00    +0.243 C 
ATOM      5  C4* UNL     1       3.308   0.260  -0.359  0.00  0.00    +0.176 C 
ENDROOT
BRANCH   4   7
ATOM      6  O   UNL     1      -4.630   1.355   0.428  0.00  0.00    -0.274 OA
ATOM      7  N   UNL     1      -0.258   0.288  -0.157  0.00  0.00    -0.170 N 
ATOM      8  N   UNL     1      -0.251   1.591   0.194  0.00  0.00    -0.177 NA
ATOM      9  N   UNL     1      -1.797  -1.531  -0.542  0.00  0.00    -0.236 NA
ATOM     10  N   UNL     1      -4.066  -0.820  -0.195  0.00  0.00    -0.283 N 
ATOM     11  C   UNL     1      -1.508  -0.248  -0.216  0.00  0.00    +0.141 C 
ATOM     12  C   UNL     1      -2.371   0.770   0.117  0.00  0.00    +0.174 C 
ATOM     13  C   UNL     1      -1.549   1.879   0.360  0.00  0.00    +0.108 C 
ATOM     14  C   UNL     1      -3.788   0.511   0.144  0.00  0.00    +0.236 C 
ATOM     15  C   UNL     1      -3.078  -1.756  -0.515  0.00  0.00    +0.220 C 
ATOM     16  H   UNL     1      -5.006  -1.111  -0.209  0.00  0.00    +0.151 HD
ENDBRANCH   4   7
BRANCH   2  17
ATOM     17  O2* UNL     1       1.182  -2.290   1.114  0.00  0.00    -0.378 OA
ATOM     18  H2* UNL     1       1.611  -2.629   1.915  0.00  0.00    +0.211 HD
ENDBRANCH   2  17
BRANCH   3  19
ATOM     19  O3* UNL     1       3.469  -2.142  -0.367  0.00  0.00    -0.379 OA
ATOM     20  H3* UNL     1       3.375  -2.957   0.149  0.00  0.00    +0.211 HD
ENDBRANCH   3  19
BRANCH   5  21
ATOM     21  C5* UNL     1       3.642   1.476   0.496  0.00  0.00    +0.169 C 
BRANCH  21  22
ATOM     22  O5* UNL     1       3.769   2.604  -0.351  0.00  0.00    -0.379 OA
ATOM     23  H5* UNL     1       3.982   3.386   0.182  0.00  0.00    +0.211 HD
ENDBRANCH  21  22
ENDBRANCH   5  21
TORSDOF 5
