REMARK  Name = 135854130
REMARK  14 active torsions:
REMARK  status: ('A' for Active; 'I' for Inactive)
REMARK    1  A    between atoms: C_2  and  C_34
REMARK    2  A    between atoms: C_3  and  C_6
REMARK    3  A    between atoms: C_5  and  C_8
REMARK    4  A    between atoms: C_6  and  C_20
REMARK    5  A    between atoms: C_8  and  C_12
REMARK    6  A    between atoms: C_14  and  C_17
REMARK    7  A    between atoms: C_21  and  C_28
REMARK    8  A    between atoms: C_23  and  O_26
REMARK    9  A    between atoms: C_28  and  C_29
REMARK   10  A    between atoms: C_29  and  C_31
REMARK   11  A    between atoms: C_31  and  O_32
REMARK   12  A    between atoms: C_34  and  C_35
REMARK   13  A    between atoms: C_35  and  C_37
REMARK   14  A    between atoms: C_37  and  O_38
REMARK                            x       y       z     vdW  Elec       q    Type
REMARK                         _______ _______ _______ _____ _____    ______ ____
ROOT
ATOM      1  N   UNL     1       1.360   0.078  -0.494  0.00  0.00    -0.360 N 
ATOM      2  C   UNL     1      -0.402  -0.761   0.655  0.00  0.00    -0.013 A 
ATOM      3  C   UNL     1      -0.004  -0.051  -0.567  0.00  0.00    +0.035 A 
ATOM      4  C   UNL     1       0.713  -1.016   1.380  0.00  0.00    -0.013 A 
ATOM      5  C   UNL     1       1.870  -0.480   0.651  0.00  0.00    +0.036 A 
ATOM      6  C   UNL     1       0.840  -1.712   2.691  0.00  0.00    +0.032 C 
ATOM      7  H   UNL     1       1.908   0.518  -1.183  0.00  0.00    +0.165 HD
ENDROOT
BRANCH   3   8
ATOM      8  C   UNL     1      -0.814   0.377  -1.543  0.00  0.00    +0.086 C 
BRANCH   8  10
ATOM      9  N   UNL     1      -2.784  -0.921  -2.151  0.00  0.00    -0.329 N 
ATOM     10  C   UNL     1      -2.277   0.217  -1.580  0.00  0.00    +0.038 A 
ATOM     11  C   UNL     1      -3.339   0.983  -1.153  0.00  0.00    -0.009 A 
ATOM     12  C   UNL     1      -4.526   0.281  -1.479  0.00  0.00    +0.026 A 
ATOM     13  C   UNL     1      -4.153  -0.893  -2.095  0.00  0.00    +0.195 A 
ATOM     14  C   UNL     1      -5.910   0.722  -1.211  0.00  0.00    +0.036 C 
ATOM     15  H   UNL     1      -2.246  -1.648  -2.541  0.00  0.00    +0.168 HD
BRANCH  13  16
ATOM     16  O   UNL     1      -4.864  -1.895  -2.592  0.00  0.00    -0.493 OA
ATOM     17  H   UNL     1      -4.432  -2.628  -2.982  0.00  0.00    +0.294 HD
ENDBRANCH  13  16
BRANCH  11  18
ATOM     18  C   UNL     1      -3.257   2.296  -0.479  0.00  0.00    +0.039 C 
BRANCH  18  19
ATOM     19  C   UNL     1      -3.465   2.236   1.044  0.00  0.00    +0.114 C 
BRANCH  19  21
ATOM     20  O   UNL     1      -3.082   4.621   1.046  0.00  0.00    -0.250 OA
ATOM     21  C   UNL     1      -3.339   3.602   1.675  0.00  0.00    +0.314 C 
BRANCH  21  22
ATOM     22  O   UNL     1      -3.569   3.590   3.011  0.00  0.00    -0.480 OA
ATOM     23  H   UNL     1      -3.762   2.783   3.446  0.00  0.00    +0.295 HD
ENDBRANCH  21  22
ENDBRANCH  19  21
ENDBRANCH  18  19
ENDBRANCH  11  18
ENDBRANCH   8  10
ENDBRANCH   3   8
BRANCH   5  24
ATOM     24  C   UNL     1       3.151  -0.532   1.034  0.00  0.00    +0.103 C 
BRANCH  24  27
ATOM     25  O   UNL     1       5.725   2.095  -1.849  0.00  0.00    -0.209 OA
ATOM     26  N   UNL     1       4.134   1.040  -0.521  0.00  0.00    -0.337 NA
ATOM     27  C   UNL     1       4.231   0.016   0.266  0.00  0.00    +0.125 C 
ATOM     28  C   UNL     1       5.571  -0.577   0.331  0.00  0.00    +0.017 C 
ATOM     29  C   UNL     1       6.288   0.190  -0.500  0.00  0.00    +0.093 C 
ATOM     30  C   UNL     1       5.386   1.230  -1.056  0.00  0.00    +0.204 C 
ATOM     31  C   UNL     1       5.958  -1.751   1.150  0.00  0.00    +0.034 C 
BRANCH  29  32
ATOM     32  C   UNL     1       7.672   0.092  -0.844  0.00  0.00    +0.012 C 
ATOM     33  C   UNL     1       8.640  -0.200   0.035  0.00  0.00    +0.001 C 
ENDBRANCH  29  32
ENDBRANCH  24  27
ENDBRANCH   5  24
BRANCH   2  34
ATOM     34  C   UNL     1      -1.819  -1.102   0.963  0.00  0.00    +0.039 C 
BRANCH  34  35
ATOM     35  C   UNL     1      -2.132  -2.575   0.732  0.00  0.00    +0.114 C 
BRANCH  35  37
ATOM     36  O   UNL     1      -4.366  -2.088   1.511  0.00  0.00    -0.250 OA
ATOM     37  C   UNL     1      -3.562  -2.907   1.085  0.00  0.00    +0.314 C 
BRANCH  37  38
ATOM     38  O   UNL     1      -3.874  -4.207   0.856  0.00  0.00    -0.480 OA
ATOM     39  H   UNL     1      -3.221  -4.795   0.529  0.00  0.00    +0.295 HD
ENDBRANCH  37  38
ENDBRANCH  35  37
ENDBRANCH  34  35
ENDBRANCH   2  34
TORSDOF 14
