REMARK  Name = 135853766
REMARK  8 active torsions:
REMARK  status: ('A' for Active; 'I' for Inactive)
REMARK    1  A    between atoms: C_5  and  O_19
REMARK    2  A    between atoms: C_8  and  O_21
REMARK    3  A    between atoms: C_16  and  N_25
REMARK    4  A    between atoms: C_18  and  O_23
REMARK    5  A    between atoms: N_25  and  N_26
REMARK    6  A    between atoms: N_26  and  C_27
REMARK    7  A    between atoms: C_32  and  C_34
REMARK    8  A    between atoms: C_34  and  O_35
REMARK                            x       y       z     vdW  Elec       q    Type
REMARK                         _______ _______ _______ _____ _____    ______ ____
ROOT
ATOM      1  C   UNL     1      -5.064  -0.461  -0.558  0.00  0.00    +0.027 C 
ATOM      2  C   UNL     1      -3.983  -1.010   0.397  0.00  0.00    +0.005 C 
ATOM      3  C   UNL     1      -2.627  -0.338   0.181  0.00  0.00    +0.005 C 
ATOM      4  C   UNL     1      -2.774   1.187   0.472  0.00  0.00    +0.022 C 
ATOM      5  C   UNL     1      -6.242  -1.359  -0.130  0.00  0.00    +0.137 C 
ATOM      6  C   UNL     1      -5.252   1.031  -0.258  0.00  0.00    +0.003 C 
ATOM      7  C   UNL     1      -4.100  -2.527   0.242  0.00  0.00    +0.032 C 
ATOM      8  C   UNL     1      -5.608  -2.759   0.017  0.00  0.00    +0.137 C 
ATOM      9  C   UNL     1      -3.926   1.809  -0.363  0.00  0.00    +0.004 C 
ATOM     10  C   UNL     1      -1.535  -0.913   1.084  0.00  0.00    +0.005 C 
ATOM     11  C   UNL     1      -4.758  -0.648  -2.065  0.00  0.00    +0.002 C 
ATOM     12  C   UNL     1      -1.432   1.905   0.358  0.00  0.00    -0.025 C 
ATOM     13  C   UNL     1      -0.185  -0.302   0.717  0.00  0.00    +0.028 C 
ATOM     14  C   UNL     1      -0.223   1.193   0.519  0.00  0.00    -0.006 C 
ATOM     15  C   UNL     1      -1.365   3.298   0.181  0.00  0.00    -0.001 C 
ATOM     16  C   UNL     1       1.006   1.874   0.446  0.00  0.00    +0.118 C 
ATOM     17  C   UNL     1      -0.138   3.963   0.119  0.00  0.00    +0.038 C 
ATOM     18  C   UNL     1       1.047   3.251   0.247  0.00  0.00    +0.150 C 
ENDROOT
BRANCH   5  19
ATOM     19  O   UNL     1      -7.300  -1.389  -1.072  0.00  0.00    -0.382 OA
ATOM     20  H   UNL     1      -7.687  -0.504  -1.153  0.00  0.00    +0.210 HD
ENDBRANCH   5  19
BRANCH   8  21
ATOM     21  O   UNL     1      -6.167  -3.427   1.141  0.00  0.00    -0.382 OA
ATOM     22  H   UNL     1      -7.115  -3.570   0.994  0.00  0.00    +0.210 HD
ENDBRANCH   8  21
BRANCH  18  23
ATOM     23  O   UNL     1       2.234   3.917   0.180  0.00  0.00    -0.504 OA
ATOM     24  H   UNL     1       3.040   3.447   0.265  0.00  0.00    +0.292 HD
ENDBRANCH  18  23
BRANCH  16  25
ATOM     25  N   UNL     1       2.218   1.175   0.567  0.00  0.00    -0.125 NA
BRANCH  25  26
ATOM     26  N   UNL     1       2.604   0.801  -0.563  0.00  0.00    -0.128 NA
BRANCH  26  27
ATOM     27  C   UNL     1       3.817   0.102  -0.443  0.00  0.00    +0.089 C 
ATOM     28  C   UNL     1       4.743   0.127  -1.487  0.00  0.00    +0.018 C 
ATOM     29  C   UNL     1       4.096  -0.617   0.719  0.00  0.00    +0.018 C 
ATOM     30  C   UNL     1       5.947  -0.567  -1.368  0.00  0.00    +0.008 C 
ATOM     31  C   UNL     1       5.300  -1.310   0.838  0.00  0.00    +0.008 C 
ATOM     32  C   UNL     1       6.226  -1.285  -0.205  0.00  0.00    +0.076 C 
BRANCH  32  34
ATOM     33  O   UNL     1       8.368  -2.057  -0.940  0.00  0.00    -0.245 OA
ATOM     34  C   UNL     1       7.481  -2.010  -0.081  0.00  0.00    +0.338 C 
BRANCH  34  35
ATOM     35  O   UNL     1       7.593  -2.655   1.112  0.00  0.00    -0.477 OA
ATOM     36  H   UNL     1       6.902  -2.600   1.742  0.00  0.00    +0.295 HD
ENDBRANCH  34  35
ENDBRANCH  32  34
ENDBRANCH  26  27
ENDBRANCH  25  26
ENDBRANCH  16  25
TORSDOF 8
