REMARK  Name = 135883818
REMARK  6 active torsions:
REMARK  status: ('A' for Active; 'I' for Inactive)
REMARK    1  A    between atoms: C_1  and  C_4
REMARK    2  A    between atoms: C_1  and  C_21
REMARK    3  A    between atoms: C_15  and  O_17
REMARK    4  A    between atoms: C_26  and  C_32
REMARK    5  A    between atoms: C_29  and  O_30
REMARK    6  A    between atoms: C_32  and  C_34
REMARK                            x       y       z     vdW  Elec       q    Type
REMARK                         _______ _______ _______ _____ _____    ______ ____
ROOT
ATOM      1  C   UNL     1      -0.820  -1.820  -0.627  0.00  0.00    +0.105 C 
ENDROOT
BRANCH   1   4
ATOM      2  O   UNL     1      -1.324  -0.464   1.334  0.00  0.00    -0.482 OA
ATOM      3  N   UNL     1      -4.981  -1.780  -0.301  0.00  0.00    -0.414 NA
ATOM      4  C   UNL     1      -1.423  -1.798   0.788  0.00  0.00    +0.147 C 
ATOM      5  C   UNL     1      -2.869  -2.334   0.817  0.00  0.00    +0.099 C 
ATOM      6  C   UNL     1      -3.821  -1.330   0.230  0.00  0.00    +0.114 C 
ATOM      7  C   UNL     1      -0.553  -2.682   1.695  0.00  0.00    +0.044 C 
ATOM      8  C   UNL     1      -3.487   0.019   0.330  0.00  0.00    +0.056 C 
ATOM      9  C   UNL     1      -2.270   0.426   0.890  0.00  0.00    +0.143 C 
ATOM     10  C   UNL     1      -4.411   0.973  -0.138  0.00  0.00    -0.007 C 
ATOM     11  C   UNL     1      -1.980   1.782   1.026  0.00  0.00    +0.074 C 
ATOM     12  C   UNL     1      -5.611   0.524  -0.701  0.00  0.00    +0.081 C 
ATOM     13  C   UNL     1      -5.840  -0.842  -0.759  0.00  0.00    +0.091 C 
ATOM     14  C   UNL     1      -4.096   2.336  -0.014  0.00  0.00    +0.033 C 
ATOM     15  C   UNL     1      -2.891   2.735   0.570  0.00  0.00    +0.136 C 
ATOM     16  C   UNL     1      -7.115  -1.342  -1.353  0.00  0.00    +0.062 C 
BRANCH  15  17
ATOM     17  O   UNL     1      -2.604   4.061   0.692  0.00  0.00    -0.505 OA
ATOM     18  H   UNL     1      -1.797   4.331   1.084  0.00  0.00    +0.292 HD
ENDBRANCH  15  17
ENDBRANCH   1   4
BRANCH   1  21
ATOM     19  O   UNL     1       0.645   0.077  -0.504  0.00  0.00    -0.457 OA
ATOM     20  O   UNL     1       3.969  -2.257  -0.836  0.00  0.00    -0.286 OA
ATOM     21  C   UNL     1       0.570  -1.301  -0.629  0.00  0.00    +0.129 C 
ATOM     22  C   UNL     1       1.635  -2.109  -0.741  0.00  0.00    +0.075 C 
ATOM     23  C   UNL     1       3.069  -0.065  -0.602  0.00  0.00    +0.070 C 
ATOM     24  C   UNL     1       1.885   0.664  -0.493  0.00  0.00    +0.151 C 
ATOM     25  C   UNL     1       2.991  -1.528  -0.734  0.00  0.00    +0.201 C 
ATOM     26  C   UNL     1       4.304   0.586  -0.584  0.00  0.00    -0.006 C 
ATOM     27  C   UNL     1       1.932   2.052  -0.366  0.00  0.00    +0.074 C 
ATOM     28  C   UNL     1       4.348   1.975  -0.457  0.00  0.00    +0.033 C 
ATOM     29  C   UNL     1       3.164   2.707  -0.348  0.00  0.00    +0.136 C 
BRANCH  29  30
ATOM     30  O   UNL     1       3.212   4.061  -0.225  0.00  0.00    -0.505 OA
ATOM     31  H   UNL     1       2.418   4.554  -0.152  0.00  0.00    +0.292 HD
ENDBRANCH  29  30
BRANCH  26  32
ATOM     32  C   UNL     1       5.614  -0.125  -0.695  0.00  0.00    +0.091 C 
BRANCH  32  34
ATOM     33  O   UNL     1       5.341  -0.851   1.596  0.00  0.00    -0.296 OA
ATOM     34  C   UNL     1       6.040  -0.831   0.583  0.00  0.00    +0.155 C 
ATOM     35  C   UNL     1       7.381  -1.518   0.556  0.00  0.00    +0.073 C 
ENDBRANCH  32  34
ENDBRANCH  26  32
ENDBRANCH   1  21
TORSDOF 6
