REMARK  Name = 135853
REMARK  9 active torsions:
REMARK  status: ('A' for Active; 'I' for Inactive)
REMARK    1  A    between atoms: C_1  and  C_4
REMARK    2  A    between atoms: C_1  and  C_15
REMARK    3  A    between atoms: C_6  and  C_10
REMARK    4  A    between atoms: C_10  and  O_11
REMARK    5  A    between atoms: O_11  and  C_13
REMARK    6  A    between atoms: C_15  and  C_18
REMARK    7  A    between atoms: C_20  and  C_24
REMARK    8  A    between atoms: C_24  and  O_25
REMARK    9  A    between atoms: O_25  and  C_27
REMARK                            x       y       z     vdW  Elec       q    Type
REMARK                         _______ _______ _______ _____ _____    ______ ____
ROOT
ATOM      1  C   UNL     1      -3.508  -0.560   0.562  0.00  0.00    +0.034 C 
ENDROOT
BRANCH   1   4
ATOM      2  O   UNL     1      -1.111   0.009   1.935  0.00  0.00    -0.287 OA
ATOM      3  O   UNL     1      -1.055  -4.436  -0.995  0.00  0.00    -0.287 OA
ATOM      4  C   UNL     1      -2.297  -1.439   0.483  0.00  0.00    +0.020 C 
ATOM      5  C   UNL     1      -1.099  -1.017   1.261  0.00  0.00    +0.191 C 
ATOM      6  C   UNL     1       0.115  -1.879   1.196  0.00  0.00    +0.063 C 
ATOM      7  C   UNL     1      -2.268  -2.558  -0.249  0.00  0.00    +0.041 C 
ATOM      8  C   UNL     1       0.114  -2.992   0.455  0.00  0.00    +0.045 C 
ATOM      9  C   UNL     1      -1.068  -3.414  -0.319  0.00  0.00    +0.195 C 
BRANCH   6  10
ATOM     10  C   UNL     1       1.308  -1.438   1.987  0.00  0.00    +0.238 C 
BRANCH  10  11
ATOM     11  O   UNL     1       1.727  -0.158   1.551  0.00  0.00    -0.443 OA
BRANCH  11  13
ATOM     12  O   UNL     1       3.445  -0.167   3.095  0.00  0.00    -0.250 OA
ATOM     13  C   UNL     1       2.816   0.369   2.193  0.00  0.00    +0.318 C 
ATOM     14  C   UNL     1       3.143   1.719   1.629  0.00  0.00    +0.121 C 
ENDBRANCH  11  13
ENDBRANCH  10  11
ENDBRANCH   6  10
ENDBRANCH   1   4
BRANCH   1  15
ATOM     15  C   UNL     1      -3.522   0.479  -0.554  0.00  0.00    +0.034 C 
BRANCH  15  18
ATOM     16  O   UNL     1      -1.120  -0.036  -1.933  0.00  0.00    -0.287 OA
ATOM     17  O   UNL     1      -1.163   4.409   0.998  0.00  0.00    -0.287 OA
ATOM     18  C   UNL     1      -2.337   1.383  -0.478  0.00  0.00    +0.020 C 
ATOM     19  C   UNL     1      -1.131   0.990  -1.259  0.00  0.00    +0.191 C 
ATOM     20  C   UNL     1       0.062   1.880  -1.196  0.00  0.00    +0.063 C 
ATOM     21  C   UNL     1      -2.333   2.503   0.254  0.00  0.00    +0.041 C 
ATOM     22  C   UNL     1       0.036   2.994  -0.456  0.00  0.00    +0.045 C 
ATOM     23  C   UNL     1      -1.154   3.387   0.321  0.00  0.00    +0.195 C 
BRANCH  20  24
ATOM     24  C   UNL     1       1.264   1.469  -1.990  0.00  0.00    +0.238 C 
BRANCH  24  25
ATOM     25  O   UNL     1       1.715   0.199  -1.554  0.00  0.00    -0.443 OA
BRANCH  25  27
ATOM     26  O   UNL     1       3.428   0.249  -3.103  0.00  0.00    -0.250 OA
ATOM     27  C   UNL     1       2.815  -0.302  -2.199  0.00  0.00    +0.318 C 
ATOM     28  C   UNL     1       3.175  -1.643  -1.636  0.00  0.00    +0.121 C 
ENDBRANCH  25  27
ENDBRANCH  24  25
ENDBRANCH  20  24
ENDBRANCH  15  18
ENDBRANCH   1  15
TORSDOF 9
