REMARK  Name = 135879920
REMARK  8 active torsions:
REMARK  status: ('A' for Active; 'I' for Inactive)
REMARK    1  A    between atoms: N_1  and  C_13
REMARK    2  A    between atoms: N_5  and  C_9
REMARK    3  A    between atoms: N_5  and  C_23
REMARK    4  A    between atoms: C_13  and  C_14
REMARK    5  A    between atoms: C_14  and  CA_15
REMARK    6  A    between atoms: CA_15  and  N_16
REMARK    7  A    between atoms: CA_15  and  C_22
REMARK    8  A    between atoms: C_23  and  C_24
REMARK                            x       y       z     vdW  Elec       q    Type
REMARK                         _______ _______ _______ _____ _____    ______ ____
ROOT
ATOM      1  N   UNL     1       1.188   0.203  -0.346  0.00  0.00    -0.275 N 
ATOM      2  N   UNL     1      -1.040   2.821   0.055  0.00  0.00    -0.312 N 
ATOM      3  N   UNL     1       1.186   2.622   0.030  0.00  0.00    -0.304 N 
ATOM      4  N   UNL     1      -1.011  -0.833  -0.552  0.00  0.00    -0.231 NA
ATOM      5  C   UNL     1       0.593   1.407  -0.162  0.00  0.00    +0.116 C 
ATOM      6  C   UNL     1      -0.780   1.498  -0.155  0.00  0.00    +0.107 C 
ATOM      7  C   UNL     1       0.294  -0.844  -0.545  0.00  0.00    +0.222 C 
ATOM      8  C   UNL     1      -1.648   0.377  -0.342  0.00  0.00    +0.161 C 
ATOM      9  C   UNL     1       0.173   3.456   0.158  0.00  0.00    +0.183 C 
ATOM     10  H   UNL     1      -1.929   3.241   0.119  0.00  0.00    +0.149 HD
ATOM     11  H   UNL     1       2.148   2.828   0.065  0.00  0.00    +0.150 HD
ENDROOT
BRANCH   8  12
ATOM     12  N   UNL     1      -2.934   0.468  -0.323  0.00  0.00    -0.215 NA
BRANCH  12  13
ATOM     13  C   UNL     1      -3.632  -0.793  -0.534  0.00  0.00    +0.139 C 
BRANCH  13  14
ATOM     14  C   UNL     1      -5.110  -0.558  -0.511  0.00  0.00    -0.011 C 
ATOM     15  C   UNL     1      -6.018  -1.107   0.317  0.00  0.00    -0.046 C 
ATOM     16  C   UNL     1      -5.702  -2.053   1.440  0.00  0.00    +0.026 C 
ATOM     17  C   UNL     1      -7.481  -0.783   0.170  0.00  0.00    +0.026 C 
ENDBRANCH  13  14
ENDBRANCH  12  13
ENDBRANCH   8  12
BRANCH   1  18
ATOM     18  C   UNL     1       2.627   0.068  -0.411  0.00  0.00    +0.092 C 
BRANCH  18  19
ATOM     19  C   UNL     1       3.147  -0.506   0.909  0.00  0.00    +0.011 C 
BRANCH  19  20
ATOM     20  CA  UNL     1       4.667  -0.698   0.962  0.00  0.00    +0.042 C 
BRANCH  20  21
ATOM     21  N   UNL     1       5.290   0.660   1.050  0.00  0.00    +0.389 N 
ATOM     22  H1  UNL     1       4.845   1.190   1.799  0.00  0.00    -0.088 HD
ATOM     23  H2  UNL     1       5.164   1.150   0.165  0.00  0.00    -0.088 HD
ATOM     24  H3  UNL     1       6.287   0.565   1.247  0.00  0.00    -0.088 HD
ENDBRANCH  20  21
BRANCH  20  27
ATOM     25  O   UNL     1       6.436  -1.304  -0.496  0.00  0.00    -0.248 OA
ATOM     26  OXT UNL     1       4.497  -2.504  -0.577  0.00  0.00    -0.248 OA
ATOM     27  C   UNL     1       5.259  -1.597  -0.138  0.00  0.00    +0.345 C 
ENDBRANCH  20  27
ENDBRANCH  19  20
ENDBRANCH  18  19
ENDBRANCH   1  18
TORSDOF 8
