REMARK  Name = 135804811
REMARK  5 active torsions:
REMARK  status: ('A' for Active; 'I' for Inactive)
REMARK    1  A    between atoms: C_8  and  C_21
REMARK    2  A    between atoms: C_9  and  S_19
REMARK    3  A    between atoms: C_21  and  O_22
REMARK    4  A    between atoms: C_21  and  C_24
REMARK    5  A    between atoms: C_24  and  O_25
REMARK                            x       y       z     vdW  Elec       q    Type
REMARK                         _______ _______ _______ _____ _____    ______ ____
ROOT
ATOM      1  S   UNL     1       1.742   1.841  -0.113  0.00  0.00    -0.053 S 
ATOM      2  O   UNL     1      -3.047  -2.515  -0.273  0.00  0.00    -0.266 OA
ATOM      3  N   UNL     1      -0.725  -1.139  -0.281  0.00  0.00    -0.382 NA
ATOM      4  N   UNL     1      -0.924   1.698   0.069  0.00  0.00    -0.328 NA
ATOM      5  N   UNL     1      -4.274  -0.579   0.048  0.00  0.00    -0.241 N 
ATOM      6  N   UNL     1      -3.241   1.530   0.222  0.00  0.00    -0.307 NA
ATOM      7  N   UNL     1      -5.574   1.337   0.372  0.00  0.00    -0.320 N 
ATOM      8  C   UNL     1       2.585   0.368  -0.350  0.00  0.00    +0.047 A 
ATOM      9  C   UNL     1       1.733  -0.715  -0.414  0.00  0.00    +0.062 A 
ATOM     10  C   UNL     1       0.369  -0.331  -0.267  0.00  0.00    +0.175 A 
ATOM     11  C   UNL     1       0.242   1.040  -0.096  0.00  0.00    +0.203 A 
ATOM     12  C   UNL     1      -1.887  -0.479  -0.117  0.00  0.00    +0.269 C 
ATOM     13  C   UNL     1      -2.002   0.890   0.054  0.00  0.00    +0.177 C 
ATOM     14  C   UNL     1      -3.105  -1.301  -0.124  0.00  0.00    +0.294 C 
ATOM     15  C   UNL     1      -4.323   0.801   0.215  0.00  0.00    +0.249 C 
ATOM     16  H   UNL     1      -5.125  -1.073   0.053  0.00  0.00    +0.159 HD
ATOM     17  H   UNL     1      -6.365   0.751   0.361  0.00  0.00    +0.146 HD
ATOM     18  H   UNL     1      -5.682   2.308   0.495  0.00  0.00    +0.146 HD
ENDROOT
BRANCH   9  19
ATOM     19  S   UNL     1       2.250  -2.379  -0.647  0.00  0.00    -0.110 S 
ATOM     20  C   UNL     1       2.497  -2.957   1.061  0.00  0.00    +0.074 C 
ENDBRANCH   9  19
BRANCH   8  21
ATOM     21  C   UNL     1       4.062   0.408  -0.455  0.00  0.00    +0.168 C 
BRANCH  21  22
ATOM     22  O   UNL     1       4.450   1.166  -1.611  0.00  0.00    -0.377 OA
ATOM     23  H   UNL     1       4.027   0.792  -2.400  0.00  0.00    +0.211 HD
ENDBRANCH  21  22
BRANCH  21  24
ATOM     24  C   UNL     1       4.753   1.031   0.773  0.00  0.00    +0.171 C 
BRANCH  24  25
ATOM     25  O   UNL     1       4.419   0.284   1.934  0.00  0.00    -0.379 OA
ATOM     26  H   UNL     1       4.854   0.676   2.707  0.00  0.00    +0.211 HD
ENDBRANCH  24  25
ENDBRANCH  21  24
ENDBRANCH   8  21
TORSDOF 5
