135879921
  -OEChem-03292013293D

 32 32  0     1  0  0  0  0  0999 V2000
    5.1211   -1.4444   -0.0737 O   0  0  0  0  0  0  0  0  0  0  0  0
   -4.7938    1.4327    0.5492 O   0  0  0  0  0  0  0  0  0  0  0  0
   -5.2059    0.1555   -1.2802 O   0  0  0  0  0  0  0  0  0  0  0  0
    2.6040    0.9443   -0.4285 N   0  0  0  0  0  0  0  0  0  0  0  0
    2.8379   -1.1364    0.3062 N   0  0  0  0  0  0  0  0  0  0  0  0
    0.7143   -0.2344    0.4538 N   0  0  0  0  0  0  0  0  0  0  0  0
   -4.1144   -1.9888    0.0106 N   0  0  0  0  0  0  0  0  0  0  0  0
   -1.5282    0.7217    0.6695 C   0  0  0  0  0  0  0  0  0  0  0  0
   -2.2084   -0.4456   -0.0607 C   0  0  0  0  0  0  0  0  0  0  0  0
    4.0068    0.6578   -0.6564 C   0  0  2  0  0  0  0  0  0  0  0  0
   -0.0988    0.9538    0.1902 C   0  0  0  0  0  0  0  0  0  0  0  0
   -3.6540   -0.6616    0.4117 C   0  0  1  0  0  0  0  0  0  0  0  0
    1.9471   -0.1188    0.1253 C   0  0  0  0  0  0  0  0  0  0  0  0
    4.1025   -0.7715   -0.1180 C   0  0  0  0  0  0  0  0  0  0  0  0
    4.8902    1.6115    0.1197 C   0  0  0  0  0  0  0  0  0  0  0  0
   -4.6204    0.3244   -0.2185 C   0  0  0  0  0  0  0  0  0  0  0  0
   -2.1003    1.6429    0.5132 H   0  0  0  0  0  0  0  0  0  0  0  0
   -1.5239    0.5210    1.7480 H   0  0  0  0  0  0  0  0  0  0  0  0
   -1.6266   -1.3578    0.1234 H   0  0  0  0  0  0  0  0  0  0  0  0
   -2.1856   -0.2637   -1.1429 H   0  0  0  0  0  0  0  0  0  0  0  0
    4.2320    0.6599   -1.7270 H   0  0  0  0  0  0  0  0  0  0  0  0
   -0.1131    1.1827   -0.8828 H   0  0  0  0  0  0  0  0  0  0  0  0
    0.3031    1.8220    0.7273 H   0  0  0  0  0  0  0  0  0  0  0  0
   -3.7275   -0.5957    1.5031 H   0  0  0  0  0  0  0  0  0  0  0  0
    2.1887    1.8340   -0.6771 H   0  0  0  0  0  0  0  0  0  0  0  0
    2.6076   -2.0381    0.7076 H   0  0  0  0  0  0  0  0  0  0  0  0
    4.6835    1.5675    1.1952 H   0  0  0  0  0  0  0  0  0  0  0  0
    4.7321    2.6442   -0.2081 H   0  0  0  0  0  0  0  0  0  0  0  0
    5.9473    1.3634   -0.0222 H   0  0  0  0  0  0  0  0  0  0  0  0
   -5.0425   -2.1616    0.3957 H   0  0  0  0  0  0  0  0  0  0  0  0
   -3.5058   -2.7002    0.4138 H   0  0  0  0  0  0  0  0  0  0  0  0
   -5.4268    2.0626    0.1435 H   0  0  0  0  0  0  0  0  0  0  0  0
  1 14  2  0  0  0  0
  2 16  1  0  0  0  0
  2 32  1  0  0  0  0
  3 16  2  0  0  0  0
  4 10  1  0  0  0  0
  4 13  1  0  0  0  0
  4 25  1  0  0  0  0
  5 13  1  0  0  0  0
  5 14  1  0  0  0  0
  5 26  1  0  0  0  0
  6 11  1  0  0  0  0
  6 13  2  0  0  0  0
  7 12  1  0  0  0  0
  7 30  1  0  0  0  0
  7 31  1  0  0  0  0
  8  9  1  0  0  0  0
  8 11  1  0  0  0  0
  8 17  1  0  0  0  0
  8 18  1  0  0  0  0
  9 12  1  0  0  0  0
  9 19  1  0  0  0  0
  9 20  1  0  0  0  0
 10 14  1  0  0  0  0
 10 15  1  0  0  0  0
 10 21  1  0  0  0  0
 11 22  1  0  0  0  0
 11 23  1  0  0  0  0
 12 16  1  0  0  0  0
 12 24  1  0  0  0  0
 15 27  1  0  0  0  0
 15 28  1  0  0  0  0
 15 29  1  0  0  0  0
M  END
> <PUBCHEM_COMPOUND_CID>
135879921

> <PUBCHEM_CONFORMER_RMSD>
0.8

> <PUBCHEM_CONFORMER_DIVERSEORDER>
2
57
50
17
52
100
3
38
8
47
36
106
1
18
99
112
30
55
96
78
15
87
9
43
4
98
94
75
54
92
16
58
103
31
88
48
110
12
32
13
101
6
93
89
79
10
19
56
82
14
85
27
114
97
68
51
70
24
62
72
61
33
41
71
69
46
44
83
28
49
23
104
74
39
45
11
111
40
66
67
95
60
73
107
84
64
34
65
77
109
42
59
81
53
80
90
37
105
76
86
7
25
63
22
35
113
91
21
26
29
20
108
5
102

> <PUBCHEM_MMFF94_PARTIAL_CHARGES>
18
1 -0.57
10 0.43
11 0.25
12 0.33
13 0.56
14 0.57
16 0.66
2 -0.65
25 0.4
26 0.37
3 -0.57
30 0.36
31 0.36
32 0.5
4 -0.82
5 -0.49
6 -0.7
7 -0.99

> <PUBCHEM_EFFECTIVE_ROTOR_COUNT>
5.6

> <PUBCHEM_PHARMACOPHORE_FEATURES>
9
1 1 acceptor
1 2 acceptor
1 3 acceptor
1 4 donor
1 5 donor
1 7 cation
1 7 donor
3 2 3 16 anion
5 4 5 10 13 14 rings

> <PUBCHEM_HEAVY_ATOM_COUNT>
16

> <PUBCHEM_ATOM_DEF_STEREO_COUNT>
0

> <PUBCHEM_ATOM_UDEF_STEREO_COUNT>
2

> <PUBCHEM_BOND_DEF_STEREO_COUNT>
0

> <PUBCHEM_BOND_UDEF_STEREO_COUNT>
0

> <PUBCHEM_ISOTOPIC_ATOM_COUNT>
0

> <PUBCHEM_COMPONENT_COUNT>
1

> <PUBCHEM_CACTVS_TAUTO_COUNT>
-1

> <PUBCHEM_CONFORMER_ID>
08195CF100000002

> <PUBCHEM_MMFF94_ENERGY>
23.7689

> <PUBCHEM_FEATURE_SELFOVERLAP>
45.803

> <PUBCHEM_SHAPE_FINGERPRINT>
10014705 185 17894908542911424573
10680689 15 17240205430710222939
10912923 1 17775573034772631712
11401426 45 18187081779954334761
13167823 11 18410293622603301946
14123238 8 10159693590537999235
14251718 22 17203607129090587045
14251764 18 18131355220146073897
15196674 1 18410576210008184338
15242433 33 18410857667947223175
15375358 24 18410859866880957451
17834072 33 18202562899388964005
17834072 8 18187362104343858543
18186145 218 16805321123766439953
18222031 100 16200432485283970552
19489759 90 16988842735978781009
200 152 18272370866982625241
20621476 66 18058456418088024193
20645477 70 18410577258370627190
22485316 2 18411701006097551075
23402539 116 18411698781257012534
23402655 69 18408888446985266078
23557571 272 17386006105196444222
23559900 14 18410293631778403008
29717793 49 18131355168063024084
300161 21 18260823817400560801
3004659 81 18335421240639349546
4214541 1 18410294696793323993
42788 4 18410576180032778697
5104073 3 18409451401033260514
542803 24 18272653441360258633
77779 3 18410295821610362977
9971528 1 17894915131259595988

> <PUBCHEM_SHAPE_MULTIPOLES>
291.74
13.38
1.52
0.78
3.01
0.2
-0.09
0.09
-1.85
-0.39
0.1
0.44
-0.08
-0.19

> <PUBCHEM_SHAPE_SELFOVERLAP>
583.497

> <PUBCHEM_SHAPE_VOLUME>
173.3

> <PUBCHEM_COORDINATE_TYPE>
2
5
10

$$$$
