135887
  -OEChem-03292013323D

 75 79  0     1  0  0  0  0  0999 V2000
   -0.6178    1.0655    1.5380 O   0  0  0  0  0  0  0  0  0  0  0  0
    1.7045   -0.1820    1.6687 O   0  0  0  0  0  0  0  0  0  0  0  0
    2.7430   -0.8765   -1.7322 O   0  0  0  0  0  0  0  0  0  0  0  0
    4.2898    0.7899   -0.1957 O   0  0  0  0  0  0  0  0  0  0  0  0
   -5.0898   -2.4209    0.4687 O   0  0  0  0  0  0  0  0  0  0  0  0
   -8.1219   -0.4404    0.1467 O   0  0  0  0  0  0  0  0  0  0  0  0
    5.6661    2.5741   -0.1268 O   0  0  0  0  0  0  0  0  0  0  0  0
    0.1545   -0.4208   -0.2442 C   0  0  1  0  0  0  0  0  0  0  0  0
   -0.5665    0.9145    0.1048 C   0  0  1  0  0  0  0  0  0  0  0  0
    1.6078   -0.1116    0.2408 C   0  0  1  0  0  0  0  0  0  0  0  0
   -2.0179    0.9377   -0.4157 C   0  0  1  0  0  0  0  0  0  0  0  0
   -2.8298   -0.2550    0.1862 C   0  0  2  0  0  0  0  0  0  0  0  0
   -0.5868   -1.5556    0.4857 C   0  0  0  0  0  0  0  0  0  0  0  0
    0.4058    1.9686   -0.4247 C   0  0  0  0  0  0  0  0  0  0  0  0
    1.8106    1.3740   -0.1620 C   0  0  0  0  0  0  0  0  0  0  0  0
   -2.0712   -1.6110    0.0793 C   0  0  0  0  0  0  0  0  0  0  0  0
   -4.2880   -0.2953   -0.4045 C   0  0  2  0  0  0  0  0  0  0  0  0
    2.7147   -1.0093   -0.3103 C   0  0  2  0  0  0  0  0  0  0  0  0
   -2.7230    2.2752   -0.1231 C   0  0  0  0  0  0  0  0  0  0  0  0
    0.1737   -0.7291   -1.7706 C   0  0  0  0  0  0  0  0  0  0  0  0
   -4.9254    1.0956   -0.3991 C   0  0  0  0  0  0  0  0  0  0  0  0
   -4.2092    2.2254   -0.2736 C   0  0  0  0  0  0  0  0  0  0  0  0
    4.0732   -0.5706    0.2177 C   0  0  1  0  0  0  0  0  0  0  0  0
   -5.1622   -1.1913    0.4987 C   0  0  0  0  0  0  0  0  0  0  0  0
   -4.3476   -0.8491   -1.8418 C   0  0  0  0  0  0  0  0  0  0  0  0
    2.4517   -2.4745    0.0354 C   0  0  0  0  0  0  0  0  0  0  0  0
   -6.4336    1.1516   -0.4640 C   0  0  0  0  0  0  0  0  0  0  0  0
   -6.1055   -0.5053    1.4657 C   0  0  0  0  0  0  0  0  0  0  0  0
   -7.0827    0.3756    0.6901 C   0  0  2  0  0  0  0  0  0  0  0  0
    5.1894   -1.4497   -0.3176 C   0  0  0  0  0  0  0  0  0  0  0  0
    6.5144   -0.8724    0.0980 C   0  0  0  0  0  0  0  0  0  0  0  0
    5.5088    1.3620   -0.0154 C   0  0  0  0  0  0  0  0  0  0  0  0
    6.6526    0.4543    0.2946 C   0  0  0  0  0  0  0  0  0  0  0  0
    7.6143   -1.8870    0.2436 C   0  0  0  0  0  0  0  0  0  0  0  0
    7.9039    1.1435    0.7582 C   0  0  0  0  0  0  0  0  0  0  0  0
   -2.0035    0.8361   -1.5068 H   0  0  0  0  0  0  0  0  0  0  0  0
   -2.9273   -0.0621    1.2666 H   0  0  0  0  0  0  0  0  0  0  0  0
   -0.5305   -1.4289    1.5735 H   0  0  0  0  0  0  0  0  0  0  0  0
   -0.1664   -2.5403    0.2815 H   0  0  0  0  0  0  0  0  0  0  0  0
    0.3044    2.9361    0.0788 H   0  0  0  0  0  0  0  0  0  0  0  0
    0.2644    2.1372   -1.4984 H   0  0  0  0  0  0  0  0  0  0  0  0
    2.3538    1.5111   -1.1027 H   0  0  0  0  0  0  0  0  0  0  0  0
    2.2983    1.9561    0.6287 H   0  0  0  0  0  0  0  0  0  0  0  0
   -2.1284   -2.0065   -0.9382 H   0  0  0  0  0  0  0  0  0  0  0  0
   -2.5627   -2.3536    0.7180 H   0  0  0  0  0  0  0  0  0  0  0  0
   -2.3252    3.0419   -0.7989 H   0  0  0  0  0  0  0  0  0  0  0  0
   -2.5206    2.6210    0.8960 H   0  0  0  0  0  0  0  0  0  0  0  0
    0.5803   -1.7173   -2.0003 H   0  0  0  0  0  0  0  0  0  0  0  0
   -0.8358   -0.7573   -2.1913 H   0  0  0  0  0  0  0  0  0  0  0  0
    0.6938    0.0325   -2.3592 H   0  0  0  0  0  0  0  0  0  0  0  0
   -0.7447    2.0049    1.7491 H   0  0  0  0  0  0  0  0  0  0  0  0
   -4.7207    3.1843   -0.2410 H   0  0  0  0  0  0  0  0  0  0  0  0
    4.0868   -0.5923    1.3160 H   0  0  0  0  0  0  0  0  0  0  0  0
    1.1137    0.4828    2.0580 H   0  0  0  0  0  0  0  0  0  0  0  0
   -4.0186   -1.8914   -1.8988 H   0  0  0  0  0  0  0  0  0  0  0  0
   -5.3714   -0.8472   -2.2338 H   0  0  0  0  0  0  0  0  0  0  0  0
   -3.7327   -0.2613   -2.5311 H   0  0  0  0  0  0  0  0  0  0  0  0
    3.2599   -3.1350   -0.2914 H   0  0  0  0  0  0  0  0  0  0  0  0
    2.3071   -2.6356    1.1080 H   0  0  0  0  0  0  0  0  0  0  0  0
    1.6048   -2.8848   -0.5143 H   0  0  0  0  0  0  0  0  0  0  0  0
   -6.7909    2.1889   -0.4266 H   0  0  0  0  0  0  0  0  0  0  0  0
   -6.7693    0.7703   -1.4360 H   0  0  0  0  0  0  0  0  0  0  0  0
   -6.6414   -1.2715    2.0368 H   0  0  0  0  0  0  0  0  0  0  0  0
   -5.5036    0.0830    2.1671 H   0  0  0  0  0  0  0  0  0  0  0  0
   -7.5600    1.0701    1.3913 H   0  0  0  0  0  0  0  0  0  0  0  0
    3.1851   -1.6534   -2.1131 H   0  0  0  0  0  0  0  0  0  0  0  0
    5.1905   -1.5242   -1.4105 H   0  0  0  0  0  0  0  0  0  0  0  0
    5.1175   -2.4587    0.0993 H   0  0  0  0  0  0  0  0  0  0  0  0
   -8.7584    0.1504   -0.2911 H   0  0  0  0  0  0  0  0  0  0  0  0
    8.6081   -1.4426    0.3316 H   0  0  0  0  0  0  0  0  0  0  0  0
    7.6419   -2.5384   -0.6370 H   0  0  0  0  0  0  0  0  0  0  0  0
    7.4388   -2.5098    1.1267 H   0  0  0  0  0  0  0  0  0  0  0  0
    8.6077    0.4672    1.2495 H   0  0  0  0  0  0  0  0  0  0  0  0
    7.6639    1.9182    1.4953 H   0  0  0  0  0  0  0  0  0  0  0  0
    8.4119    1.6181   -0.0874 H   0  0  0  0  0  0  0  0  0  0  0  0
  1  9  1  0  0  0  0
  1 51  1  0  0  0  0
  2 10  1  0  0  0  0
  2 54  1  0  0  0  0
  3 18  1  0  0  0  0
  3 66  1  0  0  0  0
  4 23  1  0  0  0  0
  4 32  1  0  0  0  0
  5 24  2  0  0  0  0
  6 29  1  0  0  0  0
  6 69  1  0  0  0  0
  7 32  2  0  0  0  0
  8  9  1  0  0  0  0
  8 10  1  0  0  0  0
  8 13  1  0  0  0  0
  8 20  1  0  0  0  0
  9 11  1  0  0  0  0
  9 14  1  0  0  0  0
 10 15  1  0  0  0  0
 10 18  1  0  0  0  0
 11 12  1  0  0  0  0
 11 19  1  0  0  0  0
 11 36  1  0  0  0  0
 12 16  1  0  0  0  0
 12 17  1  0  0  0  0
 12 37  1  0  0  0  0
 13 16  1  0  0  0  0
 13 38  1  0  0  0  0
 13 39  1  0  0  0  0
 14 15  1  0  0  0  0
 14 40  1  0  0  0  0
 14 41  1  0  0  0  0
 15 42  1  0  0  0  0
 15 43  1  0  0  0  0
 16 44  1  0  0  0  0
 16 45  1  0  0  0  0
 17 21  1  0  0  0  0
 17 24  1  0  0  0  0
 17 25  1  0  0  0  0
 18 23  1  0  0  0  0
 18 26  1  0  0  0  0
 19 22  1  0  0  0  0
 19 46  1  0  0  0  0
 19 47  1  0  0  0  0
 20 48  1  0  0  0  0
 20 49  1  0  0  0  0
 20 50  1  0  0  0  0
 21 22  2  0  0  0  0
 21 27  1  0  0  0  0
 22 52  1  0  0  0  0
 23 30  1  0  0  0  0
 23 53  1  0  0  0  0
 24 28  1  0  0  0  0
 25 55  1  0  0  0  0
 25 56  1  0  0  0  0
 25 57  1  0  0  0  0
 26 58  1  0  0  0  0
 26 59  1  0  0  0  0
 26 60  1  0  0  0  0
 27 29  1  0  0  0  0
 27 61  1  0  0  0  0
 27 62  1  0  0  0  0
 28 29  1  0  0  0  0
 28 63  1  0  0  0  0
 28 64  1  0  0  0  0
 29 65  1  0  0  0  0
 30 31  1  0  0  0  0
 30 67  1  0  0  0  0
 30 68  1  0  0  0  0
 31 33  2  0  0  0  0
 31 34  1  0  0  0  0
 32 33  1  0  0  0  0
 33 35  1  0  0  0  0
 34 70  1  0  0  0  0
 34 71  1  0  0  0  0
 34 72  1  0  0  0  0
 35 73  1  0  0  0  0
 35 74  1  0  0  0  0
 35 75  1  0  0  0  0
M  END
> <PUBCHEM_COMPOUND_CID>
135887

> <PUBCHEM_CONFORMER_RMSD>
0.8

> <PUBCHEM_CONFORMER_DIVERSEORDER>
1
3
2

> <PUBCHEM_MMFF94_PARTIAL_CHARGES>
30
1 -0.68
10 0.28
17 0.2
18 0.28
19 0.14
2 -0.68
21 -0.28
22 -0.29
23 0.28
24 0.45
27 0.14
28 0.06
29 0.28
3 -0.68
30 0.14
31 -0.28
32 0.71
33 -0.12
34 0.14
35 0.14
4 -0.43
5 -0.57
51 0.4
52 0.15
54 0.4
6 -0.68
66 0.4
69 0.4
7 -0.57
9 0.28

> <PUBCHEM_EFFECTIVE_ROTOR_COUNT>
4.4

> <PUBCHEM_PHARMACOPHORE_FEATURES>
15
1 1 acceptor
1 1 donor
1 2 acceptor
1 2 donor
1 3 acceptor
1 3 donor
1 5 acceptor
1 6 acceptor
1 6 donor
1 7 acceptor
5 8 9 10 14 15 rings
6 11 12 17 19 21 22 rings
6 17 21 24 27 28 29 rings
6 4 23 30 31 32 33 rings
6 8 9 11 12 13 16 rings

> <PUBCHEM_HEAVY_ATOM_COUNT>
35

> <PUBCHEM_ATOM_DEF_STEREO_COUNT>
9

> <PUBCHEM_ATOM_UDEF_STEREO_COUNT>
0

> <PUBCHEM_BOND_DEF_STEREO_COUNT>
0

> <PUBCHEM_BOND_UDEF_STEREO_COUNT>
0

> <PUBCHEM_ISOTOPIC_ATOM_COUNT>
0

> <PUBCHEM_COMPONENT_COUNT>
1

> <PUBCHEM_CACTVS_TAUTO_COUNT>
2

> <PUBCHEM_CONFORMER_ID>
000212CF00000001

> <PUBCHEM_MMFF94_ENERGY>
146.2231

> <PUBCHEM_FEATURE_SELFOVERLAP>
76.249

> <PUBCHEM_SHAPE_FINGERPRINT>
10 15 18335138709100450384
10050765 1 18121780521807909218
10299344 5 18060700597974948479
10835480 77 18336821988293705717
10906281 52 18059028253405068751
11135926 11 18261383425843753767
11578080 2 13756975610487638137
11719270 70 18343580720919526766
12166972 35 17167868568997876692
12236239 1 18201995526273173838
12516196 113 18342738507211405688
12788726 201 17560521685926212737
13782708 43 18131067151941298918
13811026 1 18408321064356602511
14251764 18 18131349726466112439
14394314 77 18338520717053887305
14849402 71 18339082717255098504
14856354 85 18260556636655662911
14933364 13 18409167709874620664
15183329 4 18334852801416881298
15461852 350 11602830103229142129
15840311 113 18041000669393773172
15849732 13 18113618984275613239
16087824 20 18263643967039752933
16120349 18 18342735243305363937
18608769 82 18409168844458396859
19611394 137 18041855020446701697
21033648 29 17916852621215736226
21130935 74 18412828023002508682
21236236 1 18411418388897137341
21267235 1 18409172078352187366
21521721 280 17988641926390794554
21792934 111 18341886377442475320
21792961 116 17917434177595191634
23516275 137 17416991485160927967
23522609 53 17844832431890350769
23559900 14 18340479066746229897
3004659 81 18259984856175166616
3178227 256 18342182180192331760
335352 9 18409449206278643375
3383291 50 17749395905178884475
34797466 226 17918280848540220116
350125 39 18411420635075570265
4073 2 18113904879164418978
4093350 32 17346606235459660014
4325135 7 18342457041188555084
4340502 62 18260550017741774902
5104073 3 18263646177638641930

> <PUBCHEM_SHAPE_MULTIPOLES>
679.2
20.88
2.31
1.14
7.93
0.25
-0.16
-0.11
3.34
0.73
-0.03
-0.66
-0.2
0.63

> <PUBCHEM_SHAPE_SELFOVERLAP>
1477.527

> <PUBCHEM_SHAPE_VOLUME>
366.6

> <PUBCHEM_COORDINATE_TYPE>
2
5
10

$$$$
