135849769
  -OEChem-03292013293D

 35 37  0     1  0  0  0  0  0999 V2000
   -2.1911    1.1609   -1.3569 O   0  0  0  0  0  0  0  0  0  0  0  0
   -2.4945   -2.1738    0.2586 O   0  0  0  0  0  0  0  0  0  0  0  0
   -1.5387    2.0390    2.1437 O   0  0  0  0  0  0  0  0  0  0  0  0
    1.3617    2.3445   -0.5789 O   0  0  0  0  0  0  0  0  0  0  0  0
    0.1501   -2.8991    0.2661 O   0  0  0  0  0  0  0  0  0  0  0  0
    3.9565    1.7147    0.1026 O   0  0  0  0  0  0  0  0  0  0  0  0
    2.7124   -2.2262    0.5195 N   0  0  0  0  0  0  0  0  0  0  0  0
    4.4656   -0.4131   -0.6356 N   0  0  0  0  0  0  0  0  0  0  0  0
   -2.0879   -0.8303    0.0986 C   0  0  2  0  0  0  0  0  0  0  0  0
   -1.3540    1.5844   -0.2528 C   0  0  1  0  0  0  0  0  0  0  0  0
   -2.5774    0.0183    1.2922 C   0  0  0  0  0  0  0  0  0  0  0  0
   -2.6179   -0.2194   -1.2286 C   0  0  1  0  0  0  0  0  0  0  0  0
   -2.2216    1.4942    1.0239 C   0  0  1  0  0  0  0  0  0  0  0  0
   -0.5823   -0.6526    0.0472 C   0  0  0  0  0  0  0  0  0  0  0  0
   -0.1829    0.6147   -0.1542 C   0  0  0  0  0  0  0  0  0  0  0  0
   -4.1341   -0.2663   -1.3870 C   0  0  0  0  0  0  0  0  0  0  0  0
    0.4235   -1.7123    0.1774 C   0  0  0  0  0  0  0  0  0  0  0  0
    1.2044    1.0102   -0.2671 C   0  0  0  0  0  0  0  0  0  0  0  0
    2.2159    0.1334   -0.0909 C   0  0  0  0  0  0  0  0  0  0  0  0
    1.8737   -1.2936    0.2135 C   0  0  0  0  0  0  0  0  0  0  0  0
    3.6186    0.5725   -0.1913 C   0  0  0  0  0  0  0  0  0  0  0  0
   -1.0422    2.6167   -0.4339 H   0  0  0  0  0  0  0  0  0  0  0  0
   -2.1348   -0.3417    2.2311 H   0  0  0  0  0  0  0  0  0  0  0  0
   -3.6602   -0.0937    1.4268 H   0  0  0  0  0  0  0  0  0  0  0  0
   -2.1906   -0.7680   -2.0791 H   0  0  0  0  0  0  0  0  0  0  0  0
   -3.1450    2.0678    0.8785 H   0  0  0  0  0  0  0  0  0  0  0  0
   -4.6373    0.3685   -0.6510 H   0  0  0  0  0  0  0  0  0  0  0  0
   -4.5171   -1.2869   -1.2980 H   0  0  0  0  0  0  0  0  0  0  0  0
   -4.4193    0.1244   -2.3702 H   0  0  0  0  0  0  0  0  0  0  0  0
   -2.1495   -2.4962    1.1087 H   0  0  0  0  0  0  0  0  0  0  0  0
   -2.1264    1.9547    2.9139 H   0  0  0  0  0  0  0  0  0  0  0  0
    2.3085    2.5413   -0.6665 H   0  0  0  0  0  0  0  0  0  0  0  0
    2.2323   -3.1167    0.6864 H   0  0  0  0  0  0  0  0  0  0  0  0
    4.1560   -1.3442   -0.8946 H   0  0  0  0  0  0  0  0  0  0  0  0
    5.4580   -0.2293   -0.7416 H   0  0  0  0  0  0  0  0  0  0  0  0
  1 10  1  0  0  0  0
  1 12  1  0  0  0  0
  2  9  1  0  0  0  0
  2 30  1  0  0  0  0
  3 13  1  0  0  0  0
  3 31  1  0  0  0  0
  4 18  1  0  0  0  0
  4 32  1  0  0  0  0
  5 17  2  0  0  0  0
  6 21  2  0  0  0  0
  7 20  2  0  0  0  0
  7 33  1  0  0  0  0
  8 21  1  0  0  0  0
  8 34  1  0  0  0  0
  8 35  1  0  0  0  0
  9 11  1  0  0  0  0
  9 12  1  0  0  0  0
  9 14  1  0  0  0  0
 10 13  1  0  0  0  0
 10 15  1  0  0  0  0
 10 22  1  0  0  0  0
 11 13  1  0  0  0  0
 11 23  1  0  0  0  0
 11 24  1  0  0  0  0
 12 16  1  0  0  0  0
 12 25  1  0  0  0  0
 13 26  1  0  0  0  0
 14 15  2  0  0  0  0
 14 17  1  0  0  0  0
 15 18  1  0  0  0  0
 16 27  1  0  0  0  0
 16 28  1  0  0  0  0
 16 29  1  0  0  0  0
 17 20  1  0  0  0  0
 18 19  2  0  0  0  0
 19 20  1  0  0  0  0
 19 21  1  0  0  0  0
M  END
> <PUBCHEM_COMPOUND_CID>
135849769

> <PUBCHEM_CONFORMER_RMSD>
0.6

> <PUBCHEM_CONFORMER_DIVERSEORDER>
1
2

> <PUBCHEM_MMFF94_PARTIAL_CHARGES>
25
1 -0.56
10 0.42
12 0.28
13 0.28
14 -0.12
15 -0.14
17 0.56
18 0.08
19 0.03
2 -0.68
20 0.44
21 0.62
3 -0.68
30 0.4
31 0.4
32 0.45
33 0.4
34 0.37
35 0.37
4 -0.53
5 -0.57
6 -0.57
7 -0.85
8 -0.8
9 0.42

> <PUBCHEM_EFFECTIVE_ROTOR_COUNT>
1.8

> <PUBCHEM_PHARMACOPHORE_FEATURES>
13
1 1 acceptor
1 2 acceptor
1 2 donor
1 3 acceptor
1 3 donor
1 4 donor
1 5 acceptor
1 6 acceptor
1 7 acceptor
1 7 donor
1 8 donor
6 14 15 17 18 19 20 rings
8 1 9 10 11 12 13 14 15 rings

> <PUBCHEM_HEAVY_ATOM_COUNT>
21

> <PUBCHEM_ATOM_DEF_STEREO_COUNT>
4

> <PUBCHEM_ATOM_UDEF_STEREO_COUNT>
0

> <PUBCHEM_BOND_DEF_STEREO_COUNT>
0

> <PUBCHEM_BOND_UDEF_STEREO_COUNT>
0

> <PUBCHEM_ISOTOPIC_ATOM_COUNT>
0

> <PUBCHEM_COMPONENT_COUNT>
1

> <PUBCHEM_CACTVS_TAUTO_COUNT>
-1

> <PUBCHEM_CONFORMER_ID>
0818E72900000001

> <PUBCHEM_MMFF94_ENERGY>
72.8949

> <PUBCHEM_FEATURE_SELFOVERLAP>
66.003

> <PUBCHEM_SHAPE_FINGERPRINT>
10863032 1 18040704858021709319
10967382 1 18335698334453908782
11132069 177 18334572486355582052
11578080 2 17698683027297264873
12236239 1 17988927786502740285
12423570 1 16960411864939869193
12592029 89 17822280288868171283
12788726 201 17703222911303645753
13024252 1 14562531795355322313
13027679 85 18197781218310044331
13140716 1 17832432264648605578
13583140 156 16660358221137698480
14617773 55 18130784504227013219
14787075 74 17766551731061535636
15309172 13 18335427867446612386
15534591 1 17774171093307680889
16945 1 18334856151296050301
17349148 13 18266433474381363706
18186145 218 18411707577983070004
18219364 16 18187089429248741420
200 152 18201150040095833693
20510252 161 18268996560386384210
20525323 117 18201723920667079057
21501502 16 18268425741778667146
22112679 90 17489592290198858993
23236772 104 18202004309133186449
2334 1 18408324354681554122
23402539 116 18131068259609915980
23419403 2 16037662059750376446
23493267 7 17385997412256463697
23559900 14 18340766057246613516
2748010 2 18334577889276864438
296302 2 15430037664692042246
63268167 104 18335136462399927322
90525 40 17988923314798447751

> <PUBCHEM_SHAPE_MULTIPOLES>
386.99
6.32
2.47
1.21
3.69
0.64
-0.23
-0.35
1.42
0.48
-0.51
-1.23
-0.46
-0.56

> <PUBCHEM_SHAPE_SELFOVERLAP>
858.202

> <PUBCHEM_SHAPE_VOLUME>
206

> <PUBCHEM_COORDINATE_TYPE>
2
5
10

$$$$
