135820
  -OEChem-03292013323D

 51 52  0     1  0  0  0  0  0999 V2000
    4.0987    3.1491    0.1614 F   0  0  0  0  0  0  0  0  0  0  0  0
    1.4879   -0.4486   -1.6351 O   0  0  0  0  0  0  0  0  0  0  0  0
   -0.2888   -2.7557   -0.8307 O   0  0  0  0  0  0  0  0  0  0  0  0
   -1.2057   -1.0561    1.8423 O   0  0  0  0  0  0  0  0  0  0  0  0
   -0.0395    1.8322   -2.0731 O   0  0  0  0  0  0  0  0  0  0  0  0
    4.6677   -2.2266    0.3134 O   0  0  0  0  0  0  0  0  0  0  0  0
    6.4077    1.9911    1.0094 O   0  0  0  0  0  0  0  0  0  0  0  0
    3.3131   -0.3838   -0.1726 N   0  0  0  0  0  0  0  0  0  0  0  0
    5.5335   -0.1272    0.6588 N   0  0  0  0  0  0  0  0  0  0  0  0
   -0.1206   -1.4752   -0.2344 C   0  0  2  0  0  0  0  0  0  0  0  0
    0.0735   -0.4378   -1.3366 C   0  0  1  0  0  0  0  0  0  0  0  0
    1.1913   -1.4214    0.5160 C   0  0  0  0  0  0  0  0  0  0  0  0
    2.1856   -1.1577   -0.6020 C   0  0  1  0  0  0  0  0  0  0  0  0
   -1.3209   -1.2650    0.6344 C   0  0  0  0  0  0  0  0  0  0  0  0
   -0.2826    0.9964   -0.9565 C   0  0  0  0  0  0  0  0  0  0  0  0
   -2.6824   -1.3018   -0.0302 C   0  0  0  0  0  0  0  0  0  0  0  0
   -3.6910   -0.3634    0.6249 C   0  0  0  0  0  0  0  0  0  0  0  0
   -5.0672   -0.4217   -0.0438 C   0  0  0  0  0  0  0  0  0  0  0  0
    4.5100   -1.0046    0.2672 C   0  0  0  0  0  0  0  0  0  0  0  0
    3.2163    1.0041   -0.1929 C   0  0  0  0  0  0  0  0  0  0  0  0
   -6.0464    0.5509    0.6167 C   0  0  0  0  0  0  0  0  0  0  0  0
   -7.4311    0.4705   -0.0283 C   0  0  0  0  0  0  0  0  0  0  0  0
    4.2072    1.8083    0.1860 C   0  0  0  0  0  0  0  0  0  0  0  0
   -8.4176    1.4180    0.6537 C   0  0  0  0  0  0  0  0  0  0  0  0
    5.4880    1.2603    0.6575 C   0  0  0  0  0  0  0  0  0  0  0  0
   -9.7865    1.3660   -0.0055 C   0  0  0  0  0  0  0  0  0  0  0  0
   -0.4352   -0.7109   -2.2684 H   0  0  0  0  0  0  0  0  0  0  0  0
    1.4329   -2.3481    1.0479 H   0  0  0  0  0  0  0  0  0  0  0  0
    1.2020   -0.6053    1.2493 H   0  0  0  0  0  0  0  0  0  0  0  0
    2.5308   -2.1052   -1.0325 H   0  0  0  0  0  0  0  0  0  0  0  0
   -1.3449    1.0863   -0.7195 H   0  0  0  0  0  0  0  0  0  0  0  0
    0.2837    1.3663   -0.0993 H   0  0  0  0  0  0  0  0  0  0  0  0
   -2.5853   -1.0317   -1.0864 H   0  0  0  0  0  0  0  0  0  0  0  0
   -3.0405   -2.3366    0.0135 H   0  0  0  0  0  0  0  0  0  0  0  0
   -0.9976   -2.7043   -1.4938 H   0  0  0  0  0  0  0  0  0  0  0  0
   -3.3096    0.6643    0.5952 H   0  0  0  0  0  0  0  0  0  0  0  0
   -3.7969   -0.6219    1.6861 H   0  0  0  0  0  0  0  0  0  0  0  0
   -5.4605   -1.4435    0.0193 H   0  0  0  0  0  0  0  0  0  0  0  0
   -4.9690   -0.1771   -1.1084 H   0  0  0  0  0  0  0  0  0  0  0  0
    2.3031    1.4557   -0.5415 H   0  0  0  0  0  0  0  0  0  0  0  0
   -6.1268    0.3197    1.6860 H   0  0  0  0  0  0  0  0  0  0  0  0
   -5.6607    1.5743    0.5352 H   0  0  0  0  0  0  0  0  0  0  0  0
   -0.2793    2.7377   -1.8121 H   0  0  0  0  0  0  0  0  0  0  0  0
   -7.3539    0.7220   -1.0931 H   0  0  0  0  0  0  0  0  0  0  0  0
   -7.8083   -0.5576    0.0343 H   0  0  0  0  0  0  0  0  0  0  0  0
    6.3988   -0.5547    0.9771 H   0  0  0  0  0  0  0  0  0  0  0  0
   -8.0379    2.4454    0.6104 H   0  0  0  0  0  0  0  0  0  0  0  0
   -8.5169    1.1531    1.7128 H   0  0  0  0  0  0  0  0  0  0  0  0
  -10.2092    0.3575    0.0473 H   0  0  0  0  0  0  0  0  0  0  0  0
   -9.7265    1.6590   -1.0586 H   0  0  0  0  0  0  0  0  0  0  0  0
  -10.4762    2.0502    0.4985 H   0  0  0  0  0  0  0  0  0  0  0  0
  1 23  1  0  0  0  0
  2 11  1  0  0  0  0
  2 13  1  0  0  0  0
  3 10  1  0  0  0  0
  3 35  1  0  0  0  0
  4 14  2  0  0  0  0
  5 15  1  0  0  0  0
  5 43  1  0  0  0  0
  6 19  2  0  0  0  0
  7 25  2  0  0  0  0
  8 13  1  0  0  0  0
  8 19  1  0  0  0  0
  8 20  1  0  0  0  0
  9 19  1  0  0  0  0
  9 25  1  0  0  0  0
  9 46  1  0  0  0  0
 10 11  1  0  0  0  0
 10 12  1  0  0  0  0
 10 14  1  0  0  0  0
 11 15  1  0  0  0  0
 11 27  1  0  0  0  0
 12 13  1  0  0  0  0
 12 28  1  0  0  0  0
 12 29  1  0  0  0  0
 13 30  1  0  0  0  0
 14 16  1  0  0  0  0
 15 31  1  0  0  0  0
 15 32  1  0  0  0  0
 16 17  1  0  0  0  0
 16 33  1  0  0  0  0
 16 34  1  0  0  0  0
 17 18  1  0  0  0  0
 17 36  1  0  0  0  0
 17 37  1  0  0  0  0
 18 21  1  0  0  0  0
 18 38  1  0  0  0  0
 18 39  1  0  0  0  0
 20 23  2  0  0  0  0
 20 40  1  0  0  0  0
 21 22  1  0  0  0  0
 21 41  1  0  0  0  0
 21 42  1  0  0  0  0
 22 24  1  0  0  0  0
 22 44  1  0  0  0  0
 22 45  1  0  0  0  0
 23 25  1  0  0  0  0
 24 26  1  0  0  0  0
 24 47  1  0  0  0  0
 24 48  1  0  0  0  0
 26 49  1  0  0  0  0
 26 50  1  0  0  0  0
 26 51  1  0  0  0  0
M  END
> <PUBCHEM_COMPOUND_CID>
135820

> <PUBCHEM_CONFORMER_RMSD>
1

> <PUBCHEM_CONFORMER_DIVERSEORDER>
1
162
176
105
48
200
144
111
181
95
204
63
69
11
133
116
106
159
25
8
51
78
75
87
30
149
141
22
157
152
148
120
77
17
65
81
151
155
80
112
190
26
193
130
102
183
203
93
92
177
36
161
86
164
174
185
43
21
55
37
74
10
146
114
197
198
192
178
82
57
169
58
73
40
44
64
34
124
160
134
31
184
35
27
107
110
53
41
186
172
137
154
84
127
132
175
173
167
47
168
3
97
70
142
103
153
139
96
165
90
136
189
119
128
23
121
14
61
89
7
201
104
199
66
50
91
71
138
29
171
68
16
170
143
123
118
180
135
140
125
42
115
202
13
191
156
145
126
59
5
52
101
12
182
100
49
98
38
28
99
54
62
76
88
163
147
24
188
131
39
20
117
150
15
194
109
113
56
85
67
166
187
108
60
32
83
2
46
45
94
196
72
33
18
129
122
9
179
195
158
79
19
4
6

> <PUBCHEM_MMFF94_PARTIAL_CHARGES>
23
1 -0.15
10 0.34
11 0.28
13 0.58
14 0.45
15 0.28
16 0.06
19 0.69
2 -0.56
20 -0.04
23 0.16
25 0.62
3 -0.68
35 0.4
4 -0.57
40 0.15
43 0.4
46 0.37
5 -0.68
6 -0.57
7 -0.57
8 -0.47
9 -0.49

> <PUBCHEM_EFFECTIVE_ROTOR_COUNT>
10

> <PUBCHEM_PHARMACOPHORE_FEATURES>
14
1 2 acceptor
1 26 hydrophobe
1 3 acceptor
1 3 donor
1 4 acceptor
1 5 acceptor
1 5 donor
1 6 acceptor
1 7 acceptor
1 9 donor
3 16 17 18 hydrophobe
3 21 22 24 hydrophobe
5 2 10 11 12 13 rings
6 8 9 19 20 23 25 rings

> <PUBCHEM_HEAVY_ATOM_COUNT>
26

> <PUBCHEM_ATOM_DEF_STEREO_COUNT>
3

> <PUBCHEM_ATOM_UDEF_STEREO_COUNT>
0

> <PUBCHEM_BOND_DEF_STEREO_COUNT>
0

> <PUBCHEM_BOND_UDEF_STEREO_COUNT>
0

> <PUBCHEM_ISOTOPIC_ATOM_COUNT>
0

> <PUBCHEM_COMPONENT_COUNT>
1

> <PUBCHEM_CACTVS_TAUTO_COUNT>
6

> <PUBCHEM_CONFORMER_ID>
0002128C00000001

> <PUBCHEM_MMFF94_ENERGY>
47.7026

> <PUBCHEM_FEATURE_SELFOVERLAP>
71.067

> <PUBCHEM_SHAPE_FINGERPRINT>
10006869 2 18343861108942333896
10299344 5 11241972569142087953
10411042 1 17836650717403979374
10693767 8 9871478590549328589
11646440 116 17821734914549029821
125118 31 18409172091390440377
13533116 47 17968091972147473218
13540713 5 16155701157137889751
13668630 136 11239991249452631753
13685833 64 8358258142527319803
14170010 4 18113904845184040157
14251764 30 8718830869027578899
15183329 4 16630529527533054969
15238133 3 17603877731701989591
15840311 113 18412266116994548525
16120349 18 18411415095279401699
17134984 74 11815897846856926629
18335252 114 17489592259796692208
20157964 124 18273218573183712935
20281389 69 18334013861729555481
20715895 44 18342461451956333929
20771845 171 16486980561479387349
20812841 46 18187082807115929851
21033648 29 18338789130142591721
21150785 3 17632574934702116761
21315764 268 18335700512218969597
21344244 181 9439403540452371829
21521239 73 10375872978506838741
21792934 111 18113894923503871653
221357 26 9943808880724140719
22224240 67 18334574634224650755
22899556 105 10303278835996904380
22950370 63 10737282454878391059
23559900 14 17749119911028725118
23845131 108 17176850251620576853
24893992 56 16008760122227887553
2838139 119 18341324565729201109
33382 64 10809335646347649500
33532 11 8142082057821458649
3633792 109 17988932145536252318
465052 167 12324239468662967562
5385378 56 17167858622164985627
54039377 194 11386353838858215256

> <PUBCHEM_SHAPE_MULTIPOLES>
482.62
21.03
2.43
1.21
48.41
0.52
0.28
14.5
-5.79
-2.8
0.02
-0.24
0.1
0.43

> <PUBCHEM_SHAPE_SELFOVERLAP>
990.572

> <PUBCHEM_SHAPE_VOLUME>
278.7

> <PUBCHEM_COORDINATE_TYPE>
2
5
10

$$$$
