REMARK  Name = 135808
REMARK  10 active torsions:
REMARK  status: ('A' for Active; 'I' for Inactive)
REMARK    1  A    between atoms: C_1  and  C_3
REMARK    2  A    between atoms: C_1  and  N_6
REMARK    3  A    between atoms: C_1  and  C_12
REMARK    4  A    between atoms: C_1  and  C_17
REMARK    5  A    between atoms: C_3  and  O_4
REMARK    6  A    between atoms: N_6  and  S_8
REMARK    7  A    between atoms: C_12  and  C_14
REMARK    8  A    between atoms: C_14  and  O_15
REMARK    9  A    between atoms: C_17  and  C_19
REMARK   10  A    between atoms: C_19  and  O_20
REMARK                            x       y       z     vdW  Elec       q    Type
REMARK                         _______ _______ _______ _____ _____    ______ ____
ROOT
ATOM      1  C   UNL     1       0.181  -0.284   0.180  0.00  0.00    +0.172 C 
ENDROOT
BRANCH   1   3
ATOM      2  O   UNL     1      -0.019  -1.799  -1.734  0.00  0.00    -0.249 OA
ATOM      3  C   UNL     1      -0.050  -1.625  -0.521  0.00  0.00    +0.329 C 
BRANCH   3   4
ATOM      4  O   UNL     1      -0.292  -2.643   0.345  0.00  0.00    -0.479 OA
ATOM      5  H   UNL     1      -0.310  -2.479   1.268  0.00  0.00    +0.295 HD
ENDBRANCH   3   4
ENDBRANCH   1   3
BRANCH   1   6
ATOM      6  N   UNL     1      -1.061  -0.055   0.976  0.00  0.00    -0.169 NA
ATOM      7  H   UNL     1      -1.143  -0.821   1.644  0.00  0.00    +0.149 HD
BRANCH   6   8
ATOM      8  S   UNL     1      -2.536   0.037   0.115  0.00  0.00    +0.077 S 
ATOM      9  O   UNL     1      -3.681  -0.211   1.250  0.00  0.00    -0.053 OA
ATOM     10  O   UNL     1      -2.603  -1.065  -0.827  0.00  0.00    -0.053 OA
ATOM     11  O   UNL     1      -2.675   1.403  -0.352  0.00  0.00    -0.053 OA
ENDBRANCH   6   8
ENDBRANCH   1   6
BRANCH   1  12
ATOM     12  C   UNL     1       1.378  -0.329   1.144  0.00  0.00    +0.137 C 
BRANCH  12  14
ATOM     13  O   UNL     1       2.924  -1.730  -0.098  0.00  0.00    -0.250 OA
ATOM     14  C   UNL     1       2.684  -0.672   0.465  0.00  0.00    +0.316 C 
BRANCH  14  15
ATOM     15  O   UNL     1       3.564   0.357   0.547  0.00  0.00    -0.480 OA
ATOM     16  H   UNL     1       3.322   1.145   0.993  0.00  0.00    +0.295 HD
ENDBRANCH  14  15
ENDBRANCH  12  14
ENDBRANCH   1  12
BRANCH   1  17
ATOM     17  C   UNL     1       0.303   0.829  -0.874  0.00  0.00    +0.137 C 
BRANCH  17  19
ATOM     18  O   UNL     1       0.165   2.547   0.824  0.00  0.00    -0.250 OA
ATOM     19  C   UNL     1       0.534   2.206  -0.293  0.00  0.00    +0.316 C 
BRANCH  19  20
ATOM     20  O   UNL     1       1.186   3.034  -1.146  0.00  0.00    -0.480 OA
ATOM     21  H   UNL     1       1.448   2.724  -1.991  0.00  0.00    +0.295 HD
ENDBRANCH  19  20
ENDBRANCH  17  19
ENDBRANCH   1  17
TORSDOF 10
