135801683
  -OEChem-03292013293D

 30 31  0     1  0  0  0  0  0999 V2000
    0.6070   -2.5302    0.9055 O   0  0  0  0  0  0  0  0  0  0  0  0
    2.8605    2.1055   -0.2319 O   0  0  0  0  0  0  0  0  0  0  0  0
   -0.9560    2.3395   -0.3254 O   0  0  0  0  0  0  0  0  0  0  0  0
    0.9197    0.5963    0.5820 N   0  0  0  0  0  0  0  0  0  0  0  0
   -2.2124   -1.0313    0.3120 N   0  0  0  0  0  0  0  0  0  0  0  0
    4.5014    0.5065   -0.0208 N   0  0  0  0  0  0  0  0  0  0  0  0
    0.6403   -1.6501   -0.2019 C   0  0  2  0  0  0  0  0  0  0  0  0
    2.0863   -1.2161   -0.4284 C   0  0  0  0  0  0  0  0  0  0  0  0
    2.2367   -0.0600    0.5443 C   0  0  1  0  0  0  0  0  0  0  0  0
    0.0587   -0.2954    0.1829 C   0  0  0  0  0  0  0  0  0  0  0  0
    0.0690   -2.3088   -1.4476 C   0  0  0  0  0  0  0  0  0  0  0  0
   -1.3875    0.0217    0.1166 C   0  0  0  0  0  0  0  0  0  0  0  0
    3.2084    0.9657    0.0667 C   0  0  0  0  0  0  0  0  0  0  0  0
   -1.8236    1.3129   -0.1330 C   0  0  0  0  0  0  0  0  0  0  0  0
   -3.1948    1.5380   -0.1854 C   0  0  0  0  0  0  0  0  0  0  0  0
   -3.5384   -0.7741    0.2538 C   0  0  0  0  0  0  0  0  0  0  0  0
   -4.0753    0.4799    0.0106 C   0  0  0  0  0  0  0  0  0  0  0  0
    2.2418   -0.8752   -1.4607 H   0  0  0  0  0  0  0  0  0  0  0  0
    2.8142   -2.0079   -0.2201 H   0  0  0  0  0  0  0  0  0  0  0  0
    2.5137   -0.3942    1.5510 H   0  0  0  0  0  0  0  0  0  0  0  0
    0.7065   -3.1383   -1.7742 H   0  0  0  0  0  0  0  0  0  0  0  0
   -0.0297   -1.5986   -2.2751 H   0  0  0  0  0  0  0  0  0  0  0  0
   -0.9166   -2.7426   -1.2501 H   0  0  0  0  0  0  0  0  0  0  0  0
    1.1729   -3.2945    0.7025 H   0  0  0  0  0  0  0  0  0  0  0  0
    4.7604   -0.4409    0.2350 H   0  0  0  0  0  0  0  0  0  0  0  0
    5.2497    1.1125   -0.3403 H   0  0  0  0  0  0  0  0  0  0  0  0
   -3.5895    2.5317   -0.3783 H   0  0  0  0  0  0  0  0  0  0  0  0
   -4.1823   -1.6327    0.4130 H   0  0  0  0  0  0  0  0  0  0  0  0
   -5.1479    0.6317   -0.0259 H   0  0  0  0  0  0  0  0  0  0  0  0
   -1.4613    3.1551   -0.4849 H   0  0  0  0  0  0  0  0  0  0  0  0
  1  7  1  0  0  0  0
  1 24  1  0  0  0  0
  2 13  2  0  0  0  0
  3 14  1  0  0  0  0
  3 30  1  0  0  0  0
  4  9  1  0  0  0  0
  4 10  2  0  0  0  0
  5 12  1  0  0  0  0
  5 16  2  0  0  0  0
  6 13  1  0  0  0  0
  6 25  1  0  0  0  0
  6 26  1  0  0  0  0
  7  8  1  0  0  0  0
  7 10  1  0  0  0  0
  7 11  1  0  0  0  0
  8  9  1  0  0  0  0
  8 18  1  0  0  0  0
  8 19  1  0  0  0  0
  9 13  1  0  0  0  0
  9 20  1  0  0  0  0
 10 12  1  0  0  0  0
 11 21  1  0  0  0  0
 11 22  1  0  0  0  0
 11 23  1  0  0  0  0
 12 14  2  0  0  0  0
 14 15  1  0  0  0  0
 15 17  2  0  0  0  0
 15 27  1  0  0  0  0
 16 17  1  0  0  0  0
 16 28  1  0  0  0  0
 17 29  1  0  0  0  0
M  END
> <PUBCHEM_COMPOUND_CID>
135801683

> <PUBCHEM_CONFORMER_RMSD>
0.6

> <PUBCHEM_CONFORMER_DIVERSEORDER>
1
22
13
10
19
12
23
14
5
21
11
4
20
16
2
6
8
15
7
17
3
9
18

> <PUBCHEM_MMFF94_PARTIAL_CHARGES>
22
1 -0.68
10 0.3
12 0.4
13 0.57
14 0.08
15 -0.15
16 0.16
17 -0.15
2 -0.57
24 0.4
25 0.37
26 0.37
27 0.15
28 0.15
29 0.15
3 -0.53
30 0.45
4 -0.7
5 -0.62
6 -0.8
7 0.34
9 0.31

> <PUBCHEM_EFFECTIVE_ROTOR_COUNT>
2.6

> <PUBCHEM_PHARMACOPHORE_FEATURES>
9
1 1 acceptor
1 1 donor
1 2 acceptor
1 3 donor
1 4 acceptor
1 5 acceptor
1 6 donor
5 4 7 8 9 10 rings
6 5 12 14 15 16 17 rings

> <PUBCHEM_HEAVY_ATOM_COUNT>
17

> <PUBCHEM_ATOM_DEF_STEREO_COUNT>
2

> <PUBCHEM_ATOM_UDEF_STEREO_COUNT>
0

> <PUBCHEM_BOND_DEF_STEREO_COUNT>
0

> <PUBCHEM_BOND_UDEF_STEREO_COUNT>
0

> <PUBCHEM_ISOTOPIC_ATOM_COUNT>
0

> <PUBCHEM_COMPONENT_COUNT>
1

> <PUBCHEM_CACTVS_TAUTO_COUNT>
-1

> <PUBCHEM_CONFORMER_ID>
08182B5300000001

> <PUBCHEM_MMFF94_ENERGY>
48.6136

> <PUBCHEM_FEATURE_SELFOVERLAP>
45.685

> <PUBCHEM_SHAPE_FINGERPRINT>
10608611 8 18264768770737488973
107287 299 18131069299176689127
10922049 32 18411985771330628710
10967382 1 18410011039582817385
11132069 177 18411695521392899585
11578080 2 16373527329735036542
13214271 11 18409165532806087119
13380535 76 18410011030998222555
13897977 150 18410854326578860869
14415576 193 18341334392281785653
14648413 74 17981328889359211243
15196674 1 18410292488795018457
15219456 202 18339928117110229167
15309172 13 18271813453247303723
15375358 24 18260546698006010969
15375462 6 18408885100952651911
15775835 57 18343864428577046062
16945 1 18191865617628842739
17990270 104 17911519792300207159
18186145 218 18130803234616294662
20645477 56 18200026386895035520
20645477 70 18198617744858739639
21501502 16 18196649597380169385
21524375 3 18412544331816800610
23227448 37 18053382390573374940
23402539 116 18339916117050719164
23559900 14 18194675965118125250
25 1 18343022168531996896
2748010 2 18411704283220868999
34934 24 18409442562723748447
449060 62 18341050735741224521
5104073 3 18337111159819617241
58051976 378 18413386514473434261
6138700 20 18195816168194829342
6333272 397 18334859441235756890
69090 78 18130785711229049814
7364860 26 18196372524465706478
81228 2 17622702633352918338
81539 233 18336262362264838390
9709674 26 18338801100728570207

> <PUBCHEM_SHAPE_MULTIPOLES>
317.3
6.49
2.42
0.83
0.07
0.4
-0.11
-2.73
0.16
-0.45
-0.41
-0.07
0.38
0.2

> <PUBCHEM_SHAPE_SELFOVERLAP>
683.097

> <PUBCHEM_SHAPE_VOLUME>
175

> <PUBCHEM_COORDINATE_TYPE>
2
5
10

$$$$
