REMARK  Name = 135888
REMARK  4 active torsions:
REMARK  status: ('A' for Active; 'I' for Inactive)
REMARK    1  A    between atoms: N_2  and  C1*_16
REMARK    2  A    between atoms: C3*_17  and  O3*_20
REMARK    3  A    between atoms: C4*_19  and  C5*_22
REMARK    4  A    between atoms: C5*_22  and  O5*_23
REMARK                            x       y       z     vdW  Elec       q    Type
REMARK                         _______ _______ _______ _____ _____    ______ ____
ROOT
ATOM      1  O   UNL     1      -3.138  -2.538   0.339  0.00  0.00    -0.267 OA
ATOM      2  N   UNL     1       0.829  -0.423   0.168  0.00  0.00    -0.238 N 
ATOM      3  N   UNL     1      -0.210  -2.391   0.371  0.00  0.00    -0.240 NA
ATOM      4  N   UNL     1      -1.069   1.059  -0.030  0.00  0.00    -0.320 NA
ATOM      5  N   UNL     1      -3.147  -0.185   0.075  0.00  0.00    -0.184 N 
ATOM      6  N   UNL     1      -3.016   2.235  -0.194  0.00  0.00    -0.170 NA
ATOM      7  C   UNL     1      -0.508  -0.158   0.116  0.00  0.00    +0.221 C 
ATOM      8  C   UNL     1       0.958  -1.781   0.323  0.00  0.00    +0.224 C 
ATOM      9  C   UNL     1      -1.116  -1.379   0.242  0.00  0.00    +0.177 C 
ATOM     10  C   UNL     1      -2.553  -1.467   0.228  0.00  0.00    +0.283 C 
ATOM     11  C   UNL     1      -2.377   1.020  -0.047  0.00  0.00    +0.156 C 
ATOM     12  C   UNL     1      -4.530  -0.096   0.042  0.00  0.00    +0.138 C 
ATOM     13  C   UNL     1      -5.172   1.064  -0.098  0.00  0.00    +0.018 C 
ATOM     14  C   UNL     1      -4.307   2.244  -0.216  0.00  0.00    +0.109 C 
ENDROOT
BRANCH   2  16
ATOM     15  O4* UNL     1       3.035   0.105   0.878  0.00  0.00    -0.335 OA
ATOM     16  C1* UNL     1       1.928   0.542   0.073  0.00  0.00    +0.198 C 
ATOM     17  C3* UNL     1       3.753   0.013  -1.375  0.00  0.00    +0.144 C 
ATOM     18  C2* UNL     1       2.436   0.757  -1.349  0.00  0.00    +0.083 C 
ATOM     19  C4* UNL     1       4.225   0.079   0.070  0.00  0.00    +0.173 C 
BRANCH  17  20
ATOM     20  O3* UNL     1       3.527  -1.349  -1.725  0.00  0.00    -0.382 OA
ATOM     21  H3* UNL     1       3.225  -1.400  -2.645  0.00  0.00    +0.210 HD
ENDBRANCH  17  20
BRANCH  19  22
ATOM     22  C5* UNL     1       5.033   1.335   0.372  0.00  0.00    +0.169 C 
BRANCH  22  23
ATOM     23  O5* UNL     1       5.418   1.314   1.737  0.00  0.00    -0.379 OA
ATOM     24  H5* UNL     1       5.934   2.111   1.940  0.00  0.00    +0.211 HD
ENDBRANCH  22  23
ENDBRANCH  19  22
ENDBRANCH   2  16
TORSDOF 4
