REMARK  Name = 135926594
REMARK  7 active torsions:
REMARK  status: ('A' for Active; 'I' for Inactive)
REMARK    1  A    between atoms: N_3  and  C_20
REMARK    2  A    between atoms: C_25  and  C_28
REMARK    3  A    between atoms: N_27  and  CA_30
REMARK    4  A    between atoms: CA_30  and  C_33
REMARK    5  A    between atoms: CA_30  and  CB_34
REMARK    6  A    between atoms: CB_34  and  CG_35
REMARK    7  A    between atoms: CG_35  and  CD_38
REMARK                            x       y       z     vdW  Elec       q    Type
REMARK                         _______ _______ _______ _____ _____    ______ ____
ROOT
ATOM      1  O   UNL     1      -4.593  -2.466   0.323  0.00  0.00    -0.273 OA
ATOM      2  N   UNL     1      -4.153   0.394   0.329  0.00  0.00    -0.241 NA
ATOM      3  N   UNL     1      -1.989   0.797   0.608  0.00  0.00    -0.292 N 
ATOM      4  N   UNL     1      -6.237   1.937  -0.389  0.00  0.00    -0.309 N 
ATOM      5  N   UNL     1      -7.642   0.009  -0.702  0.00  0.00    -0.361 NA
ATOM      6  N   UNL     1      -6.731  -2.135  -0.432  0.00  0.00    -0.246 N 
ATOM      7  N   UNL     1      -8.956  -1.891  -1.085  0.00  0.00    -0.321 N 
ATOM      8  C   UNL     1      -4.109   1.820   0.719  0.00  0.00    +0.099 C 
ATOM      9  C   UNL     1      -2.605   2.134   0.725  0.00  0.00    +0.110 C 
ATOM     10  C   UNL     1      -4.953   2.604  -0.270  0.00  0.00    +0.107 C 
ATOM     11  C   UNL     1      -2.930  -0.098   0.349  0.00  0.00    +0.170 C 
ATOM     12  C   UNL     1      -5.345  -0.220  -0.022  0.00  0.00    +0.204 C 
ATOM     13  C   UNL     1      -6.415   0.550  -0.361  0.00  0.00    +0.184 C 
ATOM     14  C   UNL     1      -5.485  -1.702  -0.029  0.00  0.00    +0.252 C 
ATOM     15  C   UNL     1      -7.776  -1.285  -0.742  0.00  0.00    +0.239 C 
ATOM     16  H   UNL     1      -7.038   2.500  -0.496  0.00  0.00    +0.149 HD
ATOM     17  H   UNL     1      -6.884  -3.104  -0.505  0.00  0.00    +0.159 HD
ATOM     18  H   UNL     1      -9.741  -1.344  -1.317  0.00  0.00    +0.146 HD
ATOM     19  H   UNL     1      -9.018  -2.873  -1.100  0.00  0.00    +0.146 HD
ENDROOT
BRANCH   3  20
ATOM     20  C   UNL     1      -0.671   0.535   0.619  0.00  0.00    +0.049 C 
ATOM     21  C   UNL     1      -0.216  -0.736   0.970  0.00  0.00    +0.015 C 
ATOM     22  C   UNL     1       0.242   1.533   0.278  0.00  0.00    +0.015 C 
ATOM     23  C   UNL     1       1.152  -1.009   0.981  0.00  0.00    +0.006 C 
ATOM     24  C   UNL     1       1.609   1.260   0.288  0.00  0.00    +0.006 C 
ATOM     25  C   UNL     1       2.065  -0.011   0.640  0.00  0.00    +0.053 C 
BRANCH  25  28
ATOM     26  O   UNL     1       3.950  -1.191   1.381  0.00  0.00    -0.270 OA
ATOM     27  N   UNL     1       4.297   0.465  -0.205  0.00  0.00    -0.293 N 
ATOM     28  C   ACE A   0       3.491  -0.294   0.651  0.00  0.00    +0.246 C 
ATOM     29  H   UNL     1       3.867   1.159  -0.755  0.00  0.00    +0.150 HD
BRANCH  27  30
ATOM     30  CA  UNL     1       5.726   0.286  -0.325  0.00  0.00    +0.177 C 
BRANCH  30  33
ATOM     31  O   UNL     1       6.122   2.221  -1.666  0.00  0.00    -0.244 OA
ATOM     32  OXT UNL     1       7.172   2.027   0.352  0.00  0.00    -0.244 OA
ATOM     33  C   UNL     1       6.405   1.645  -0.579  0.00  0.00    +0.382 C 
ENDBRANCH  30  33
BRANCH  30  34
ATOM     34  CB  UNL     1       6.063  -0.764  -1.393  0.00  0.00    +0.043 C 
BRANCH  34  35
ATOM     35  CG  UNL     1       7.549  -1.120  -1.455  0.00  0.00    +0.116 C 
BRANCH  35  38
ATOM     36  OE1 UNL     1       9.376  -1.304   0.057  0.00  0.00    -0.246 OA
ATOM     37  OE2 UNL     1       7.409  -2.358   0.543  0.00  0.00    -0.246 OA
ATOM     38  CD  UNL     1       8.178  -1.637  -0.156  0.00  0.00    +0.365 C 
ENDBRANCH  35  38
ENDBRANCH  34  35
ENDBRANCH  30  34
ENDBRANCH  27  30
ENDBRANCH  25  28
ENDBRANCH   3  20
TORSDOF 7
