REMARK  Name = 135915640
REMARK  4 active torsions:
REMARK  status: ('A' for Active; 'I' for Inactive)
REMARK    1  A    between atoms: N_5  and  C_7
REMARK    2  A    between atoms: N_5  and  N_12
REMARK    3  A    between atoms: N_12  and  C_14
REMARK    4  A    between atoms: C_19  and  O_20
REMARK                            x       y       z     vdW  Elec       q    Type
REMARK                         _______ _______ _______ _____ _____    ______ ____
ROOT
ATOM      1  N   UNL     1       0.311  -0.743  -0.594  0.00  0.00    -0.135 NA
ENDROOT
BRANCH   1   7
ATOM      2  O   UNL     1       4.920  -1.766   0.261  0.00  0.00    -0.270 OA
ATOM      3  O   UNL     1       3.377   2.564   0.400  0.00  0.00    -0.252 OA
ATOM      4  N   UNL     1       1.874   0.898  -0.093  0.00  0.00    -0.254 N 
ATOM      5  N   UNL     1       4.128   0.392   0.325  0.00  0.00    -0.236 N 
ATOM      6  C   UNL     1       2.599  -1.447  -0.190  0.00  0.00    +0.091 C 
ATOM      7  C   UNL     1       1.525  -0.410  -0.305  0.00  0.00    +0.146 C 
ATOM      8  C   UNL     1       3.984  -0.974   0.150  0.00  0.00    +0.255 C 
ATOM      9  C   UNL     1       3.142   1.367   0.223  0.00  0.00    +0.311 C 
ATOM     10  H   UNL     1       1.157   1.569  -0.171  0.00  0.00    +0.158 HD
ATOM     11  H   UNL     1       5.033   0.709   0.547  0.00  0.00    +0.159 HD
ENDBRANCH   1   7
BRANCH   1  12
ATOM     12  N   UNL     1      -0.529   0.308  -0.659  0.00  0.00    -0.244 N 
ATOM     13  H   UNL     1      -0.186   1.189  -0.933  0.00  0.00    +0.172 HD
BRANCH  12  14
ATOM     14  C   UNL     1      -1.887   0.160  -0.340  0.00  0.00    +0.063 C 
ATOM     15  C   UNL     1      -2.745   1.258  -0.414  0.00  0.00    +0.019 C 
ATOM     16  C   UNL     1      -2.381  -1.084   0.053  0.00  0.00    +0.019 C 
ATOM     17  C   UNL     1      -4.095   1.112  -0.096  0.00  0.00    +0.038 C 
ATOM     18  C   UNL     1      -3.731  -1.230   0.372  0.00  0.00    +0.038 C 
ATOM     19  C   UNL     1      -4.588  -0.132   0.298  0.00  0.00    +0.134 C 
BRANCH  19  20
ATOM     20  O   UNL     1      -5.905  -0.275   0.609  0.00  0.00    -0.506 OA
ATOM     21  H   UNL     1      -6.481   0.463   0.559  0.00  0.00    +0.292 HD
ENDBRANCH  19  20
ENDBRANCH  12  14
ENDBRANCH   1  12
TORSDOF 4
