REMARK  Name = 135948
REMARK  5 active torsions:
REMARK  status: ('A' for Active; 'I' for Inactive)
REMARK    1  A    between atoms: C_1  and  N_9
REMARK    2  A    between atoms: C_4  and  S_16
REMARK    3  A    between atoms: C_10  and  C_13
REMARK    4  A    between atoms: C_13  and  O_14
REMARK    5  A    between atoms: S_16  and  N_19
REMARK                            x       y       z     vdW  Elec       q    Type
REMARK                         _______ _______ _______ _____ _____    ______ ____
ROOT
ATOM      1  C   UNL     1       0.179   0.010  -0.203  0.00  0.00    +0.057 C 
ATOM      2  C   UNL     1      -0.540   1.168   0.111  0.00  0.00    +0.016 C 
ATOM      3  C   UNL     1      -0.503  -1.198  -0.375  0.00  0.00    +0.016 C 
ATOM      4  C   UNL     1      -2.602  -0.091   0.077  0.00  0.00    +0.122 C 
ATOM      5  C   UNL     1      -1.927   1.118   0.250  0.00  0.00    +0.021 C 
ATOM      6  C   UNL     1      -1.890  -1.249  -0.236  0.00  0.00    +0.021 C 
ENDROOT
BRANCH   1   9
ATOM      7  O   UNL     1       3.726   0.801  -0.429  0.00  0.00    -0.434 OA
ATOM      8  O   UNL     1       2.124   2.336   0.041  0.00  0.00    -0.226 OA
ATOM      9  N   UNL     1       1.595   0.062  -0.344  0.00  0.00    -0.221 N 
ATOM     10  C   UNL     1       3.798  -0.631  -0.490  0.00  0.00    +0.220 C 
ATOM     11  C   UNL     1       2.377  -1.066  -0.774  0.00  0.00    +0.148 C 
ATOM     12  C   UNL     1       2.420   1.175  -0.206  0.00  0.00    +0.409 C 
BRANCH  10  13
ATOM     13  C   UNL     1       4.332  -1.153   0.837  0.00  0.00    +0.183 C 
BRANCH  13  14
ATOM     14  O   UNL     1       5.664  -0.700   1.000  0.00  0.00    -0.378 OA
ATOM     15  H   UNL     1       6.016  -1.026   1.843  0.00  0.00    +0.211 HD
ENDBRANCH  13  14
ENDBRANCH  10  13
ENDBRANCH   1   9
BRANCH   4  16
ATOM     16  S   UNL     1      -4.338  -0.154   0.251  0.00  0.00    +0.057 S 
ATOM     17  O   UNL     1      -4.665  -1.528   0.627  0.00  0.00    -0.153 OA
ATOM     18  O   UNL     1      -4.681   0.951   1.143  0.00  0.00    -0.153 OA
BRANCH  16  19
ATOM     19  N   UNL     1      -5.067   0.149  -1.278  0.00  0.00    -0.203 NA
ATOM     20  H   UNL     1      -6.083   0.114  -1.184  0.00  0.00    +0.144 HD
ATOM     21  H   UNL     1      -4.763  -0.559  -1.946  0.00  0.00    +0.144 HD
ENDBRANCH  16  19
ENDBRANCH   4  16
TORSDOF 5
