REMARK  Name = 135985961
REMARK  6 active torsions:
REMARK  status: ('A' for Active; 'I' for Inactive)
REMARK    1  A    between atoms: C_4  and  C_6
REMARK    2  A    between atoms: C_5  and  S_16
REMARK    3  A    between atoms: C_7  and  O_14
REMARK    4  A    between atoms: C_9  and  O_12
REMARK    5  A    between atoms: S_16  and  C_17
REMARK    6  A    between atoms: C_17  and  C_20
REMARK                            x       y       z     vdW  Elec       q    Type
REMARK                         _______ _______ _______ _____ _____    ______ ____
ROOT
ATOM      1  O   UNL     1       0.495  -0.779   0.010  0.00  0.00    -0.411 OA
ATOM      2  N   UNL     1       1.704  -2.660   0.076  0.00  0.00    -0.106 NA
ATOM      3  N   UNL     1       0.368  -3.012   0.078  0.00  0.00    -0.101 NA
ATOM      4  C   UNL     1       1.731  -1.348   0.035  0.00  0.00    +0.253 A 
ATOM      5  C   UNL     1      -0.301  -1.883   0.039  0.00  0.00    +0.279 A 
ENDROOT
BRANCH   4   6
ATOM      6  C   UNL     1       2.849  -0.433   0.013  0.00  0.00    +0.089 C 
ATOM      7  C   UNL     1       4.161  -0.906   0.035  0.00  0.00    +0.141 C 
ATOM      8  C   UNL     1       2.602   0.939  -0.030  0.00  0.00    +0.011 C 
ATOM      9  C   UNL     1       4.980   1.367  -0.031  0.00  0.00    +0.142 C 
ATOM     10  C   UNL     1       5.227  -0.006   0.013  0.00  0.00    +0.074 C 
ATOM     11  C   UNL     1       3.667   1.839  -0.052  0.00  0.00    +0.037 C 
BRANCH   9  12
ATOM     12  O   UNL     1       6.019   2.245  -0.052  0.00  0.00    -0.471 OA
ATOM     13  C   UNL     1       5.695   3.634  -0.096  0.00  0.00    +0.252 C 
ENDBRANCH   9  12
BRANCH   7  14
ATOM     14  O   UNL     1       4.431  -2.242   0.077  0.00  0.00    -0.505 OA
ATOM     15  H   UNL     1       3.729  -2.862   0.093  0.00  0.00    +0.292 HD
ENDBRANCH   7  14
ENDBRANCH   4   6
BRANCH   5  16
ATOM     16  S   UNL     1      -2.037  -1.791   0.028  0.00  0.00    -0.050 S 
BRANCH  16  17
ATOM     17  C   UNL     1      -2.354   0.005  -0.031  0.00  0.00    +0.094 C 
BRANCH  17  20
ATOM     18 CL   UNL     1      -8.153   1.309   0.107  0.00  0.00    -0.061 Cl
ATOM     19  N   UNL     1      -5.787   1.081   1.141  0.00  0.00    -0.233 NA
ATOM     20  C   UNL     1      -3.825   0.321  -0.048  0.00  0.00    +0.008 C 
ATOM     21  C   UNL     1      -4.578   0.163  -1.206  0.00  0.00    +0.001 C 
ATOM     22  C   UNL     1      -4.471   0.779   1.089  0.00  0.00    +0.096 C 
ATOM     23  C   UNL     1      -5.936   0.463  -1.192  0.00  0.00    +0.031 C 
ATOM     24  C   UNL     1      -6.488   0.915  -0.004  0.00  0.00    +0.138 C 
ENDBRANCH  17  20
ENDBRANCH  16  17
ENDBRANCH   5  16
TORSDOF 6
