REMARK  Name = 135939
REMARK  12 active torsions:
REMARK  status: ('A' for Active; 'I' for Inactive)
REMARK    1  A    between atoms: C_1  and  C_2
REMARK    2  A    between atoms: C_1  and  C_13
REMARK    3  A    between atoms: C_2  and  C_3
REMARK    4  A    between atoms: C_3  and  C_4
REMARK    5  A    between atoms: C_4  and  N_5
REMARK    6  A    between atoms: C_4  and  C_10
REMARK    7  A    between atoms: C_10  and  O_11
REMARK    8  A    between atoms: C_13  and  N_14
REMARK    9  A    between atoms: N_14  and  C_19
REMARK   10  A    between atoms: N_18  and  N_21
REMARK   11  A    between atoms: N_18  and  C_22
REMARK   12  A    between atoms: C_22  and  C_24
REMARK                            x       y       z     vdW  Elec       q    Type
REMARK                         _______ _______ _______ _____ _____    ______ ____
ROOT
ATOM      1  C   UNK     1       1.129   2.206  -0.494  0.00  0.00    +0.020 C 
ENDROOT
BRANCH   1   2
ATOM      2  C   UNK     1       2.084   1.179   0.128  0.00  0.00    +0.000 C 
BRANCH   2   3
ATOM      3  C   UNK     1       3.297   0.840  -0.744  0.00  0.00    -0.011 C 
BRANCH   3   4
ATOM      4  C   UNK     1       4.252  -0.155  -0.070  0.00  0.00    +0.036 C 
BRANCH   4   5
ATOM      5  N   UNK     1       5.384  -0.418  -0.961  0.00  0.00    +0.389 N 
ATOM      6  H   UNK     1       5.868   0.456  -1.164  0.00  0.00    -0.088 HD
ATOM      7  H   UNK     1       5.044  -0.828  -1.831  0.00  0.00    -0.088 HD
ATOM      8  H   UNK     1       6.029  -1.067  -0.509  0.00  0.00    -0.088 HD
ENDBRANCH   4   5
BRANCH   4  10
ATOM      9  O   UNK     1       3.488  -2.407  -0.603  0.00  0.00    -0.253 OA
ATOM     10  C   UNK     1       3.569  -1.485   0.199  0.00  0.00    +0.293 C 
BRANCH  10  11
ATOM     11  O   UNK     1       3.022  -1.542   1.441  0.00  0.00    -0.482 OA
ATOM     12  H   UNK     1       3.107  -0.813   2.024  0.00  0.00    +0.295 HD
ENDBRANCH  10  11
ENDBRANCH   4  10
ENDBRANCH   3   4
ENDBRANCH   2   3
ENDBRANCH   1   2
BRANCH   1  13
ATOM     13  C   UNK     1      -0.016   2.650   0.411  0.00  0.00    +0.073 C 
BRANCH  13  14
ATOM     14  N   UNK     1      -0.890   1.573   0.780  0.00  0.00    -0.354 NA
ATOM     15  H   UNK     1      -0.691   1.059   1.596  0.00  0.00    +0.128 HD
ATOM     16  H   UNK     1      -1.258   0.732   1.135  0.00  0.00    +0.128 HD
BRANCH  14  19
ATOM     17  O   UNK     1      -2.309   1.839  -1.010  0.00  0.00    -0.253 OA
ATOM     18  N   UNK     1      -2.770   0.151   0.509  0.00  0.00    -0.164 N 
ATOM     19  C   UNK     1      -2.013   1.228   0.022  0.00  0.00    +0.304 C 
BRANCH  18  21
ATOM     20  O   UNK     1      -3.109  -1.478   2.078  0.00  0.00    -0.078 OA
ATOM     21  N   UNK     1      -2.358  -0.549   1.760  0.00  0.00    +0.054 NA
ENDBRANCH  18  21
BRANCH  18  22
ATOM     22  C   UNK     1      -3.964  -0.314  -0.185  0.00  0.00    +0.134 C 
BRANCH  22  24
ATOM     23 CL   UNK     1      -5.139  -1.928  -2.046  0.00  0.00    -0.112 Cl
ATOM     24  C   UNK     1      -3.659  -1.389  -1.214  0.00  0.00    +0.118 C 
ENDBRANCH  22  24
ENDBRANCH  18  22
ENDBRANCH  14  19
ENDBRANCH  13  14
ENDBRANCH   1  13
TORSDOF 12
