REMARK  Name = 135936862
REMARK  8 active torsions:
REMARK  status: ('A' for Active; 'I' for Inactive)
REMARK    1  A    between atoms: C_2  and  C_7
REMARK    2  A    between atoms: C_3  and  C_18
REMARK    3  A    between atoms: C_4  and  O_29
REMARK    4  A    between atoms: C_5  and  N_32
REMARK    5  A    between atoms: C_10  and  N_15
REMARK    6  A    between atoms: C_12  and  O_16
REMARK    7  A    between atoms: C_21  and  N_26
REMARK    8  A    between atoms: C_23  and  O_27
REMARK                            x       y       z     vdW  Elec       q    Type
REMARK                         _______ _______ _______ _____ _____    ______ ____
ROOT
ATOM      1  N   UNL     1       1.122  -3.694  -0.119  0.00  0.00    -0.308 N 
ATOM      2  C   UNL     1      -0.186  -1.902  -0.229  0.00  0.00    +0.054 A 
ATOM      3  C   UNL     1       1.127  -1.484   0.101  0.00  0.00    +0.041 A 
ATOM      4  C   UNL     1      -0.160  -3.273  -0.359  0.00  0.00    +0.200 A 
ATOM      5  C   UNL     1       1.915  -2.612   0.162  0.00  0.00    +0.172 A 
ATOM      6  H   UNL     1       1.427  -4.630  -0.145  0.00  0.00    +0.170 HD
ENDROOT
BRANCH   2   7
ATOM      7  C   UNL     1      -1.380  -1.126  -0.414  0.00  0.00    +0.006 C 
ATOM      8  C   UNL     1      -1.875  -0.346   0.631  0.00  0.00    +0.027 C 
ATOM      9  C   UNL     1      -2.047  -1.154  -1.639  0.00  0.00    +0.003 C 
ATOM     10  C   UNL     1      -3.035   0.406   0.452  0.00  0.00    +0.176 C 
ATOM     11  C   UNL     1      -3.207  -0.401  -1.819  0.00  0.00    +0.038 C 
ATOM     12  C   UNL     1      -3.701   0.379  -0.773  0.00  0.00    +0.156 C 
BRANCH  10  15
ATOM     13  O   UNL     1      -3.131   2.380   1.640  0.00  0.00    -0.126 OA
ATOM     14  O   UNL     1      -4.338   0.683   2.334  0.00  0.00    -0.126 OA
ATOM     15  N   UNL     1      -3.526   1.195   1.528  0.00  0.00    +0.061 N 
ENDBRANCH  10  15
BRANCH  12  16
ATOM     16  O   UNL     1      -4.838   1.105  -0.974  0.00  0.00    -0.504 OA
ATOM     17  H   UNL     1      -5.184   1.634  -0.283  0.00  0.00    +0.292 HD
ENDBRANCH  12  16
ENDBRANCH   2   7
BRANCH   3  18
ATOM     18  C   UNL     1       1.620  -0.157   0.341  0.00  0.00    +0.005 C 
ATOM     19  C   UNL     1       1.532   0.811  -0.660  0.00  0.00    +0.027 C 
ATOM     20  C   UNL     1       2.189   0.165   1.573  0.00  0.00    +0.003 C 
ATOM     21  C   UNL     1       2.012   2.100  -0.428  0.00  0.00    +0.176 C 
ATOM     22  C   UNL     1       2.669   1.453   1.805  0.00  0.00    +0.038 C 
ATOM     23  C   UNL     1       2.580   2.421   0.804  0.00  0.00    +0.156 C 
BRANCH  21  26
ATOM     24  O   UNL     1       0.886   3.790  -1.522  0.00  0.00    -0.126 OA
ATOM     25  O   UNL     1       2.859   3.189  -2.276  0.00  0.00    -0.126 OA
ATOM     26  N   UNL     1       1.914   3.074  -1.459  0.00  0.00    +0.061 N 
ENDBRANCH  21  26
BRANCH  23  27
ATOM     27  O   UNL     1       3.057   3.674   1.056  0.00  0.00    -0.504 OA
ATOM     28  H   UNL     1       3.005   4.336   0.395  0.00  0.00    +0.292 HD
ENDBRANCH  23  27
ENDBRANCH   3  18
BRANCH   4  29
ATOM     29  O   UNL     1      -1.105  -4.156  -0.654  0.00  0.00    -0.493 OA
ATOM     30  H   UNL     1      -0.896  -5.069  -0.699  0.00  0.00    +0.294 HD
ENDBRANCH   4  29
BRANCH   5  32
ATOM     31  O   UNL     1       3.710  -3.835   0.433  0.00  0.00    -0.059 OA
ATOM     32  N   UNL     1       3.336  -2.685   0.466  0.00  0.00    -0.079 NA
ENDBRANCH   5  32
TORSDOF 8
