REMARK  Name = 135991651
REMARK  2 active torsions:
REMARK  status: ('A' for Active; 'I' for Inactive)
REMARK    1  A    between atoms: CA_10  and  C_18
REMARK    2  A    between atoms: C_18  and  O_19
REMARK                            x       y       z     vdW  Elec       q    Type
REMARK                         _______ _______ _______ _____ _____    ______ ____
ROOT
ATOM      1  O   UNL     1      -1.016   2.614   0.142  0.00  0.00    -0.267 OA
ATOM      2  N   UNL     1       0.196  -1.929  -0.126  0.00  0.00    -0.300 N 
ATOM      3  N   UNL     1       0.978   0.728   0.015  0.00  0.00    -0.389 NA
ATOM      4  N   UNL     1      -2.653   0.998   0.072  0.00  0.00    -0.242 N 
ATOM      5  N   UNL     1      -2.118  -1.281  -0.065  0.00  0.00    -0.356 NA
ATOM      6  N   UNL     1      -4.356  -0.592   0.000  0.00  0.00    -0.321 N 
ATOM      7  C   UNL     1       1.614  -1.684  -0.122  0.00  0.00    +0.156 C 
ATOM      8  C   UNL     1      -0.776  -0.944  -0.060  0.00  0.00    +0.218 C 
ATOM      9  C   UNL     1      -0.342   0.338   0.008  0.00  0.00    +0.228 C 
ATOM     10  CA  UNL     1       1.872  -0.206  -0.045  0.00  0.00    +0.204 C 
ATOM     11  C   UNL     1      -1.347   1.434   0.081  0.00  0.00    +0.286 C 
ATOM     12  C   UNL     1      -3.010  -0.336  -0.001  0.00  0.00    +0.239 C 
ATOM     13  H   UNL     1      -0.106  -2.865  -0.179  0.00  0.00    +0.150 HD
ATOM     14  H   UNL     1      -3.370   1.671   0.120  0.00  0.00    +0.159 HD
ATOM     15  H   UNL     1      -4.999   0.151   0.050  0.00  0.00    +0.146 HD
ATOM     16  H   UNL     1      -4.680  -1.521  -0.050  0.00  0.00    +0.146 HD
ENDROOT
BRANCH  10  18
ATOM     17  OXT UNL     1       3.757   0.947  -0.891  0.00  0.00    -0.243 OA
ATOM     18  C   UNL     1       3.297   0.223  -0.036  0.00  0.00    +0.366 C 
BRANCH  18  19
ATOM     19  O   UNL     1       3.906  -0.310   1.029  0.00  0.00    -0.476 OA
ATOM     20  H   UNL     1       3.426  -0.858   1.617  0.00  0.00    +0.295 HD
ENDBRANCH  18  19
ENDBRANCH  10  18
TORSDOF 2
