REMARK  Name = 135991838
REMARK  5 active torsions:
REMARK  status: ('A' for Active; 'I' for Inactive)
REMARK    1  A    between atoms: C_8  and  C_19
REMARK    2  A    between atoms: C_19  and  N_20
REMARK    3  A    between atoms: N_20  and  C_22
REMARK    4  A    between atoms: C_27  and  C_29
REMARK    5  A    between atoms: C_29  and  O_30
REMARK                            x       y       z     vdW  Elec       q    Type
REMARK                         _______ _______ _______ _____ _____    ______ ____
ROOT
ATOM      1  O   UNL     1      -2.731   0.040  -2.592  0.00  0.00    -0.272 OA
ATOM      2  O   UNL     1      -0.919  -3.163  -1.155  0.00  0.00    -0.265 OA
ATOM      3  N   UNL     1      -1.966  -1.329  -0.122  0.00  0.00    -0.257 N 
ATOM      4  N   UNL     1      -2.939  -0.136   2.162  0.00  0.00    -0.308 N 
ATOM      5  N   UNL     1      -4.213   1.429   0.894  0.00  0.00    -0.361 NA
ATOM      6  N   UNL     1      -4.219   1.323  -1.440  0.00  0.00    -0.246 N 
ATOM      7  N   UNL     1      -5.548   2.895  -0.353  0.00  0.00    -0.321 N 
ATOM      8  C   UNL     1      -1.252  -1.551   1.157  0.00  0.00    +0.116 C 
ATOM      9  C   UNL     1      -2.194  -1.356   2.345  0.00  0.00    +0.111 C 
ATOM     10  C   UNL     1      -2.855  -0.242  -0.201  0.00  0.00    +0.220 C 
ATOM     11  C   UNL     1      -3.332   0.362   0.925  0.00  0.00    +0.187 C 
ATOM     12  C   UNL     1      -3.256   0.340  -1.524  0.00  0.00    +0.255 C 
ATOM     13  C   UNL     1      -1.693  -2.209  -1.169  0.00  0.00    +0.304 C 
ATOM     14  C   UNL     1      -4.649   1.867  -0.249  0.00  0.00    +0.239 C 
ATOM     15  H   UNL     1      -3.185   0.378   2.965  0.00  0.00    +0.149 HD
ATOM     16  H   UNL     1      -4.621   1.653  -2.276  0.00  0.00    +0.159 HD
ATOM     17  H   UNL     1      -5.896   3.328   0.460  0.00  0.00    +0.146 HD
ATOM     18  H   UNL     1      -5.846   3.201  -1.240  0.00  0.00    +0.146 HD
ENDROOT
BRANCH   8  19
ATOM     19  C   UNL     1      -0.009  -0.660   1.245  0.00  0.00    +0.109 C 
BRANCH  19  20
ATOM     20  N   UNL     1       1.022  -1.187   0.394  0.00  0.00    -0.331 N 
ATOM     21  H   UNL     1       0.826  -2.006  -0.116  0.00  0.00    +0.147 HD
BRANCH  20  22
ATOM     22  C   UNL     1       2.278  -0.611   0.247  0.00  0.00    +0.045 C 
ATOM     23  C   UNL     1       2.600   0.550   0.950  0.00  0.00    +0.015 C 
ATOM     24  C   UNL     1       3.216  -1.194  -0.605  0.00  0.00    +0.015 C 
ATOM     25  C   UNL     1       3.860   1.129   0.801  0.00  0.00    +0.008 C 
ATOM     26  C   UNL     1       4.477  -0.616  -0.753  0.00  0.00    +0.008 C 
ATOM     27  C   UNL     1       4.799   0.545  -0.051  0.00  0.00    +0.076 C 
BRANCH  27  29
ATOM     28  O   UNL     1       6.504   2.171   0.368  0.00  0.00    -0.245 OA
ATOM     29  C   UNL     1       6.113   1.148  -0.204  0.00  0.00    +0.338 C 
BRANCH  29  30
ATOM     30  O   UNL     1       6.905   0.456  -1.069  0.00  0.00    -0.477 OA
ATOM     31  H   UNL     1       6.579  -0.317  -1.487  0.00  0.00    +0.295 HD
ENDBRANCH  29  30
ENDBRANCH  27  29
ENDBRANCH  20  22
ENDBRANCH  19  20
ENDBRANCH   8  19
TORSDOF 5
