135941
  -OEChem-03292013323D

 41 41  0     1  0  0  0  0  0999 V2000
   -0.4668    1.0048    1.5397 O   0  0  0  0  0  0  0  0  0  0  0  0
   -2.2741    3.5215    1.0228 O   0  0  0  0  0  0  0  0  0  0  0  0
    2.3698    3.3198   -0.6221 O   0  0  0  0  0  0  0  0  0  0  0  0
    4.0552    2.2052    0.3914 O   0  0  0  0  0  0  0  0  0  0  0  0
   -2.4553   -1.0132   -1.2741 O   0  0  0  0  0  0  0  0  0  0  0  0
    0.6614    1.3446   -0.4597 N   0  0  0  0  0  0  0  0  0  0  0  0
   -2.8062    0.8374    0.0857 N   0  0  0  0  0  0  0  0  0  0  0  0
   -4.1117   -2.5015    0.3414 N   0  0  0  0  0  0  0  0  0  0  0  0
    1.9818    1.0147    0.0242 C   0  0  1  0  0  0  0  0  0  0  0  0
    2.5855   -0.1524   -0.7679 C   0  0  0  0  0  0  0  0  0  0  0  0
   -1.7355    1.6561   -0.4212 C   0  0  2  0  0  0  0  0  0  0  0  0
   -0.4656    1.3113    0.3492 C   0  0  0  0  0  0  0  0  0  0  0  0
    2.0376   -1.4951   -0.3478 C   0  0  0  0  0  0  0  0  0  0  0  0
   -2.0705    3.1416   -0.3335 C   0  0  0  0  0  0  0  0  0  0  0  0
    2.9074    2.2207   -0.0409 C   0  0  0  0  0  0  0  0  0  0  0  0
    2.6644   -2.2173    0.6678 C   0  0  0  0  0  0  0  0  0  0  0  0
    0.9045   -2.0134   -0.9750 C   0  0  0  0  0  0  0  0  0  0  0  0
   -3.0822   -0.4412   -0.3851 C   0  0  0  0  0  0  0  0  0  0  0  0
    2.1583   -3.4578    1.0561 C   0  0  0  0  0  0  0  0  0  0  0  0
    0.3984   -3.2538   -0.5865 C   0  0  0  0  0  0  0  0  0  0  0  0
    1.0253   -3.9760    0.4291 C   0  0  0  0  0  0  0  0  0  0  0  0
   -4.2818   -1.0560    0.3064 C   0  0  0  0  0  0  0  0  0  0  0  0
    1.9116    0.7586    1.0886 H   0  0  0  0  0  0  0  0  0  0  0  0
    3.6767   -0.1781   -0.6457 H   0  0  0  0  0  0  0  0  0  0  0  0
    2.4251   -0.0108   -1.8456 H   0  0  0  0  0  0  0  0  0  0  0  0
   -1.5925    1.3941   -1.4769 H   0  0  0  0  0  0  0  0  0  0  0  0
    0.5742    1.6532   -1.4237 H   0  0  0  0  0  0  0  0  0  0  0  0
   -2.9900    3.3652   -0.8837 H   0  0  0  0  0  0  0  0  0  0  0  0
   -1.2638    3.7578   -0.7439 H   0  0  0  0  0  0  0  0  0  0  0  0
   -3.3508    1.2037    0.8613 H   0  0  0  0  0  0  0  0  0  0  0  0
    3.5462   -1.8229    1.1657 H   0  0  0  0  0  0  0  0  0  0  0  0
    0.4086   -1.4614   -1.7688 H   0  0  0  0  0  0  0  0  0  0  0  0
    2.6459   -4.0197    1.8473 H   0  0  0  0  0  0  0  0  0  0  0  0
   -0.4844   -3.6569   -1.0742 H   0  0  0  0  0  0  0  0  0  0  0  0
    0.6307   -4.9415    0.7318 H   0  0  0  0  0  0  0  0  0  0  0  0
   -5.1847   -0.7852   -0.2497 H   0  0  0  0  0  0  0  0  0  0  0  0
   -4.3713   -0.6784    1.3295 H   0  0  0  0  0  0  0  0  0  0  0  0
   -1.4245    3.4335    1.4870 H   0  0  0  0  0  0  0  0  0  0  0  0
    3.0022    4.0693   -0.6447 H   0  0  0  0  0  0  0  0  0  0  0  0
   -4.9209   -2.9248    0.7941 H   0  0  0  0  0  0  0  0  0  0  0  0
   -4.0985   -2.8681   -0.6099 H   0  0  0  0  0  0  0  0  0  0  0  0
  1 12  2  0  0  0  0
  2 14  1  0  0  0  0
  2 38  1  0  0  0  0
  3 15  1  0  0  0  0
  3 39  1  0  0  0  0
  4 15  2  0  0  0  0
  5 18  2  0  0  0  0
  6  9  1  0  0  0  0
  6 12  1  0  0  0  0
  6 27  1  0  0  0  0
  7 11  1  0  0  0  0
  7 18  1  0  0  0  0
  7 30  1  0  0  0  0
  8 22  1  0  0  0  0
  8 40  1  0  0  0  0
  8 41  1  0  0  0  0
  9 10  1  0  0  0  0
  9 15  1  0  0  0  0
  9 23  1  0  0  0  0
 10 13  1  0  0  0  0
 10 24  1  0  0  0  0
 10 25  1  0  0  0  0
 11 12  1  0  0  0  0
 11 14  1  0  0  0  0
 11 26  1  0  0  0  0
 13 16  2  0  0  0  0
 13 17  1  0  0  0  0
 14 28  1  0  0  0  0
 14 29  1  0  0  0  0
 16 19  1  0  0  0  0
 16 31  1  0  0  0  0
 17 20  2  0  0  0  0
 17 32  1  0  0  0  0
 18 22  1  0  0  0  0
 19 21  2  0  0  0  0
 19 33  1  0  0  0  0
 20 21  1  0  0  0  0
 20 34  1  0  0  0  0
 21 35  1  0  0  0  0
 22 36  1  0  0  0  0
 22 37  1  0  0  0  0
M  END
> <PUBCHEM_COMPOUND_CID>
135941

> <PUBCHEM_CONFORMER_RMSD>
1

> <PUBCHEM_CONFORMER_DIVERSEORDER>
1
23
3
19
12
26
14
7
21
25
22
15
28
2
20
18
13
6
17
27
4
9
8
10
11
16
5
24

> <PUBCHEM_MMFF94_PARTIAL_CHARGES>
33
1 -0.57
10 0.14
11 0.36
12 0.57
13 -0.14
14 0.28
15 0.66
16 -0.15
17 -0.15
18 0.57
19 -0.15
2 -0.68
20 -0.15
21 -0.15
22 0.33
27 0.37
3 -0.65
30 0.37
31 0.15
32 0.15
33 0.15
34 0.15
35 0.15
38 0.4
39 0.5
4 -0.57
40 0.36
41 0.36
5 -0.57
6 -0.73
7 -0.73
8 -0.99
9 0.36

> <PUBCHEM_EFFECTIVE_ROTOR_COUNT>
10

> <PUBCHEM_PHARMACOPHORE_FEATURES>
12
1 1 acceptor
1 2 acceptor
1 2 donor
1 3 acceptor
1 4 acceptor
1 5 acceptor
1 6 donor
1 7 donor
1 8 cation
1 8 donor
3 3 4 15 anion
6 13 16 17 19 20 21 rings

> <PUBCHEM_HEAVY_ATOM_COUNT>
22

> <PUBCHEM_ATOM_DEF_STEREO_COUNT>
2

> <PUBCHEM_ATOM_UDEF_STEREO_COUNT>
0

> <PUBCHEM_BOND_DEF_STEREO_COUNT>
0

> <PUBCHEM_BOND_UDEF_STEREO_COUNT>
0

> <PUBCHEM_ISOTOPIC_ATOM_COUNT>
0

> <PUBCHEM_COMPONENT_COUNT>
1

> <PUBCHEM_CACTVS_TAUTO_COUNT>
4

> <PUBCHEM_CONFORMER_ID>
0002130500000001

> <PUBCHEM_MMFF94_ENERGY>
43.2544

> <PUBCHEM_FEATURE_SELFOVERLAP>
60.961

> <PUBCHEM_SHAPE_FINGERPRINT>
10616163 171 18411984624521431359
1100329 8 18266170824515278178
12553582 1 17619350909747259310
12839892 36 18337371825790691088
13140716 1 18268708321042358680
14178342 30 18268420240231821768
14251705 54 18337952268845695827
14251757 5 17187021790623466766
14790565 3 18050296061497816301
14866123 147 18193260001254638978
19591789 44 18050286161022555935
21421861 104 18339372868196635427
23558518 356 18262244330700310225
23559900 14 18338223865228684193
3052486 1 17619046774338796954
5486654 2 18122631822923244668
7097593 13 18121223073628433829
81228 2 17548431748673868872

> <PUBCHEM_SHAPE_MULTIPOLES>
408.46
6.47
5.51
1.02
3.59
0.41
-0.08
-1.76
-0.83
-1.55
-0.41
-0.05
-0.16
-0.63

> <PUBCHEM_SHAPE_SELFOVERLAP>
830.41

> <PUBCHEM_SHAPE_VOLUME>
234.9

> <PUBCHEM_COORDINATE_TYPE>
2
5
10

$$$$
