REMARK  Name = 135929552
REMARK  3 active torsions:
REMARK  status: ('A' for Active; 'I' for Inactive)
REMARK    1  A    between atoms: N_4  and  C_12
REMARK    2  A    between atoms: C_10  and  N_23
REMARK    3  A    between atoms: C_13  and  C_20
REMARK                            x       y       z     vdW  Elec       q    Type
REMARK                         _______ _______ _______ _____ _____    ______ ____
ROOT
ATOM      1 CL   UNL     1      -3.379   2.796   0.000  0.00  0.00    -0.080 Cl
ATOM      2  N   UNL     1      -1.629  -2.148   0.001  0.00  0.00    -0.283 N 
ATOM      3  N   UNL     1       1.611   1.013   0.000  0.00  0.00    -0.308 N 
ATOM      4  C   UNL     1      -0.249  -0.395  -0.001  0.00  0.00    +0.031 A 
ATOM      5  C   UNL     1      -1.628  -0.847   0.000  0.00  0.00    +0.067 A 
ATOM      6  C   UNL     1       0.607  -1.547  -0.001  0.00  0.00    +0.019 C 
ATOM      7  C   UNL     1       0.236   0.840   0.000  0.00  0.00    +0.065 A 
ATOM      8  C   UNL     1      -0.249  -2.580   0.001  0.00  0.00    +0.066 C 
ATOM      9  C   UNL     1      -2.669   0.203  -0.001  0.00  0.00    +0.067 A 
ATOM     10  C   UNL     1       2.044  -1.376  -0.001  0.00  0.00    +0.021 C 
ATOM     11  C   UNL     1      -0.773   1.925   0.001  0.00  0.00    +0.086 A 
ATOM     12  C   UNL     1       2.476  -0.089  -0.001  0.00  0.00    +0.102 C 
ATOM     13  C   UNL     1      -2.231   1.486   0.000  0.00  0.00    +0.087 A 
ATOM     14  C   UNL     1      -2.695  -3.147   0.003  0.00  0.00    +0.117 C 
ATOM     15  H   UNL     1       1.986   1.924   0.001  0.00  0.00    +0.152 HD
ENDROOT
BRANCH  12  18
ATOM     16  O   UNL     1       4.733  -0.764   0.000  0.00  0.00    -0.269 OA
ATOM     17  N   UNL     1       4.247   1.493   0.000  0.00  0.00    -0.324 N 
ATOM     18  C   UNL     1       3.918   0.157   0.000  0.00  0.00    +0.256 C 
ATOM     19  H   UNL     1       5.193   1.767   0.000  0.00  0.00    +0.145 HD
ATOM     20  H   UNL     1       3.537   2.175   0.000  0.00  0.00    +0.145 HD
ENDBRANCH  12  18
BRANCH   9  21
ATOM     21  N   UNL     1      -3.977  -0.185  -0.003  0.00  0.00    -0.355 N 
ATOM     22  H   UNL     1      -4.206  -1.143  -0.003  0.00  0.00    +0.142 HD
ATOM     23  H   UNL     1      -4.691   0.492  -0.004  0.00  0.00    +0.142 HD
ENDBRANCH   9  21
BRANCH  11  24
ATOM     24  N   UNL     1      -0.395   3.165   0.003  0.00  0.00    -0.263 NA
ATOM     25  H   UNL     1       0.565   3.386   0.003  0.00  0.00    +0.170 HD
ENDBRANCH  11  24
TORSDOF 3
