REMARK  Name = 135912123
REMARK  9 active torsions:
REMARK  status: ('A' for Active; 'I' for Inactive)
REMARK    1  A    between atoms: C_1  and  C_4
REMARK    2  A    between atoms: C_1  and  O_14
REMARK    3  A    between atoms: C_1  and  C_16
REMARK    4  A    between atoms: C_6  and  C_11
REMARK    5  A    between atoms: C_16  and  O_17
REMARK    6  A    between atoms: C_16  and  C_19
REMARK    7  A    between atoms: C_19  and  O_20
REMARK    8  A    between atoms: C_19  and  C_22
REMARK    9  A    between atoms: C_22  and  O_23
REMARK                            x       y       z     vdW  Elec       q    Type
REMARK                         _______ _______ _______ _____ _____    ______ ____
ROOT
ATOM      1  C   UNL     1       1.525  -0.477   0.854  0.00  0.00    +0.176 C 
ENDROOT
BRANCH   1   4
ATOM      2  N   UNL     1      -0.904   0.137   0.502  0.00  0.00    -0.315 N 
ATOM      3  N   UNL     1      -1.802  -1.672  -0.422  0.00  0.00    -0.312 N 
ATOM      4  C   UNL     1       0.111  -0.772   0.395  0.00  0.00    +0.067 C 
ATOM      5  C   UNL     1      -0.467  -1.880  -0.178  0.00  0.00    +0.072 C 
ATOM      6  C   UNL     1      -2.033  -0.449  -0.001  0.00  0.00    +0.189 C 
ATOM      7  H   UNL     1      -0.836   1.046   0.874  0.00  0.00    +0.148 HD
ATOM      8  H   UNL     1      -2.444  -2.301  -0.823  0.00  0.00    +0.149 HD
BRANCH   6  11
ATOM      9  O   UNL     1      -4.869   1.739   0.157  0.00  0.00    -0.350 OA
ATOM     10  N   UNL     1      -3.524   1.467   0.381  0.00  0.00    -0.078 NA
ATOM     11  C   UNL     1      -3.347   0.218  -0.060  0.00  0.00    +0.138 C 
ATOM     12  C   UNL     1      -4.532  -0.342  -0.568  0.00  0.00    +0.065 C 
ATOM     13  C   UNL     1      -5.458   0.655  -0.408  0.00  0.00    +0.214 C 
ENDBRANCH   6  11
ENDBRANCH   1   4
BRANCH   1  14
ATOM     14  O   UNL     1       2.086  -1.689   1.354  0.00  0.00    -0.376 OA
ATOM     15  H   UNL     1       2.993  -1.526   1.655  0.00  0.00    +0.211 HD
ENDBRANCH   1  14
BRANCH   1  16
ATOM     16  C   UNL     1       2.394   0.101  -0.283  0.00  0.00    +0.172 C 
BRANCH  16  17
ATOM     17  O   UNL     1       2.391  -0.820  -1.376  0.00  0.00    -0.379 OA
ATOM     18  H   UNL     1       1.476  -1.007  -1.639  0.00  0.00    +0.211 HD
ENDBRANCH  16  17
BRANCH  16  19
ATOM     19  C   UNL     1       3.851   0.390   0.125  0.00  0.00    +0.169 C 
BRANCH  19  20
ATOM     20  O   UNL     1       3.859   1.377   1.157  0.00  0.00    -0.379 OA
ATOM     21  H   UNL     1       3.328   1.065   1.907  0.00  0.00    +0.211 HD
ENDBRANCH  19  20
BRANCH  19  22
ATOM     22  C   UNL     1       4.692   0.902  -1.043  0.00  0.00    +0.169 C 
BRANCH  22  23
ATOM     23  O   UNL     1       6.025   1.116  -0.589  0.00  0.00    -0.379 OA
ATOM     24  H   UNL     1       6.568   1.441  -1.323  0.00  0.00    +0.211 HD
ENDBRANCH  22  23
ENDBRANCH  19  22
ENDBRANCH  16  19
ENDBRANCH   1  16
TORSDOF 9
