REMARK  Name = 135992491
REMARK  5 active torsions:
REMARK  status: ('A' for Active; 'I' for Inactive)
REMARK    1  A    between atoms: C2*_2  and  O2*_17
REMARK    2  A    between atoms: C1*_3  and  N9_7
REMARK    3  A    between atoms: C3*_4  and  O3*_19
REMARK    4  A    between atoms: C4*_5  and  C5*_21
REMARK    5  A    between atoms: C5*_21  and  O5*_22
REMARK                            x       y       z     vdW  Elec       q    Type
REMARK                         _______ _______ _______ _____ _____    ______ ____
ROOT
ATOM      1  O4* I   A   1       1.954  -0.789   0.653  0.00  0.00    -0.333 OA
ATOM      2  C2* I   A   1       1.586   1.214  -0.581  0.00  0.00    +0.187 C 
ATOM      3  C1* I   A   1       0.986   0.261   0.450  0.00  0.00    +0.225 C 
ATOM      4  C3* I   A   1       3.071   1.035  -0.348  0.00  0.00    +0.171 C 
ATOM      5  C4* I   A   1       3.153  -0.455  -0.066  0.00  0.00    +0.175 C 
ENDROOT
BRANCH   3   7
ATOM      6  O6  I   A   1      -4.718  -1.181  -0.729  0.00  0.00    -0.268 OA
ATOM      7  N9  I   A   1      -0.343  -0.311   0.016  0.00  0.00    -0.247 N 
ATOM      8  N7  I   A   1      -1.801  -1.695  -0.965  0.00  0.00    -0.241 NA
ATOM      9  N3  I   A   1      -1.861   1.287   1.025  0.00  0.00    -0.232 NA
ATOM     10  N1  I   A   1      -4.140   0.691   0.540  0.00  0.00    -0.279 N 
ATOM     11  C4  I   A   1      -1.583   0.181   0.297  0.00  0.00    +0.154 C 
ATOM     12  C8  I   A   1      -0.526  -1.440  -0.745  0.00  0.00    +0.223 C 
ATOM     13  C5  I   A   1      -2.455  -0.689  -0.317  0.00  0.00    +0.162 C 
ATOM     14  C6  I   A   1      -3.873  -0.458  -0.217  0.00  0.00    +0.267 C 
ATOM     15  C2  I   A   1      -3.144   1.490   1.112  0.00  0.00    +0.220 C 
ATOM     16  H1  I   A   1      -5.080   0.950   0.678  0.00  0.00    +0.152 HD
ENDBRANCH   3   7
BRANCH   2  17
ATOM     17  O2* I   A   1       1.178   2.554  -0.363  0.00  0.00    -0.378 OA
ATOM     18  H2* I   A   1       0.224   2.631  -0.521  0.00  0.00    +0.211 HD
ENDBRANCH   2  17
BRANCH   4  19
ATOM     19  O3* I   A   1       3.813   1.399  -1.496  0.00  0.00    -0.379 OA
ATOM     20  H3* I   A   1       3.736   2.355  -1.642  0.00  0.00    +0.211 HD
ENDBRANCH   4  19
BRANCH   5  21
ATOM     21  C5* I   A   1       4.365  -0.847   0.760  0.00  0.00    +0.169 C 
BRANCH  21  22
ATOM     22  O5* I   A   1       4.339  -2.249   0.974  0.00  0.00    -0.379 OA
ATOM     23  H5* I   A   1       5.110  -2.509   1.501  0.00  0.00    +0.211 HD
ENDBRANCH  21  22
ENDBRANCH   5  21
TORSDOF 5
