REMARK  Name = 135941
REMARK  11 active torsions:
REMARK  status: ('A' for Active; 'I' for Inactive)
REMARK    1  A    between atoms: N_2  and  CA_5
REMARK    2  A    between atoms: C_3  and  CA_17
REMARK    3  A    between atoms: CA_5  and  C_7
REMARK    4  A    between atoms: CA_5  and  CB_10
REMARK    5  A    between atoms: C_7  and  O_8
REMARK    6  A    between atoms: CB_10  and  CG_11
REMARK    7  A    between atoms: CA_17  and  N_19
REMARK    8  A    between atoms: CA_17  and  CB_27
REMARK    9  A    between atoms: C_20  and  CA_22
REMARK   10  A    between atoms: CA_22  and  N_23
REMARK   11  A    between atoms: CB_27  and  OG_28
REMARK                            x       y       z     vdW  Elec       q    Type
REMARK                         _______ _______ _______ _____ _____    ______ ____
ROOT
ATOM      1  O   SER A   2      -0.467   1.005   1.540  0.00  0.00    -0.273 OA
ATOM      2  N   PHE A   3       0.661   1.345  -0.460  0.00  0.00    -0.295 N 
ATOM      3  C   SER A   2      -0.466   1.311   0.349  0.00  0.00    +0.243 C 
ATOM      4  H   PHE A   3       0.557   1.604  -1.404  0.00  0.00    +0.150 HD
ENDROOT
BRANCH   2   5
ATOM      5  CA  PHE A   3       1.982   1.015   0.024  0.00  0.00    +0.176 C 
BRANCH   5   7
ATOM      6  OXT PHE A   3       4.055   2.205   0.391  0.00  0.00    -0.248 OA
ATOM      7  C   PHE A   3       2.907   2.221  -0.041  0.00  0.00    +0.332 C 
BRANCH   7   8
ATOM      8  O   PHE A   3       2.370   3.320  -0.622  0.00  0.00    -0.479 OA
ATOM      9  H   PHE A   3       1.489   3.297  -0.942  0.00  0.00    +0.295 HD
ENDBRANCH   7   8
ENDBRANCH   5   7
BRANCH   5  10
ATOM     10  CB  PHE A   3       2.586  -0.152  -0.768  0.00  0.00    +0.057 C 
BRANCH  10  11
ATOM     11  CG  PHE A   3       2.038  -1.495  -0.348  0.00  0.00    -0.020 C 
ATOM     12  CD1 PHE A   3       2.664  -2.217   0.668  0.00  0.00    -0.004 C 
ATOM     13  CD2 PHE A   3       0.904  -2.013  -0.975  0.00  0.00    -0.004 C 
ATOM     14  CE1 PHE A   3       2.158  -3.458   1.056  0.00  0.00    -0.000 C 
ATOM     15  CE2 PHE A   3       0.398  -3.254  -0.587  0.00  0.00    -0.000 C 
ATOM     16  CZ  PHE A   3       1.025  -3.976   0.429  0.00  0.00    -0.000 C 
ENDBRANCH  10  11
ENDBRANCH   5  10
ENDBRANCH   2   5
BRANCH   3  17
ATOM     17  CA  SER A   2      -1.736   1.656  -0.421  0.00  0.00    +0.178 C 
BRANCH  17  19
ATOM     18  O   GLY A   1      -2.455  -1.013  -1.274  0.00  0.00    -0.277 OA
ATOM     19  N   SER A   2      -2.806   0.837   0.086  0.00  0.00    -0.298 N 
ATOM     20  C   GLY A   1      -3.082  -0.441  -0.385  0.00  0.00    +0.201 C 
ATOM     21  H   SER A   2      -3.373   1.202   0.803  0.00  0.00    +0.150 HD
BRANCH  20  22
ATOM     22  CA  GLY A   1      -4.282  -1.056   0.306  0.00  0.00    +0.001 C 
BRANCH  22  23
ATOM     23  N   GLY A   1      -4.112  -2.502   0.341  0.00  0.00    +0.386 N 
ATOM     24  H1  GLY A   1      -4.914  -2.927   0.805  0.00  0.00    -0.089 HD
ATOM     25  H2  GLY A   1      -3.261  -2.731   0.855  0.00  0.00    -0.089 HD
ATOM     26  H3  GLY A   1      -4.041  -2.859  -0.611  0.00  0.00    -0.089 HD
ENDBRANCH  22  23
ENDBRANCH  20  22
ENDBRANCH  17  19
BRANCH  17  27
ATOM     27  CB  SER A   2      -2.071   3.142  -0.334  0.00  0.00    +0.166 C 
BRANCH  27  28
ATOM     28  OG  SER A   2      -2.274   3.522   1.023  0.00  0.00    -0.380 OA
ATOM     29  H   SER A   2      -2.486   4.467   1.065  0.00  0.00    +0.211 HD
ENDBRANCH  27  28
ENDBRANCH  17  27
ENDBRANCH   3  17
TORSDOF 11
