REMARK  Name = 135901
REMARK  8 active torsions:
REMARK  status: ('A' for Active; 'I' for Inactive)
REMARK    1  A    between atoms: C_1  and  C_4
REMARK    2  A    between atoms: C_1  and  N_15
REMARK    3  A    between atoms: C_1  and  C_19
REMARK    4  A    between atoms: N_3  and  C_6
REMARK    5  A    between atoms: C_6  and  C_9
REMARK    6  A    between atoms: C_6  and  C_12
REMARK    7  A    between atoms: C_19  and  C_20
REMARK    8  A    between atoms: C_25  and  O_26
REMARK                            x       y       z     vdW  Elec       q    Type
REMARK                         _______ _______ _______ _____ _____    ______ ____
ROOT
ATOM      1  C   UNL     1      -0.084   2.450  -0.342  0.00  0.00    +0.017 C 
ENDROOT
BRANCH   1   4
ATOM      2  O   UNL     1      -1.042   1.593   1.711  0.00  0.00    -0.277 OA
ATOM      3  N   UNL     1      -1.536   0.507  -0.278  0.00  0.00    -0.300 N 
ATOM      4  C   UNL     1      -0.933   1.495   0.490  0.00  0.00    +0.202 C 
ATOM      5  H   UNL     1      -1.392   0.507  -1.252  0.00  0.00    +0.150 HD
BRANCH   3   6
ATOM      6  C   UNL     1      -2.365  -0.519   0.303  0.00  0.00    +0.148 C 
BRANCH   6   9
ATOM      7  O   UNL     1      -0.435  -1.995   0.189  0.00  0.00    -0.274 OA
ATOM      8  N   UNL     1      -1.913  -2.258   1.926  0.00  0.00    -0.327 N 
ATOM      9  C   UNL     1      -1.454  -1.645   0.780  0.00  0.00    +0.237 C 
ATOM     10  H   UNL     1      -1.403  -3.000   2.325  0.00  0.00    +0.145 HD
ATOM     11  H   UNL     1      -2.749  -1.954   2.346  0.00  0.00    +0.145 HD
ENDBRANCH   6   9
BRANCH   6  12
ATOM     12  C   UNL     1      -3.467  -1.023  -0.651  0.00  0.00    +0.027 C 
ATOM     13  C   UNL     1      -2.911  -1.714  -1.901  0.00  0.00    +0.002 C 
ATOM     14  C   UNL     1      -4.404   0.117  -1.061  0.00  0.00    +0.002 C 
ENDBRANCH   6  12
ENDBRANCH   3   6
ENDBRANCH   1   4
BRANCH   1  15
ATOM     15  N   UNL     1      -0.670   3.782  -0.184  0.00  0.00    +0.388 N 
ATOM     16  H   UNL     1      -0.131   4.457  -0.727  0.00  0.00    -0.089 HD
ATOM     17  H   UNL     1      -0.653   4.046   0.801  0.00  0.00    -0.089 HD
ATOM     18  H   UNL     1      -1.634   3.771  -0.517  0.00  0.00    -0.089 HD
ENDBRANCH   1  15
BRANCH   1  19
ATOM     19  C   UNL     1       1.370   2.457   0.152  0.00  0.00    +0.013 C 
BRANCH  19  20
ATOM     20  C   UNL     1       2.044   1.113   0.007  0.00  0.00    -0.024 C 
ATOM     21  C   UNL     1       1.972   0.203   1.049  0.00  0.00    -0.001 C 
ATOM     22  C   UNL     1       2.721   0.816  -1.164  0.00  0.00    -0.001 C 
ATOM     23  C   UNL     1       2.595  -1.038   0.916  0.00  0.00    +0.036 C 
ATOM     24  C   UNL     1       3.344  -0.425  -1.298  0.00  0.00    +0.036 C 
ATOM     25  C   UNL     1       3.280  -1.352  -0.257  0.00  0.00    +0.134 C 
BRANCH  25  26
ATOM     26  O   UNL     1       3.888  -2.563  -0.387  0.00  0.00    -0.506 OA
ATOM     27  H   UNL     1       3.845  -3.186   0.312  0.00  0.00    +0.292 HD
ENDBRANCH  25  26
ENDBRANCH  19  20
ENDBRANCH   1  19
TORSDOF 8
