135922
  -OEChem-03292013323D

 37 38  0     0  0  0  0  0  0999 V2000
    4.2342    2.1285   -2.1454 Br  0  0  0  0  0  0  0  0  0  0  0  0
   -4.6630    0.2955   -0.5220 S   0  0  0  0  0  0  0  0  0  0  0  0
   -5.2624   -0.8782    0.4406 O   0  0  0  0  0  0  0  0  0  0  0  0
   -5.4602    1.4880   -0.2958 O   0  0  0  0  0  0  0  0  0  0  0  0
   -4.4901   -0.2496   -1.8560 O   0  0  0  0  0  0  0  0  0  0  0  0
    5.7637   -0.6518   -0.8236 O   0  0  0  0  0  0  0  0  0  0  0  0
    1.6238   -0.6110    0.8914 N   0  0  0  0  0  0  0  0  0  0  0  0
    4.3727    0.2894    0.7826 N   0  0  0  0  0  0  0  0  0  0  0  0
   -0.7236    0.0242    0.5059 C   0  0  0  0  0  0  0  0  0  0  0  0
   -1.9932   -0.3063   -0.0250 C   0  0  0  0  0  0  0  0  0  0  0  0
    0.3336   -0.8914    0.3782 C   0  0  0  0  0  0  0  0  0  0  0  0
   -3.0504    0.6095    0.1023 C   0  0  0  0  0  0  0  0  0  0  0  0
    2.7144   -1.5238    0.7752 C   0  0  0  0  0  0  0  0  0  0  0  0
   -0.5485    1.2606    1.1485 C   0  0  0  0  0  0  0  0  0  0  0  0
   -2.1681   -1.5425   -0.6680 C   0  0  0  0  0  0  0  0  0  0  0  0
    0.1419   -2.1153   -0.2637 C   0  0  0  0  0  0  0  0  0  0  0  0
    3.9657   -0.9388    1.4114 C   0  0  0  0  0  0  0  0  0  0  0  0
   -2.8584    1.8334    0.7439 C   0  0  0  0  0  0  0  0  0  0  0  0
   -1.1066   -2.4400   -0.7858 C   0  0  0  0  0  0  0  0  0  0  0  0
   -1.6100    2.1584    1.2660 C   0  0  0  0  0  0  0  0  0  0  0  0
    5.2476    0.3310   -0.2945 C   0  0  0  0  0  0  0  0  0  0  0  0
    5.5368    1.7303   -0.7661 C   0  0  0  0  0  0  0  0  0  0  0  0
    2.4855   -2.4675    1.2844 H   0  0  0  0  0  0  0  0  0  0  0  0
    2.9263   -1.7392   -0.2794 H   0  0  0  0  0  0  0  0  0  0  0  0
    1.7875    0.2706    1.3571 H   0  0  0  0  0  0  0  0  0  0  0  0
    0.3979    1.5749    1.5766 H   0  0  0  0  0  0  0  0  0  0  0  0
   -3.1165   -1.8918   -1.0565 H   0  0  0  0  0  0  0  0  0  0  0  0
    0.9302   -2.8522   -0.3809 H   0  0  0  0  0  0  0  0  0  0  0  0
    3.7919   -0.7146    2.4697 H   0  0  0  0  0  0  0  0  0  0  0  0
    4.7858   -1.6625    1.3504 H   0  0  0  0  0  0  0  0  0  0  0  0
   -3.6563    2.5603    0.8608 H   0  0  0  0  0  0  0  0  0  0  0  0
   -1.2579   -3.3979   -1.2755 H   0  0  0  0  0  0  0  0  0  0  0  0
   -1.4617    3.1112    1.7660 H   0  0  0  0  0  0  0  0  0  0  0  0
    3.9870    1.1571    1.1433 H   0  0  0  0  0  0  0  0  0  0  0  0
   -5.3504   -0.6406    1.3936 H   0  0  0  0  0  0  0  0  0  0  0  0
    6.5335    1.7906   -1.2083 H   0  0  0  0  0  0  0  0  0  0  0  0
    5.4299    2.4720    0.0280 H   0  0  0  0  0  0  0  0  0  0  0  0
  1 22  1  0  0  0  0
  2  3  1  0  0  0  0
  2  4  2  0  0  0  0
  2  5  2  0  0  0  0
  2 12  1  0  0  0  0
  3 35  1  0  0  0  0
  6 21  2  0  0  0  0
  7 11  1  0  0  0  0
  7 13  1  0  0  0  0
  7 25  1  0  0  0  0
  8 17  1  0  0  0  0
  8 21  1  0  0  0  0
  8 34  1  0  0  0  0
  9 10  2  0  0  0  0
  9 11  1  0  0  0  0
  9 14  1  0  0  0  0
 10 12  1  0  0  0  0
 10 15  1  0  0  0  0
 11 16  2  0  0  0  0
 12 18  2  0  0  0  0
 13 17  1  0  0  0  0
 13 23  1  0  0  0  0
 13 24  1  0  0  0  0
 14 20  2  0  0  0  0
 14 26  1  0  0  0  0
 15 19  2  0  0  0  0
 15 27  1  0  0  0  0
 16 19  1  0  0  0  0
 16 28  1  0  0  0  0
 17 29  1  0  0  0  0
 17 30  1  0  0  0  0
 18 20  1  0  0  0  0
 18 31  1  0  0  0  0
 19 32  1  0  0  0  0
 20 33  1  0  0  0  0
 21 22  1  0  0  0  0
 22 36  1  0  0  0  0
 22 37  1  0  0  0  0
M  END
> <PUBCHEM_COMPOUND_CID>
135922

> <PUBCHEM_CONFORMER_RMSD>
0.8

> <PUBCHEM_CONFORMER_DIVERSEORDER>
2
21
55
27
48
18
15
37
41
40
31
52
4
13
54
39
44
28
33
38
22
9
35
24
42
32
30
29
46
19
11
20
53
45
36
26
1
8
34
47
49
25
23
6
43
7
50
14
16
3
5
51
17
56
10
12

> <PUBCHEM_MMFF94_PARTIAL_CHARGES>
29
1 -0.23
11 0.1
12 -0.01
13 0.37
14 -0.15
15 -0.15
16 -0.15
17 0.3
18 -0.15
19 -0.15
2 1.49
20 -0.15
21 0.57
22 0.29
25 0.4
26 0.15
27 0.15
28 0.15
3 -0.68
31 0.15
32 0.15
33 0.15
34 0.37
35 0.5
4 -0.65
5 -0.65
6 -0.57
7 -0.87
8 -0.73

> <PUBCHEM_EFFECTIVE_ROTOR_COUNT>
7

> <PUBCHEM_PHARMACOPHORE_FEATURES>
11
1 1 hydrophobe
1 3 acceptor
1 4 acceptor
1 5 acceptor
1 6 acceptor
1 7 cation
1 7 donor
1 8 donor
4 2 3 4 5 anion
6 9 10 11 15 16 19 rings
6 9 10 12 14 18 20 rings

> <PUBCHEM_HEAVY_ATOM_COUNT>
22

> <PUBCHEM_ATOM_DEF_STEREO_COUNT>
0

> <PUBCHEM_ATOM_UDEF_STEREO_COUNT>
0

> <PUBCHEM_BOND_DEF_STEREO_COUNT>
0

> <PUBCHEM_BOND_UDEF_STEREO_COUNT>
0

> <PUBCHEM_ISOTOPIC_ATOM_COUNT>
0

> <PUBCHEM_COMPONENT_COUNT>
1

> <PUBCHEM_CACTVS_TAUTO_COUNT>
2

> <PUBCHEM_CONFORMER_ID>
000212F200000002

> <PUBCHEM_MMFF94_ENERGY>
59.7987

> <PUBCHEM_FEATURE_SELFOVERLAP>
55.903

> <PUBCHEM_SHAPE_FINGERPRINT>
10498660 4 18272088340282174642
10670039 82 18341619157894684300
10906281 52 18271252604308369857
12236239 1 18333448742385230514
12390115 104 17488753259663365873
12788726 201 18060420170685590984
13140716 1 18057592356461588435
13583140 156 17386014978461740432
14251764 38 17240762835397441540
14420673 8 8139883064736751064
14528608 73 18334576845747452448
14767858 380 18342447171427523359
14787075 74 18334573581541127251
14790565 3 18201159867160810017
14840074 17 18113910355068444876
15342168 16 17531535377443440822
15475509 8 16988299606972734193
15575132 122 18334575694290574837
21033648 29 15502369046179353798
21267235 1 17989197184369193815
21298829 104 18259706709672504228
22079108 93 16877944966266461530
23227448 37 17895479236311143894
23366157 5 17907865006928130875
23402539 116 17916847063833970695
23557571 272 17132120121595096016
23559900 14 17916862560255693440
2838139 119 17314487272019929965
3004659 81 18271525296140698658
3472631 163 18336550507948011964
3759504 43 18259982695253476115
474 4 17967536792132008242
5486654 2 18273209781897049179
6034566 193 17025739223855695996

> <PUBCHEM_SHAPE_MULTIPOLES>
429.1
12.92
2.46
1.5
8.11
0.11
-0.36
4.79
-3.8
0.55
-0.37
0.69
0.51
-2.27

> <PUBCHEM_SHAPE_SELFOVERLAP>
882.056

> <PUBCHEM_SHAPE_VOLUME>
251.5

> <PUBCHEM_COORDINATE_TYPE>
2
5
10

$$$$
