REMARK  Name = 135905454
REMARK  6 active torsions:
REMARK  status: ('A' for Active; 'I' for Inactive)
REMARK    1  A    between atoms: C_4  and  C_13
REMARK    2  A    between atoms: C_8  and  C_36
REMARK    3  A    between atoms: C_9  and  C_21
REMARK    4  A    between atoms: C_18  and  C_19
REMARK    5  A    between atoms: C_26  and  O_27
REMARK    6  A    between atoms: O_27  and  C_28
REMARK                            x       y       z     vdW  Elec       q    Type
REMARK                         _______ _______ _______ _____ _____    ______ ____
ROOT
ATOM      1  N   UNL     1      -1.750   1.741  -0.545  0.00  0.00    -0.240 N 
ATOM      2  N   UNL     1      -1.954   3.815   0.573  0.00  0.00    -0.318 N 
ATOM      3  N   UNL     1      -0.860   0.818  -0.950  0.00  0.00    -0.168 NA
ATOM      4  C   UNL     1      -3.172   1.595  -0.830  0.00  0.00    +0.108 C 
ATOM      5  C   UNL     1      -3.843   2.979  -0.765  0.00  0.00    +0.046 C 
ATOM      6  C   UNL     1      -3.405   3.758   0.480  0.00  0.00    +0.090 C 
ATOM      7  C   UNL     1      -1.192   2.796   0.124  0.00  0.00    +0.131 A 
ATOM      8  C   UNL     1       0.158   2.542   0.163  0.00  0.00    +0.103 A 
ATOM      9  C   UNL     1       0.303   1.312  -0.511  0.00  0.00    +0.108 A 
ATOM     10  H   UNL     1      -1.523   4.606   0.968  0.00  0.00    +0.148 HD
ENDROOT
BRANCH   4  13
ATOM     11  O   UNL     1      -7.172  -3.077   0.145  0.00  0.00    -0.270 OA
ATOM     12  N   UNL     1      -5.242  -1.885   0.662  0.00  0.00    -0.276 N 
ATOM     13  C   UNL     1      -3.819   0.596   0.126  0.00  0.00    +0.026 C 
ATOM     14  C   UNL     1      -5.315   0.438  -0.177  0.00  0.00    +0.023 C 
ATOM     15  C   UNL     1      -3.121  -0.768   0.045  0.00  0.00    +0.023 C 
ATOM     16  C   UNL     1      -5.951  -0.605   0.737  0.00  0.00    +0.094 C 
ATOM     17  C   UNL     1      -3.800  -1.804   0.942  0.00  0.00    +0.094 C 
ATOM     18  C   UNL     1      -5.962  -3.042   0.376  0.00  0.00    +0.249 C 
BRANCH  18  19
ATOM     19  C   UNL     1      -5.226  -4.322   0.351  0.00  0.00    +0.058 C 
ATOM     20  C   UNL     1      -5.653  -5.296  -0.456  0.00  0.00    +0.005 C 
ENDBRANCH  18  19
ENDBRANCH   4  13
BRANCH   9  21
ATOM     21  C   UNL     1       1.528   0.593  -0.751  0.00  0.00    +0.020 C 
ATOM     22  C   UNL     1       1.982  -0.344   0.178  0.00  0.00    +0.005 C 
ATOM     23  C   UNL     1       2.263   0.836  -1.911  0.00  0.00    +0.005 C 
ATOM     24  C   UNL     1       3.169  -1.038  -0.054  0.00  0.00    +0.038 C 
ATOM     25  C   UNL     1       3.451   0.142  -2.143  0.00  0.00    +0.038 C 
ATOM     26  C   UNL     1       3.904  -0.795  -1.215  0.00  0.00    +0.145 C 
BRANCH  26  27
ATOM     27  O   UNL     1       5.062  -1.472  -1.443  0.00  0.00    -0.453 OA
BRANCH  27  28
ATOM     28  C   UNL     1       5.953  -1.595  -0.390  0.00  0.00    +0.145 C 
ATOM     29  C   UNL     1       6.249  -0.489   0.407  0.00  0.00    +0.037 C 
ATOM     30  C   UNL     1       6.556  -2.825  -0.126  0.00  0.00    +0.037 C 
ATOM     31  C   UNL     1       7.147  -0.613   1.468  0.00  0.00    +0.003 C 
ATOM     32  C   UNL     1       7.453  -2.950   0.934  0.00  0.00    +0.003 C 
ATOM     33  C   UNL     1       7.749  -1.843   1.731  0.00  0.00    +0.000 C 
ENDBRANCH  27  28
ENDBRANCH  26  27
ENDBRANCH   9  21
BRANCH   8  36
ATOM     34  O   UNL     1       0.863   4.451   1.350  0.00  0.00    -0.270 OA
ATOM     35  N   UNL     1       2.493   2.970   0.711  0.00  0.00    -0.325 N 
ATOM     36  C   UNL     1       1.154   3.379   0.765  0.00  0.00    +0.247 C 
ATOM     37  H   UNL     1       3.195   3.528   1.117  0.00  0.00    +0.145 HD
ATOM     38  H   UNL     1       2.732   2.125   0.266  0.00  0.00    +0.145 HD
ENDBRANCH   8  36
TORSDOF 6
