REMARK  Name = 135922
REMARK  6 active torsions:
REMARK  status: ('A' for Active; 'I' for Inactive)
REMARK    1  A    between atoms: C_3  and  N_15
REMARK    2  A    between atoms: C_4  and  S_11
REMARK    3  A    between atoms: N_15  and  C_17
REMARK    4  A    between atoms: C_17  and  C_18
REMARK    5  A    between atoms: C_18  and  N_20
REMARK    6  A    between atoms: C_21  and  C_24
REMARK                            x       y       z     vdW  Elec       q    Type
REMARK                         _______ _______ _______ _____ _____    ______ ____
ROOT
ATOM      1  C   UNL     1      -0.724   0.024   0.506  0.00  0.00    +0.014 C 
ATOM      2  C   UNL     1      -1.993  -0.306  -0.025  0.00  0.00    +0.019 C 
ATOM      3  C   UNL     1       0.334  -0.891   0.378  0.00  0.00    +0.045 C 
ATOM      4  C   UNL     1      -3.050   0.610   0.102  0.00  0.00    +0.112 C 
ATOM      5  C   UNL     1      -0.548   1.261   1.149  0.00  0.00    +0.001 C 
ATOM      6  C   UNL     1      -2.168  -1.542  -0.668  0.00  0.00    +0.001 C 
ATOM      7  C   UNL     1       0.142  -2.115  -0.264  0.00  0.00    +0.014 C 
ATOM      8  C   UNL     1      -2.858   1.833   0.744  0.00  0.00    +0.019 C 
ATOM      9  C   UNL     1      -1.107  -2.440  -0.786  0.00  0.00    +0.001 C 
ATOM     10  C   UNL     1      -1.610   2.158   1.266  0.00  0.00    +0.001 C 
ENDROOT
BRANCH   4  11
ATOM     11  S   UNL     1      -4.663   0.295  -0.522  0.00  0.00    +0.042 S 
ATOM     12  O   UNL     1      -5.262  -0.878   0.441  0.00  0.00    -0.065 OA
ATOM     13  O   UNL     1      -5.460   1.488  -0.296  0.00  0.00    -0.065 OA
ATOM     14  O   UNL     1      -4.490  -0.250  -1.856  0.00  0.00    -0.065 OA
ENDBRANCH   4  11
BRANCH   3  15
ATOM     15  N   UNL     1       1.624  -0.611   0.891  0.00  0.00    -0.331 N 
ATOM     16  H   UNL     1       1.774   0.249   1.347  0.00  0.00    +0.147 HD
BRANCH  15  17
ATOM     17  C   UNL     1       2.714  -1.524   0.775  0.00  0.00    +0.109 C 
BRANCH  17  18
ATOM     18  C   UNL     1       3.966  -0.939   1.411  0.00  0.00    +0.111 C 
BRANCH  18  20
ATOM     19  O   UNL     1       5.764  -0.652  -0.824  0.00  0.00    -0.274 OA
ATOM     20  N   UNL     1       4.373   0.289   0.783  0.00  0.00    -0.302 N 
ATOM     21  C   UNL     1       5.248   0.331  -0.294  0.00  0.00    +0.234 C 
ATOM     22  H   UNL     1       4.015   1.138   1.131  0.00  0.00    +0.150 HD
BRANCH  21  24
ATOM     23 BR   UNL     1       4.234   2.128  -2.145  0.00  0.00    -0.070 Br
ATOM     24  C   UNL     1       5.537   1.730  -0.766  0.00  0.00    +0.152 C 
ENDBRANCH  21  24
ENDBRANCH  18  20
ENDBRANCH  17  18
ENDBRANCH  15  17
ENDBRANCH   3  15
TORSDOF 6
