REMARK  Name = 135926572
REMARK  9 active torsions:
REMARK  status: ('A' for Active; 'I' for Inactive)
REMARK    1  A    between atoms: CA_2  and  C_11
REMARK    2  A    between atoms: CA_5  and  C_14
REMARK    3  A    between atoms: C_7  and  C_16
REMARK    4  A    between atoms: N_15  and  C_16
REMARK    5  A    between atoms: N_15  and  C_17
REMARK    6  A    between atoms: C_17  and  C_18
REMARK    7  A    between atoms: C_18  and  C_19
REMARK    8  A    between atoms: C_22  and  O_25
REMARK    9  A    between atoms: C_24  and  O_27
REMARK                            x       y       z     vdW  Elec       q    Type
REMARK                         _______ _______ _______ _____ _____    ______ ____
ROOT
ATOM      1  N   UNL     1      -3.160   0.717   1.055  0.00  0.00    -0.320 N 
ATOM      2  CA  UNL     1      -1.813   0.667   1.583  0.00  0.00    +0.178 C 
ATOM      3  C   UNL     1      -1.241  -0.754   1.502  0.00  0.00    +0.057 C 
ATOM      4  C   UNL     1      -1.603  -1.497   0.227  0.00  0.00    -0.021 C 
ATOM      5  CA  UNL     1      -3.622  -0.161   0.104  0.00  0.00    +0.126 C 
ATOM      6  C   UNL     1      -2.914  -1.211  -0.338  0.00  0.00    +0.017 C 
ATOM      7  C   UNL     1      -0.769  -2.381  -0.340  0.00  0.00    -0.012 C 
ATOM      8  H   UNL     1      -3.772   1.410   1.392  0.00  0.00    +0.147 HD
ENDROOT
BRANCH   2  11
ATOM      9  O   UNL     1      -0.924   1.326  -0.489  0.00  0.00    -0.244 OA
ATOM     10  OXT UNL     1      -0.492   2.590   1.368  0.00  0.00    -0.244 OA
ATOM     11  C   UNL     1      -0.997   1.620   0.736  0.00  0.00    +0.383 C 
ENDBRANCH   2  11
BRANCH   5  14
ATOM     12  O   UNL     1      -5.797  -0.903  -0.377  0.00  0.00    -0.239 OA
ATOM     13  OXT UNL     1      -5.134   1.160  -1.112  0.00  0.00    -0.239 OA
ATOM     14  C   UNL     1      -4.984   0.052  -0.523  0.00  0.00    +0.401 C 
ENDBRANCH   5  14
BRANCH   7  15
ATOM     15  C   UNL     1       0.543  -2.624   0.281  0.00  0.00    +0.114 C 
BRANCH  15  16
ATOM     16  N   UNL     1       1.568  -2.969  -0.417  0.00  0.00    -0.213 NA
BRANCH  16  17
ATOM     17  C   UNL     1       2.786  -3.162   0.364  0.00  0.00    +0.094 C 
BRANCH  17  18
ATOM     18  C   UNL     1       3.874  -2.208  -0.121  0.00  0.00    +0.045 C 
BRANCH  18  19
ATOM     19  C   UNL     1       3.493  -0.756   0.028  0.00  0.00    -0.018 C 
ATOM     20  C   UNL     1       2.833  -0.098  -1.010  0.00  0.00    +0.036 C 
ATOM     21  C   UNL     1       3.799  -0.072   1.204  0.00  0.00    -0.001 C 
ATOM     22  C   UNL     1       2.480   1.245  -0.872  0.00  0.00    +0.172 C 
ATOM     23  C   UNL     1       3.446   1.271   1.342  0.00  0.00    +0.039 C 
ATOM     24  C   UNL     1       2.787   1.929   0.304  0.00  0.00    +0.168 C 
BRANCH  22  25
ATOM     25  O   UNL     1       1.835   1.876  -1.892  0.00  0.00    -0.468 OA
ATOM     26  C   UNL     1       1.559   1.105  -3.060  0.00  0.00    +0.253 C 
ENDBRANCH  22  25
BRANCH  24  27
ATOM     27  O   UNL     1       2.446   3.240   0.451  0.00  0.00    -0.503 OA
ATOM     28  H   UNL     1       2.003   3.689  -0.242  0.00  0.00    +0.292 HD
ENDBRANCH  24  27
ENDBRANCH  18  19
ENDBRANCH  17  18
ENDBRANCH  16  17
ENDBRANCH  15  16
ENDBRANCH   7  15
TORSDOF 9
