135912123
  -OEChem-03292013293D

 31 32  0     1  0  0  0  0  0999 V2000
    2.3911   -0.8203   -1.3758 O   0  0  0  0  0  0  0  0  0  0  0  0
    2.0858   -1.6893    1.3542 O   0  0  0  0  0  0  0  0  0  0  0  0
    3.8586    1.3772    1.1575 O   0  0  0  0  0  0  0  0  0  0  0  0
    6.0250    1.1156   -0.5888 O   0  0  0  0  0  0  0  0  0  0  0  0
   -4.8685    1.7393    0.1573 O   0  0  0  0  0  0  0  0  0  0  0  0
   -0.9042    0.1366    0.5025 N   0  0  0  0  0  0  0  0  0  0  0  0
   -1.8018   -1.6722   -0.4217 N   0  0  0  0  0  0  0  0  0  0  0  0
   -3.5243    1.4669    0.3807 N   0  0  0  0  0  0  0  0  0  0  0  0
    2.3942    0.1014   -0.2827 C   0  0  1  0  0  0  0  0  0  0  0  0
    1.5254   -0.4774    0.8540 C   0  0  1  0  0  0  0  0  0  0  0  0
    3.8512    0.3895    0.1254 C   0  0  1  0  0  0  0  0  0  0  0  0
    0.1111   -0.7716    0.3951 C   0  0  0  0  0  0  0  0  0  0  0  0
    4.6921    0.9019   -1.0427 C   0  0  0  0  0  0  0  0  0  0  0  0
   -0.4671   -1.8798   -0.1780 C   0  0  0  0  0  0  0  0  0  0  0  0
   -2.0328   -0.4486   -0.0005 C   0  0  0  0  0  0  0  0  0  0  0  0
   -3.3466    0.2183   -0.0605 C   0  0  0  0  0  0  0  0  0  0  0  0
   -4.5315   -0.3420   -0.5682 C   0  0  0  0  0  0  0  0  0  0  0  0
   -5.4576    0.6546   -0.4080 C   0  0  0  0  0  0  0  0  0  0  0  0
    1.9214    1.0300   -0.6298 H   0  0  0  0  0  0  0  0  0  0  0  0
    1.4946    0.2347    1.6876 H   0  0  0  0  0  0  0  0  0  0  0  0
    4.3220   -0.5143    0.5303 H   0  0  0  0  0  0  0  0  0  0  0  0
    4.7307    0.1824   -1.8651 H   0  0  0  0  0  0  0  0  0  0  0  0
    4.3081    1.8592   -1.4101 H   0  0  0  0  0  0  0  0  0  0  0  0
   -0.8326    1.0711    0.8834 H   0  0  0  0  0  0  0  0  0  0  0  0
    0.0069   -2.8175   -0.4296 H   0  0  0  0  0  0  0  0  0  0  0  0
    2.6250   -0.3266   -2.1797 H   0  0  0  0  0  0  0  0  0  0  0  0
    1.5687   -1.9544    2.1343 H   0  0  0  0  0  0  0  0  0  0  0  0
    4.7871    1.5463    1.3921 H   0  0  0  0  0  0  0  0  0  0  0  0
    6.5344    1.4478   -1.3476 H   0  0  0  0  0  0  0  0  0  0  0  0
   -4.6984   -1.3222   -0.9901 H   0  0  0  0  0  0  0  0  0  0  0  0
   -6.5102    0.7504   -0.6287 H   0  0  0  0  0  0  0  0  0  0  0  0
  1  9  1  0  0  0  0
  1 26  1  0  0  0  0
  2 10  1  0  0  0  0
  2 27  1  0  0  0  0
  3 11  1  0  0  0  0
  3 28  1  0  0  0  0
  4 13  1  0  0  0  0
  4 29  1  0  0  0  0
  5  8  1  0  0  0  0
  5 18  1  0  0  0  0
  6 12  1  0  0  0  0
  6 15  1  0  0  0  0
  6 24  1  0  0  0  0
  7 14  1  0  0  0  0
  7 15  2  0  0  0  0
  8 16  2  0  0  0  0
  9 10  1  0  0  0  0
  9 11  1  0  0  0  0
  9 19  1  0  0  0  0
 10 12  1  0  0  0  0
 10 20  1  0  0  0  0
 11 13  1  0  0  0  0
 11 21  1  0  0  0  0
 12 14  2  0  0  0  0
 13 22  1  0  0  0  0
 13 23  1  0  0  0  0
 14 25  1  0  0  0  0
 15 16  1  0  0  0  0
 16 17  1  0  0  0  0
 17 18  2  0  0  0  0
 17 30  1  0  0  0  0
 18 31  1  0  0  0  0
M  END
> <PUBCHEM_COMPOUND_CID>
135912123

> <PUBCHEM_CONFORMER_RMSD>
0.8

> <PUBCHEM_CONFORMER_DIVERSEORDER>
6
126
40
145
14
55
76
75
121
127
15
148
69
56
110
94
95
29
113
41
100
68
52
97
96
31
149
65
35
118
77
39
79
84
119
58
9
19
139
130
38
125
78
1
49
89
47
18
48
45
141
133
146
93
61
90
144
91
8
120
12
74
122
109
115
64
70
22
134
87
98
44
2
50
53
143
140
63
3
60
16
103
135
36
136
80
10
129
111
51
34
112
11
4
116
66
147
86
99
85
62
88
32
102
26
104
13
138
108
106
24
81
27
92
23
59
25
43
107
105
73
7
142
30
46
54
33
71
37
42
20
131
117
17
82
124
128
21
57
101
5
28
132
123
137
67
83
72
114

> <PUBCHEM_MMFF94_PARTIAL_CHARGES>
26
1 -0.68
10 0.46
11 0.28
12 -0.33
13 0.28
14 0.08
15 0.19
16 0.29
17 -0.15
18 -0.01
2 -0.68
24 0.27
25 0.15
26 0.4
27 0.4
28 0.4
29 0.4
3 -0.68
30 0.15
31 0.15
4 -0.68
5 -0.02
6 0.03
7 -0.57
8 -0.41
9 0.28

> <PUBCHEM_EFFECTIVE_ROTOR_COUNT>
5

> <PUBCHEM_PHARMACOPHORE_FEATURES>
13
1 1 acceptor
1 1 donor
1 2 acceptor
1 2 donor
1 3 acceptor
1 3 donor
1 4 acceptor
1 4 donor
1 6 donor
1 8 acceptor
3 6 7 15 cation
5 5 8 16 17 18 rings
5 6 7 12 14 15 rings

> <PUBCHEM_HEAVY_ATOM_COUNT>
18

> <PUBCHEM_ATOM_DEF_STEREO_COUNT>
3

> <PUBCHEM_ATOM_UDEF_STEREO_COUNT>
0

> <PUBCHEM_BOND_DEF_STEREO_COUNT>
0

> <PUBCHEM_BOND_UDEF_STEREO_COUNT>
0

> <PUBCHEM_ISOTOPIC_ATOM_COUNT>
0

> <PUBCHEM_COMPONENT_COUNT>
1

> <PUBCHEM_CACTVS_TAUTO_COUNT>
-1

> <PUBCHEM_CONFORMER_ID>
0819DABB00000006

> <PUBCHEM_MMFF94_ENERGY>
21.5415

> <PUBCHEM_FEATURE_SELFOVERLAP>
65.986

> <PUBCHEM_SHAPE_FINGERPRINT>
100836 57 18187369843711505900
10354089 29 16008750225705177100
10498660 4 18270396088607923729
10670039 82 18341334396688133312
11046707 91 9799694796475829439
12236239 1 18186516609492271898
12251169 10 13912325706949229810
12507557 5 17240207655413943093
12596602 18 16588026831013064297
12633257 1 14490480823782386004
12670543 26 17917438601115938820
12670546 177 17560796649975231725
12892183 10 13407057211816177590
12916748 109 18411986845293751899
13288520 33 10231762184066325935
13631057 29 17678460977475611979
13675066 3 12107780813583867099
1420 369 9367349244816905953
14341114 176 13840263680605246884
15183329 4 18201729410136482502
15188451 53 12829786158399008745
15342168 16 17313111890337091022
15885798 251 8934999282943721383
17959699 21 18341613745687401776
18222031 100 12103850042835741574
193927 3 10663819727824135565
19784866 240 12175627290824543672
200 152 13470694741044338982
20281389 69 18040994055550351252
20374829 77 10015866474804058781
204376 136 17385442128819958251
20645477 56 18413109480719598431
20645477 70 16702032950087791326
20671657 53 12607405498557482546
20871999 31 17988354983499132239
212847 35 18335416864225761760
21637258 2 11671785923277618084
221357 26 17346597461211161665
23253445 4 13912325698127082830
23402539 116 18343297093810175484
23402655 69 17917994953598692581
23557571 272 18270690894677629742
23559900 14 17704069620960882074
25147074 1 18188753033476648722
2838139 119 18411134757979051036
2916195 48 18340764939769165728
293599 30 18410013238553299389
3472631 163 18334861670656346748
351380 3 11167944649534306988
3545911 37 18413393154529686591
4028521 119 18202285805220879609
474 4 17821732770922258676
4990 188 17561081389042736567
5374978 207 11314313836294012270
5924683 9 14274034272401551345
59682541 35 17968670435965275313
59682541 52 17845946117447397118
59755656 520 17822008735308768482
633830 44 18337388215460076551
7970288 3 10807933756222606717

> <PUBCHEM_SHAPE_MULTIPOLES>
326.14
12.18
1.63
1.01
0.74
0.24
-0.01
-7.49
2.3
-0.28
-0.14
0.89
0.07
-0.53

> <PUBCHEM_SHAPE_SELFOVERLAP>
684.825

> <PUBCHEM_SHAPE_VOLUME>
183.8

> <PUBCHEM_COORDINATE_TYPE>
2
5
10

$$$$
