REMARK  Name = 135909519
REMARK  4 active torsions:
REMARK  status: ('A' for Active; 'I' for Inactive)
REMARK    1  A    between atoms: C_7  and  C_16
REMARK    2  A    between atoms: C_16  and  O_17
REMARK    3  A    between atoms: C_16  and  C_19
REMARK    4  A    between atoms: C_19  and  O_21
REMARK                            x       y       z     vdW  Elec       q    Type
REMARK                         _______ _______ _______ _____ _____    ______ ____
ROOT
ATOM      1  O   UNL     1      -1.316  -2.610  -0.001  0.00  0.00    -0.266 OA
ATOM      2  N   UNL     1       0.538  -0.653   0.359  0.00  0.00    -0.390 NA
ATOM      3  N   UNL     1      -0.386   2.000   0.304  0.00  0.00    -0.200 NA
ATOM      4  N   UNL     1      -3.008  -1.040  -0.216  0.00  0.00    -0.241 N 
ATOM      5  N   UNL     1      -2.583   1.274  -0.070  0.00  0.00    -0.318 NA
ATOM      6  N   UNL     1      -4.762   0.491  -0.443  0.00  0.00    -0.320 N 
ATOM      7  C   UNL     1       1.368   0.394   0.527  0.00  0.00    +0.142 C 
ATOM      8  C   UNL     1      -0.757  -0.337   0.165  0.00  0.00    +0.257 C 
ATOM      9  C   UNL     1       0.914   1.696   0.500  0.00  0.00    +0.194 C 
ATOM     10  C   UNL     1      -1.230   0.961   0.135  0.00  0.00    +0.121 C 
ATOM     11  C   UNL     1      -1.698  -1.446  -0.022  0.00  0.00    +0.293 C 
ATOM     12  C   UNL     1      -3.423   0.289  -0.236  0.00  0.00    +0.248 C 
ATOM     13  H   UNL     1      -3.691  -1.737  -0.347  0.00  0.00    +0.159 HD
ATOM     14  H   UNL     1      -5.363  -0.279  -0.564  0.00  0.00    +0.146 HD
ATOM     15  H   UNL     1      -5.124   1.406  -0.469  0.00  0.00    +0.146 HD
ENDROOT
BRANCH   7  16
ATOM     16  C   UNL     1       2.811   0.102   0.746  0.00  0.00    +0.187 C 
BRANCH  16  17
ATOM     17  O   UNL     1       2.958  -1.106   1.512  0.00  0.00    -0.376 OA
ATOM     18  H   UNL     1       3.901  -1.289   1.649  0.00  0.00    +0.211 HD
ENDBRANCH  16  17
BRANCH  16  19
ATOM     19  C   UNL     1       3.678  -0.044  -0.533  0.00  0.00    +0.144 C 
ATOM     20  C   UNL     1       3.192  -1.147  -1.463  0.00  0.00    +0.035 C 
BRANCH  19  21
ATOM     21  O   UNL     1       3.704   1.179  -1.265  0.00  0.00    -0.382 OA
ATOM     22  H   UNL     1       4.012   1.895  -0.688  0.00  0.00    +0.210 HD
ENDBRANCH  19  21
ENDBRANCH  16  19
ENDBRANCH   7  16
TORSDOF 4
