REMARK  Name = 135990658
REMARK  1 active torsions:
REMARK  status: ('A' for Active; 'I' for Inactive)
REMARK    1  A    between atoms: C_7  and  O_19
REMARK                            x       y       z     vdW  Elec       q    Type
REMARK                         _______ _______ _______ _____ _____    ______ ____
ROOT
ATOM      1  O   UNL     1       1.366  -2.614   0.148  0.00  0.00    -0.272 OA
ATOM      2  N   UNL     1      -0.814  -0.483  -0.063  0.00  0.00    -0.265 N 
ATOM      3  N   UNL     1      -0.334   1.685  -0.209  0.00  0.00    -0.328 NA
ATOM      4  N   UNL     1       2.125   1.465  -0.087  0.00  0.00    -0.311 NA
ATOM      5  N   UNL     1       2.826  -0.820   0.092  0.00  0.00    -0.245 N 
ATOM      6  N   UNL     1       4.396   0.914   0.037  0.00  0.00    -0.320 N 
ATOM      7  C   UNL     1      -2.771   1.072  -0.259  0.00  0.00    +0.178 C 
ATOM      8  C   UNL     1      -1.629  -1.681  -0.058  0.00  0.00    +0.094 C 
ATOM      9  C   UNL     1      -3.107  -1.389   0.200  0.00  0.00    +0.025 C 
ATOM     10  C   UNL     1      -3.576  -0.180  -0.616  0.00  0.00    +0.040 C 
ATOM     11  C   UNL     1      -1.309   0.797  -0.189  0.00  0.00    +0.200 C 
ATOM     12  C   UNL     1       0.547  -0.399  -0.018  0.00  0.00    +0.262 C 
ATOM     13  C   UNL     1       0.817   0.949  -0.102  0.00  0.00    +0.145 C 
ATOM     14  C   UNL     1       1.560  -1.405   0.082  0.00  0.00    +0.264 C 
ATOM     15  C   UNL     1       3.071   0.561   0.010  0.00  0.00    +0.249 C 
ATOM     16  H   UNL     1       3.604  -1.418   0.162  0.00  0.00    +0.159 HD
ATOM     17  H   UNL     1       4.654   1.862  -0.016  0.00  0.00    +0.146 HD
ATOM     18  H   UNL     1       5.089   0.219   0.110  0.00  0.00    +0.146 HD
ENDROOT
BRANCH   7  19
ATOM     19  O   UNL     1      -3.170   1.529   1.030  0.00  0.00    -0.376 OA
ATOM     20  H   UNL     1      -4.121   1.720   1.026  0.00  0.00    +0.211 HD
ENDBRANCH   7  19
TORSDOF 1
