135985961
  -OEChem-03292013293D

 35 37  0     0  0  0  0  0  0999 V2000
   -8.1534    1.3094    0.1075 Cl  0  0  0  0  0  0  0  0  0  0  0  0
   -2.0373   -1.7908    0.0275 S   0  0  0  0  0  0  0  0  0  0  0  0
    0.4947   -0.7794    0.0098 O   0  0  0  0  0  0  0  0  0  0  0  0
    6.0195    2.2449   -0.0516 O   0  0  0  0  0  0  0  0  0  0  0  0
    4.4315   -2.2418    0.0773 O   0  0  0  0  0  0  0  0  0  0  0  0
    1.7045   -2.6600    0.0760 N   0  0  0  0  0  0  0  0  0  0  0  0
    0.3676   -3.0119    0.0779 N   0  0  0  0  0  0  0  0  0  0  0  0
   -5.7874    1.0811    1.1410 N   0  0  0  0  0  0  0  0  0  0  0  0
    2.8488   -0.4333    0.0134 C   0  0  0  0  0  0  0  0  0  0  0  0
    4.1612   -0.9057    0.0349 C   0  0  0  0  0  0  0  0  0  0  0  0
    1.7310   -1.3483    0.0355 C   0  0  0  0  0  0  0  0  0  0  0  0
    2.6020    0.9389   -0.0304 C   0  0  0  0  0  0  0  0  0  0  0  0
   -2.3543    0.0050   -0.0311 C   0  0  0  0  0  0  0  0  0  0  0  0
   -3.8245    0.3214   -0.0483 C   0  0  0  0  0  0  0  0  0  0  0  0
    4.9799    1.3665   -0.0307 C   0  0  0  0  0  0  0  0  0  0  0  0
    5.2267   -0.0056    0.0129 C   0  0  0  0  0  0  0  0  0  0  0  0
    3.6675    1.8389   -0.0522 C   0  0  0  0  0  0  0  0  0  0  0  0
   -0.3013   -1.8832    0.0387 C   0  0  0  0  0  0  0  0  0  0  0  0
   -4.5781    0.1630   -1.2060 C   0  0  0  0  0  0  0  0  0  0  0  0
   -4.4705    0.7792    1.0886 C   0  0  0  0  0  0  0  0  0  0  0  0
   -5.9358    0.4633   -1.1916 C   0  0  0  0  0  0  0  0  0  0  0  0
   -6.4876    0.9148   -0.0035 C   0  0  0  0  0  0  0  0  0  0  0  0
    5.6950    3.6337   -0.0956 C   0  0  0  0  0  0  0  0  0  0  0  0
    1.5942    1.3463   -0.0484 H   0  0  0  0  0  0  0  0  0  0  0  0
   -1.8828    0.4278   -0.9261 H   0  0  0  0  0  0  0  0  0  0  0  0
   -1.8762    0.4778    0.8345 H   0  0  0  0  0  0  0  0  0  0  0  0
    6.2528   -0.3647    0.0294 H   0  0  0  0  0  0  0  0  0  0  0  0
    3.4050    2.8908   -0.0859 H   0  0  0  0  0  0  0  0  0  0  0  0
   -4.1187   -0.1908   -2.1250 H   0  0  0  0  0  0  0  0  0  0  0  0
   -3.9378    0.9220    2.0237 H   0  0  0  0  0  0  0  0  0  0  0  0
   -6.5322    0.3435   -2.0898 H   0  0  0  0  0  0  0  0  0  0  0  0
    5.3952   -2.3723    0.0864 H   0  0  0  0  0  0  0  0  0  0  0  0
    6.6403    4.1862   -0.1072 H   0  0  0  0  0  0  0  0  0  0  0  0
    5.1619    3.8934   -1.0165 H   0  0  0  0  0  0  0  0  0  0  0  0
    5.1518    3.9487    0.8018 H   0  0  0  0  0  0  0  0  0  0  0  0
  1 22  1  0  0  0  0
  2 13  1  0  0  0  0
  2 18  1  0  0  0  0
  3 11  1  0  0  0  0
  3 18  1  0  0  0  0
  4 15  1  0  0  0  0
  4 23  1  0  0  0  0
  5 10  1  0  0  0  0
  5 32  1  0  0  0  0
  6  7  1  0  0  0  0
  6 11  2  0  0  0  0
  7 18  2  0  0  0  0
  8 20  1  0  0  0  0
  8 22  2  0  0  0  0
  9 10  2  0  0  0  0
  9 11  1  0  0  0  0
  9 12  1  0  0  0  0
 10 16  1  0  0  0  0
 12 17  2  0  0  0  0
 12 24  1  0  0  0  0
 13 14  1  0  0  0  0
 13 25  1  0  0  0  0
 13 26  1  0  0  0  0
 14 19  1  0  0  0  0
 14 20  2  0  0  0  0
 15 16  2  0  0  0  0
 15 17  1  0  0  0  0
 16 27  1  0  0  0  0
 17 28  1  0  0  0  0
 19 21  2  0  0  0  0
 19 29  1  0  0  0  0
 20 30  1  0  0  0  0
 21 22  1  0  0  0  0
 21 31  1  0  0  0  0
 23 33  1  0  0  0  0
 23 34  1  0  0  0  0
 23 35  1  0  0  0  0
M  END
> <PUBCHEM_COMPOUND_CID>
135985961

> <PUBCHEM_CONFORMER_RMSD>
0.8

> <PUBCHEM_CONFORMER_DIVERSEORDER>
1
254
58
13
209
197
256
263
230
64
162
85
184
41
255
238
164
225
91
153
78
221
202
87
242
54
22
3
168
48
110
109
33
65
31
245
192
45
25
200
119
226
227
90
36
21
55
75
229
62
189
146
208
40
175
59
132
2
219
57
240
35
198
93
46
116
156
118
83
178
236
4
63
176
32
258
107
244
38
142
30
12
140
149
123
14
49
147
150
239
234
47
80
183
172
86
89
77
37
39
218
60
257
159
261
97
185
155
188
223
241
131
68
96
179
171
51
173
251
95
101
18
170
9
10
6
125
253
105
154
158
232
15
262
216
88
34
252
19
24
120
17
205
23
180
102
177
167
104
122
108
151
213
137
103
143
61
203
121
141
115
190
99
112
50
134
8
169
29
250
117
243
130
27
260
94
66
233
136
133
199
246
67
126
81
211
84
16
129
187
124
193
113
201
114
204
194
174
152
163
98
111
235
247
20
210
186
220
166
11
157
127
249
191
43
139
79
7
231
70
212
206
148
5
181
128
160
135
138
237
73
144
195
207
182
42
259
248
196
106
26
217
215
56
145
222
224
214
74
44
165
92
28
72
76
71
52
100
53
228
161
69
82

> <PUBCHEM_MMFF94_PARTIAL_CHARGES>
30
1 -0.18
10 0.08
11 0.43
12 -0.15
13 0.37
14 -0.14
15 0.08
16 -0.15
17 -0.15
18 0.53
19 -0.15
2 -0.29
20 0.16
21 -0.15
22 0.49
23 0.28
24 0.15
27 0.15
28 0.15
29 0.15
3 -0.28
30 0.15
31 0.15
32 0.45
4 -0.36
5 -0.53
6 -0.34
7 -0.34
8 -0.62
9 0.05

> <PUBCHEM_EFFECTIVE_ROTOR_COUNT>
5

> <PUBCHEM_PHARMACOPHORE_FEATURES>
6
1 4 acceptor
1 5 donor
1 8 acceptor
5 3 6 7 11 18 rings
6 8 14 19 20 21 22 rings
6 9 10 12 15 16 17 rings

> <PUBCHEM_HEAVY_ATOM_COUNT>
23

> <PUBCHEM_ATOM_DEF_STEREO_COUNT>
0

> <PUBCHEM_ATOM_UDEF_STEREO_COUNT>
0

> <PUBCHEM_BOND_DEF_STEREO_COUNT>
0

> <PUBCHEM_BOND_UDEF_STEREO_COUNT>
0

> <PUBCHEM_ISOTOPIC_ATOM_COUNT>
0

> <PUBCHEM_COMPONENT_COUNT>
1

> <PUBCHEM_CACTVS_TAUTO_COUNT>
-1

> <PUBCHEM_CONFORMER_ID>
081AFB2900000001

> <PUBCHEM_MMFF94_ENERGY>
55.3553

> <PUBCHEM_FEATURE_SELFOVERLAP>
30.447

> <PUBCHEM_SHAPE_FINGERPRINT>
10 15 17749110010469393329
10411042 1 17833831565469389538
10595046 47 18271803502483396463
11273773 42 18060427915303182537
11796584 16 13542452164265846311
12236239 1 18060133211779278967
12821665 9 18341044238031037287
13167372 99 18270681952887989825
13402501 40 18187362112781260645
13540713 4 18265353840031662146
13631057 29 18270110366526002431
13668630 136 11383826074690129813
13885169 86 18337677523993002317
13955234 65 18115583725740376314
14251764 75 18336829809339220828
14429380 56 18336817620759884589
14528608 73 18272365374030683439
14931854 50 17989213645919107953
15183329 4 16845294938826448993
15475509 35 16081637865318013754
155225 6 18116441538452984468
1577012 14 18272928332610878373
17810953 82 18334580170126239812
19427546 62 18409731759435329778
20157964 124 18411419488218867546
20281389 69 18187362108549174389
20715895 44 18411699933099805096
21033648 144 18334005112459525303
21033648 29 17603590754666392322
21033650 10 15122967135186993779
21298829 104 18411984659193269925
21421861 104 17895456087218043394
22224240 67 18113336410589251203
23522609 53 17560253423186958369
23845131 108 18187366545129988395
270888 7 18338797926594614700
2748736 6 18339916125562091088
2838139 119 18336257977155729959
335352 9 18411421701166294438
3472631 163 18272373095944019166
397830 11 17968672609039404907
4073 2 18187650249252312499
445580 126 18411691089403342840
474 4 18411136918162834939
5104073 3 18114457963699339442
543368 44 18272088301896734381
59682541 35 18040444309027426995
59682541 52 17489321771773437500
6327066 14 18339079401402462076
7970288 3 9079122141457115296

> <PUBCHEM_SHAPE_MULTIPOLES>
446.5
19.79
3.08
0.83
20.75
0.05
0.04
16.35
0.23
-5.53
-0.08
1.22
0.15
-0.52

> <PUBCHEM_SHAPE_SELFOVERLAP>
945.217

> <PUBCHEM_SHAPE_VOLUME>
254.6

> <PUBCHEM_COORDINATE_TYPE>
2
5
10

$$$$
