REMARK  Name = 135912122
REMARK  8 active torsions:
REMARK  status: ('A' for Active; 'I' for Inactive)
REMARK    1  A    between atoms: N_1  and  C_10
REMARK    2  A    between atoms: N_1  and  C_22
REMARK    3  A    between atoms: N_4  and  C_13
REMARK    4  A    between atoms: C_13  and  C_16
REMARK    5  A    between atoms: C_13  and  C_17
REMARK    6  A    between atoms: C_17  and  C_18
REMARK    7  A    between atoms: C_18  and  C_21
REMARK    8  A    between atoms: C_22  and  C_26
REMARK                            x       y       z     vdW  Elec       q    Type
REMARK                         _______ _______ _______ _____ _____    ______ ____
ROOT
ATOM      1  N   UNL     1       0.813  -1.207   0.231  0.00  0.00    -0.329 N 
ATOM      2  H   UNL     1       1.486  -1.608   0.827  0.00  0.00    +0.147 HD
ENDROOT
BRANCH   1  10
ATOM      3  O   UNL     1      -5.132  -1.385   2.750  0.00  0.00    -0.270 OA
ATOM      4  N   UNL     1      -5.047  -0.379   0.614  0.00  0.00    -0.264 N 
ATOM      5  C   UNL     1      -4.017  -0.083  -0.375  0.00  0.00    +0.121 C 
ATOM      6  C   UNL     1      -2.791  -0.611   0.288  0.00  0.00    +0.003 C 
ATOM      7  C   UNL     1      -3.106  -1.153   1.535  0.00  0.00    +0.051 C 
ATOM      8  C   UNL     1      -4.550  -1.007   1.750  0.00  0.00    +0.249 C 
ATOM      9  C   UNL     1      -1.486  -0.620  -0.167  0.00  0.00    +0.012 C 
ATOM     10  C   UNL     1      -0.504  -1.183   0.656  0.00  0.00    +0.045 C 
ATOM     11  C   UNL     1      -2.156  -1.714   2.367  0.00  0.00    +0.006 C 
ATOM     12  C   UNL     1      -0.837  -1.724   1.911  0.00  0.00    +0.014 C 
BRANCH   4  13
ATOM     13  C   UNL     1      -6.444  -0.051   0.432  0.00  0.00    +0.180 C 
BRANCH  13  16
ATOM     14  O   UNL     1      -6.860  -1.633  -1.307  0.00  0.00    -0.244 OA
ATOM     15  O   UNL     1      -8.068  -1.754   0.627  0.00  0.00    -0.244 OA
ATOM     16  C   UNL     1      -7.196  -1.263  -0.147  0.00  0.00    +0.382 C 
ENDBRANCH  13  16
BRANCH  13  17
ATOM     17  C   UNL     1      -6.607   1.219  -0.417  0.00  0.00    +0.043 C 
BRANCH  17  18
ATOM     18  C   UNL     1      -8.051   1.713  -0.509  0.00  0.00    +0.116 C 
BRANCH  18  21
ATOM     19  O   UNL     1      -9.450   3.476  -1.277  0.00  0.00    -0.246 OA
ATOM     20  O   UNL     1      -7.241   3.466  -1.856  0.00  0.00    -0.246 OA
ATOM     21  C   UNL     1      -8.275   3.016  -1.284  0.00  0.00    +0.365 C 
ENDBRANCH  18  21
ENDBRANCH  17  18
ENDBRANCH  13  17
ENDBRANCH   4  13
ENDBRANCH   1  10
BRANCH   1  22
ATOM     22  C   UNL     1       1.254  -0.676  -1.040  0.00  0.00    +0.114 C 
BRANCH  22  26
ATOM     23  O   UNL     1       4.619   1.992   1.198  0.00  0.00    -0.274 OA
ATOM     24  N   UNL     1       6.864   2.284   1.438  0.00  0.00    -0.262 N 
ATOM     25  N   UNL     1       8.475   0.982   0.333  0.00  0.00    -0.395 NA
ATOM     26  C   UNL     1       2.717  -0.896  -1.231  0.00  0.00    -0.003 C 
ATOM     27  C   UNL     1       5.045  -0.254  -0.697  0.00  0.00    -0.007 C 
ATOM     28  C   UNL     1       3.640  -0.091  -0.554  0.00  0.00    -0.006 C 
ATOM     29  C   UNL     1       5.465  -1.291  -1.574  0.00  0.00    -0.003 C 
ATOM     30  C   UNL     1       6.061   0.523  -0.045  0.00  0.00    +0.151 C 
ATOM     31  C   UNL     1       3.161  -1.897  -2.078  0.00  0.00    -0.003 C 
ATOM     32  C   UNL     1       4.527  -2.092  -2.247  0.00  0.00    -0.001 C 
ATOM     33  C   UNL     1       7.430   0.259  -0.272  0.00  0.00    +0.123 C 
ATOM     34  C   UNL     1       6.827  -1.532  -1.782  0.00  0.00    +0.002 C 
ATOM     35  C   UNL     1       7.795  -0.769  -1.141  0.00  0.00    +0.028 C 
ATOM     36  C   UNL     1       5.756   1.645   0.902  0.00  0.00    +0.238 C 
ATOM     37  C   UNL     1       8.158   1.938   1.141  0.00  0.00    +0.163 C 
ATOM     38  C   UNL     1       9.212   2.754   1.827  0.00  0.00    +0.084 C 
ATOM     39  H   UNL     1       6.714   3.027   2.066  0.00  0.00    +0.157 HD
ENDBRANCH  22  26
ENDBRANCH   1  22
TORSDOF 8
