REMARK  Name = 135999354
REMARK  5 active torsions:
REMARK  status: ('A' for Active; 'I' for Inactive)
REMARK    1  A    between atoms: C3*_2  and  O3*_17
REMARK    2  A    between atoms: C2*_3  and  O2*_19
REMARK    3  A    between atoms: C4*_4  and  C5*_21
REMARK    4  A    between atoms: C1*_5  and  N9_7
REMARK    5  A    between atoms: C5*_21  and  O5*_22
REMARK                            x       y       z     vdW  Elec       q    Type
REMARK                         _______ _______ _______ _____ _____    ______ ____
ROOT
ATOM      1  O4* I   A   1      -1.380  -0.115   0.915  0.00  0.00    -0.333 OA
ATOM      2  C3* I   A   1      -2.029  -0.598  -1.278  0.00  0.00    +0.171 C 
ATOM      3  C2* I   A   1      -0.964   0.478  -1.370  0.00  0.00    +0.187 C 
ATOM      4  C4* I   A   1      -2.562  -0.416   0.142  0.00  0.00    +0.175 C 
ATOM      5  C1* I   A   1      -0.398   0.507   0.053  0.00  0.00    +0.225 C 
ENDROOT
BRANCH   5   7
ATOM      6  O6  I   A   1       5.322  -1.291   0.327  0.00  0.00    -0.268 OA
ATOM      7  N9  I   A   1       0.938  -0.192   0.170  0.00  0.00    -0.247 N 
ATOM      8  N7  I   A   1       2.408  -1.854   0.461  0.00  0.00    -0.241 NA
ATOM      9  N3  I   A   1       2.444   1.673  -0.188  0.00  0.00    -0.232 NA
ATOM     10  N1  I   A   1       4.730   0.931  -0.073  0.00  0.00    -0.279 N 
ATOM     11  C4  I   A   1       2.175   0.369   0.054  0.00  0.00    +0.154 C 
ATOM     12  C8  I   A   1       1.130  -1.530   0.414  0.00  0.00    +0.223 C 
ATOM     13  C5  I   A   1       3.054  -0.674   0.238  0.00  0.00    +0.162 C 
ATOM     14  C6  I   A   1       4.471  -0.423   0.178  0.00  0.00    +0.267 C 
ATOM     15  C2  I   A   1       3.726   1.893  -0.240  0.00  0.00    +0.220 C 
ATOM     16  H1  I   A   1       5.668   1.222  -0.136  0.00  0.00    +0.152 HD
ENDBRANCH   5   7
BRANCH   2  17
ATOM     17  O3* I   A   1      -3.006  -0.498  -2.292  0.00  0.00    -0.379 OA
ATOM     18  H3* I   A   1      -2.587  -0.624  -3.158  0.00  0.00    +0.211 HD
ENDBRANCH   2  17
BRANCH   3  19
ATOM     19  O2* I   A   1      -1.532   1.748  -1.683  0.00  0.00    -0.378 OA
ATOM     20  H2* I   A   1      -1.890   1.730  -2.584  0.00  0.00    +0.211 HD
ENDBRANCH   3  19
BRANCH   4  21
ATOM     21  C5* I   A   1      -3.186  -1.690   0.700  0.00  0.00    +0.169 C 
BRANCH  21  22
ATOM     22  O5* I   A   1      -4.269  -2.058  -0.132  0.00  0.00    -0.379 OA
ATOM     23  H5* I   A   1      -4.678  -2.868   0.209  0.00  0.00    +0.211 HD
ENDBRANCH  21  22
ENDBRANCH   4  21
TORSDOF 5
REMARK  Name = 135999354
REMARK  5 active torsions:
REMARK  status: ('A' for Active; 'I' for Inactive)
REMARK    1  A    between atoms: C3*_2  and  O3*_17
REMARK    2  A    between atoms: C2*_3  and  O2*_19
REMARK    3  A    between atoms: C4*_4  and  C5*_21
REMARK    4  A    between atoms: C1*_5  and  N9_7
REMARK    5  A    between atoms: C5*_21  and  O5*_22
REMARK                            x       y       z     vdW  Elec       q    Type
REMARK                         _______ _______ _______ _____ _____    ______ ____
ROOT
ATOM      1  N   UNL     1      -3.696   1.266   1.229  0.00  0.00    +0.000 NA
ATOM      2  N   UNL     1      -3.775   1.846   2.208  0.00  0.00    +0.000 NA
ENDROOT
TORSDOF 0
