135948
  -OEChem-03292013323D

 30 31  0     1  0  0  0  0  0999 V2000
   -4.3381   -0.1537    0.2514 S   0  0  0  0  0  0  0  0  0  0  0  0
    3.7259    0.8006   -0.4293 O   0  0  0  0  0  0  0  0  0  0  0  0
    5.6643   -0.6999    1.0003 O   0  0  0  0  0  0  0  0  0  0  0  0
    2.1239    2.3357    0.0406 O   0  0  0  0  0  0  0  0  0  0  0  0
   -4.6649   -1.5280    0.6268 O   0  0  0  0  0  0  0  0  0  0  0  0
   -4.6812    0.9513    1.1426 O   0  0  0  0  0  0  0  0  0  0  0  0
    1.5948    0.0619   -0.3445 N   0  0  0  0  0  0  0  0  0  0  0  0
   -5.0675    0.1492   -1.2783 N   0  0  0  0  0  0  0  0  0  0  0  0
    3.7981   -0.6308   -0.4899 C   0  0  2  0  0  0  0  0  0  0  0  0
    2.3767   -1.0664   -0.7741 C   0  0  0  0  0  0  0  0  0  0  0  0
    0.1788    0.0104   -0.2026 C   0  0  0  0  0  0  0  0  0  0  0  0
    4.3316   -1.1528    0.8370 C   0  0  0  0  0  0  0  0  0  0  0  0
    2.4198    1.1752   -0.2065 C   0  0  0  0  0  0  0  0  0  0  0  0
   -0.5401    1.1680    0.1106 C   0  0  0  0  0  0  0  0  0  0  0  0
   -0.5030   -1.1984   -0.3751 C   0  0  0  0  0  0  0  0  0  0  0  0
   -2.6021   -0.0908    0.0767 C   0  0  0  0  0  0  0  0  0  0  0  0
   -1.9270    1.1176    0.2501 C   0  0  0  0  0  0  0  0  0  0  0  0
   -1.8900   -1.2489   -0.2358 C   0  0  0  0  0  0  0  0  0  0  0  0
    4.4713   -0.9091   -1.3081 H   0  0  0  0  0  0  0  0  0  0  0  0
    2.2171   -1.1988   -1.8503 H   0  0  0  0  0  0  0  0  0  0  0  0
    2.1220   -1.9890   -0.2447 H   0  0  0  0  0  0  0  0  0  0  0  0
    4.3273   -2.2467    0.8713 H   0  0  0  0  0  0  0  0  0  0  0  0
    3.7509   -0.7712    1.6828 H   0  0  0  0  0  0  0  0  0  0  0  0
   -0.0805    2.1362    0.2571 H   0  0  0  0  0  0  0  0  0  0  0  0
    0.0069   -2.1223   -0.6288 H   0  0  0  0  0  0  0  0  0  0  0  0
   -2.4607    2.0343    0.4850 H   0  0  0  0  0  0  0  0  0  0  0  0
   -2.3949   -2.1991   -0.3854 H   0  0  0  0  0  0  0  0  0  0  0  0
    6.1933   -1.0702    0.2732 H   0  0  0  0  0  0  0  0  0  0  0  0
   -5.5985    1.0278   -1.3483 H   0  0  0  0  0  0  0  0  0  0  0  0
   -4.4557    0.0304   -2.0973 H   0  0  0  0  0  0  0  0  0  0  0  0
  1  5  2  0  0  0  0
  1  6  2  0  0  0  0
  1  8  1  0  0  0  0
  1 16  1  0  0  0  0
  2  9  1  0  0  0  0
  2 13  1  0  0  0  0
  3 12  1  0  0  0  0
  3 28  1  0  0  0  0
  4 13  2  0  0  0  0
  7 10  1  0  0  0  0
  7 11  1  0  0  0  0
  7 13  1  0  0  0  0
  8 29  1  0  0  0  0
  8 30  1  0  0  0  0
  9 10  1  0  0  0  0
  9 12  1  0  0  0  0
  9 19  1  0  0  0  0
 10 20  1  0  0  0  0
 10 21  1  0  0  0  0
 11 14  2  0  0  0  0
 11 15  1  0  0  0  0
 12 22  1  0  0  0  0
 12 23  1  0  0  0  0
 14 17  1  0  0  0  0
 14 24  1  0  0  0  0
 15 18  2  0  0  0  0
 15 25  1  0  0  0  0
 16 17  2  0  0  0  0
 16 18  1  0  0  0  0
 17 26  1  0  0  0  0
 18 27  1  0  0  0  0
M  END
> <PUBCHEM_COMPOUND_CID>
135948

> <PUBCHEM_CONFORMER_RMSD>
0.6

> <PUBCHEM_CONFORMER_DIVERSEORDER>
2
3
5
8
6
4
7
1

> <PUBCHEM_MMFF94_PARTIAL_CHARGES>
25
1 1.45
10 0.3
11 0.12
12 0.28
13 0.78
14 -0.15
15 -0.15
16 -0.01
17 -0.15
18 -0.15
2 -0.43
24 0.15
25 0.15
26 0.15
27 0.15
28 0.4
29 0.42
3 -0.68
30 0.42
4 -0.57
5 -0.65
6 -0.65
7 -0.48
8 -0.98
9 0.28

> <PUBCHEM_EFFECTIVE_ROTOR_COUNT>
3.8

> <PUBCHEM_PHARMACOPHORE_FEATURES>
8
1 3 acceptor
1 3 donor
1 4 acceptor
1 5 acceptor
1 6 acceptor
1 8 donor
5 2 7 9 10 13 rings
6 11 14 15 16 17 18 rings

> <PUBCHEM_HEAVY_ATOM_COUNT>
18

> <PUBCHEM_ATOM_DEF_STEREO_COUNT>
1

> <PUBCHEM_ATOM_UDEF_STEREO_COUNT>
0

> <PUBCHEM_BOND_DEF_STEREO_COUNT>
0

> <PUBCHEM_BOND_UDEF_STEREO_COUNT>
0

> <PUBCHEM_ISOTOPIC_ATOM_COUNT>
0

> <PUBCHEM_COMPONENT_COUNT>
1

> <PUBCHEM_CACTVS_TAUTO_COUNT>
1

> <PUBCHEM_CONFORMER_ID>
0002130C00000002

> <PUBCHEM_MMFF94_ENERGY>
36.6374

> <PUBCHEM_FEATURE_SELFOVERLAP>
40.614

> <PUBCHEM_SHAPE_FINGERPRINT>
11132069 177 17846782901287986159
11401426 45 18060416894216101375
11471102 20 18413108376707294780
11796584 16 17168141213284547250
12236239 1 18113620075714342114
12251169 10 18413387635908206894
13140716 1 18341330114626390090
13675066 3 17632581530569272431
13690532 89 18408041801314422982
13760787 5 18412829105534168525
13862211 1 18412823603586376591
14115302 16 17385735702930589810
14251731 8 18186519886562881215
14251764 18 18412268358856590153
14252887 29 18131357363081800294
15196674 1 18412268362914355797
15788980 27 17458346342711224895
17349148 13 18202005451641946935
17802600 8 18411133623753957972
17862501 102 18411136922272841683
1813 80 17532098207380715590
18186145 218 18186804694903497605
18522853 276 18272369754786575072
19050596 39 18413674616552858531
200 152 17989485217169972285
20645477 70 18410862070251953982
21267235 1 18411429388646005606
21501925 9 18341892974617320820
21637258 2 16370714908430690650
22854114 59 17060338513475834522
23402539 116 18059851745091906981
23559900 14 18409729594945145416
26918003 58 18335137592008169563
3286 77 18260547827160605284
42 15 18259988167009577698
4325135 7 13254501094185191997
5104073 3 18339930410633367609
5374978 207 18342739628514212288
633830 44 15791730836596192447
69090 78 18201719561254454231
9709674 26 18271257070352164911
9971528 1 17917435289743593902
9981440 41 17472694101881631168

> <PUBCHEM_SHAPE_MULTIPOLES>
334.97
11.05
1.62
0.91
0.89
0.42
-0.02
-2.09
-2.05
-0.4
-0.08
0.13
-0.1
-0.38

> <PUBCHEM_SHAPE_SELFOVERLAP>
696.838

> <PUBCHEM_SHAPE_VOLUME>
192.8

> <PUBCHEM_COORDINATE_TYPE>
2
5
10

$$$$
