REMARK  Name = 135940
REMARK  9 active torsions:
REMARK  status: ('A' for Active; 'I' for Inactive)
REMARK    1  A    between atoms: CA_1  and  C_4
REMARK    2  A    between atoms: CA_1  and  N_12
REMARK    3  A    between atoms: CA_1  and  CB_21
REMARK    4  A    between atoms: N_3  and  CA_6
REMARK    5  A    between atoms: CA_6  and  C_8
REMARK    6  A    between atoms: C_8  and  O_9
REMARK    7  A    between atoms: C_13  and  CA_15
REMARK    8  A    between atoms: CA_15  and  N_17
REMARK    9  A    between atoms: CB_21  and  OG_22
REMARK                            x       y       z     vdW  Elec       q    Type
REMARK                         _______ _______ _______ _____ _____    ______ ____
ROOT
ATOM      1  CA  SER A   2       0.303   0.454   0.577  0.00  0.00    +0.178 C 
ENDROOT
BRANCH   1   4
ATOM      2  O   SER A   2      -0.820  -1.298  -0.667  0.00  0.00    -0.273 OA
ATOM      3  N   GLY A   3      -1.998  -0.168   0.983  0.00  0.00    -0.294 N 
ATOM      4  C   SER A   2      -0.881  -0.431   0.202  0.00  0.00    +0.243 C 
ATOM      5  H   GLY A   3      -1.944   0.549   1.655  0.00  0.00    +0.150 HD
BRANCH   3   6
ATOM      6  CA  GLY A   3      -3.234  -0.903   0.852  0.00  0.00    +0.200 C 
BRANCH   6   8
ATOM      7  OXT GLY A   3      -5.286  -0.749  -0.397  0.00  0.00    -0.248 OA
ATOM      8  C   GLY A   3      -4.181  -0.285  -0.145  0.00  0.00    +0.334 C 
BRANCH   8   9
ATOM      9  O   GLY A   3      -3.692   0.830  -0.736  0.00  0.00    -0.479 OA
ATOM     10  H   GLY A   3      -2.839   1.145  -0.509  0.00  0.00    +0.295 HD
ENDBRANCH   8   9
ENDBRANCH   6   8
ENDBRANCH   3   6
ENDBRANCH   1   4
BRANCH   1  12
ATOM     11  O   ALA A   1       3.047   0.502   1.446  0.00  0.00    -0.277 OA
ATOM     12  N   SER A   2       1.452   0.007  -0.166  0.00  0.00    -0.298 N 
ATOM     13  C   ALA A   1       2.748   0.068   0.336  0.00  0.00    +0.202 C 
ATOM     14  H   SER A   2       1.315  -0.358  -1.070  0.00  0.00    +0.150 HD
BRANCH  13  15
ATOM     15  CA  ALA A   1       3.776  -0.455  -0.660  0.00  0.00    +0.013 C 
ATOM     16  CB  ALA A   1       4.010  -1.945  -0.444  0.00  0.00    -0.015 C 
BRANCH  15  17
ATOM     17  N   ALA A   1       5.020   0.286  -0.468  0.00  0.00    +0.387 N 
ATOM     18  H1  ALA A   1       4.850   1.281  -0.616  0.00  0.00    -0.089 HD
ATOM     19  H2  ALA A   1       5.718  -0.042  -1.136  0.00  0.00    -0.089 HD
ATOM     20  H3  ALA A   1       5.361   0.137   0.482  0.00  0.00    -0.089 HD
ENDBRANCH  15  17
ENDBRANCH  13  15
ENDBRANCH   1  12
BRANCH   1  21
ATOM     21  CB  SER A   2       0.011   1.931   0.331  0.00  0.00    +0.166 C 
BRANCH  21  22
ATOM     22  OG  SER A   2      -0.275   2.155  -1.045  0.00  0.00    -0.380 OA
ATOM     23  H   SER A   2      -0.458   3.096  -1.188  0.00  0.00    +0.211 HD
ENDBRANCH  21  22
ENDBRANCH   1  21
TORSDOF 9
