135990658
  -OEChem-03292013293D

 27 29  0     1  0  0  0  0  0999 V2000
   -3.1699    1.5291    1.0304 O   0  0  0  0  0  0  0  0  0  0  0  0
    1.3659   -2.6143    0.1484 O   0  0  0  0  0  0  0  0  0  0  0  0
   -0.8138   -0.4829   -0.0633 N   0  0  0  0  0  0  0  0  0  0  0  0
   -0.3336    1.6854   -0.2088 N   0  0  0  0  0  0  0  0  0  0  0  0
    2.1251    1.4652   -0.0868 N   0  0  0  0  0  0  0  0  0  0  0  0
    2.8257   -0.8199    0.0921 N   0  0  0  0  0  0  0  0  0  0  0  0
    4.3961    0.9138    0.0372 N   0  0  0  0  0  0  0  0  0  0  0  0
   -2.7707    1.0719   -0.2589 C   0  0  2  0  0  0  0  0  0  0  0  0
   -1.6286   -1.6812   -0.0578 C   0  0  0  0  0  0  0  0  0  0  0  0
   -3.1068   -1.3892    0.2000 C   0  0  0  0  0  0  0  0  0  0  0  0
   -3.5758   -0.1804   -0.6155 C   0  0  0  0  0  0  0  0  0  0  0  0
   -1.3090    0.7967   -0.1885 C   0  0  0  0  0  0  0  0  0  0  0  0
    0.5471   -0.3990   -0.0180 C   0  0  0  0  0  0  0  0  0  0  0  0
    0.8169    0.9493   -0.1025 C   0  0  0  0  0  0  0  0  0  0  0  0
    1.5603   -1.4051    0.0823 C   0  0  0  0  0  0  0  0  0  0  0  0
    3.0711    0.5606    0.0098 C   0  0  0  0  0  0  0  0  0  0  0  0
   -1.2414   -2.3560    0.7121 H   0  0  0  0  0  0  0  0  0  0  0  0
   -1.4968   -2.1508   -1.0393 H   0  0  0  0  0  0  0  0  0  0  0  0
   -2.9710    1.8719   -0.9794 H   0  0  0  0  0  0  0  0  0  0  0  0
   -3.2624   -1.1923    1.2681 H   0  0  0  0  0  0  0  0  0  0  0  0
   -3.7060   -2.2712   -0.0521 H   0  0  0  0  0  0  0  0  0  0  0  0
   -3.4574   -0.4042   -1.6832 H   0  0  0  0  0  0  0  0  0  0  0  0
   -4.6428   -0.0138   -0.4281 H   0  0  0  0  0  0  0  0  0  0  0  0
   -4.1172    1.7439    0.9854 H   0  0  0  0  0  0  0  0  0  0  0  0
    3.6284   -1.4386    0.1621 H   0  0  0  0  0  0  0  0  0  0  0  0
    4.6814    1.8856   -0.0165 H   0  0  0  0  0  0  0  0  0  0  0  0
    5.1283    0.2162    0.1117 H   0  0  0  0  0  0  0  0  0  0  0  0
  1  8  1  0  0  0  0
  1 24  1  0  0  0  0
  2 15  2  0  0  0  0
  3  9  1  0  0  0  0
  3 12  1  0  0  0  0
  3 13  1  0  0  0  0
  4 12  2  0  0  0  0
  4 14  1  0  0  0  0
  5 14  1  0  0  0  0
  5 16  2  0  0  0  0
  6 15  1  0  0  0  0
  6 16  1  0  0  0  0
  6 25  1  0  0  0  0
  7 16  1  0  0  0  0
  7 26  1  0  0  0  0
  7 27  1  0  0  0  0
  8 11  1  0  0  0  0
  8 12  1  0  0  0  0
  8 19  1  0  0  0  0
  9 10  1  0  0  0  0
  9 17  1  0  0  0  0
  9 18  1  0  0  0  0
 10 11  1  0  0  0  0
 10 20  1  0  0  0  0
 10 21  1  0  0  0  0
 11 22  1  0  0  0  0
 11 23  1  0  0  0  0
 13 14  2  0  0  0  0
 13 15  1  0  0  0  0
M  END
> <PUBCHEM_COMPOUND_CID>
135990658

> <PUBCHEM_CONFORMER_RMSD>
0.4

> <PUBCHEM_CONFORMER_DIVERSEORDER>
2
1

> <PUBCHEM_MMFF94_PARTIAL_CHARGES>
18
1 -0.68
12 0.01
13 -0.24
14 0.35
15 0.71
16 0.56
2 -0.57
24 0.4
25 0.37
26 0.4
27 0.4
3 0.05
4 -0.57
5 -0.57
6 -0.49
7 -0.85
8 0.46
9 0.26

> <PUBCHEM_EFFECTIVE_ROTOR_COUNT>
0.8

> <PUBCHEM_PHARMACOPHORE_FEATURES>
9
1 1 acceptor
1 1 donor
1 2 acceptor
1 6 donor
1 7 donor
3 3 4 12 cation
5 3 4 12 13 14 rings
6 3 8 9 10 11 12 rings
6 5 6 13 14 15 16 rings

> <PUBCHEM_HEAVY_ATOM_COUNT>
16

> <PUBCHEM_ATOM_DEF_STEREO_COUNT>
0

> <PUBCHEM_ATOM_UDEF_STEREO_COUNT>
1

> <PUBCHEM_BOND_DEF_STEREO_COUNT>
0

> <PUBCHEM_BOND_UDEF_STEREO_COUNT>
0

> <PUBCHEM_ISOTOPIC_ATOM_COUNT>
0

> <PUBCHEM_COMPONENT_COUNT>
1

> <PUBCHEM_CACTVS_TAUTO_COUNT>
-1

> <PUBCHEM_CONFORMER_ID>
081B0D8200000002

> <PUBCHEM_MMFF94_ENERGY>
26.5657

> <PUBCHEM_FEATURE_SELFOVERLAP>
45.94

> <PUBCHEM_SHAPE_FINGERPRINT>
10608611 8 18409442574881046437
10967382 1 18409728452151541799
10980938 120 18336264552882528650
11132069 177 18335132107498436888
11471102 20 18409440375783606701
11806522 49 18339075024904659935
12251169 10 18411989039927335129
12346645 44 18412825802408775768
12382932 28 18411418380101227769
12491281 212 18339933636069449289
13140716 1 18265337201037609747
13221675 6 18410009944360823742
13380535 21 18338526256658819806
13380535 76 18335416885136368498
13897977 150 18409444773861759645
14144814 61 18410009918707019001
14325111 11 18410855460149488228
14614273 12 18187353337914661501
15196674 1 18410009927154684662
15219456 202 18409731746402085287
15442244 35 18123750859361097611
15536298 74 18342738486158549358
16945 1 18264487295422921365
18186145 218 18339364050159408013
193761 8 18121495748333186524
200 152 18200865279843681527
20201158 50 18335698351581069351
20510252 161 18199752612034992561
20645477 70 18340478955403881167
21267235 1 18410019857092881151
21501502 16 18339638949683697523
2334 1 18337391659448341126
23402539 116 18269826669942722262
23402655 69 18340754971719667325
23463225 33 18334009506147453140
23559900 14 18268140973290339506
2748010 2 18265051508107270798
3312278 4 18411701001950335313
335352 9 18194118508453924790
43471831 8 18334851727933877514
4990 188 18059868246662135676
5104073 3 18410009918569882826
528886 8 18409722997775041602
53812653 166 18341609339092861784
6333449 129 18411135857294934533
7364860 26 18269554944948299414
8809292 202 17970349428253472563
9709674 26 18411140242335822199

> <PUBCHEM_SHAPE_MULTIPOLES>
292.63
6.23
2.09
0.67
1.52
0.74
-0.03
-1
-0.11
-0.05
-0.15
-0.32
-0.09
-0.22

> <PUBCHEM_SHAPE_SELFOVERLAP>
644.228

> <PUBCHEM_SHAPE_VOLUME>
152.4

> <PUBCHEM_COORDINATE_TYPE>
2
5
10

$$$$
