135991651
  -OEChem-03292013293D

 22 23  0     0  0  0  0  0  0999 V2000
   -1.0160    2.6140    0.1419 O   0  0  0  0  0  0  0  0  0  0  0  0
    3.9058   -0.3096    1.0287 O   0  0  0  0  0  0  0  0  0  0  0  0
    3.7572    0.9469   -0.8915 O   0  0  0  0  0  0  0  0  0  0  0  0
    0.1956   -1.9293   -0.1260 N   0  0  0  0  0  0  0  0  0  0  0  0
    0.9776    0.7278    0.0153 N   0  0  0  0  0  0  0  0  0  0  0  0
   -2.6534    0.9982    0.0719 N   0  0  0  0  0  0  0  0  0  0  0  0
   -2.1180   -1.2811   -0.0652 N   0  0  0  0  0  0  0  0  0  0  0  0
   -4.3561   -0.5924   -0.0002 N   0  0  0  0  0  0  0  0  0  0  0  0
    1.6140   -1.6838   -0.1218 C   0  0  0  0  0  0  0  0  0  0  0  0
   -0.7765   -0.9436   -0.0602 C   0  0  0  0  0  0  0  0  0  0  0  0
   -0.3416    0.3379    0.0079 C   0  0  0  0  0  0  0  0  0  0  0  0
    1.8722   -0.2059   -0.0450 C   0  0  0  0  0  0  0  0  0  0  0  0
   -1.3473    1.4336    0.0808 C   0  0  0  0  0  0  0  0  0  0  0  0
   -3.0104   -0.3357   -0.0006 C   0  0  0  0  0  0  0  0  0  0  0  0
    3.2969    0.2230   -0.0360 C   0  0  0  0  0  0  0  0  0  0  0  0
    2.0659   -2.0774   -1.0376 H   0  0  0  0  0  0  0  0  0  0  0  0
    2.0708   -2.1818    0.7386 H   0  0  0  0  0  0  0  0  0  0  0  0
   -0.1382   -2.8859   -0.1770 H   0  0  0  0  0  0  0  0  0  0  0  0
   -3.3917    1.6940    0.1199 H   0  0  0  0  0  0  0  0  0  0  0  0
   -4.7096   -1.5416   -0.0508 H   0  0  0  0  0  0  0  0  0  0  0  0
   -5.0376    0.1569    0.0506 H   0  0  0  0  0  0  0  0  0  0  0  0
    4.8515   -0.0550    1.0831 H   0  0  0  0  0  0  0  0  0  0  0  0
  1 13  2  0  0  0  0
  2 15  1  0  0  0  0
  2 22  1  0  0  0  0
  3 15  2  0  0  0  0
  4  9  1  0  0  0  0
  4 10  1  0  0  0  0
  4 18  1  0  0  0  0
  5 11  1  0  0  0  0
  5 12  2  0  0  0  0
  6 13  1  0  0  0  0
  6 14  1  0  0  0  0
  6 19  1  0  0  0  0
  7 10  1  0  0  0  0
  7 14  2  0  0  0  0
  8 14  1  0  0  0  0
  8 20  1  0  0  0  0
  8 21  1  0  0  0  0
  9 12  1  0  0  0  0
  9 16  1  0  0  0  0
  9 17  1  0  0  0  0
 10 11  2  0  0  0  0
 11 13  1  0  0  0  0
 12 15  1  0  0  0  0
M  END
> <PUBCHEM_COMPOUND_CID>
135991651

> <PUBCHEM_CONFORMER_RMSD>
0.6

> <PUBCHEM_CONFORMER_DIVERSEORDER>
1

> <PUBCHEM_MMFF94_PARTIAL_CHARGES>
20
1 -0.57
10 0.27
11 0.19
12 0.39
13 0.62
14 0.56
15 0.72
18 0.4
19 0.37
2 -0.65
20 0.4
21 0.4
22 0.5
3 -0.57
4 -0.87
5 -0.62
6 -0.49
7 -0.62
8 -0.85
9 0.43

> <PUBCHEM_EFFECTIVE_ROTOR_COUNT>
1.4

> <PUBCHEM_PHARMACOPHORE_FEATURES>
11
1 1 acceptor
1 2 acceptor
1 3 acceptor
1 4 cation
1 4 donor
1 5 acceptor
1 6 donor
1 8 donor
3 2 3 15 anion
6 4 5 9 10 11 12 rings
6 6 7 10 11 13 14 rings

> <PUBCHEM_HEAVY_ATOM_COUNT>
15

> <PUBCHEM_ATOM_DEF_STEREO_COUNT>
0

> <PUBCHEM_ATOM_UDEF_STEREO_COUNT>
0

> <PUBCHEM_BOND_DEF_STEREO_COUNT>
0

> <PUBCHEM_BOND_UDEF_STEREO_COUNT>
0

> <PUBCHEM_ISOTOPIC_ATOM_COUNT>
0

> <PUBCHEM_COMPONENT_COUNT>
1

> <PUBCHEM_CACTVS_TAUTO_COUNT>
-1

> <PUBCHEM_CONFORMER_ID>
081B116300000001

> <PUBCHEM_MMFF94_ENERGY>
43.3577

> <PUBCHEM_FEATURE_SELFOVERLAP>
55.956

> <PUBCHEM_SHAPE_FINGERPRINT>
10608611 8 18268989795744548248
10967382 1 18411419543952981766
11132069 177 18272366490300213210
12932764 1 17274528858870938046
13140716 1 18196086870337812298
13380535 21 18127423249667366145
13380535 76 18410011030972212490
14325111 11 18410856521185589468
14614273 12 18189329083174696701
15536298 74 18271807857132147046
15775835 57 18343589512015390043
16945 1 18413668023767561679
17846911 113 18412258449881864930
193761 8 17979074886132474567
20510252 161 18272370841107567016
21501502 16 18268150846771007787
23048698 100 17240481416576356440
2334 1 17835801176486035882
23402539 116 18342164592195889463
23402655 69 18342164524383624765
23463225 33 18334290925453229730
23552423 10 18191309269050919147
23559900 14 18196367022871154094
25610 137 18409733949999707573
2748010 2 18123755253144160143
3312278 4 18335706074074731443
353137 74 18335698300151984793
43471831 8 18336262340853688746
474 4 17097222860023691716
528886 8 18412541041687410995
53655031 270 18409164407023729539
537710 114 18336271231483087413
53812653 166 18201712968500552546
53812653 8 18409452496518899990
57177213 63 18335426720764242718
7364860 26 18055632815876316438

> <PUBCHEM_SHAPE_MULTIPOLES>
266.18
6.3
1.89
0.67
0.96
0.43
0.02
0
0.16
-0.49
-0.04
0.4
0.02
-0.27

> <PUBCHEM_SHAPE_SELFOVERLAP>
577.41

> <PUBCHEM_SHAPE_VOLUME>
142.3

> <PUBCHEM_COORDINATE_TYPE>
2
5
10

$$$$
