135999354
  -OEChem-03292013293D

 33 35  0     1  0  0  0  0  0999 V2000
   -1.3797   -0.1152    0.9151 O   0  0  0  0  0  0  0  0  0  0  0  0
   -3.0057   -0.4976   -2.2920 O   0  0  0  0  0  0  0  0  0  0  0  0
   -1.5322    1.7484   -1.6826 O   0  0  0  0  0  0  0  0  0  0  0  0
   -4.2685   -2.0577   -0.1323 O   0  0  0  0  0  0  0  0  0  0  0  0
    5.3223   -1.2914    0.3265 O   0  0  0  0  0  0  0  0  0  0  0  0
    0.9378   -0.1922    0.1695 N   0  0  0  0  0  0  0  0  0  0  0  0
   -3.6014    0.6281    0.1671 N   0  0  0  0  0  0  0  0  0  0  0  0
    2.4075   -1.8538    0.4612 N   0  0  0  0  0  0  0  0  0  0  0  0
    2.4444    1.6726   -0.1875 N   0  0  0  0  0  0  0  0  0  0  0  0
   -3.6965    1.2662    1.2288 N   0  3  0  0  0  0  0  0  0  0  0  0
    4.7298    0.9310   -0.0734 N   0  0  0  0  0  0  0  0  0  0  0  0
   -3.7754    1.8459    2.2080 N   0  5  0  0  0  0  0  0  0  0  0  0
   -2.0294   -0.5976   -1.2780 C   0  0  1  0  0  0  0  0  0  0  0  0
   -0.9637    0.4778   -1.3702 C   0  0  2  0  0  0  0  0  0  0  0  0
   -2.5624   -0.4157    0.1422 C   0  0  1  0  0  0  0  0  0  0  0  0
   -0.3978    0.5075    0.0533 C   0  0  1  0  0  0  0  0  0  0  0  0
   -3.1863   -1.6903    0.7004 C   0  0  0  0  0  0  0  0  0  0  0  0
    2.1753    0.3690    0.0545 C   0  0  0  0  0  0  0  0  0  0  0  0
    1.1299   -1.5303    0.4140 C   0  0  0  0  0  0  0  0  0  0  0  0
    3.0542   -0.6740    0.2378 C   0  0  0  0  0  0  0  0  0  0  0  0
    4.4715   -0.4233    0.1780 C   0  0  0  0  0  0  0  0  0  0  0  0
    3.7264    1.8926   -0.2404 C   0  0  0  0  0  0  0  0  0  0  0  0
   -1.5429   -1.5779   -1.3652 H   0  0  0  0  0  0  0  0  0  0  0  0
   -0.2211    0.2585   -2.1439 H   0  0  0  0  0  0  0  0  0  0  0  0
   -0.2259    1.5236    0.4262 H   0  0  0  0  0  0  0  0  0  0  0  0
   -3.5521   -1.5427    1.7228 H   0  0  0  0  0  0  0  0  0  0  0  0
   -2.4576   -2.5081    0.7284 H   0  0  0  0  0  0  0  0  0  0  0  0
   -2.5436   -0.5267   -3.1470 H   0  0  0  0  0  0  0  0  0  0  0  0
   -0.8091    2.3987   -1.6761 H   0  0  0  0  0  0  0  0  0  0  0  0
    0.3067   -2.2191    0.5458 H   0  0  0  0  0  0  0  0  0  0  0  0
   -4.6507   -2.8723    0.2362 H   0  0  0  0  0  0  0  0  0  0  0  0
    4.1300    2.8994   -0.4294 H   0  0  0  0  0  0  0  0  0  0  0  0
    5.6993    1.2279   -0.1380 H   0  0  0  0  0  0  0  0  0  0  0  0
  1 15  1  0  0  0  0
  1 16  1  0  0  0  0
  2 13  1  0  0  0  0
  2 28  1  0  0  0  0
  3 14  1  0  0  0  0
  3 29  1  0  0  0  0
  4 17  1  0  0  0  0
  4 31  1  0  0  0  0
  5 21  2  0  0  0  0
  6 16  1  0  0  0  0
  6 18  1  0  0  0  0
  6 19  1  0  0  0  0
  7 10  2  0  0  0  0
  7 15  1  0  0  0  0
  8 19  2  0  0  0  0
  8 20  1  0  0  0  0
  9 18  1  0  0  0  0
  9 22  2  0  0  0  0
 10 12  2  0  0  0  0
 11 21  1  0  0  0  0
 11 22  1  0  0  0  0
 11 33  1  0  0  0  0
 13 14  1  0  0  0  0
 13 15  1  0  0  0  0
 13 23  1  0  0  0  0
 14 16  1  0  0  0  0
 14 24  1  0  0  0  0
 15 17  1  0  0  0  0
 16 25  1  0  0  0  0
 17 26  1  0  0  0  0
 17 27  1  0  0  0  0
 18 20  2  0  0  0  0
 19 30  1  0  0  0  0
 20 21  1  0  0  0  0
 22 32  1  0  0  0  0
M  CHG  2  10   1  12  -1
M  END
> <PUBCHEM_COMPOUND_CID>
135999354

> <PUBCHEM_CONFORMER_RMSD>
0.6

> <PUBCHEM_CONFORMER_DIVERSEORDER>
2
7
45
11
44
43
14
52
50
18
51
38
24
42
28
36
30
49
10
6
21
3
12
55
47
35
46
32
16
27
37
20
34
48
31
22
54
39
56
1
41
17
33
40
53
9
13
19
25
29
23
4
8
5
15
26

> <PUBCHEM_MMFF94_PARTIAL_CHARGES>
28
1 -0.56
10 0.69
11 -0.49
12 -0.37
13 0.28
14 0.28
15 0.53
16 0.54
17 0.28
18 -0.03
19 0.04
2 -0.68
20 0.14
21 0.72
22 0.45
28 0.4
29 0.4
3 -0.68
30 0.15
31 0.4
32 0.06
33 0.37
4 -0.68
5 -0.57
6 0.05
7 -0.56
8 -0.57
9 -0.58

> <PUBCHEM_EFFECTIVE_ROTOR_COUNT>
4

> <PUBCHEM_PHARMACOPHORE_FEATURES>
13
1 1 acceptor
1 11 donor
1 2 acceptor
1 2 donor
1 3 acceptor
1 3 donor
1 4 acceptor
1 4 donor
1 5 acceptor
3 6 8 19 cation
5 1 13 14 15 16 rings
5 6 8 18 19 20 rings
6 9 11 18 20 21 22 rings

> <PUBCHEM_HEAVY_ATOM_COUNT>
22

> <PUBCHEM_ATOM_DEF_STEREO_COUNT>
4

> <PUBCHEM_ATOM_UDEF_STEREO_COUNT>
0

> <PUBCHEM_BOND_DEF_STEREO_COUNT>
0

> <PUBCHEM_BOND_UDEF_STEREO_COUNT>
1

> <PUBCHEM_ISOTOPIC_ATOM_COUNT>
0

> <PUBCHEM_COMPONENT_COUNT>
1

> <PUBCHEM_CACTVS_TAUTO_COUNT>
-1

> <PUBCHEM_CONFORMER_ID>
081B2F7A00000002

> <PUBCHEM_MMFF94_ENERGY>
51.1536

> <PUBCHEM_FEATURE_SELFOVERLAP>
66.127

> <PUBCHEM_SHAPE_FINGERPRINT>
10366900 7 17458345260400747658
10680689 15 17022901241903414430
11552529 35 18268148841143282083
11578080 2 17557948884605383608
11615757 297 18410007758486181642
11796584 16 15913335654924524524
12107183 9 17837219168776905931
12236239 1 18131066030458507605
12403259 226 18114451319527051452
12403259 415 17748823021345362644
12633257 1 18335704888373373866
12916754 54 18334290998119540126
13224815 77 18114173168422322638
13583140 156 15769764745862153566
13675066 3 17489590047941061290
15163728 17 16413251633001517569
15196674 1 18335420192603798466
15788980 27 17346880044484210358
16752209 62 16845274052199821063
18186145 218 18261107474542411202
19050596 39 18412546496475017216
19422 9 18342460365108081202
200 152 18341885320574285734
23402539 116 17022614278095779478
23557571 272 16009026129560756983
23559900 14 17604132771534677706
2871803 45 17895463821362619802
3286 77 18341048631022652664
4175511 318 16486977284683317609
5104073 3 18409167727476360498
633830 44 18341902900423846782

> <PUBCHEM_SHAPE_MULTIPOLES>
388.54
9.64
1.98
1.4
5.25
0.02
-0.23
-0.51
1.67
-0.14
0.28
-2.18
0.53
-1.01

> <PUBCHEM_SHAPE_SELFOVERLAP>
845.815

> <PUBCHEM_SHAPE_VOLUME>
207.3

> <PUBCHEM_COORDINATE_TYPE>
2
5
10

$$$$
