REMARK  Name = 136065883
REMARK  7 active torsions:
REMARK  status: ('A' for Active; 'I' for Inactive)
REMARK    1  A    between atoms: C_6  and  C_19
REMARK    2  A    between atoms: C_10  and  C_37
REMARK    3  A    between atoms: C_11  and  O_32
REMARK    4  A    between atoms: C_13  and  O_34
REMARK    5  A    between atoms: N_18  and  O_28
REMARK    6  A    between atoms: C_25  and  O_30
REMARK    7  A    between atoms: C_37  and  O_38
REMARK                            x       y       z     vdW  Elec       q    Type
REMARK                         _______ _______ _______ _____ _____    ______ ____
ROOT
ATOM      1  O   UNL     1       0.255   1.591  -0.160  0.00  0.00    -0.163 OA
ATOM      2  O   UNL     1      -4.753  -0.333   0.075  0.00  0.00    -0.163 OA
ATOM      3  N   UNL     1      -0.933   1.113  -0.104  0.00  0.00    -0.124 N 
ATOM      4  N   UNL     1      -3.547   0.100   0.017  0.00  0.00    -0.127 N 
ATOM      5  C   UNL     1      -1.148  -0.262  -0.113  0.00  0.00    +0.126 A 
ATOM      6  C   UNL     1      -0.063  -1.144  -0.183  0.00  0.00    +0.073 C 
ATOM      7  C   UNL     1      -2.464  -0.772  -0.052  0.00  0.00    +0.128 A 
ATOM      8  C   UNL     1      -2.015   1.984  -0.035  0.00  0.00    +0.155 A 
ATOM      9  C   UNL     1      -3.331   1.474   0.026  0.00  0.00    +0.124 A 
ATOM     10  C   UNL     1      -2.675  -2.156  -0.060  0.00  0.00    +0.099 C 
ATOM     11  C   UNL     1      -0.285  -2.522  -0.191  0.00  0.00    +0.137 C 
ATOM     12  C   UNL     1      -1.585  -3.026  -0.130  0.00  0.00    +0.045 C 
ATOM     13  C   UNL     1      -1.804   3.369  -0.025  0.00  0.00    +0.154 C 
ATOM     14  C   UNL     1      -4.416   2.356   0.096  0.00  0.00    +0.022 C 
ATOM     15  C   UNL     1      -2.894   4.238   0.044  0.00  0.00    +0.038 C 
ATOM     16  C   UNL     1      -4.194   3.734   0.104  0.00  0.00    +0.005 C 
ENDROOT
BRANCH   6  19
ATOM     17  O   UNL     1       3.828   0.012  -2.677  0.00  0.00    -0.286 OA
ATOM     18  N   UNL     1       2.059  -0.589   0.935  0.00  0.00    -0.221 N 
ATOM     19  C   UNL     1       1.354  -0.746  -0.251  0.00  0.00    +0.094 C 
ATOM     20  C   UNL     1       3.428  -0.214   0.912  0.00  0.00    +0.093 C 
ATOM     21  C   UNL     1       1.886  -0.562  -1.471  0.00  0.00    +0.062 C 
ATOM     22  C   UNL     1       4.074   0.003  -0.320  0.00  0.00    +0.091 C 
ATOM     23  C   UNL     1       3.312  -0.165  -1.581  0.00  0.00    +0.202 C 
ATOM     24  C   UNL     1       4.170  -0.049   2.091  0.00  0.00    +0.020 C 
ATOM     25  C   UNL     1       5.423   0.373  -0.371  0.00  0.00    +0.138 C 
ATOM     26  C   UNL     1       5.516   0.321   2.041  0.00  0.00    +0.005 C 
ATOM     27  C   UNL     1       6.140   0.531   0.813  0.00  0.00    +0.037 C 
BRANCH  18  28
ATOM     28  O   UNL     1       1.418  -0.792   2.155  0.00  0.00    -0.282 OA
ATOM     29  H   UNL     1       0.515  -1.040   2.174  0.00  0.00    +0.245 HD
ENDBRANCH  18  28
BRANCH  25  30
ATOM     30  O   UNL     1       6.082   0.594  -1.543  0.00  0.00    -0.505 OA
ATOM     31  H   UNL     1       5.632   0.498  -2.359  0.00  0.00    +0.292 HD
ENDBRANCH  25  30
ENDBRANCH   6  19
BRANCH  11  32
ATOM     32  O   UNL     1       0.744  -3.417  -0.257  0.00  0.00    -0.505 OA
ATOM     33  H   UNL     1       1.629  -3.111  -0.299  0.00  0.00    +0.292 HD
ENDBRANCH  11  32
BRANCH  13  34
ATOM     34  O   UNL     1      -0.573   3.953  -0.081  0.00  0.00    -0.504 OA
ATOM     35  H   UNL     1       0.196   3.421  -0.129  0.00  0.00    +0.292 HD
ENDBRANCH  13  34
BRANCH  10  37
ATOM     36  O   UNL     1      -4.663  -3.121  -0.978  0.00  0.00    -0.245 OA
ATOM     37  C   UNL     1      -3.977  -2.814  -0.002  0.00  0.00    +0.340 C 
BRANCH  37  38
ATOM     38  O   UNL     1      -4.370  -3.065   1.275  0.00  0.00    -0.477 OA
ATOM     39  H   UNL     1      -3.820  -2.817   1.992  0.00  0.00    +0.295 HD
ENDBRANCH  37  38
ENDBRANCH  10  37
TORSDOF 7
