REMARK  Name = 136008904
REMARK  5 active torsions:
REMARK  status: ('A' for Active; 'I' for Inactive)
REMARK    1  A    between atoms: C_14  and  C_18
REMARK    2  A    between atoms: C_15  and  O_25
REMARK    3  A    between atoms: N_17  and  C_20
REMARK    4  A    between atoms: C_20  and  C_22
REMARK    5  A    between atoms: C_22  and  O_23
REMARK                            x       y       z     vdW  Elec       q    Type
REMARK                         _______ _______ _______ _____ _____    ______ ____
ROOT
ATOM      1  S   UNL     1      -3.069   2.167  -0.280  0.00  0.00    -0.043 S 
ATOM      2  O   UNL     1       0.503  -1.145   0.374  0.00  0.00    -0.273 OA
ATOM      3  N   UNL     1      -1.129   0.490  -0.035  0.00  0.00    -0.210 N 
ATOM      4  N   UNL     1      -0.471   2.790  -0.127  0.00  0.00    -0.348 NA
ATOM      5  C   UNL     1      -2.225  -1.789  -0.079  0.00  0.00    +0.042 C 
ATOM      6  C   UNL     1      -2.296  -0.283  -0.093  0.00  0.00    +0.040 C 
ATOM      7  C   UNL     1      -3.430  -2.531  -0.663  0.00  0.00    +0.006 C 
ATOM      8  C   UNL     1      -4.678  -2.528   0.211  0.00  0.00    +0.001 C 
ATOM      9  C   UNL     1      -5.093  -1.175   0.779  0.00  0.00    +0.005 C 
ATOM     10  C   UNL     1      -4.853   0.006  -0.161  0.00  0.00    +0.034 C 
ATOM     11  C   UNL     1      -3.421   0.456  -0.197  0.00  0.00    +0.021 C 
ATOM     12  C   UNL     1      -1.357   1.855  -0.137  0.00  0.00    +0.227 C 
ATOM     13  C   UNL     1       0.166   0.017   0.161  0.00  0.00    +0.254 C 
ATOM     14  C   UNL     1       1.212   1.091   0.129  0.00  0.00    +0.241 C 
ATOM     15  C   UNL     1       0.835   2.377  -0.009  0.00  0.00    +0.268 C 
ENDROOT
BRANCH  14  18
ATOM     16  O   UNL     1       3.308   1.212   1.182  0.00  0.00    -0.274 OA
ATOM     17  N   UNL     1       3.087  -0.073  -0.751  0.00  0.00    -0.294 N 
ATOM     18  C   UNL     1       2.640   0.761   0.256  0.00  0.00    +0.241 C 
ATOM     19  H   UNL     1       2.445  -0.364  -1.438  0.00  0.00    +0.150 HD
BRANCH  17  20
ATOM     20  C   UNL     1       4.453  -0.537  -0.845  0.00  0.00    +0.200 C 
BRANCH  20  22
ATOM     21  O   UNL     1       5.774  -2.390  -0.059  0.00  0.00    -0.248 OA
ATOM     22  C   UNL     1       4.684  -1.832  -0.110  0.00  0.00    +0.334 C 
BRANCH  22  23
ATOM     23  O   UNL     1       3.573  -2.321   0.487  0.00  0.00    -0.479 OA
ATOM     24  H   UNL     1       2.762  -1.857   0.419  0.00  0.00    +0.295 HD
ENDBRANCH  22  23
ENDBRANCH  20  22
ENDBRANCH  17  20
ENDBRANCH  14  18
BRANCH  15  25
ATOM     25  O   UNL     1       1.788   3.381  -0.035  0.00  0.00    -0.486 OA
ATOM     26  H   UNL     1       1.524   4.275  -0.130  0.00  0.00    +0.294 HD
ENDBRANCH  15  25
TORSDOF 5
