REMARK  Name = 136030744
REMARK  5 active torsions:
REMARK  status: ('A' for Active; 'I' for Inactive)
REMARK    1  A    between atoms: C_3  and  C_9
REMARK    2  A    between atoms: C_6  and  C_19
REMARK    3  A    between atoms: C_10  and  C_16
REMARK    4  A    between atoms: C_16  and  O_17
REMARK    5  A    between atoms: C_20  and  O_25
REMARK                            x       y       z     vdW  Elec       q    Type
REMARK                         _______ _______ _______ _____ _____    ______ ____
ROOT
ATOM      1  S   UNL     1       2.071  -2.570  -0.138  0.00  0.00    -0.094 S 
ATOM      2  N   UNL     1       0.523  -0.546   0.372  0.00  0.00    -0.266 NA
ATOM      3  C   UNL     1      -0.330  -1.755   0.427  0.00  0.00    +0.105 C 
ATOM      4  C   UNL     1       0.307  -2.861  -0.416  0.00  0.00    +0.074 C 
ATOM      5  C   UNL     1      -0.100  -4.263   0.004  0.00  0.00    +0.014 C 
ATOM      6  C   UNL     1       1.756  -0.871   0.149  0.00  0.00    +0.104 C 
ENDROOT
BRANCH   3   9
ATOM      7  S   UNL     1      -1.602  -0.884  -1.829  0.00  0.00    -0.162 S 
ATOM      8  N   UNL     1      -2.283  -0.248   0.675  0.00  0.00    +0.404 N 
ATOM      9  C   UNL     1      -1.720  -1.381  -0.078  0.00  0.00    +0.017 C 
ATOM     10  C   UNL     1      -3.186   0.516  -0.213  0.00  0.00    +0.061 C 
ATOM     11  C   UNL     1      -2.438   0.691  -1.544  0.00  0.00    +0.047 C 
ATOM     12  C   UNL     1      -4.582  -0.095  -0.422  0.00  0.00    -0.009 C 
ATOM     13  C   UNL     1      -2.878  -0.672   1.940  0.00  0.00    -0.098 C 
ATOM     14  H   UNL     1      -1.540   0.389   0.962  0.00  0.00    -0.077 HD
BRANCH  10  16
ATOM     15  O   UNL     1      -2.895   2.237   1.470  0.00  0.00    -0.252 OA
ATOM     16  C   UNL     1      -3.340   1.890   0.387  0.00  0.00    +0.296 C 
BRANCH  16  17
ATOM     17  O   UNL     1      -4.047   2.697  -0.442  0.00  0.00    -0.482 OA
ATOM     18  H   UNL     1      -4.361   2.368  -1.261  0.00  0.00    +0.295 HD
ENDBRANCH  16  17
ENDBRANCH  10  16
ENDBRANCH   3   9
BRANCH   6  19
ATOM     19  C   UNL     1       2.852   0.125   0.100  0.00  0.00    +0.057 C 
ATOM     20  C   UNL     1       2.612   1.432  -0.323  0.00  0.00    +0.136 C 
ATOM     21  C   UNL     1       4.136  -0.259   0.484  0.00  0.00    +0.005 C 
ATOM     22  C   UNL     1       3.657   2.355  -0.364  0.00  0.00    +0.037 C 
ATOM     23  C   UNL     1       5.182   0.664   0.443  0.00  0.00    +0.000 C 
ATOM     24  C   UNL     1       4.942   1.971   0.019  0.00  0.00    +0.003 C 
BRANCH  20  25
ATOM     25  O   UNL     1       1.364   1.827  -0.704  0.00  0.00    -0.505 OA
ATOM     26  H   UNL     1       0.653   1.217  -0.682  0.00  0.00    +0.292 HD
ENDBRANCH  20  25
ENDBRANCH   6  19
TORSDOF 5
