REMARK  Name = 136035353
REMARK  5 active torsions:
REMARK  status: ('A' for Active; 'I' for Inactive)
REMARK    1  A    between atoms: C_1  and  N_14
REMARK    2  A    between atoms: C_2  and  C_9
REMARK    3  A    between atoms: N_8  and  N_11
REMARK    4  A    between atoms: C_15  and  C_18
REMARK    5  A    between atoms: N_17  and  O_20
REMARK                            x       y       z     vdW  Elec       q    Type
REMARK                         _______ _______ _______ _____ _____    ______ ____
ROOT
ATOM      1  C   UNL     1      -0.777  -0.936  -0.381  0.00  0.00    +0.085 C 
ATOM      2  C   UNL     1      -1.545   0.218  -0.225  0.00  0.00    +0.072 C 
ATOM      3  C   UNL     1      -1.362  -2.191  -0.210  0.00  0.00    +0.019 C 
ATOM      4  C   UNL     1      -2.897   0.117   0.101  0.00  0.00    +0.006 C 
ATOM      5  C   UNL     1      -2.715  -2.292   0.116  0.00  0.00    +0.002 C 
ATOM      6  C   UNL     1      -3.482  -1.138   0.271  0.00  0.00    +0.000 C 
ENDROOT
BRANCH   2   9
ATOM      7  O   UNL     1      -0.435   1.860  -1.478  0.00  0.00    -0.269 OA
ATOM      8  N   UNL     1      -1.010   2.398   0.705  0.00  0.00    -0.249 N 
ATOM      9  C   UNL     1      -0.961   1.542  -0.397  0.00  0.00    +0.260 C 
ATOM     10  H   UNL     1      -1.438   2.102   1.541  0.00  0.00    +0.169 HD
BRANCH   8  11
ATOM     11  N   UNL     1      -0.458   3.661   0.619  0.00  0.00    -0.254 NA
ATOM     12  H   UNL     1      -0.062   3.797  -0.311  0.00  0.00    +0.140 HD
ATOM     13  H   UNL     1       0.277   3.759   1.319  0.00  0.00    +0.140 HD
ENDBRANCH   8  11
ENDBRANCH   2   9
BRANCH   1  14
ATOM     14  N   UNL     1       0.586  -0.857  -0.709  0.00  0.00    -0.248 NA
ATOM     15  C   UNL     1       1.471  -0.794   0.237  0.00  0.00    +0.076 C 
ATOM     16  C   UNL     1       1.055  -0.801   1.678  0.00  0.00    +0.053 C 
BRANCH  15  18
ATOM     17  N   UNL     1       3.443   0.480  -0.158  0.00  0.00    -0.090 NA
ATOM     18  C   UNL     1       2.949  -0.707  -0.018  0.00  0.00    +0.111 C 
ATOM     19  C   UNL     1       3.697  -2.005  -0.117  0.00  0.00    +0.057 C 
BRANCH  17  20
ATOM     20  O   UNL     1       2.442   1.445  -0.034  0.00  0.00    -0.409 OA
ATOM     21  H   UNL     1       2.655   2.354  -0.113  0.00  0.00    +0.328 HD
ENDBRANCH  17  20
ENDBRANCH  15  18
ENDBRANCH   1  14
TORSDOF 5
