REMARK  Name = 136051299
REMARK  4 active torsions:
REMARK  status: ('A' for Active; 'I' for Inactive)
REMARK    1  A    between atoms: N_2  and  C_15
REMARK    2  A    between atoms: C_15  and  C_16
REMARK    3  A    between atoms: C_16  and  C_19
REMARK    4  A    between atoms: C_16  and  O_22
REMARK                            x       y       z     vdW  Elec       q    Type
REMARK                         _______ _______ _______ _____ _____    ______ ____
ROOT
ATOM      1  O   UNL     1       0.018   2.013  -0.396  0.00  0.00    -0.272 OA
ATOM      2  N   UNL     1      -0.252  -1.005  -0.508  0.00  0.00    -0.229 NA
ATOM      3  N   UNL     1       1.474  -2.373  -0.161  0.00  0.00    -0.194 NA
ATOM      4  N   UNL     1       2.245   1.589   0.079  0.00  0.00    -0.245 N 
ATOM      5  N   UNL     1       3.176  -0.618   0.239  0.00  0.00    -0.323 NA
ATOM      6  N   UNL     1       4.514   1.276   0.562  0.00  0.00    -0.320 N 
ATOM      7  C   UNL     1       0.825  -0.205  -0.261  0.00  0.00    +0.235 C 
ATOM      8  C   UNL     1       1.876  -1.068  -0.051  0.00  0.00    +0.087 C 
ATOM      9  C   UNL     1       0.189  -2.301  -0.437  0.00  0.00    +0.214 C 
ATOM     10  C   UNL     1       0.934   1.217  -0.212  0.00  0.00    +0.259 C 
ATOM     11  C   UNL     1       3.305   0.689   0.291  0.00  0.00    +0.248 C 
ATOM     12  H   UNL     1       2.445   2.551   0.140  0.00  0.00    +0.159 HD
ATOM     13  H   UNL     1       4.589   2.257   0.596  0.00  0.00    +0.146 HD
ATOM     14  H   UNL     1       5.308   0.716   0.723  0.00  0.00    +0.146 HD
ENDROOT
BRANCH   2  15
ATOM     15  C   UNL     1      -1.605  -0.590  -0.791  0.00  0.00    +0.114 C 
BRANCH  15  16
ATOM     16  C   UNL     1      -2.355  -0.168   0.476  0.00  0.00    +0.203 C 
BRANCH  16  19
ATOM     17  O   UNL     1      -4.724   0.330   0.370  0.00  0.00    -0.273 OA
ATOM     18  N   UNL     1      -3.245   1.869  -0.481  0.00  0.00    -0.327 N 
ATOM     19  C   UNL     1      -3.571   0.675   0.123  0.00  0.00    +0.248 C 
ATOM     20  H   UNL     1      -3.956   2.494  -0.753  0.00  0.00    +0.145 HD
ATOM     21  H   UNL     1      -2.301   2.098  -0.642  0.00  0.00    +0.145 HD
ENDBRANCH  16  19
BRANCH  16  22
ATOM     22  O   UNL     1      -2.804  -1.330   1.158  0.00  0.00    -0.375 OA
ATOM     23  H   UNL     1      -2.042  -1.882   1.392  0.00  0.00    +0.211 HD
ENDBRANCH  16  22
ENDBRANCH  15  16
ENDBRANCH   2  15
TORSDOF 4
