136055748
  -OEChem-03292013293D

 41 43  0     1  0  0  0  0  0999 V2000
   -5.4389   -1.2130    0.5604 S   0  0  0  0  0  0  0  0  0  0  0  0
    5.1048    1.1952    0.1161 P   0  0  0  0  0  0  0  0  0  0  0  0
    1.3695   -0.7441    1.0610 O   0  0  0  0  0  0  0  0  0  0  0  0
   -0.6516   -2.5272   -1.3297 O   0  0  0  0  0  0  0  0  0  0  0  0
    1.2173   -3.6800    0.3290 O   0  0  0  0  0  0  0  0  0  0  0  0
    3.9948    0.1474    0.6561 O   0  0  0  0  0  0  0  0  0  0  0  0
   -3.9598    3.4100   -0.4139 O   0  0  0  0  0  0  0  0  0  0  0  0
    4.3432    1.9814   -1.0743 O   0  0  0  0  0  0  0  0  0  0  0  0
    6.1465    0.2433   -0.6737 O   0  0  0  0  0  0  0  0  0  0  0  0
    5.7187    2.0679    1.1715 O   0  0  0  0  0  0  0  0  0  0  0  0
   -0.6349    0.3183    0.1602 N   0  0  0  0  0  0  0  0  0  0  0  0
   -2.8755   -0.5218    0.3720 N   0  0  0  0  0  0  0  0  0  0  0  0
   -4.5187    1.1975    0.0501 N   0  0  0  0  0  0  0  0  0  0  0  0
    0.4258   -1.7362   -0.8694 C   0  0  1  0  0  0  0  0  0  0  0  0
    0.1019   -0.9758    0.4124 C   0  0  1  0  0  0  0  0  0  0  0  0
    1.6285   -2.5587   -0.4516 C   0  0  1  0  0  0  0  0  0  0  0  0
    2.3730   -1.5959    0.4646 C   0  0  1  0  0  0  0  0  0  0  0  0
    3.3672   -0.7135   -0.2778 C   0  0  0  0  0  0  0  0  0  0  0  0
   -1.9922    0.4833    0.1504 C   0  0  0  0  0  0  0  0  0  0  0  0
   -0.0310    1.5257   -0.0973 C   0  0  0  0  0  0  0  0  0  0  0  0
   -2.2539    1.8126   -0.1173 C   0  0  0  0  0  0  0  0  0  0  0  0
   -1.0174    2.4747   -0.2746 C   0  0  0  0  0  0  0  0  0  0  0  0
   -3.6294    2.2528   -0.1827 C   0  0  0  0  0  0  0  0  0  0  0  0
   -4.1105   -0.1132    0.3110 C   0  0  0  0  0  0  0  0  0  0  0  0
   -4.6775   -2.7308   -0.0526 C   0  0  0  0  0  0  0  0  0  0  0  0
   -0.5332   -1.5501    1.0973 H   0  0  0  0  0  0  0  0  0  0  0  0
    0.7058   -1.0392   -1.6687 H   0  0  0  0  0  0  0  0  0  0  0  0
    2.2131   -2.9337   -1.2965 H   0  0  0  0  0  0  0  0  0  0  0  0
    2.8785   -2.1097    1.2902 H   0  0  0  0  0  0  0  0  0  0  0  0
    4.1228   -1.3318   -0.7720 H   0  0  0  0  0  0  0  0  0  0  0  0
    2.8591   -0.1011   -1.0288 H   0  0  0  0  0  0  0  0  0  0  0  0
    1.0459    1.6165   -0.1386 H   0  0  0  0  0  0  0  0  0  0  0  0
   -0.3260   -3.0558   -2.0780 H   0  0  0  0  0  0  0  0  0  0  0  0
    2.0210   -4.1543    0.6025 H   0  0  0  0  0  0  0  0  0  0  0  0
   -0.8529    3.5206   -0.4926 H   0  0  0  0  0  0  0  0  0  0  0  0
   -5.5147    1.3955    0.0277 H   0  0  0  0  0  0  0  0  0  0  0  0
    4.7992    2.7282   -1.5176 H   0  0  0  0  0  0  0  0  0  0  0  0
    6.9748    0.6345   -1.0244 H   0  0  0  0  0  0  0  0  0  0  0  0
   -5.4252   -3.5286   -0.0591 H   0  0  0  0  0  0  0  0  0  0  0  0
   -3.8524   -3.0415    0.5943 H   0  0  0  0  0  0  0  0  0  0  0  0
   -4.3103   -2.5947   -1.0738 H   0  0  0  0  0  0  0  0  0  0  0  0
  1 24  1  0  0  0  0
  1 25  1  0  0  0  0
  2  6  1  0  0  0  0
  2  8  1  0  0  0  0
  2  9  1  0  0  0  0
  2 10  2  0  0  0  0
  3 15  1  0  0  0  0
  3 17  1  0  0  0  0
  4 14  1  0  0  0  0
  4 33  1  0  0  0  0
  5 16  1  0  0  0  0
  5 34  1  0  0  0  0
  6 18  1  0  0  0  0
  7 23  2  0  0  0  0
  8 37  1  0  0  0  0
  9 38  1  0  0  0  0
 11 15  1  0  0  0  0
 11 19  1  0  0  0  0
 11 20  1  0  0  0  0
 12 19  1  0  0  0  0
 12 24  2  0  0  0  0
 13 23  1  0  0  0  0
 13 24  1  0  0  0  0
 13 36  1  0  0  0  0
 14 15  1  0  0  0  0
 14 16  1  0  0  0  0
 14 27  1  0  0  0  0
 15 26  1  0  0  0  0
 16 17  1  0  0  0  0
 16 28  1  0  0  0  0
 17 18  1  0  0  0  0
 17 29  1  0  0  0  0
 18 30  1  0  0  0  0
 18 31  1  0  0  0  0
 19 21  2  0  0  0  0
 20 22  2  0  0  0  0
 20 32  1  0  0  0  0
 21 22  1  0  0  0  0
 21 23  1  0  0  0  0
 22 35  1  0  0  0  0
 25 39  1  0  0  0  0
 25 40  1  0  0  0  0
 25 41  1  0  0  0  0
M  END
> <PUBCHEM_COMPOUND_CID>
136055748

> <PUBCHEM_CONFORMER_RMSD>
0.8

> <PUBCHEM_CONFORMER_DIVERSEORDER>
1
113
73
6
20
88
112
47
115
120
57
129
118
68
23
81
78
54
28
41
52
63
126
116
61
128
101
100
79
56
95
14
74
48
49
18
107
77
124
26
3
67
98
13
32
125
25
22
31
62
99
114
91
39
33
44
85
92
127
122
50
108
121
80
11
110
66
90
30
10
130
106
40
76
65
64
46
89
111
70
45
16
72
104
4
83
96
2
27
94
97
5
7
15
24
51
117
75
38
87
21
60
36
69
42
43
84
17
93
103
86
82
35
123
105
53
29
59
55
119
8
58
109
19
34
71
9
12
102
37

> <PUBCHEM_MMFF94_PARTIAL_CHARGES>
32
1 -0.37
10 -0.7
11 0.05
12 -0.58
13 -0.49
14 0.28
15 0.54
16 0.28
17 0.28
18 0.28
19 -0.03
2 1.51
20 -0.3
21 -0.09
22 -0.15
23 0.72
24 0.65
25 0.23
3 -0.56
32 0.15
33 0.4
34 0.4
35 0.15
36 0.37
37 0.5
38 0.5
4 -0.68
5 -0.68
6 -0.55
7 -0.57
8 -0.77
9 -0.77

> <PUBCHEM_EFFECTIVE_ROTOR_COUNT>
6

> <PUBCHEM_PHARMACOPHORE_FEATURES>
16
1 10 acceptor
1 11 cation
1 13 donor
1 25 hydrophobe
1 3 acceptor
1 4 acceptor
1 4 donor
1 5 acceptor
1 5 donor
1 7 acceptor
1 8 acceptor
1 9 acceptor
4 2 8 9 10 anion
5 11 19 20 21 22 rings
5 3 14 15 16 17 rings
6 12 13 19 21 23 24 rings

> <PUBCHEM_HEAVY_ATOM_COUNT>
25

> <PUBCHEM_ATOM_DEF_STEREO_COUNT>
4

> <PUBCHEM_ATOM_UDEF_STEREO_COUNT>
0

> <PUBCHEM_BOND_DEF_STEREO_COUNT>
0

> <PUBCHEM_BOND_UDEF_STEREO_COUNT>
0

> <PUBCHEM_ISOTOPIC_ATOM_COUNT>
0

> <PUBCHEM_COMPONENT_COUNT>
1

> <PUBCHEM_CACTVS_TAUTO_COUNT>
-1

> <PUBCHEM_CONFORMER_ID>
081C0BC400000001

> <PUBCHEM_MMFF94_ENERGY>
18.8219

> <PUBCHEM_FEATURE_SELFOVERLAP>
81.367

> <PUBCHEM_SHAPE_FINGERPRINT>
10090160 65 18187081784270628378
10411042 1 17618502529153312774
10498660 4 18340207388879863528
10616163 171 18339643339567704375
10906281 52 18262255377687985345
1100329 8 18050568739779312526
11488393 25 17487918730022028958
11578080 2 16734371721569583405
12403259 118 18335126562827422968
12925494 130 18268425746417656561
13140716 1 18051416459566760099
1454969 45 18341048622876057223
14787075 74 18115025324161959179
14790565 3 18339646740780947600
15196674 1 18337110073055837808
17980427 23 17676500444435500357
19591789 44 18268147737283582025
21065198 57 18049159973643152363
22393880 68 18267595619279678382
23227448 37 18199463436814883692
23559900 14 17979068284609842411
2747138 104 18262530315265724355
350125 39 18340487892930247409
4325135 7 18333733532939446215
474229 33 18410293648410009538
5104073 3 18263083219216806993
5486654 2 18337114573991984695
550186 72 18337389439388995749
6442390 28 18412543228211068354
67856867 119 18190454966070624626
9709674 26 17909549454968727383
9981440 41 18333453136031533362

> <PUBCHEM_SHAPE_MULTIPOLES>
460.29
12.15
3.79
0.89
7.62
0.54
0.03
-3.87
-1.12
-1.79
0.55
0.49
0.11
0.55

> <PUBCHEM_SHAPE_SELFOVERLAP>
954.555

> <PUBCHEM_SHAPE_VOLUME>
266

> <PUBCHEM_COORDINATE_TYPE>
2
5
10

$$$$
