REMARK  Name = 136041721
REMARK  4 active torsions:
REMARK  status: ('A' for Active; 'I' for Inactive)
REMARK    1  A    between atoms: N_3  and  C1*_17
REMARK    2  A    between atoms: C3*_18  and  O3*_21
REMARK    3  A    between atoms: C4*_20  and  C5*_23
REMARK    4  A    between atoms: C5*_23  and  O5*_24
REMARK                            x       y       z     vdW  Elec       q    Type
REMARK                         _______ _______ _______ _____ _____    ______ ____
ROOT
ATOM      1 CL   UNL     1       0.059   3.829   0.324  0.00  0.00    -0.032 Cl
ATOM      2  O   UNL     1       4.487   0.334  -0.189  0.00  0.00    -0.267 OA
ATOM      3  N   UNL     1       0.059   1.151   0.180  0.00  0.00    -0.203 N 
ATOM      4  N   UNL     1       2.095   2.073   0.079  0.00  0.00    -0.367 NA
ATOM      5  N   UNL     1       0.626  -1.196   0.012  0.00  0.00    -0.355 NA
ATOM      6  N   UNL     1       2.999  -1.466  -0.177  0.00  0.00    -0.242 N 
ATOM      7  N   UNL     1       1.573  -3.339  -0.172  0.00  0.00    -0.321 N 
ATOM      8  C   UNL     1       0.941   0.117   0.059  0.00  0.00    +0.229 C 
ATOM      9  C   UNL     1       0.802   2.307   0.187  0.00  0.00    +0.252 C 
ATOM     10  C   UNL     1       2.177   0.714   0.000  0.00  0.00    +0.231 C 
ATOM     11  C   UNL     1       3.347  -0.109  -0.130  0.00  0.00    +0.286 C 
ATOM     12  C   UNL     1       1.680  -1.974  -0.107  0.00  0.00    +0.240 C 
ATOM     13  H   UNL     1       3.731  -2.119  -0.265  0.00  0.00    +0.159 HD
ATOM     14  H   UNL     1       0.687  -3.766  -0.130  0.00  0.00    +0.146 HD
ATOM     15  H   UNL     1       2.382  -3.892  -0.261  0.00  0.00    +0.146 HD
ENDROOT
BRANCH   3  17
ATOM     16  O4* UNL     1      -1.837  -0.178   0.963  0.00  0.00    -0.335 OA
ATOM     17  C1* UNL     1      -1.440   1.029   0.286  0.00  0.00    +0.203 C 
ATOM     18  C3* UNL     1      -3.417   0.272  -0.756  0.00  0.00    +0.144 C 
ATOM     19  C2* UNL     1      -2.136   1.009  -1.070  0.00  0.00    +0.083 C 
ATOM     20  C4* UNL     1      -2.978  -0.746   0.289  0.00  0.00    +0.173 C 
BRANCH  18  21
ATOM     21  O3* UNL     1      -4.336   1.192  -0.173  0.00  0.00    -0.382 OA
ATOM     22  H3* UNL     1      -4.614   1.838  -0.840  0.00  0.00    +0.210 HD
ENDBRANCH  18  21
BRANCH  20  23
ATOM     23  C5* UNL     1      -2.550  -2.072  -0.324  0.00  0.00    +0.169 C 
BRANCH  23  24
ATOM     24  O5* UNL     1      -2.151  -2.946   0.718  0.00  0.00    -0.379 OA
ATOM     25  H5* UNL     1      -1.876  -3.795   0.340  0.00  0.00    +0.211 HD
ENDBRANCH  23  24
ENDBRANCH  20  23
ENDBRANCH   3  17
TORSDOF 4
