REMARK  Name = 136062272
REMARK  6 active torsions:
REMARK  status: ('A' for Active; 'I' for Inactive)
REMARK    1  A    between atoms: N_2  and  N_20
REMARK    2  A    between atoms: C_3  and  C_8
REMARK    3  A    between atoms: C_5  and  S_11
REMARK    4  A    between atoms: S_11  and  N_15
REMARK    5  A    between atoms: C_21  and  C_24
REMARK    6  A    between atoms: C_25  and  O_30
REMARK                            x       y       z     vdW  Elec       q    Type
REMARK                         _______ _______ _______ _____ _____    ______ ____
ROOT
ATOM      1  O   UNL     1       1.347  -4.017   0.262  0.00  0.00    -0.268 OA
ATOM      2  N   UNL     1       1.770  -1.746   0.103  0.00  0.00    -0.203 N 
ATOM      3  C   UNL     1       0.920  -2.854   0.141  0.00  0.00    +0.265 C 
ATOM      4  H   UNL     1       1.398  -0.839   0.007  0.00  0.00    +0.178 HD
ENDROOT
BRANCH   3   8
ATOM      5  C   UNL     1      -2.339  -1.201  -0.684  0.00  0.00    +0.122 C 
ATOM      6  C   UNL     1      -0.969  -1.451  -0.601  0.00  0.00    +0.024 C 
ATOM      7  C   UNL     1      -3.247  -2.092  -0.113  0.00  0.00    +0.020 C 
ATOM      8  C   UNL     1      -0.507  -2.593   0.054  0.00  0.00    +0.056 C 
ATOM      9  C   UNL     1      -2.785  -3.234   0.542  0.00  0.00    +0.002 C 
ATOM     10  C   UNL     1      -1.416  -3.485   0.625  0.00  0.00    +0.005 C 
BRANCH   5  11
ATOM     11  S   UNL     1      -2.922   0.243  -1.515  0.00  0.00    +0.063 S 
ATOM     12  O   UNL     1      -1.903   0.655  -2.457  0.00  0.00    -0.153 OA
ATOM     13  O   UNL     1      -4.279  -0.011  -1.950  0.00  0.00    -0.153 OA
BRANCH  11  15
ATOM     14  O   UNL     1      -2.658   2.544   2.343  0.00  0.00    -0.351 OA
ATOM     15  N   UNL     1      -2.954   1.349  -0.208  0.00  0.00    -0.150 NA
ATOM     16  C   UNL     1      -1.621   1.804   0.282  0.00  0.00    +0.128 C 
ATOM     17  C   UNL     1      -3.843   0.972   0.930  0.00  0.00    +0.128 C 
ATOM     18  C   UNL     1      -3.953   2.158   1.878  0.00  0.00    +0.161 C 
ATOM     19  C   UNL     1      -1.824   2.955   1.257  0.00  0.00    +0.161 C 
ENDBRANCH  11  15
ENDBRANCH   5  11
ENDBRANCH   3   8
BRANCH   2  20
ATOM     20  N   UNL     1       3.106  -1.929   0.198  0.00  0.00    -0.183 NA
ATOM     21  C   UNL     1       3.872  -0.879   0.159  0.00  0.00    +0.080 C 
ATOM     22  C   UNL     1       5.385  -0.915   0.253  0.00  0.00    +0.054 C 
BRANCH  21  24
ATOM     23 CL   UNL     1       2.111   2.834  -3.005  0.00  0.00    -0.082 Cl
ATOM     24  C   UNL     1       3.220   0.452   0.011  0.00  0.00    +0.050 C 
ATOM     25  C   UNL     1       2.835   1.189   1.132  0.00  0.00    +0.135 C 
ATOM     26  C   UNL     1       2.996   0.961  -1.268  0.00  0.00    +0.016 C 
ATOM     27  C   UNL     1       2.226   2.433   0.973  0.00  0.00    +0.038 C 
ATOM     28  C   UNL     1       2.387   2.206  -1.427  0.00  0.00    +0.058 C 
ATOM     29  C   UNL     1       2.002   2.942  -0.306  0.00  0.00    +0.014 C 
BRANCH  25  30
ATOM     30  O   UNL     1       3.045   0.709   2.390  0.00  0.00    -0.505 OA
ATOM     31  H   UNL     1       3.453  -0.126   2.511  0.00  0.00    +0.292 HD
ENDBRANCH  25  30
ENDBRANCH  21  24
ENDBRANCH   2  20
TORSDOF 6
