REMARK  Name = 136045770
REMARK  4 active torsions:
REMARK  status: ('A' for Active; 'I' for Inactive)
REMARK    1  A    between atoms: N_2  and  C_14
REMARK    2  A    between atoms: C_13  and  O_19
REMARK    3  A    between atoms: C_15  and  O_21
REMARK    4  A    between atoms: C_16  and  C_18
REMARK                            x       y       z     vdW  Elec       q    Type
REMARK                         _______ _______ _______ _____ _____    ______ ____
ROOT
ATOM      1  O   UNL     1      -4.588   1.385  -0.432  0.00  0.00    -0.268 OA
ATOM      2  N   UNL     1      -0.244   0.264   0.146  0.00  0.00    -0.247 N 
ATOM      3  N   UNL     1      -1.662   1.905  -0.406  0.00  0.00    -0.241 NA
ATOM      4  N   UNL     1      -1.803  -1.542   0.572  0.00  0.00    -0.232 NA
ATOM      5  N   UNL     1      -4.062  -0.793   0.225  0.00  0.00    -0.279 N 
ATOM      6  C   UNL     1      -1.496  -0.271   0.226  0.00  0.00    +0.154 C 
ATOM      7  C   UNL     1      -0.396   1.575  -0.237  0.00  0.00    +0.223 C 
ATOM      8  C   UNL     1      -2.342   0.758  -0.118  0.00  0.00    +0.162 C 
ATOM      9  C   UNL     1      -3.764   0.528  -0.135  0.00  0.00    +0.267 C 
ATOM     10  C   UNL     1      -3.089  -1.744   0.554  0.00  0.00    +0.220 C 
ATOM     11  H   UNL     1      -5.007  -1.067   0.248  0.00  0.00    +0.152 HD
ENDROOT
BRANCH   2  14
ATOM     12  O   UNL     1       2.050   0.480   0.951  0.00  0.00    -0.334 OA
ATOM     13  C   UNL     1       1.694  -1.038  -0.829  0.00  0.00    +0.187 C 
ATOM     14  C   UNL     1       1.067  -0.433   0.422  0.00  0.00    +0.225 C 
ATOM     15  C   UNL     1       3.163  -1.079  -0.456  0.00  0.00    +0.170 C 
ATOM     16  C   UNL     1       3.329   0.214   0.333  0.00  0.00    +0.163 C 
BRANCH  16  18
ATOM     17 CL   UNL     1       3.857   2.868   0.449  0.00  0.00    -0.111 Cl
ATOM     18  C   UNL     1       3.692   1.405  -0.542  0.00  0.00    +0.127 C 
ENDBRANCH  16  18
BRANCH  13  19
ATOM     19  O   UNL     1       1.171  -2.312  -1.150  0.00  0.00    -0.378 OA
ATOM     20  H   UNL     1       0.232  -2.227  -1.379  0.00  0.00    +0.211 HD
ENDBRANCH  13  19
BRANCH  15  21
ATOM     21  O   UNL     1       3.423  -2.170   0.426  0.00  0.00    -0.379 OA
ATOM     22  H   UNL     1       3.323  -3.006  -0.056  0.00  0.00    +0.211 HD
ENDBRANCH  15  21
ENDBRANCH   2  14
TORSDOF 4
