136070049
  -OEChem-03292013293D

 24 24  0     0  0  0  0  0  0999 V2000
   -0.1278    2.9590    0.1285 O   0  0  0  0  0  0  0  0  0  0  0  0
    3.7434   -1.3967    0.4510 O   0  5  0  0  0  0  0  0  0  0  0  0
    4.5738   -0.2758   -1.2529 O   0  0  0  0  0  0  0  0  0  0  0  0
    0.4614    0.8755    0.4645 N   0  0  0  0  0  0  0  0  0  0  0  0
    2.4642    0.0784   -0.5477 N   0  0  0  0  0  0  0  0  0  0  0  0
   -3.9568   -1.0179   -0.9539 N   0  0  0  0  0  0  0  0  0  0  0  0
    0.7387    2.1018   -0.0732 N   0  0  0  0  0  0  0  0  0  0  0  0
    1.1809   -1.3448    0.9028 N   0  0  0  0  0  0  0  0  0  0  0  0
    3.6772   -0.5555   -0.4512 N   0  3  0  0  0  0  0  0  0  0  0  0
   -0.7103    0.6323    1.3303 C   0  0  0  0  0  0  0  0  0  0  0  0
   -1.8456    0.0552    0.5312 C   0  0  0  0  0  0  0  0  0  0  0  0
   -2.6020    0.8745   -0.2996 C   0  0  0  0  0  0  0  0  0  0  0  0
   -2.1436   -1.3001    0.6202 C   0  0  0  0  0  0  0  0  0  0  0  0
    1.3833   -0.1973    0.3007 C   0  0  0  0  0  0  0  0  0  0  0  0
   -3.6373    0.2944   -1.0146 C   0  0  0  0  0  0  0  0  0  0  0  0
   -3.1995   -1.7830   -0.1360 C   0  0  0  0  0  0  0  0  0  0  0  0
   -1.0484    1.5569    1.8180 H   0  0  0  0  0  0  0  0  0  0  0  0
   -0.4526   -0.0231    2.1726 H   0  0  0  0  0  0  0  0  0  0  0  0
   -2.4148    1.9376   -0.3899 H   0  0  0  0  0  0  0  0  0  0  0  0
   -1.5817   -1.9700    1.2614 H   0  0  0  0  0  0  0  0  0  0  0  0
   -4.2594    0.8906   -1.6740 H   0  0  0  0  0  0  0  0  0  0  0  0
   -3.4735   -2.8323   -0.1010 H   0  0  0  0  0  0  0  0  0  0  0  0
    2.3356    0.8144   -1.2371 H   0  0  0  0  0  0  0  0  0  0  0  0
    1.9235   -2.0031    0.6510 H   0  0  0  0  0  0  0  0  0  0  0  0
  1  7  2  0  0  0  0
  2  9  1  0  0  0  0
  3  9  2  0  0  0  0
  4  7  1  0  0  0  0
  4 10  1  0  0  0  0
  4 14  1  0  0  0  0
  5  9  1  0  0  0  0
  5 14  1  0  0  0  0
  5 23  1  0  0  0  0
  6 15  2  0  0  0  0
  6 16  1  0  0  0  0
  8 14  2  0  0  0  0
  8 24  1  0  0  0  0
 10 11  1  0  0  0  0
 10 17  1  0  0  0  0
 10 18  1  0  0  0  0
 11 12  2  0  0  0  0
 11 13  1  0  0  0  0
 12 15  1  0  0  0  0
 12 19  1  0  0  0  0
 13 16  2  0  0  0  0
 13 20  1  0  0  0  0
 15 21  1  0  0  0  0
 16 22  1  0  0  0  0
M  CHG  2   2  -1   9   1
M  END
> <PUBCHEM_COMPOUND_CID>
136070049

> <PUBCHEM_CONFORMER_RMSD>
0.8

> <PUBCHEM_CONFORMER_DIVERSEORDER>
1
90
77
3
19
30
74
63
93
17
37
24
71
96
33
98
7
20
46
57
42
41
75
2
82
92
45
79
22
18
61
48
23
44
47
88
73
8
58
78
72
9
43
81
32
28
34
50
13
29
59
38
64
99
60
70
89
67
84
76
62
55
40
66
97
5
56
31
68
36
27
6
25
83
54
10
26
86
91
80
51
15
16
49
12
53
21
39
94
69
87
95
14
35
85
52
11
4
65

> <PUBCHEM_MMFF94_PARTIAL_CHARGES>
21
1 -0.16
10 0.51
11 -0.14
12 -0.15
13 -0.15
14 0.55
15 0.16
16 0.16
19 0.15
2 -0.52
20 0.15
21 0.15
22 0.15
23 0.4
24 0.4
3 -0.52
4 -0.25
5 -0.45
6 -0.62
8 -0.85
9 1.04

> <PUBCHEM_EFFECTIVE_ROTOR_COUNT>
6

> <PUBCHEM_PHARMACOPHORE_FEATURES>
7
1 2 acceptor
1 3 acceptor
1 5 donor
1 6 acceptor
1 8 donor
4 4 5 8 14 cation
6 6 11 12 13 15 16 rings

> <PUBCHEM_HEAVY_ATOM_COUNT>
16

> <PUBCHEM_ATOM_DEF_STEREO_COUNT>
0

> <PUBCHEM_ATOM_UDEF_STEREO_COUNT>
0

> <PUBCHEM_BOND_DEF_STEREO_COUNT>
0

> <PUBCHEM_BOND_UDEF_STEREO_COUNT>
0

> <PUBCHEM_ISOTOPIC_ATOM_COUNT>
0

> <PUBCHEM_COMPONENT_COUNT>
1

> <PUBCHEM_CACTVS_TAUTO_COUNT>
-1

> <PUBCHEM_CONFORMER_ID>
081C43A100000001

> <PUBCHEM_MMFF94_ENERGY>
49.919

> <PUBCHEM_FEATURE_SELFOVERLAP>
35.632

> <PUBCHEM_SHAPE_FINGERPRINT>
10465860 71 18412545418126924363
11127187 94 18410291424096874807
12251169 10 11815893474737935143
12346645 44 8502658112288174097
12553582 1 18410862040028804058
15309172 13 10519982643101764480
16945 1 18334563668930038049
17041 50 18337381729837543157
17834072 14 18339913896420966216
18186145 218 13984665836936822018
19784866 240 17275103981431817039
200 152 18187367597723223782
20645477 70 18124864910191882927
20671657 53 18341894112419813305
20871999 31 18335136479912106021
21069387 34 16127792176475331613
21524375 3 11025804210079890649
221490 88 18120096331924156851
22802520 49 18116149051331976889
23382010 3 17313387880434647770
23402539 116 18409169875165865974
23403322 49 18273215278949130359
23557571 272 17987231124176248952
23559900 14 18410847738552358984
27216 239 11025802007099284487
2748010 2 17827637277370547635
449060 23 18060431191729875390
6049 1 17896884464016842059
7364860 26 18127404781514059689
81228 2 18196943170968971568

> <PUBCHEM_SHAPE_MULTIPOLES>
281.78
7.37
2.03
1.06
4.4
1.16
0
-3.5
-3.32
-0.27
0.18
-0.03
-0.06
-0.06

> <PUBCHEM_SHAPE_SELFOVERLAP>
578.469

> <PUBCHEM_SHAPE_VOLUME>
159.6

> <PUBCHEM_COORDINATE_TYPE>
2
5
10

$$$$
