REMARK  Name = 136054933
REMARK  6 active torsions:
REMARK  status: ('A' for Active; 'I' for Inactive)
REMARK    1  A    between atoms: C_3  and  C_18
REMARK    2  A    between atoms: C_5  and  O_32
REMARK    3  A    between atoms: C_8  and  C_37
REMARK    4  A    between atoms: C_11  and  O_34
REMARK    5  A    between atoms: C_26  and  O_30
REMARK    6  A    between atoms: C_37  and  O_38
REMARK                            x       y       z     vdW  Elec       q    Type
REMARK                         _______ _______ _______ _____ _____    ______ ____
ROOT
ATOM      1  N   UNL     1      -1.601   0.903  -0.176  0.00  0.00    -0.398 NA
ATOM      2  N   UNL     1      -4.298   0.568   0.274  0.00  0.00    -0.400 NA
ATOM      3  C   UNL     1      -1.306  -1.453  -0.171  0.00  0.00    +0.111 C 
ATOM      4  C   UNL     1      -2.122  -0.329  -0.063  0.00  0.00    +0.142 C 
ATOM      5  C   UNL     1      -1.827  -2.741  -0.055  0.00  0.00    +0.114 C 
ATOM      6  C   UNL     1      -3.491  -0.499   0.166  0.00  0.00    +0.149 C 
ATOM      7  C   UNL     1      -3.185  -2.909   0.172  0.00  0.00    +0.024 C 
ATOM      8  C   UNL     1      -4.006  -1.789   0.281  0.00  0.00    +0.178 C 
ATOM      9  C   UNL     1      -2.408   1.971  -0.069  0.00  0.00    +0.194 C 
ATOM     10  C   UNL     1      -3.777   1.801   0.160  0.00  0.00    +0.163 C 
ATOM     11  C   UNL     1      -1.893   3.260  -0.183  0.00  0.00    +0.166 C 
ATOM     12  C   UNL     1      -4.593   2.925   0.268  0.00  0.00    +0.035 C 
ATOM     13  C   UNL     1      -2.714   4.381  -0.074  0.00  0.00    +0.039 C 
ATOM     14  C   UNL     1      -4.072   4.212   0.153  0.00  0.00    +0.006 C 
ENDROOT
BRANCH   3  18
ATOM     15  O   UNL     1       2.417  -0.320  -3.131  0.00  0.00    -0.289 OA
ATOM     16  N   UNL     1       3.166  -0.248   1.510  0.00  0.00    -0.401 NA
ATOM     17  N   UNL     1       4.145  -0.144  -1.088  0.00  0.00    -0.391 NA
ATOM     18  C   UNL     1       0.181  -1.281  -0.418  0.00  0.00    +0.029 C 
ATOM     19  C   UNL     1       0.870  -0.523   0.728  0.00  0.00    +0.063 C 
ATOM     20  C   UNL     1       0.463  -0.585  -1.758  0.00  0.00    +0.073 C 
ATOM     21  C   UNL     1       2.336  -0.367   0.454  0.00  0.00    +0.141 C 
ATOM     22  C   UNL     1       1.949  -0.416  -2.001  0.00  0.00    +0.205 C 
ATOM     23  C   UNL     1       2.835  -0.306  -0.827  0.00  0.00    +0.191 C 
ATOM     24  C   UNL     1       4.481  -0.087   1.276  0.00  0.00    +0.163 C 
ATOM     25  C   UNL     1       4.976  -0.035  -0.039  0.00  0.00    +0.194 C 
ATOM     26  C   UNL     1       6.344   0.133  -0.243  0.00  0.00    +0.166 C 
ATOM     27  C   UNL     1       5.372   0.033   2.340  0.00  0.00    +0.035 C 
ATOM     28  C   UNL     1       7.227   0.250   0.829  0.00  0.00    +0.039 C 
ATOM     29  C   UNL     1       6.739   0.200   2.126  0.00  0.00    +0.006 C 
BRANCH  26  30
ATOM     30  O   UNL     1       6.848   0.185  -1.512  0.00  0.00    -0.503 OA
ATOM     31  H   UNL     1       6.274   0.109  -2.248  0.00  0.00    +0.292 HD
ENDBRANCH  26  30
ENDBRANCH   3  18
BRANCH   5  32
ATOM     32  O   UNL     1      -1.025  -3.836  -0.162  0.00  0.00    -0.510 OA
ATOM     33  H   UNL     1      -0.107  -3.731  -0.315  0.00  0.00    +0.292 HD
ENDBRANCH   5  32
BRANCH  11  34
ATOM     34  O   UNL     1      -0.558   3.450  -0.406  0.00  0.00    -0.503 OA
ATOM     35  H   UNL     1       0.013   2.711  -0.482  0.00  0.00    +0.292 HD
ENDBRANCH  11  34
BRANCH   8  37
ATOM     36  O   UNL     1      -6.171  -1.232   1.135  0.00  0.00    -0.249 OA
ATOM     37  C   UNL     1      -5.429  -2.002   0.520  0.00  0.00    +0.324 C 
BRANCH  37  38
ATOM     38  O   UNL     1      -5.874  -3.169  -0.017  0.00  0.00    -0.480 OA
ATOM     39  H   UNL     1      -5.280  -3.729  -0.477  0.00  0.00    +0.295 HD
ENDBRANCH  37  38
ENDBRANCH   8  37
TORSDOF 6
