REMARK  Name = 136054932
REMARK  5 active torsions:
REMARK  status: ('A' for Active; 'I' for Inactive)
REMARK    1  A    between atoms: C_9  and  O_30
REMARK    2  A    between atoms: C_17  and  C_35
REMARK    3  A    between atoms: C_22  and  O_32
REMARK    4  A    between atoms: C_24  and  O_38
REMARK    5  A    between atoms: C_35  and  O_36
REMARK                            x       y       z     vdW  Elec       q    Type
REMARK                         _______ _______ _______ _____ _____    ______ ____
ROOT
ATOM      1  O   UNL     1       0.913   2.298  -1.716  0.00  0.00    -0.480 OA
ATOM      2  N   UNL     1       2.243  -1.689   0.283  0.00  0.00    -0.401 NA
ATOM      3  N   UNL     1       4.022   0.300  -0.500  0.00  0.00    -0.396 NA
ATOM      4  N   UNL     1      -2.344  -0.977  -0.848  0.00  0.00    -0.398 NA
ATOM      5  N   UNL     1      -3.587   0.699   0.948  0.00  0.00    -0.400 NA
ATOM      6  C   UNL     1       0.175   0.009  -2.231  0.00  0.00    +0.064 C 
ATOM      7  C   UNL     1       1.160   1.161  -2.588  0.00  0.00    +0.200 C 
ATOM      8  C   UNL     1       0.845  -1.266  -1.695  0.00  0.00    +0.066 C 
ATOM      9  C   UNL     1       2.651   0.803  -2.479  0.00  0.00    +0.205 C 
ATOM     10  C   UNL     1      -0.695   0.707  -1.236  0.00  0.00    +0.115 C 
ATOM     11  C   UNL     1      -0.205   1.979  -1.003  0.00  0.00    +0.119 C 
ATOM     12  C   UNL     1       2.039  -0.966  -0.834  0.00  0.00    +0.137 C 
ATOM     13  C   UNL     1       2.921   0.021  -1.224  0.00  0.00    +0.165 C 
ATOM     14  C   UNL     1      -1.843   0.246  -0.604  0.00  0.00    +0.142 C 
ATOM     15  C   UNL     1      -0.813   2.833  -0.113  0.00  0.00    +0.025 C 
ATOM     16  C   UNL     1      -2.479   1.101   0.307  0.00  0.00    +0.149 C 
ATOM     17  C   UNL     1      -1.955   2.377   0.542  0.00  0.00    +0.178 C 
ATOM     18  C   UNL     1       4.234  -0.409   0.621  0.00  0.00    +0.194 C 
ATOM     19  C   UNL     1       3.334  -1.415   1.018  0.00  0.00    +0.163 C 
ATOM     20  C   UNL     1      -3.452  -1.376  -0.205  0.00  0.00    +0.194 C 
ATOM     21  C   UNL     1      -4.083  -0.526   0.708  0.00  0.00    +0.163 C 
ATOM     22  C   UNL     1       5.355  -0.155   1.408  0.00  0.00    +0.166 C 
ATOM     23  C   UNL     1       3.588  -2.129   2.186  0.00  0.00    +0.035 C 
ATOM     24  C   UNL     1      -3.986  -2.642  -0.438  0.00  0.00    +0.166 C 
ATOM     25  C   UNL     1       5.600  -0.875   2.575  0.00  0.00    +0.039 C 
ATOM     26  C   UNL     1       4.712  -1.867   2.966  0.00  0.00    +0.006 C 
ATOM     27  C   UNL     1      -5.231  -0.965   1.363  0.00  0.00    +0.035 C 
ATOM     28  C   UNL     1      -5.135  -3.075   0.221  0.00  0.00    +0.039 C 
ATOM     29  C   UNL     1      -5.761  -2.232   1.127  0.00  0.00    +0.006 C 
ENDROOT
BRANCH   9  30
ATOM     30  O   UNL     1       3.048   0.004  -3.588  0.00  0.00    -0.375 OA
ATOM     31  H   UNL     1       2.883   0.489  -4.412  0.00  0.00    +0.211 HD
ENDBRANCH   9  30
BRANCH  22  32
ATOM     32  O   UNL     1       6.244   0.817   1.044  0.00  0.00    -0.503 OA
ATOM     33  H   UNL     1       6.100   1.314   0.263  0.00  0.00    +0.292 HD
ENDBRANCH  22  32
BRANCH  17  35
ATOM     34  O   UNL     1      -3.810   3.295   1.743  0.00  0.00    -0.249 OA
ATOM     35  C   UNL     1      -2.603   3.279   1.488  0.00  0.00    +0.324 C 
BRANCH  35  36
ATOM     36  O   UNL     1      -1.721   4.127   2.081  0.00  0.00    -0.480 OA
ATOM     37  H   UNL     1      -0.811   4.084   1.861  0.00  0.00    +0.295 HD
ENDBRANCH  35  36
ENDBRANCH  17  35
BRANCH  24  38
ATOM     38  O   UNL     1      -3.384  -3.488  -1.326  0.00  0.00    -0.503 OA
ATOM     39  H   UNL     1      -2.611  -3.218  -1.780  0.00  0.00    +0.292 HD
ENDBRANCH  24  38
TORSDOF 5
