REMARK  Name = 136042739
REMARK  4 active torsions:
REMARK  status: ('A' for Active; 'I' for Inactive)
REMARK    1  A    between atoms: N_2  and  C1*_16
REMARK    2  A    between atoms: C3*_17  and  O3*_20
REMARK    3  A    between atoms: C4*_19  and  C5*_22
REMARK    4  A    between atoms: C5*_22  and  O5*_23
REMARK                            x       y       z     vdW  Elec       q    Type
REMARK                         _______ _______ _______ _____ _____    ______ ____
ROOT
ATOM      1  O   UNL     1       3.787   2.521   0.285  0.00  0.00    -0.268 OA
ATOM      2  N   UNL     1      -0.233   0.492  -0.085  0.00  0.00    -0.239 N 
ATOM      3  N   UNL     1       0.821   2.450   0.159  0.00  0.00    -0.240 NA
ATOM      4  N   UNL     1       1.655  -1.021  -0.164  0.00  0.00    -0.356 NA
ATOM      5  N   UNL     1       3.706   0.199   0.044  0.00  0.00    -0.242 N 
ATOM      6  N   UNL     1       3.719  -2.143  -0.196  0.00  0.00    -0.294 N 
ATOM      7  C   UNL     1       1.101   0.207  -0.060  0.00  0.00    +0.211 C 
ATOM      8  C   UNL     1      -0.351   1.854   0.051  0.00  0.00    +0.224 C 
ATOM      9  C   UNL     1       1.718   1.425   0.089  0.00  0.00    +0.176 C 
ATOM     10  C   UNL     1       3.152   1.482   0.153  0.00  0.00    +0.273 C 
ATOM     11  C   UNL     1       2.969  -0.999  -0.109  0.00  0.00    +0.243 C 
ATOM     12  C   UNL     1       3.126  -3.434  -0.352  0.00  0.00    +0.112 C 
ATOM     13  H   UNL     1       4.688   0.126   0.075  0.00  0.00    +0.159 HD
ATOM     14  H   UNL     1       4.700  -2.073  -0.149  0.00  0.00    +0.150 HD
ENDROOT
BRANCH   2  16
ATOM     15  O4* UNL     1      -2.492   0.089  -0.927  0.00  0.00    -0.335 OA
ATOM     16  C1* UNL     1      -1.371  -0.486  -0.230  0.00  0.00    +0.198 C 
ATOM     17  C3* UNL     1      -3.325  -1.370   0.755  0.00  0.00    +0.144 C 
ATOM     18  C2* UNL     1      -1.908  -0.983   1.108  0.00  0.00    +0.083 C 
ATOM     19  C4* UNL     1      -3.714  -0.330  -0.287  0.00  0.00    +0.173 C 
BRANCH  17  20
ATOM     20  O3* UNL     1      -3.304  -2.664   0.156  0.00  0.00    -0.382 OA
ATOM     21  H3* UNL     1      -3.056  -3.324   0.821  0.00  0.00    +0.210 HD
ENDBRANCH  17  20
BRANCH  19  22
ATOM     22  C5* UNL     1      -4.370   0.900   0.325  0.00  0.00    +0.169 C 
BRANCH  22  23
ATOM     23  O5* UNL     1      -4.685   1.811  -0.714  0.00  0.00    -0.379 OA
ATOM     24  H5* UNL     1      -5.104   2.600  -0.336  0.00  0.00    +0.211 HD
ENDBRANCH  22  23
ENDBRANCH  19  22
ENDBRANCH   2  16
TORSDOF 4
