REMARK  Name = 136026393
REMARK  5 active torsions:
REMARK  status: ('A' for Active; 'I' for Inactive)
REMARK    1  A    between atoms: C_3  and  S_11
REMARK    2  A    between atoms: C_5  and  N_17
REMARK    3  A    between atoms: C_9  and  O_15
REMARK    4  A    between atoms: N_17  and  N_18
REMARK    5  A    between atoms: N_18  and  C_20
REMARK                            x       y       z     vdW  Elec       q    Type
REMARK                         _______ _______ _______ _____ _____    ______ ____
ROOT
ATOM      1  C   UNL     1      -0.693   0.610   0.177  0.00  0.00    +0.020 C 
ATOM      2  C   UNL     1      -1.856   1.376  -0.073  0.00  0.00    +0.003 C 
ATOM      3  C   UNL     1      -3.193  -0.655  -0.016  0.00  0.00    +0.112 C 
ATOM      4  C   UNL     1      -3.099   0.728  -0.167  0.00  0.00    +0.019 C 
ATOM      5  C   UNL     1       0.549   1.257   0.271  0.00  0.00    +0.123 C 
ATOM      6  C   UNL     1      -0.807  -0.782   0.326  0.00  0.00    +0.003 C 
ATOM      7  C   UNL     1      -2.050  -1.409   0.230  0.00  0.00    +0.019 C 
ATOM      8  C   UNL     1      -1.742   2.768  -0.222  0.00  0.00    +0.003 C 
ATOM      9  C   UNL     1       0.644   2.641   0.120  0.00  0.00    +0.150 C 
ATOM     10  C   UNL     1      -0.500   3.395  -0.126  0.00  0.00    +0.038 C 
ENDROOT
BRANCH   3  11
ATOM     11  S   UNL     1      -4.748  -1.442  -0.136  0.00  0.00    +0.042 S 
ATOM     12  O   UNL     1      -5.342  -1.451   1.387  0.00  0.00    -0.065 OA
ATOM     13  O   UNL     1      -5.623  -0.591  -0.928  0.00  0.00    -0.065 OA
ATOM     14  O   UNL     1      -4.496  -2.819  -0.531  0.00  0.00    -0.065 OA
ENDBRANCH   3  11
BRANCH   9  15
ATOM     15  O   UNL     1       1.847   3.275   0.211  0.00  0.00    -0.504 OA
ATOM     16  H   UNL     1       2.626   2.780   0.376  0.00  0.00    +0.292 HD
ENDBRANCH   9  15
BRANCH   5  17
ATOM     17  N   UNL     1       1.726   0.531   0.519  0.00  0.00    -0.124 NA
BRANCH  17  18
ATOM     18  N   UNL     1       2.240   0.175  -0.565  0.00  0.00    -0.109 NA
BRANCH  18  20
ATOM     19  N   UNL     1       3.269  -1.887  -0.178  0.00  0.00    -0.226 NA
ATOM     20  C   UNL     1       3.417  -0.551  -0.317  0.00  0.00    +0.170 C 
ATOM     21  C   UNL     1       4.632   0.109  -0.228  0.00  0.00    +0.038 C 
ATOM     22  C   UNL     1       5.769  -0.652   0.019  0.00  0.00    +0.005 C 
ATOM     23  C   UNL     1       5.658  -2.031   0.168  0.00  0.00    +0.021 C 
ATOM     24  C   UNL     1       4.396  -2.594   0.061  0.00  0.00    +0.100 C 
ENDBRANCH  18  20
ENDBRANCH  17  18
ENDBRANCH   5  17
TORSDOF 5
