136054933
  -OEChem-03292013293D

 51 56  0     1  0  0  0  0  0999 V2000
    2.4173   -0.3204   -3.1315 O   0  0  0  0  0  0  0  0  0  0  0  0
   -1.0254   -3.8358   -0.1617 O   0  0  0  0  0  0  0  0  0  0  0  0
    6.8484    0.1855   -1.5116 O   0  0  0  0  0  0  0  0  0  0  0  0
   -5.8740   -3.1688   -0.0167 O   0  0  0  0  0  0  0  0  0  0  0  0
   -0.5583    3.4496   -0.4055 O   0  0  0  0  0  0  0  0  0  0  0  0
   -6.1706   -1.2316    1.1348 O   0  0  0  0  0  0  0  0  0  0  0  0
    3.1662   -0.2483    1.5105 N   0  0  0  0  0  0  0  0  0  0  0  0
    4.1454   -0.1445   -1.0882 N   0  0  0  0  0  0  0  0  0  0  0  0
   -1.6013    0.9032   -0.1763 N   0  0  0  0  0  0  0  0  0  0  0  0
   -4.2977    0.5684    0.2739 N   0  0  0  0  0  0  0  0  0  0  0  0
    0.1811   -1.2811   -0.4184 C   0  0  2  0  0  0  0  0  0  0  0  0
    0.8698   -0.5235    0.7278 C   0  0  0  0  0  0  0  0  0  0  0  0
    0.4634   -0.5847   -1.7576 C   0  0  0  0  0  0  0  0  0  0  0  0
   -1.3056   -1.4534   -0.1706 C   0  0  0  0  0  0  0  0  0  0  0  0
    2.3364   -0.3668    0.4540 C   0  0  0  0  0  0  0  0  0  0  0  0
    1.9488   -0.4163   -2.0014 C   0  0  0  0  0  0  0  0  0  0  0  0
    2.8346   -0.3063   -0.8273 C   0  0  0  0  0  0  0  0  0  0  0  0
   -2.1215   -0.3291   -0.0625 C   0  0  0  0  0  0  0  0  0  0  0  0
   -1.8270   -2.7406   -0.0552 C   0  0  0  0  0  0  0  0  0  0  0  0
   -3.4909   -0.4991    0.1663 C   0  0  0  0  0  0  0  0  0  0  0  0
   -3.1846   -2.9091    0.1719 C   0  0  0  0  0  0  0  0  0  0  0  0
   -4.0061   -1.7887    0.2809 C   0  0  0  0  0  0  0  0  0  0  0  0
    4.4809   -0.0866    1.2761 C   0  0  0  0  0  0  0  0  0  0  0  0
    4.9763   -0.0350   -0.0391 C   0  0  0  0  0  0  0  0  0  0  0  0
   -2.4081    1.9707   -0.0685 C   0  0  0  0  0  0  0  0  0  0  0  0
   -3.7774    1.8007    0.1600 C   0  0  0  0  0  0  0  0  0  0  0  0
    6.3439    0.1327   -0.2430 C   0  0  0  0  0  0  0  0  0  0  0  0
    5.3717    0.0325    2.3400 C   0  0  0  0  0  0  0  0  0  0  0  0
   -5.4291   -2.0016    0.5205 C   0  0  0  0  0  0  0  0  0  0  0  0
   -1.8928    3.2603   -0.1827 C   0  0  0  0  0  0  0  0  0  0  0  0
   -4.5934    2.9249    0.2678 C   0  0  0  0  0  0  0  0  0  0  0  0
    7.2270    0.2500    0.8287 C   0  0  0  0  0  0  0  0  0  0  0  0
    6.7387    0.1999    2.1259 C   0  0  0  0  0  0  0  0  0  0  0  0
   -2.7142    4.3807   -0.0739 C   0  0  0  0  0  0  0  0  0  0  0  0
   -4.0720    4.2121    0.1526 C   0  0  0  0  0  0  0  0  0  0  0  0
    0.6638   -2.2666   -0.4752 H   0  0  0  0  0  0  0  0  0  0  0  0
    0.7336   -1.0759    1.6664 H   0  0  0  0  0  0  0  0  0  0  0  0
    0.4702    0.4810    0.8907 H   0  0  0  0  0  0  0  0  0  0  0  0
    0.0229    0.4119   -1.8440 H   0  0  0  0  0  0  0  0  0  0  0  0
    0.0583   -1.1974   -2.5728 H   0  0  0  0  0  0  0  0  0  0  0  0
   -3.5840   -3.9147    0.2763 H   0  0  0  0  0  0  0  0  0  0  0  0
   -1.5647   -4.6381   -0.0556 H   0  0  0  0  0  0  0  0  0  0  0  0
    5.0025   -0.0052    3.3630 H   0  0  0  0  0  0  0  0  0  0  0  0
   -5.6603    2.8050    0.4456 H   0  0  0  0  0  0  0  0  0  0  0  0
    8.2928    0.3806    0.6639 H   0  0  0  0  0  0  0  0  0  0  0  0
    7.4157    0.2903    2.9699 H   0  0  0  0  0  0  0  0  0  0  0  0
   -2.3076    5.3840   -0.1636 H   0  0  0  0  0  0  0  0  0  0  0  0
   -4.7247    5.0752    0.2398 H   0  0  0  0  0  0  0  0  0  0  0  0
    7.8126    0.3051   -1.4667 H   0  0  0  0  0  0  0  0  0  0  0  0
   -6.8313   -3.3055    0.1482 H   0  0  0  0  0  0  0  0  0  0  0  0
   -0.3756    4.4034   -0.4571 H   0  0  0  0  0  0  0  0  0  0  0  0
  1 16  2  0  0  0  0
  2 19  1  0  0  0  0
  2 42  1  0  0  0  0
  3 27  1  0  0  0  0
  3 49  1  0  0  0  0
  4 29  1  0  0  0  0
  4 50  1  0  0  0  0
  5 30  1  0  0  0  0
  5 51  1  0  0  0  0
  6 29  2  0  0  0  0
  7 15  2  0  0  0  0
  7 23  1  0  0  0  0
  8 17  2  0  0  0  0
  8 24  1  0  0  0  0
  9 18  2  0  0  0  0
  9 25  1  0  0  0  0
 10 20  2  0  0  0  0
 10 26  1  0  0  0  0
 11 12  1  0  0  0  0
 11 13  1  0  0  0  0
 11 14  1  0  0  0  0
 11 36  1  0  0  0  0
 12 15  1  0  0  0  0
 12 37  1  0  0  0  0
 12 38  1  0  0  0  0
 13 16  1  0  0  0  0
 13 39  1  0  0  0  0
 13 40  1  0  0  0  0
 14 18  1  0  0  0  0
 14 19  2  0  0  0  0
 15 17  1  0  0  0  0
 16 17  1  0  0  0  0
 18 20  1  0  0  0  0
 19 21  1  0  0  0  0
 20 22  1  0  0  0  0
 21 22  2  0  0  0  0
 21 41  1  0  0  0  0
 22 29  1  0  0  0  0
 23 24  2  0  0  0  0
 23 28  1  0  0  0  0
 24 27  1  0  0  0  0
 25 26  2  0  0  0  0
 25 30  1  0  0  0  0
 26 31  1  0  0  0  0
 27 32  2  0  0  0  0
 28 33  2  0  0  0  0
 28 43  1  0  0  0  0
 30 34  2  0  0  0  0
 31 35  2  0  0  0  0
 31 44  1  0  0  0  0
 32 33  1  0  0  0  0
 32 45  1  0  0  0  0
 33 46  1  0  0  0  0
 34 35  1  0  0  0  0
 34 47  1  0  0  0  0
 35 48  1  0  0  0  0
M  END
> <PUBCHEM_COMPOUND_CID>
136054933

> <PUBCHEM_CONFORMER_RMSD>
0.8

> <PUBCHEM_CONFORMER_DIVERSEORDER>
1
10
3
6
5
7
4
9
8
2

> <PUBCHEM_MMFF94_PARTIAL_CHARGES>
46
1 -0.57
10 -0.62
11 0.14
12 0.14
13 0.06
14 -0.14
15 0.17
16 0.42
17 0.4
18 0.31
19 0.08
2 -0.53
20 0.31
21 -0.15
22 0.09
23 0.31
24 0.31
25 0.31
26 0.31
27 0.08
28 -0.15
29 0.63
3 -0.53
30 0.08
31 -0.15
32 -0.15
33 -0.15
34 -0.15
35 -0.15
4 -0.65
41 0.15
42 0.45
43 0.15
44 0.15
45 0.15
46 0.15
47 0.15
48 0.15
49 0.45
5 -0.53
50 0.5
51 0.45
6 -0.57
7 -0.62
8 -0.62
9 -0.62

> <PUBCHEM_EFFECTIVE_ROTOR_COUNT>
2.6

> <PUBCHEM_PHARMACOPHORE_FEATURES>
17
1 1 acceptor
1 10 acceptor
1 2 donor
1 3 donor
1 4 acceptor
1 5 donor
1 6 acceptor
1 7 acceptor
1 8 acceptor
1 9 acceptor
3 4 6 29 anion
6 11 12 13 15 16 17 rings
6 14 18 19 20 21 22 rings
6 23 24 27 28 32 33 rings
6 25 26 30 31 34 35 rings
6 7 8 15 17 23 24 rings
6 9 10 18 20 25 26 rings

> <PUBCHEM_HEAVY_ATOM_COUNT>
35

> <PUBCHEM_ATOM_DEF_STEREO_COUNT>
1

> <PUBCHEM_ATOM_UDEF_STEREO_COUNT>
0

> <PUBCHEM_BOND_DEF_STEREO_COUNT>
0

> <PUBCHEM_BOND_UDEF_STEREO_COUNT>
0

> <PUBCHEM_ISOTOPIC_ATOM_COUNT>
0

> <PUBCHEM_COMPONENT_COUNT>
1

> <PUBCHEM_CACTVS_TAUTO_COUNT>
-1

> <PUBCHEM_CONFORMER_ID>
081C089500000001

> <PUBCHEM_MMFF94_ENERGY>
117.3461

> <PUBCHEM_FEATURE_SELFOVERLAP>
86.497

> <PUBCHEM_SHAPE_FINGERPRINT>
10290309 65 18122344575947818249
10319926 262 18340763737800814906
10369192 42 17060056012313332648
10411042 1 18194402423774308699
10930396 42 18126823092454737787
11049842 53 18045526148001592926
11059845 2 17759215437916403544
11135609 187 18048026373768108621
12107183 9 17901938644139762290
12107698 1 18335700593685931896
12128747 34 18199474273191958414
12166972 35 17386002935431458268
12236239 1 17603583053937989742
12403259 415 17775566434030305126
12596602 18 17749105604312976224
12788726 201 18189637079590232311
13402501 40 17988918951338801008
13540713 4 18058178227901211599
13782708 43 17846788386093696814
14028597 1 17821722836905906283
14068700 675 18188768486958253551
14294032 229 18337403634308383633
14395042 24 18188224135158047833
14856354 85 18336269058346232182
15328829 1 17604159211269086438
15419008 47 18059857302605684240
15629462 23 14274278264533628654
16067689 68 17898264166853869898
16087824 20 18410572848546951125
19304671 126 17126765328238622477
20511986 3 17458898250151429532
21033648 29 17703213071549167664
21033650 10 18191331337120205382
21133410 221 17700376369999477904
21133410 90 18189599688185664381
2132832 1 18114465668390503581
21756936 100 18270384024081153724
21792961 116 17775573010173855054
21792965 68 18337939100866285356
21796203 349 17901422122935441017
23522609 53 17604730901908418036
23557571 272 18272100391374877276
23559900 14 18126581028414257894
244849 19 17773888505981907422
24771293 8 18272938190384028529
25019877 29 16988289806269198759
3418910 222 18190467249978355932
3504750 166 18189034457462299978
3882209 13 17697016404135409655
4144715 1 18411422843416306266
469060 322 18338537291215599179
508706 21 18271795818085660752
550186 7 18271805683857213380
5969126 39 18271798065033649215
6700243 42 17768848512220947302
7808743 9 18337672997013037336
9849439 229 17906452122023660041
9896288 288 18408042884079335547
9961470 85 17977100159238845341
9981440 41 18263928735548614779

> <PUBCHEM_SHAPE_MULTIPOLES>
665.14
16.16
4.3
1.64
21.14
3.16
-0.53
0.07
5.75
-10.91
0.05
3.28
-0.19
0.69

> <PUBCHEM_SHAPE_SELFOVERLAP>
1535.085

> <PUBCHEM_SHAPE_VOLUME>
337.2

> <PUBCHEM_COORDINATE_TYPE>
2
5
10

$$$$
