REMARK  Name = 136055748
REMARK  9 active torsions:
REMARK  status: ('A' for Active; 'I' for Inactive)
REMARK    1  A    between atoms: C_2  and  O_19
REMARK    2  A    between atoms: C_3  and  N_7
REMARK    3  A    between atoms: C_4  and  O_21
REMARK    4  A    between atoms: C_5  and  C_23
REMARK    5  A    between atoms: C_15  and  S_17
REMARK    6  A    between atoms: C_23  and  O_24
REMARK    7  A    between atoms: O_24  and  P_25
REMARK    8  A    between atoms: P_25  and  O_27
REMARK    9  A    between atoms: P_25  and  O_29
REMARK                            x       y       z     vdW  Elec       q    Type
REMARK                         _______ _______ _______ _____ _____    ______ ____
ROOT
ATOM      1  O   UNL     1       1.369  -0.744   1.061  0.00  0.00    -0.333 OA
ATOM      2  C   UNL     1       0.426  -1.736  -0.869  0.00  0.00    +0.187 C 
ATOM      3  C   UNL     1       0.102  -0.976   0.412  0.00  0.00    +0.228 C 
ATOM      4  C   UNL     1       1.629  -2.559  -0.452  0.00  0.00    +0.171 C 
ATOM      5  C   UNL     1       2.373  -1.596   0.465  0.00  0.00    +0.176 C 
ENDROOT
BRANCH   3   7
ATOM      6  O   UNL     1      -3.960   3.410  -0.414  0.00  0.00    -0.274 OA
ATOM      7  N   UNL     1      -0.635   0.318   0.160  0.00  0.00    -0.240 N 
ATOM      8  N   UNL     1      -2.876  -0.522   0.372  0.00  0.00    -0.369 NA
ATOM      9  N   UNL     1      -4.519   1.198   0.050  0.00  0.00    -0.254 N 
ATOM     10  C   UNL     1      -1.992   0.483   0.150  0.00  0.00    +0.180 C 
ATOM     11  C   UNL     1      -0.031   1.526  -0.097  0.00  0.00    +0.066 C 
ATOM     12  C   UNL     1      -2.254   1.813  -0.117  0.00  0.00    +0.167 C 
ATOM     13  C   UNL     1      -1.017   2.475  -0.275  0.00  0.00    +0.007 C 
ATOM     14  C   UNL     1      -3.629   2.253  -0.183  0.00  0.00    +0.240 C 
ATOM     15  C   UNL     1      -4.111  -0.113   0.311  0.00  0.00    +0.214 C 
ATOM     16  H   UNL     1      -5.484   1.389   0.029  0.00  0.00    +0.158 HD
BRANCH  15  17
ATOM     17  S   UNL     1      -5.439  -1.213   0.560  0.00  0.00    -0.066 S 
ATOM     18  C   UNL     1      -4.678  -2.731  -0.053  0.00  0.00    +0.078 C 
ENDBRANCH  15  17
ENDBRANCH   3   7
BRANCH   2  19
ATOM     19  O   UNL     1      -0.652  -2.527  -1.330  0.00  0.00    -0.378 OA
ATOM     20  H   UNL     1      -1.390  -1.952  -1.582  0.00  0.00    +0.211 HD
ENDBRANCH   2  19
BRANCH   4  21
ATOM     21  O   UNL     1       1.217  -3.680   0.329  0.00  0.00    -0.379 OA
ATOM     22  H   UNL     1       0.740  -4.309  -0.235  0.00  0.00    +0.211 HD
ENDBRANCH   4  21
BRANCH   5  23
ATOM     23  C   UNL     1       3.367  -0.714  -0.278  0.00  0.00    +0.186 C 
BRANCH  23  24
ATOM     24  O   UNL     1       3.995   0.147   0.656  0.00  0.00    -0.271 OA
BRANCH  24  25
ATOM     25  P   UNL     1       5.105   1.195   0.116  0.00  0.00    +0.473 P 
ATOM     26  O   UNL     1       5.719   2.068   1.171  0.00  0.00    -0.227 OA
BRANCH  25  27
ATOM     27  O   UNL     1       4.343   1.981  -1.074  0.00  0.00    -0.303 OA
ATOM     28  H   UNL     1       3.981   1.340  -1.705  0.00  0.00    +0.222 HD
ENDBRANCH  25  27
BRANCH  25  29
ATOM     29  O   UNL     1       6.146   0.243  -0.674  0.00  0.00    -0.303 OA
ATOM     30  H   UNL     1       5.668  -0.283  -1.333  0.00  0.00    +0.222 HD
ENDBRANCH  25  29
ENDBRANCH  24  25
ENDBRANCH  23  24
ENDBRANCH   5  23
TORSDOF 9
