136070050
  -OEChem-03292013293D

 46 49  0     1  0  0  0  0  0999 V2000
    3.3401   -1.5488    1.6069 O   0  0  0  0  0  0  0  0  0  0  0  0
    3.3864    1.0426    0.6803 O   0  0  0  0  0  0  0  0  0  0  0  0
    2.7733   -2.3841   -1.9096 O   0  0  0  0  0  0  0  0  0  0  0  0
    0.9122   -3.0485    1.1420 O   0  0  0  0  0  0  0  0  0  0  0  0
   -1.9019   -2.7731    0.0226 O   0  0  0  0  0  0  0  0  0  0  0  0
   -2.2922    2.5887   -0.0738 O   0  0  0  0  0  0  0  0  0  0  0  0
    4.3030    2.1353   -1.1370 O   0  0  0  0  0  0  0  0  0  0  0  0
   -4.8697    2.4664   -0.0046 O   0  0  0  0  0  0  0  0  0  0  0  0
    0.7659    2.4024   -0.1805 N   0  3  0  0  0  0  0  0  0  0  0  0
    1.0652    3.5089   -0.2275 N   0  5  0  0  0  0  0  0  0  0  0  0
    3.4346   -1.3504    0.1898 C   0  0  2  0  0  0  0  0  0  0  0  0
    2.8511    0.0410   -0.1797 C   0  0  1  0  0  0  0  0  0  0  0  0
    2.6271   -2.4871   -0.4929 C   0  0  1  0  0  0  0  0  0  0  0  0
    1.1173   -2.4519   -0.1366 C   0  0  2  0  0  0  0  0  0  0  0  0
    1.3672    0.0286   -0.1256 C   0  0  0  0  0  0  0  0  0  0  0  0
    0.5784   -1.0558   -0.0888 C   0  0  0  0  0  0  0  0  0  0  0  0
   -0.8124   -0.6712   -0.0541 C   0  0  0  0  0  0  0  0  0  0  0  0
    0.4247    1.1388   -0.1266 C   0  0  0  0  0  0  0  0  0  0  0  0
    4.9221   -1.4231   -0.1793 C   0  0  0  0  0  0  0  0  0  0  0  0
   -0.9494    0.6572   -0.0748 C   0  0  0  0  0  0  0  0  0  0  0  0
   -1.9944   -1.5530   -0.0021 C   0  0  0  0  0  0  0  0  0  0  0  0
   -2.2269    1.3678   -0.0528 C   0  0  0  0  0  0  0  0  0  0  0  0
   -3.3218   -0.8862    0.0206 C   0  0  0  0  0  0  0  0  0  0  0  0
   -3.4338    0.5122   -0.0037 C   0  0  0  0  0  0  0  0  0  0  0  0
    4.0944    2.0359    0.0645 C   0  0  0  0  0  0  0  0  0  0  0  0
   -4.6968    1.1144    0.0178 C   0  0  0  0  0  0  0  0  0  0  0  0
   -4.4783   -1.6735    0.0671 C   0  0  0  0  0  0  0  0  0  0  0  0
   -5.8440    0.3221    0.0635 C   0  0  0  0  0  0  0  0  0  0  0  0
   -5.7351   -1.0673    0.0884 C   0  0  0  0  0  0  0  0  0  0  0  0
    4.5940    3.0115    1.0866 C   0  0  0  0  0  0  0  0  0  0  0  0
    3.1024    0.2355   -1.2309 H   0  0  0  0  0  0  0  0  0  0  0  0
    3.0425   -3.4557   -0.1862 H   0  0  0  0  0  0  0  0  0  0  0  0
    0.5577   -3.0340   -0.8782 H   0  0  0  0  0  0  0  0  0  0  0  0
    5.5058   -0.7005    0.4019 H   0  0  0  0  0  0  0  0  0  0  0  0
    5.0906   -1.2282   -1.2430 H   0  0  0  0  0  0  0  0  0  0  0  0
    5.3334   -2.4106    0.0593 H   0  0  0  0  0  0  0  0  0  0  0  0
    3.7079   -2.4252    1.8130 H   0  0  0  0  0  0  0  0  0  0  0  0
    2.3111   -3.1410   -2.3080 H   0  0  0  0  0  0  0  0  0  0  0  0
    1.2173   -3.9701    1.0874 H   0  0  0  0  0  0  0  0  0  0  0  0
   -4.4228   -2.7586    0.0871 H   0  0  0  0  0  0  0  0  0  0  0  0
   -6.8289    0.7815    0.0802 H   0  0  0  0  0  0  0  0  0  0  0  0
   -6.6312   -1.6803    0.1243 H   0  0  0  0  0  0  0  0  0  0  0  0
    3.7514    3.4356    1.6385 H   0  0  0  0  0  0  0  0  0  0  0  0
    5.1234    3.8253    0.5828 H   0  0  0  0  0  0  0  0  0  0  0  0
    5.2871    2.5108    1.7671 H   0  0  0  0  0  0  0  0  0  0  0  0
   -4.0163    2.9236   -0.0364 H   0  0  0  0  0  0  0  0  0  0  0  0
  1 11  1  0  0  0  0
  1 37  1  0  0  0  0
  2 12  1  0  0  0  0
  2 25  1  0  0  0  0
  3 13  1  0  0  0  0
  3 38  1  0  0  0  0
  4 14  1  0  0  0  0
  4 39  1  0  0  0  0
  5 21  2  0  0  0  0
  6 22  2  0  0  0  0
  7 25  2  0  0  0  0
  8 26  1  0  0  0  0
  8 46  1  0  0  0  0
  9 10  2  0  0  0  0
  9 18  2  0  0  0  0
 11 12  1  0  0  0  0
 11 13  1  0  0  0  0
 11 19  1  0  0  0  0
 12 15  1  0  0  0  0
 12 31  1  0  0  0  0
 13 14  1  0  0  0  0
 13 32  1  0  0  0  0
 14 16  1  0  0  0  0
 14 33  1  0  0  0  0
 15 16  2  0  0  0  0
 15 18  1  0  0  0  0
 16 17  1  0  0  0  0
 17 20  2  0  0  0  0
 17 21  1  0  0  0  0
 18 20  1  0  0  0  0
 19 34  1  0  0  0  0
 19 35  1  0  0  0  0
 19 36  1  0  0  0  0
 20 22  1  0  0  0  0
 21 23  1  0  0  0  0
 22 24  1  0  0  0  0
 23 24  2  0  0  0  0
 23 27  1  0  0  0  0
 24 26  1  0  0  0  0
 25 30  1  0  0  0  0
 26 28  2  0  0  0  0
 27 29  2  0  0  0  0
 27 40  1  0  0  0  0
 28 29  1  0  0  0  0
 28 41  1  0  0  0  0
 29 42  1  0  0  0  0
 30 43  1  0  0  0  0
 30 44  1  0  0  0  0
 30 45  1  0  0  0  0
M  CHG  2   9   1  10  -1
M  END
> <PUBCHEM_COMPOUND_CID>
136070050

> <PUBCHEM_CONFORMER_RMSD>
0.8

> <PUBCHEM_CONFORMER_DIVERSEORDER>
1
2
3

> <PUBCHEM_MMFF94_PARTIAL_CHARGES>
36
1 -0.68
10 -0.37
11 0.28
12 0.42
13 0.28
14 0.42
15 -0.12
16 -0.14
17 0.01
18 -0.02
2 -0.43
20 0.03
21 0.47
22 0.47
23 0.09
24 0.09
25 0.66
26 0.08
27 -0.15
28 -0.15
29 -0.15
3 -0.68
30 0.06
37 0.4
38 0.4
39 0.4
4 -0.68
40 0.15
41 0.15
42 0.15
46 0.45
5 -0.57
6 -0.57
7 -0.57
8 -0.53
9 0.36

> <PUBCHEM_EFFECTIVE_ROTOR_COUNT>
2.8

> <PUBCHEM_PHARMACOPHORE_FEATURES>
15
1 1 acceptor
1 1 donor
1 3 acceptor
1 3 donor
1 4 acceptor
1 4 donor
1 5 acceptor
1 6 acceptor
1 7 acceptor
1 8 donor
1 9 acceptor
5 15 16 17 18 20 rings
6 11 12 13 14 15 16 rings
6 17 20 21 22 23 24 rings
6 23 24 26 27 28 29 rings

> <PUBCHEM_HEAVY_ATOM_COUNT>
30

> <PUBCHEM_ATOM_DEF_STEREO_COUNT>
4

> <PUBCHEM_ATOM_UDEF_STEREO_COUNT>
0

> <PUBCHEM_BOND_DEF_STEREO_COUNT>
0

> <PUBCHEM_BOND_UDEF_STEREO_COUNT>
1

> <PUBCHEM_ISOTOPIC_ATOM_COUNT>
0

> <PUBCHEM_COMPONENT_COUNT>
1

> <PUBCHEM_CACTVS_TAUTO_COUNT>
-1

> <PUBCHEM_CONFORMER_ID>
081C43A200000001

> <PUBCHEM_MMFF94_ENERGY>
85.0452

> <PUBCHEM_FEATURE_SELFOVERLAP>
76.286

> <PUBCHEM_SHAPE_FINGERPRINT>
10411042 1 17978792303302959390
10906281 52 18189630508026687521
10967382 1 18410292544534478885
1100329 8 18337671906096118810
11513181 2 18130509733404894695
11578080 2 16915362532460609411
12236239 1 17604437279809567286
12403259 226 18120089477477761526
12422481 6 18264747970574943416
12788726 201 17489318455716157297
13140716 1 18409158888433625640
13224815 77 18408885109616640779
13402501 40 18410011044035897328
14790565 3 18410296921391295397
15081414 286 18339934782905033153
15196674 1 18410575085122008333
1601671 61 18337107990139442356
17844677 252 18339931424493607457
1813 80 17313387850776208445
18681886 176 18343015567700526282
19591789 44 18337671914649064951
20691752 17 17385442107128557618
20739085 24 18333732412174846444
21033648 29 17559656379271685171
21197605 99 18268431419931829835
21267235 1 18338806627924251191
21421861 104 17968362473524245592
21452121 103 18412820309562335802
21859007 373 17461420461206246573
22149856 69 18338817692719751555
23559900 14 18199467662535442070
239999 70 18342459197246683758
3004659 81 18334296439922043542
335352 9 18338234864861137935
338550 245 18334579083040500044
3411729 13 18337387244897395656
34797466 226 17704080620213852181
34934 24 18341329014908982007
350125 39 18409448073056090892
3633792 109 18338507557621686949
3680242 22 18190178983993082443
5104073 3 18409168801202412089
59755656 215 18338519745625692340
6823239 73 18272097037348706742
9709674 26 18410298034115100039
9981440 41 17615968146223983641

> <PUBCHEM_SHAPE_MULTIPOLES>
560.47
11.42
3.81
0.89
7.67
0.97
0.02
2.39
-0.59
-2.79
-0.05
-0.92
-0.26
0.52

> <PUBCHEM_SHAPE_SELFOVERLAP>
1257.831

> <PUBCHEM_SHAPE_VOLUME>
291.9

> <PUBCHEM_COORDINATE_TYPE>
2
5
10

$$$$
