REMARK  Name = 136070049
REMARK  4 active torsions:
REMARK  status: ('A' for Active; 'I' for Inactive)
REMARK    1  A    between atoms: N_1  and  N_11
REMARK    2  A    between atoms: N_1  and  C_12
REMARK    3  A    between atoms: N_2  and  N_9
REMARK    4  A    between atoms: C_12  and  C_14
REMARK                            x       y       z     vdW  Elec       q    Type
REMARK                         _______ _______ _______ _____ _____    ______ ____
ROOT
ATOM      1  N   UNL     1       0.461   0.875   0.465  0.00  0.00    -0.214 N 
ATOM      2  N   UNL     1       2.464   0.078  -0.548  0.00  0.00    -0.196 N 
ATOM      3  N   UNL     1       1.181  -1.345   0.903  0.00  0.00    -0.266 NA
ATOM      4  C   UNL     1       1.383  -0.197   0.301  0.00  0.00    +0.236 C 
ATOM      5  H   UNL     1       2.347   0.761  -1.248  0.00  0.00    +0.197 HD
ATOM      6  H   UNL     1       0.396  -1.463   1.486  0.00  0.00    +0.190 HD
ENDROOT
BRANCH   2   9
ATOM      7  O   UNL     1       3.743  -1.397   0.451  0.00  0.00    -0.108 OA
ATOM      8  O   UNL     1       4.574  -0.276  -1.253  0.00  0.00    -0.108 OA
ATOM      9  N   UNL     1       3.677  -0.555  -0.451  0.00  0.00    +0.133 N 
ENDBRANCH   2   9
BRANCH   1  11
ATOM     10  O   UNL     1      -0.128   2.959   0.129  0.00  0.00    -0.076 OA
ATOM     11  N   UNL     1       0.739   2.102  -0.073  0.00  0.00    +0.063 NA
ENDBRANCH   1  11
BRANCH   1  12
ATOM     12  C   UNL     1      -0.710   0.632   1.330  0.00  0.00    +0.153 C 
BRANCH  12  14
ATOM     13  N   UNL     1      -3.957  -1.018  -0.954  0.00  0.00    -0.242 NA
ATOM     14  C   UNL     1      -1.846   0.055   0.531  0.00  0.00    +0.005 C 
ATOM     15  C   UNL     1      -2.602   0.875  -0.300  0.00  0.00    +0.018 C 
ATOM     16  C   UNL     1      -2.144  -1.300   0.620  0.00  0.00    +0.018 C 
ATOM     17  C   UNL     1      -3.637   0.294  -1.015  0.00  0.00    +0.099 C 
ATOM     18  C   UNL     1      -3.200  -1.783  -0.136  0.00  0.00    +0.099 C 
ENDBRANCH  12  14
ENDBRANCH   1  12
TORSDOF 4
