REMARK  Name = 136070050
REMARK  7 active torsions:
REMARK  status: ('A' for Active; 'I' for Inactive)
REMARK    1  A    between atoms: N_3  and  C_12
REMARK    2  A    between atoms: C_5  and  O_23
REMARK    3  A    between atoms: C_6  and  O_31
REMARK    4  A    between atoms: C_7  and  O_25
REMARK    5  A    between atoms: C_8  and  O_27
REMARK    6  A    between atoms: C_19  and  O_29
REMARK    7  A    between atoms: O_31  and  C_33
REMARK                            x       y       z     vdW  Elec       q    Type
REMARK                         _______ _______ _______ _____ _____    ______ ____
ROOT
ATOM      1  O   UNL     1      -1.902  -2.773   0.023  0.00  0.00    -0.287 OA
ATOM      2  O   UNL     1      -2.292   2.589  -0.074  0.00  0.00    -0.286 OA
ATOM      3  C   UNL     1       3.435  -1.350   0.190  0.00  0.00    +0.155 C 
ATOM      4  C   UNL     1       2.851   0.041  -0.180  0.00  0.00    +0.215 C 
ATOM      5  C   UNL     1       2.627  -2.487  -0.493  0.00  0.00    +0.166 C 
ATOM      6  C   UNL     1       1.117  -2.452  -0.137  0.00  0.00    +0.148 C 
ATOM      7  C   UNL     1       1.367   0.029  -0.126  0.00  0.00    +0.020 C 
ATOM      8  C   UNL     1       0.578  -1.056  -0.089  0.00  0.00    +0.078 C 
ATOM      9  C   UNL     1      -0.812  -0.671  -0.054  0.00  0.00    +0.027 C 
ATOM     10  C   UNL     1       0.425   1.139  -0.127  0.00  0.00    +0.085 C 
ATOM     11  C   UNL     1       4.922  -1.423  -0.179  0.00  0.00    +0.036 C 
ATOM     12  C   UNL     1      -0.949   0.657  -0.075  0.00  0.00    +0.055 C 
ATOM     13  C   UNL     1      -1.994  -1.553  -0.002  0.00  0.00    +0.192 C 
ATOM     14  C   UNL     1      -2.227   1.368  -0.053  0.00  0.00    +0.200 C 
ATOM     15  C   UNL     1      -3.322  -0.886   0.021  0.00  0.00    +0.045 C 
ATOM     16  C   UNL     1      -3.434   0.512  -0.004  0.00  0.00    +0.076 C 
ATOM     17  C   UNL     1      -4.697   1.114   0.018  0.00  0.00    +0.137 C 
ATOM     18  C   UNL     1      -4.478  -1.673   0.067  0.00  0.00    +0.003 C 
ATOM     19  C   UNL     1      -5.844   0.322   0.064  0.00  0.00    +0.037 C 
ATOM     20  C   UNL     1      -5.735  -1.067   0.088  0.00  0.00    +0.003 C 
ENDROOT
BRANCH  10  21
ATOM     21  N   UNL     1       0.766   2.402  -0.180  0.00  0.00    -0.130 NA
ATOM     22  N   UNL     1       1.065   3.509  -0.228  0.00  0.00    +0.004 NA
ENDBRANCH  10  21
BRANCH   3  23
ATOM     23  O   UNL     1       3.340  -1.549   1.607  0.00  0.00    -0.380 OA
ATOM     24  H   UNL     1       2.409  -1.509   1.878  0.00  0.00    +0.211 HD
ENDBRANCH   3  23
BRANCH   5  25
ATOM     25  O   UNL     1       2.773  -2.384  -1.910  0.00  0.00    -0.380 OA
ATOM     26  H   UNL     1       3.715  -2.405  -2.140  0.00  0.00    +0.211 HD
ENDBRANCH   5  25
BRANCH   6  27
ATOM     27  O   UNL     1       0.912  -3.049   1.142  0.00  0.00    -0.381 OA
ATOM     28  H   UNL     1       1.255  -3.956   1.134  0.00  0.00    +0.210 HD
ENDBRANCH   6  27
BRANCH  17  29
ATOM     29  O   UNL     1      -4.870   2.466  -0.005  0.00  0.00    -0.505 OA
ATOM     30  H   UNL     1      -4.124   3.034  -0.035  0.00  0.00    +0.292 HD
ENDBRANCH  17  29
BRANCH   4  31
ATOM     31  O   UNL     1       3.386   1.043   0.680  0.00  0.00    -0.445 OA
BRANCH  31  33
ATOM     32  O   UNL     1       4.303   2.135  -1.137  0.00  0.00    -0.250 OA
ATOM     33  C   UNL     1       4.094   2.036   0.065  0.00  0.00    +0.318 C 
ATOM     34  C   UNL     1       4.594   3.011   1.087  0.00  0.00    +0.121 C 
ENDBRANCH  31  33
ENDBRANCH   4  31
TORSDOF 7
