136045770
  -OEChem-03292013293D

 30 32  0     1  0  0  0  0  0999 V2000
    3.8566    2.8675    0.4485 Cl  0  0  0  0  0  0  0  0  0  0  0  0
    2.0501    0.4799    0.9511 O   0  0  0  0  0  0  0  0  0  0  0  0
    1.1707   -2.3118   -1.1496 O   0  0  0  0  0  0  0  0  0  0  0  0
    3.4226   -2.1695    0.4258 O   0  0  0  0  0  0  0  0  0  0  0  0
   -4.5876    1.3849   -0.4316 O   0  0  0  0  0  0  0  0  0  0  0  0
   -0.2441    0.2642    0.1462 N   0  0  0  0  0  0  0  0  0  0  0  0
   -1.6619    1.9045   -0.4057 N   0  0  0  0  0  0  0  0  0  0  0  0
   -1.8029   -1.5424    0.5723 N   0  0  0  0  0  0  0  0  0  0  0  0
   -4.0620   -0.7928    0.2253 N   0  0  0  0  0  0  0  0  0  0  0  0
    1.6944   -1.0385   -0.8292 C   0  0  1  0  0  0  0  0  0  0  0  0
    1.0666   -0.4335    0.4223 C   0  0  1  0  0  0  0  0  0  0  0  0
    3.1630   -1.0785   -0.4563 C   0  0  1  0  0  0  0  0  0  0  0  0
    3.3290    0.2139    0.3330 C   0  0  1  0  0  0  0  0  0  0  0  0
    3.6925    1.4055   -0.5422 C   0  0  0  0  0  0  0  0  0  0  0  0
   -1.4957   -0.2710    0.2262 C   0  0  0  0  0  0  0  0  0  0  0  0
   -0.3962    1.5746   -0.2372 C   0  0  0  0  0  0  0  0  0  0  0  0
   -2.3421    0.7582   -0.1179 C   0  0  0  0  0  0  0  0  0  0  0  0
   -3.7642    0.5284   -0.1353 C   0  0  0  0  0  0  0  0  0  0  0  0
   -3.0889   -1.7436    0.5544 C   0  0  0  0  0  0  0  0  0  0  0  0
    1.5431   -0.3777   -1.6916 H   0  0  0  0  0  0  0  0  0  0  0  0
    0.8428   -1.1838    1.1901 H   0  0  0  0  0  0  0  0  0  0  0  0
    3.8276   -1.1782   -1.3193 H   0  0  0  0  0  0  0  0  0  0  0  0
    4.0646    0.1000    1.1382 H   0  0  0  0  0  0  0  0  0  0  0  0
    2.9173    1.6161   -1.2844 H   0  0  0  0  0  0  0  0  0  0  0  0
    4.6424    1.2410   -1.0590 H   0  0  0  0  0  0  0  0  0  0  0  0
    1.6979   -2.6667   -1.8856 H   0  0  0  0  0  0  0  0  0  0  0  0
    4.3660   -2.1364    0.6596 H   0  0  0  0  0  0  0  0  0  0  0  0
    0.4460    2.2373   -0.3808 H   0  0  0  0  0  0  0  0  0  0  0  0
   -3.5215   -2.7234    0.8095 H   0  0  0  0  0  0  0  0  0  0  0  0
   -5.0384   -1.0728    0.2476 H   0  0  0  0  0  0  0  0  0  0  0  0
  1 14  1  0  0  0  0
  2 11  1  0  0  0  0
  2 13  1  0  0  0  0
  3 10  1  0  0  0  0
  3 26  1  0  0  0  0
  4 12  1  0  0  0  0
  4 27  1  0  0  0  0
  5 18  2  0  0  0  0
  6 11  1  0  0  0  0
  6 15  1  0  0  0  0
  6 16  1  0  0  0  0
  7 16  2  0  0  0  0
  7 17  1  0  0  0  0
  8 15  1  0  0  0  0
  8 19  2  0  0  0  0
  9 18  1  0  0  0  0
  9 19  1  0  0  0  0
  9 30  1  0  0  0  0
 10 11  1  0  0  0  0
 10 12  1  0  0  0  0
 10 20  1  0  0  0  0
 11 21  1  0  0  0  0
 12 13  1  0  0  0  0
 12 22  1  0  0  0  0
 13 14  1  0  0  0  0
 13 23  1  0  0  0  0
 14 24  1  0  0  0  0
 14 25  1  0  0  0  0
 15 17  2  0  0  0  0
 16 28  1  0  0  0  0
 17 18  1  0  0  0  0
 19 29  1  0  0  0  0
M  END
> <PUBCHEM_COMPOUND_CID>
136045770

> <PUBCHEM_CONFORMER_RMSD>
0.6

> <PUBCHEM_CONFORMER_DIVERSEORDER>
1
14
20
8
11
17
22
27
21
7
6
26
28
3
2
4
23
16
15
10
19
12
13
9
5
18
24
25

> <PUBCHEM_MMFF94_PARTIAL_CHARGES>
24
1 -0.29
10 0.28
11 0.54
12 0.28
13 0.28
14 0.29
15 -0.03
16 0.04
17 0.14
18 0.72
19 0.45
2 -0.56
26 0.4
27 0.4
28 0.15
29 0.06
3 -0.68
30 0.37
4 -0.68
5 -0.57
6 0.05
7 -0.57
8 -0.58
9 -0.49

> <PUBCHEM_EFFECTIVE_ROTOR_COUNT>
3

> <PUBCHEM_PHARMACOPHORE_FEATURES>
11
1 2 acceptor
1 3 acceptor
1 3 donor
1 4 acceptor
1 4 donor
1 5 acceptor
1 9 donor
3 6 7 16 cation
5 2 10 11 12 13 rings
5 6 7 15 16 17 rings
6 8 9 15 17 18 19 rings

> <PUBCHEM_HEAVY_ATOM_COUNT>
19

> <PUBCHEM_ATOM_DEF_STEREO_COUNT>
4

> <PUBCHEM_ATOM_UDEF_STEREO_COUNT>
0

> <PUBCHEM_BOND_DEF_STEREO_COUNT>
0

> <PUBCHEM_BOND_UDEF_STEREO_COUNT>
0

> <PUBCHEM_ISOTOPIC_ATOM_COUNT>
0

> <PUBCHEM_COMPONENT_COUNT>
1

> <PUBCHEM_CACTVS_TAUTO_COUNT>
-1

> <PUBCHEM_CONFORMER_ID>
081BE4CA00000001

> <PUBCHEM_MMFF94_ENERGY>
43.4594

> <PUBCHEM_FEATURE_SELFOVERLAP>
55.973

> <PUBCHEM_SHAPE_FINGERPRINT>
10608611 8 18410009914322647188
10616163 171 18411422855431114135
11132069 177 18334573572555273945
11578080 2 16662020613914828748
12633257 1 18267871579423272874
13214271 11 18338231677963658061
13296908 3 18407762538462362027
15196674 1 18408886235240736355
15219456 202 18412546517638610659
15375358 24 18410291415316789175
15375462 6 18408606985109761158
15536298 74 18409451405418203044
16945 1 18194692466255408105
18175812 5 18411138026063567126
18186145 218 17530961367342583695
200 152 17417521420089925895
20201158 50 18271808952058618159
20279233 1 18341334409678049519
20645477 56 18187646882203459525
20645477 70 18272369737258819335
21501502 16 18340774736663199984
221490 88 18409738352563089394
23227448 37 17695628837735775572
23402539 116 18334568014804237567
23557571 272 18261688063398983542
23559900 14 18338231566500437986
296302 2 18341615936199434613
474 4 17096095817317723628
495365 180 17845636106175416097
5104073 3 18335423465205433025
58051976 378 18343302569993886364
69090 78 18340481171643850815
7364860 26 18411418393640354624
8809292 202 18335988571021686427
9709674 26 18340772524755471399

> <PUBCHEM_SHAPE_MULTIPOLES>
349.48
8.3
2.55
0.84
2.04
0.22
0.04
2.15
-0.23
-1.71
0.12
-0.27
-0.15
0.86

> <PUBCHEM_SHAPE_SELFOVERLAP>
749.079

> <PUBCHEM_SHAPE_VOLUME>
194.3

> <PUBCHEM_COORDINATE_TYPE>
2
5
10

$$$$
