136042739
  -OEChem-03292013293D

 35 37  0     1  0  0  0  0  0999 V2000
   -2.4921    0.0895   -0.9274 O   0  0  0  0  0  0  0  0  0  0  0  0
   -3.3041   -2.6638    0.1559 O   0  0  0  0  0  0  0  0  0  0  0  0
   -4.6853    1.8107   -0.7138 O   0  0  0  0  0  0  0  0  0  0  0  0
    3.7874    2.5206    0.2852 O   0  0  0  0  0  0  0  0  0  0  0  0
   -0.2328    0.4918   -0.0845 N   0  0  0  0  0  0  0  0  0  0  0  0
    0.8205    2.4498    0.1586 N   0  0  0  0  0  0  0  0  0  0  0  0
    1.6550   -1.0211   -0.1640 N   0  0  0  0  0  0  0  0  0  0  0  0
    3.7064    0.1992    0.0436 N   0  0  0  0  0  0  0  0  0  0  0  0
    3.7192   -2.1430   -0.1959 N   0  0  0  0  0  0  0  0  0  0  0  0
   -1.3715   -0.4860   -0.2301 C   0  0  1  0  0  0  0  0  0  0  0  0
   -3.3250   -1.3702    0.7549 C   0  0  1  0  0  0  0  0  0  0  0  0
   -1.9079   -0.9828    1.1079 C   0  0  0  0  0  0  0  0  0  0  0  0
   -3.7144   -0.3299   -0.2875 C   0  0  1  0  0  0  0  0  0  0  0  0
   -4.3702    0.9003    0.3250 C   0  0  0  0  0  0  0  0  0  0  0  0
    1.1006    0.2070   -0.0602 C   0  0  0  0  0  0  0  0  0  0  0  0
   -0.3508    1.8536    0.0505 C   0  0  0  0  0  0  0  0  0  0  0  0
    1.7178    1.4254    0.0895 C   0  0  0  0  0  0  0  0  0  0  0  0
    3.1520    1.4822    0.1531 C   0  0  0  0  0  0  0  0  0  0  0  0
    2.9691   -0.9988   -0.1089 C   0  0  0  0  0  0  0  0  0  0  0  0
    3.1259   -3.4345   -0.3519 C   0  0  0  0  0  0  0  0  0  0  0  0
   -0.9861   -1.3068   -0.8465 H   0  0  0  0  0  0  0  0  0  0  0  0
   -3.9911   -1.4097    1.6214 H   0  0  0  0  0  0  0  0  0  0  0  0
   -1.9121   -0.1746    1.8488 H   0  0  0  0  0  0  0  0  0  0  0  0
   -1.3053   -1.8082    1.4997 H   0  0  0  0  0  0  0  0  0  0  0  0
   -4.3567   -0.7450   -1.0722 H   0  0  0  0  0  0  0  0  0  0  0  0
   -3.6954    1.4101    1.0200 H   0  0  0  0  0  0  0  0  0  0  0  0
   -5.2930    0.6317    0.8484 H   0  0  0  0  0  0  0  0  0  0  0  0
   -1.3101    2.3526    0.0665 H   0  0  0  0  0  0  0  0  0  0  0  0
   -4.2154   -2.8751   -0.1097 H   0  0  0  0  0  0  0  0  0  0  0  0
   -5.1035    2.5848   -0.2997 H   0  0  0  0  0  0  0  0  0  0  0  0
    4.7191    0.1247    0.0767 H   0  0  0  0  0  0  0  0  0  0  0  0
    4.7321   -2.0869   -0.1493 H   0  0  0  0  0  0  0  0  0  0  0  0
    2.4728   -3.6730    0.4936 H   0  0  0  0  0  0  0  0  0  0  0  0
    2.5448   -3.4920   -1.2778 H   0  0  0  0  0  0  0  0  0  0  0  0
    3.9058   -4.2008   -0.3985 H   0  0  0  0  0  0  0  0  0  0  0  0
  1 10  1  0  0  0  0
  1 13  1  0  0  0  0
  2 11  1  0  0  0  0
  2 29  1  0  0  0  0
  3 14  1  0  0  0  0
  3 30  1  0  0  0  0
  4 18  2  0  0  0  0
  5 10  1  0  0  0  0
  5 15  1  0  0  0  0
  5 16  1  0  0  0  0
  6 16  2  0  0  0  0
  6 17  1  0  0  0  0
  7 15  1  0  0  0  0
  7 19  2  0  0  0  0
  8 18  1  0  0  0  0
  8 19  1  0  0  0  0
  8 31  1  0  0  0  0
  9 19  1  0  0  0  0
  9 20  1  0  0  0  0
  9 32  1  0  0  0  0
 10 12  1  0  0  0  0
 10 21  1  0  0  0  0
 11 12  1  0  0  0  0
 11 13  1  0  0  0  0
 11 22  1  0  0  0  0
 12 23  1  0  0  0  0
 12 24  1  0  0  0  0
 13 14  1  0  0  0  0
 13 25  1  0  0  0  0
 14 26  1  0  0  0  0
 14 27  1  0  0  0  0
 15 17  2  0  0  0  0
 16 28  1  0  0  0  0
 17 18  1  0  0  0  0
 20 33  1  0  0  0  0
 20 34  1  0  0  0  0
 20 35  1  0  0  0  0
M  END
> <PUBCHEM_COMPOUND_CID>
136042739

> <PUBCHEM_CONFORMER_RMSD>
0.6

> <PUBCHEM_CONFORMER_DIVERSEORDER>
1
21
31
28
10
17
35
25
36
15
23
34
22
6
13
20
24
26
5
3
8
30
16
18
7
32
27
12
33
29
4
11
19
9
2
14

> <PUBCHEM_MMFF94_PARTIAL_CHARGES>
24
1 -0.56
10 0.54
11 0.28
13 0.28
14 0.28
15 -0.03
16 0.04
17 0.14
18 0.72
19 0.56
2 -0.68
20 0.37
28 0.15
29 0.4
3 -0.68
30 0.4
31 0.37
32 0.4
4 -0.57
5 0.05
6 -0.57
7 -0.58
8 -0.49
9 -0.82

> <PUBCHEM_EFFECTIVE_ROTOR_COUNT>
4

> <PUBCHEM_PHARMACOPHORE_FEATURES>
12
1 1 acceptor
1 2 acceptor
1 2 donor
1 3 acceptor
1 3 donor
1 4 acceptor
1 8 donor
1 9 donor
3 5 6 16 cation
5 1 10 11 12 13 rings
5 5 6 15 16 17 rings
6 7 8 15 17 18 19 rings

> <PUBCHEM_HEAVY_ATOM_COUNT>
20

> <PUBCHEM_ATOM_DEF_STEREO_COUNT>
3

> <PUBCHEM_ATOM_UDEF_STEREO_COUNT>
0

> <PUBCHEM_BOND_DEF_STEREO_COUNT>
0

> <PUBCHEM_BOND_UDEF_STEREO_COUNT>
0

> <PUBCHEM_ISOTOPIC_ATOM_COUNT>
0

> <PUBCHEM_COMPONENT_COUNT>
1

> <PUBCHEM_CACTVS_TAUTO_COUNT>
-1

> <PUBCHEM_CONFORMER_ID>
081BD8F300000001

> <PUBCHEM_MMFF94_ENERGY>
42.5768

> <PUBCHEM_FEATURE_SELFOVERLAP>
61.08

> <PUBCHEM_SHAPE_FINGERPRINT>
10608611 8 18336262452828487969
10616163 171 18193841672005249447
1100329 8 16534257070587966643
11405975 8 18335701624277454051
11471102 20 18411696616715100460
116883 192 18196374719325642700
12107183 9 17983025453270785937
12553582 1 18124332522883147106
13296908 3 18409450314433024363
13533116 47 18272367599103603387
13544592 145 18189053105650441359
13583140 156 17845647196123748633
13675066 3 18114189631301039161
14115302 16 17896053065126712239
14178342 30 17912342519182030362
14866123 147 17404306196229855275
15042514 8 17402894428127832586
15099037 51 18265331712306548223
15196674 1 18410292548834727409
15219456 202 18335983159431159761
15375358 24 18335698385793023864
15442244 35 18269560446474273609
17492 89 18339926012666866851
1813 80 16877946061725708757
18186145 218 17821723914525549567
19591789 44 16898498905760158560
20645477 70 18413386527374296950
20681651 13 17775006851205163387
20832881 197 18045784485556521091
21065198 57 18410013230242816231
21065199 12 18336550516300569403
21279426 13 18120652427547584941
21421861 104 17896590705175299912
221490 88 18409173216328746666
23557571 272 17458619025515568860
23559900 14 18410852132082382482
335352 9 18266178327406198831
33824 294 18338799043381115826
3421961 26 18340486677860600018
5104073 3 18409729590449783905
543358 83 18340210695803994120
7364860 26 18413107256348493242
8809292 202 18334016055919858019
9709674 26 18262241135149618555

> <PUBCHEM_SHAPE_MULTIPOLES>
363.21
8.73
3.15
0.76
3.74
1.25
0.05
0.88
-0.32
-2.56
-0.03
0.44
0.07
0.99

> <PUBCHEM_SHAPE_SELFOVERLAP>
781.657

> <PUBCHEM_SHAPE_VOLUME>
199.1

> <PUBCHEM_COORDINATE_TYPE>
2
5
10

$$$$
