REMARK  Name = 136002157
REMARK  5 active torsions:
REMARK  status: ('A' for Active; 'I' for Inactive)
REMARK    1  A    between atoms: N_2  and  C_16
REMARK    2  A    between atoms: C_15  and  C_19
REMARK    3  A    between atoms: C_17  and  C_22
REMARK    4  A    between atoms: C_19  and  O_20
REMARK    5  A    between atoms: C_22  and  O_23
REMARK                            x       y       z     vdW  Elec       q    Type
REMARK                         _______ _______ _______ _____ _____    ______ ____
ROOT
ATOM      1  O   UNL     1       4.340   1.540   0.801  0.00  0.00    -0.268 OA
ATOM      2  N   UNL     1       0.048   0.429  -0.070  0.00  0.00    -0.263 N 
ATOM      3  N   UNL     1       1.417   2.046   0.644  0.00  0.00    -0.240 NA
ATOM      4  N   UNL     1       1.641  -1.342  -0.503  0.00  0.00    -0.357 NA
ATOM      5  N   UNL     1       3.862  -0.603   0.004  0.00  0.00    -0.243 N 
ATOM      6  N   UNL     1       3.474  -2.783  -0.794  0.00  0.00    -0.321 N 
ATOM      7  C   UNL     1       1.307  -0.093  -0.109  0.00  0.00    +0.210 C 
ATOM      8  C   UNL     1       0.166   1.718   0.389  0.00  0.00    +0.222 C 
ATOM      9  C   UNL     1       2.122   0.921   0.335  0.00  0.00    +0.176 C 
ATOM     10  C   UNL     1       3.538   0.697   0.418  0.00  0.00    +0.273 C 
ATOM     11  C   UNL     1       2.933  -1.575  -0.437  0.00  0.00    +0.239 C 
ATOM     12  H   UNL     1       4.812  -0.860   0.022  0.00  0.00    +0.159 HD
ATOM     13  H   UNL     1       2.890  -3.509  -1.111  0.00  0.00    +0.146 HD
ATOM     14  H   UNL     1       4.446  -2.925  -0.733  0.00  0.00    +0.146 HD
ENDROOT
BRANCH   2  16
ATOM     15  C   UNL     1      -2.681   0.365  -0.132  0.00  0.00    +0.050 C 
ATOM     16  C   UNL     1      -1.304  -0.300  -0.475  0.00  0.00    +0.079 C 
ATOM     17  C   UNL     1      -3.233  -1.073   0.096  0.00  0.00    +0.035 C 
ATOM     18  C   UNL     1      -1.778  -1.494   0.408  0.00  0.00    +0.023 C 
BRANCH  15  19
ATOM     19  C   UNL     1      -3.355   1.154  -1.240  0.00  0.00    +0.139 C 
BRANCH  19  20
ATOM     20  O   UNL     1      -2.752   2.438  -1.312  0.00  0.00    -0.382 OA
ATOM     21  H   UNL     1      -3.174   2.953  -2.017  0.00  0.00    +0.210 HD
ENDBRANCH  19  20
ENDBRANCH  15  19
BRANCH  17  22
ATOM     22  C   UNL     1      -4.238  -1.244   1.217  0.00  0.00    +0.137 C 
BRANCH  22  23
ATOM     23  O   UNL     1      -5.508  -0.798   0.762  0.00  0.00    -0.382 OA
ATOM     24  H   UNL     1      -6.161  -0.903   1.471  0.00  0.00    +0.210 HD
ENDBRANCH  22  23
ENDBRANCH  17  22
ENDBRANCH   2  16
TORSDOF 5
