136041721
  -OEChem-03292013293D

 32 34  0     1  0  0  0  0  0999 V2000
    0.0586    3.8293    0.3238 Cl  0  0  0  0  0  0  0  0  0  0  0  0
   -1.8369   -0.1779    0.9634 O   0  0  0  0  0  0  0  0  0  0  0  0
   -4.3363    1.1917   -0.1727 O   0  0  0  0  0  0  0  0  0  0  0  0
   -2.1512   -2.9455    0.7183 O   0  0  0  0  0  0  0  0  0  0  0  0
    4.4875    0.3335   -0.1891 O   0  0  0  0  0  0  0  0  0  0  0  0
    0.0594    1.1511    0.1797 N   0  0  0  0  0  0  0  0  0  0  0  0
    2.0947    2.0726    0.0789 N   0  0  0  0  0  0  0  0  0  0  0  0
    0.6261   -1.1962    0.0124 N   0  0  0  0  0  0  0  0  0  0  0  0
    2.9992   -1.4662   -0.1768 N   0  0  0  0  0  0  0  0  0  0  0  0
    1.5731   -3.3389   -0.1721 N   0  0  0  0  0  0  0  0  0  0  0  0
   -1.4398    1.0291    0.2860 C   0  0  1  0  0  0  0  0  0  0  0  0
   -3.4168    0.2717   -0.7562 C   0  0  1  0  0  0  0  0  0  0  0  0
   -2.1359    1.0088   -1.0704 C   0  0  0  0  0  0  0  0  0  0  0  0
   -2.9782   -0.7458    0.2892 C   0  0  1  0  0  0  0  0  0  0  0  0
   -2.5499   -2.0723   -0.3236 C   0  0  0  0  0  0  0  0  0  0  0  0
    0.9405    0.1172    0.0594 C   0  0  0  0  0  0  0  0  0  0  0  0
    0.8016    2.3070    0.1867 C   0  0  0  0  0  0  0  0  0  0  0  0
    2.1768    0.7138    0.0002 C   0  0  0  0  0  0  0  0  0  0  0  0
    3.3474   -0.1090   -0.1300 C   0  0  0  0  0  0  0  0  0  0  0  0
    1.6802   -1.9739   -0.1069 C   0  0  0  0  0  0  0  0  0  0  0  0
   -1.7792    1.8632    0.9090 H   0  0  0  0  0  0  0  0  0  0  0  0
   -1.5462    0.4433   -1.8015 H   0  0  0  0  0  0  0  0  0  0  0  0
   -2.2893    2.0205   -1.4584 H   0  0  0  0  0  0  0  0  0  0  0  0
   -3.8912   -0.1666   -1.6389 H   0  0  0  0  0  0  0  0  0  0  0  0
   -3.7448   -0.9166    1.0533 H   0  0  0  0  0  0  0  0  0  0  0  0
   -1.7085   -1.9532   -1.0116 H   0  0  0  0  0  0  0  0  0  0  0  0
   -3.3834   -2.5338   -0.8626 H   0  0  0  0  0  0  0  0  0  0  0  0
   -5.1342    0.6907    0.0683 H   0  0  0  0  0  0  0  0  0  0  0  0
   -1.8864   -3.7844    0.3039 H   0  0  0  0  0  0  0  0  0  0  0  0
    3.7551   -2.1388   -0.2683 H   0  0  0  0  0  0  0  0  0  0  0  0
    0.6690   -3.7967   -0.1305 H   0  0  0  0  0  0  0  0  0  0  0  0
    2.3919   -3.9301   -0.2641 H   0  0  0  0  0  0  0  0  0  0  0  0
  1 17  1  0  0  0  0
  2 11  1  0  0  0  0
  2 14  1  0  0  0  0
  3 12  1  0  0  0  0
  3 28  1  0  0  0  0
  4 15  1  0  0  0  0
  4 29  1  0  0  0  0
  5 19  2  0  0  0  0
  6 11  1  0  0  0  0
  6 16  1  0  0  0  0
  6 17  1  0  0  0  0
  7 17  2  0  0  0  0
  7 18  1  0  0  0  0
  8 16  1  0  0  0  0
  8 20  2  0  0  0  0
  9 19  1  0  0  0  0
  9 20  1  0  0  0  0
  9 30  1  0  0  0  0
 10 20  1  0  0  0  0
 10 31  1  0  0  0  0
 10 32  1  0  0  0  0
 11 13  1  0  0  0  0
 11 21  1  0  0  0  0
 12 13  1  0  0  0  0
 12 14  1  0  0  0  0
 12 24  1  0  0  0  0
 13 22  1  0  0  0  0
 13 23  1  0  0  0  0
 14 15  1  0  0  0  0
 14 25  1  0  0  0  0
 15 26  1  0  0  0  0
 15 27  1  0  0  0  0
 16 18  2  0  0  0  0
 18 19  1  0  0  0  0
M  END
> <PUBCHEM_COMPOUND_CID>
136041721

> <PUBCHEM_CONFORMER_RMSD>
0.6

> <PUBCHEM_CONFORMER_DIVERSEORDER>
1
12
7
9
4
5
11
13
10
2
6
14
3
8

> <PUBCHEM_MMFF94_PARTIAL_CHARGES>
24
1 -0.12
10 -0.85
11 0.54
12 0.28
14 0.28
15 0.28
16 -0.03
17 0.31
18 0.14
19 0.72
2 -0.56
20 0.56
28 0.4
29 0.4
3 -0.68
30 0.37
31 0.4
32 0.4
4 -0.68
5 -0.57
6 0.05
7 -0.57
8 -0.58
9 -0.49

> <PUBCHEM_EFFECTIVE_ROTOR_COUNT>
3

> <PUBCHEM_PHARMACOPHORE_FEATURES>
12
1 10 donor
1 2 acceptor
1 3 acceptor
1 3 donor
1 4 acceptor
1 4 donor
1 5 acceptor
1 9 donor
3 6 7 17 cation
5 2 11 12 13 14 rings
5 6 7 16 17 18 rings
6 8 9 16 18 19 20 rings

> <PUBCHEM_HEAVY_ATOM_COUNT>
20

> <PUBCHEM_ATOM_DEF_STEREO_COUNT>
3

> <PUBCHEM_ATOM_UDEF_STEREO_COUNT>
0

> <PUBCHEM_BOND_DEF_STEREO_COUNT>
0

> <PUBCHEM_BOND_UDEF_STEREO_COUNT>
0

> <PUBCHEM_ISOTOPIC_ATOM_COUNT>
0

> <PUBCHEM_COMPONENT_COUNT>
1

> <PUBCHEM_CACTVS_TAUTO_COUNT>
-1

> <PUBCHEM_CONFORMER_ID>
081BD4F900000001

> <PUBCHEM_MMFF94_ENERGY>
45.1818

> <PUBCHEM_FEATURE_SELFOVERLAP>
61.08

> <PUBCHEM_SHAPE_FINGERPRINT>
10616163 171 18410576235899404919
10967382 1 18411136892165761986
116883 192 17981324491144005732
12553582 1 18340491066762931176
13140716 1 18339635741559490040
14115302 16 18260840275636313149
14178342 30 18341887541225508465
1420 336 17617378377007294834
14223421 5 17977383064260213491
14790565 3 18339370772343324108
15196674 1 18410855473282407398
16945 1 18339084787402220872
19107657 46 18410575093305962542
193761 8 17475233978178593960
19591789 44 17977951516293899620
19930381 70 18122342381256966343
200 152 18059850679887178989
20201158 50 18408602539459926571
21160774 45 17041188616007927199
221490 88 18192999446140194362
2334 1 18195246852260416464
23559900 14 18411415108164498576
238 59 17977910739752871495
2748010 2 18267020750839430920
2838139 119 16226622917483854756
34934 24 18411412886832878706
350125 39 18050012382695740097
7364860 26 18268145546839808993
81228 2 18047758100507548232
8809292 202 18334013929779320739
9709674 26 18411139168894665591

> <PUBCHEM_SHAPE_MULTIPOLES>
365.08
6.21
3.7
0.76
0.4
0.33
0.04
-1.04
0.77
-0.41
-0.4
0.38
0.02
0.46

> <PUBCHEM_SHAPE_SELFOVERLAP>
783.839

> <PUBCHEM_SHAPE_VOLUME>
200.4

> <PUBCHEM_COORDINATE_TYPE>
2
5
10

$$$$
