136192476
  -OEChem-03292013293D

 44 47  0     0  0  0  0  0  0999 V2000
   -5.7305    0.2337    0.4319 O   0  0  0  0  0  0  0  0  0  0  0  0
   -1.7888   -1.8531   -0.2912 N   0  0  0  0  0  0  0  0  0  0  0  0
    2.6377   -1.7254   -0.1754 N   0  0  0  0  0  0  0  0  0  0  0  0
   -3.9758   -2.1373    0.0810 N   0  0  0  0  0  0  0  0  0  0  0  0
   -1.6447    0.5630   -0.2679 N   0  0  0  0  0  0  0  0  0  0  0  0
   -3.8058    1.5200    0.1248 N   0  0  0  0  0  0  0  0  0  0  0  0
    3.6325   -0.4875   -1.7400 N   0  0  0  0  0  0  0  0  0  0  0  0
   -1.9178    2.8947   -0.1737 N   0  0  0  0  0  0  0  0  0  0  0  0
    2.9925   -0.3086    1.7653 N   0  0  0  0  0  0  0  0  0  0  0  0
    4.2097    1.7213    1.1701 N   0  0  0  0  0  0  0  0  0  0  0  0
    4.9257    2.1807   -1.0664 N   0  0  0  0  0  0  0  0  0  0  0  0
    0.3929   -2.6289    0.7009 C   0  0  0  0  0  0  0  0  0  0  0  0
   -0.4083   -2.1940   -0.5362 C   0  0  0  0  0  0  0  0  0  0  0  0
    1.8877   -2.8770    0.4452 C   0  0  0  0  0  0  0  0  0  0  0  0
   -2.3213   -0.6031   -0.1743 C   0  0  0  0  0  0  0  0  0  0  0  0
   -3.6603   -0.8109    0.0529 C   0  0  0  0  0  0  0  0  0  0  0  0
    3.1029   -0.6115    0.4633 C   0  0  0  0  0  0  0  0  0  0  0  0
   -2.8234   -2.7424   -0.1302 C   0  0  0  0  0  0  0  0  0  0  0  0
    2.9801   -1.6050   -1.4962 C   0  0  0  0  0  0  0  0  0  0  0  0
    3.7163    0.1431   -0.5241 C   0  0  0  0  0  0  0  0  0  0  0  0
   -2.4146    1.6184   -0.1137 C   0  0  0  0  0  0  0  0  0  0  0  0
   -4.5269    0.3220    0.2254 C   0  0  0  0  0  0  0  0  0  0  0  0
    4.2837    1.3511   -0.1310 C   0  0  0  0  0  0  0  0  0  0  0  0
   -2.8110    4.0292   -0.2532 C   0  0  0  0  0  0  0  0  0  0  0  0
   -0.5106    3.1265   -0.4120 C   0  0  0  0  0  0  0  0  0  0  0  0
    3.5780    0.8808    2.0248 C   0  0  0  0  0  0  0  0  0  0  0  0
    0.2938   -1.8514    1.4696 H   0  0  0  0  0  0  0  0  0  0  0  0
   -0.0500   -3.5384    1.1246 H   0  0  0  0  0  0  0  0  0  0  0  0
   -0.4042   -2.9993   -1.2810 H   0  0  0  0  0  0  0  0  0  0  0  0
    0.0583   -1.3252   -1.0123 H   0  0  0  0  0  0  0  0  0  0  0  0
    2.4152   -3.1010    1.3790 H   0  0  0  0  0  0  0  0  0  0  0  0
    2.0286   -3.7210   -0.2396 H   0  0  0  0  0  0  0  0  0  0  0  0
   -2.6751   -3.8128   -0.1766 H   0  0  0  0  0  0  0  0  0  0  0  0
    2.7273   -2.3578   -2.2302 H   0  0  0  0  0  0  0  0  0  0  0  0
   -4.3546    2.3635    0.2462 H   0  0  0  0  0  0  0  0  0  0  0  0
   -0.2776    2.9959   -1.4738 H   0  0  0  0  0  0  0  0  0  0  0  0
    0.1136    2.4389    0.1697 H   0  0  0  0  0  0  0  0  0  0  0  0
   -0.2138    4.1396   -0.1195 H   0  0  0  0  0  0  0  0  0  0  0  0
   -3.3594    4.1650    0.6852 H   0  0  0  0  0  0  0  0  0  0  0  0
   -3.5186    3.9227   -1.0831 H   0  0  0  0  0  0  0  0  0  0  0  0
   -2.2633    4.9620   -0.4302 H   0  0  0  0  0  0  0  0  0  0  0  0
    3.5373    1.2088    3.0580 H   0  0  0  0  0  0  0  0  0  0  0  0
    4.9819    1.9071   -2.0381 H   0  0  0  0  0  0  0  0  0  0  0  0
    5.3299    3.0539   -0.7563 H   0  0  0  0  0  0  0  0  0  0  0  0
  1 22  2  0  0  0  0
  2 13  1  0  0  0  0
  2 15  1  0  0  0  0
  2 18  1  0  0  0  0
  3 14  1  0  0  0  0
  3 17  1  0  0  0  0
  3 19  1  0  0  0  0
  4 16  1  0  0  0  0
  4 18  2  0  0  0  0
  5 15  1  0  0  0  0
  5 21  2  0  0  0  0
  6 21  1  0  0  0  0
  6 22  1  0  0  0  0
  6 35  1  0  0  0  0
  7 19  2  0  0  0  0
  7 20  1  0  0  0  0
  8 21  1  0  0  0  0
  8 24  1  0  0  0  0
  8 25  1  0  0  0  0
  9 17  2  0  0  0  0
  9 26  1  0  0  0  0
 10 23  1  0  0  0  0
 10 26  2  0  0  0  0
 11 23  1  0  0  0  0
 11 43  1  0  0  0  0
 11 44  1  0  0  0  0
 12 13  1  0  0  0  0
 12 14  1  0  0  0  0
 12 27  1  0  0  0  0
 12 28  1  0  0  0  0
 13 29  1  0  0  0  0
 13 30  1  0  0  0  0
 14 31  1  0  0  0  0
 14 32  1  0  0  0  0
 15 16  2  0  0  0  0
 16 22  1  0  0  0  0
 17 20  1  0  0  0  0
 18 33  1  0  0  0  0
 19 34  1  0  0  0  0
 20 23  2  0  0  0  0
 24 39  1  0  0  0  0
 24 40  1  0  0  0  0
 24 41  1  0  0  0  0
 25 36  1  0  0  0  0
 25 37  1  0  0  0  0
 25 38  1  0  0  0  0
 26 42  1  0  0  0  0
M  END
> <PUBCHEM_COMPOUND_CID>
136192476

> <PUBCHEM_CONFORMER_RMSD>
0.8

> <PUBCHEM_CONFORMER_DIVERSEORDER>
17
109
100
10
60
30
35
22
78
1
33
44
9
13
42
80
31
41
45
105
104
16
63
68
96
51
43
20
37
83
23
5
61
76
103
55
29
95
47
94
48
107
19
93
87
92
70
53
3
88
64
108
71
14
50
36
25
4
101
38
28
99
85
24
40
91
74
84
59
106
26
6
18
86
75
2
12
81
102
97
39
8
52
89
62
66
11
90
34
79
46
49
57
21
7
32
73
98
27
54
67
58
65
82
69
72
15
77
56

> <PUBCHEM_MMFF94_PARTIAL_CHARGES>
31
1 -0.57
10 -0.62
11 -0.9
13 0.26
14 0.26
15 -0.03
16 0.14
17 0.11
18 0.04
19 0.04
2 0.05
20 0.23
21 0.56
22 0.72
23 0.41
24 0.37
25 0.37
26 0.47
3 0.05
33 0.15
34 0.15
35 0.37
4 -0.57
42 0.15
43 0.4
44 0.4
5 -0.58
6 -0.49
7 -0.57
8 -0.79
9 -0.57

> <PUBCHEM_EFFECTIVE_ROTOR_COUNT>
5

> <PUBCHEM_PHARMACOPHORE_FEATURES>
12
1 1 acceptor
1 11 cation
1 11 donor
1 6 donor
3 2 4 18 cation
3 3 7 19 cation
3 3 9 17 cation
3 9 10 26 cation
5 2 4 15 16 18 rings
5 3 7 17 19 20 rings
6 5 6 15 16 21 22 rings
6 9 10 17 20 23 26 rings

> <PUBCHEM_HEAVY_ATOM_COUNT>
26

> <PUBCHEM_ATOM_DEF_STEREO_COUNT>
0

> <PUBCHEM_ATOM_UDEF_STEREO_COUNT>
0

> <PUBCHEM_BOND_DEF_STEREO_COUNT>
0

> <PUBCHEM_BOND_UDEF_STEREO_COUNT>
0

> <PUBCHEM_ISOTOPIC_ATOM_COUNT>
0

> <PUBCHEM_COMPONENT_COUNT>
1

> <PUBCHEM_CACTVS_TAUTO_COUNT>
-1

> <PUBCHEM_CONFORMER_ID>
081E21DC00000011

> <PUBCHEM_MMFF94_ENERGY>
53.972

> <PUBCHEM_FEATURE_SELFOVERLAP>
61.643

> <PUBCHEM_SHAPE_FINGERPRINT>
10498660 4 18409728473610690487
10670039 82 18336269033050500492
11059048 146 17911250411809386624
11112241 14 16772087358283096577
11136131 41 9982350608165548217
11595378 159 17967809435928185228
11720765 8 17559405652414252198
12173636 292 18338791196592092655
12553582 1 18266734877679085245
12596602 18 17168146801131561200
12788726 201 18335421317479353664
13122387 1 18410008819185224932
13402501 40 18272086162491415888
13617811 41 18335976524419571733
14081887 123 18411691084770550537
14466204 15 17977095765635793866
14790565 3 18051980208701083649
14840074 17 18337404789870643457
15961568 22 18338517568225135332
21133410 127 18041000592628298572
21857420 4 15041841065954421366
23536364 44 17555761832035141214
23559900 14 18342182141849122390
350125 39 18337671902255273690
38570 142 17096666473101538972
46194498 28 17987815024732415750
469060 322 18192164891319696803
6823239 73 18272098188621475188
7097593 13 17465649096895737459
7808743 9 18266460000320656830

> <PUBCHEM_SHAPE_MULTIPOLES>
479.39
10.72
4.25
1.22
0.32
1.98
-0.21
3.25
-0.44
2.14
0.37
-1.96
0.03
0.41

> <PUBCHEM_SHAPE_SELFOVERLAP>
1049.088

> <PUBCHEM_SHAPE_VOLUME>
257.1

> <PUBCHEM_COORDINATE_TYPE>
2
5
10

$$$$
