1361321
  -OEChem-03292013313D

 56 59  0     0  0  0  0  0  0999 V2000
   -4.8638   -1.7406   -0.7565 S   0  0  0  0  0  0  0  0  0  0  0  0
    0.1343    2.2275   -0.9289 F   0  0  0  0  0  0  0  0  0  0  0  0
   -5.1330   -2.8442    0.1399 O   0  0  0  0  0  0  0  0  0  0  0  0
   -5.3498   -1.7506   -2.1195 O   0  0  0  0  0  0  0  0  0  0  0  0
    5.1214    2.5024   -0.3806 O   0  0  0  0  0  0  0  0  0  0  0  0
    7.6038    1.6708   -0.5588 O   0  0  0  0  0  0  0  0  0  0  0  0
    8.0867    0.0692    1.0006 O   0  0  0  0  0  0  0  0  0  0  0  0
   -3.1792   -1.4300   -0.7699 N   0  0  0  0  0  0  0  0  0  0  0  0
   -0.5464   -0.4200   -0.4664 N   0  0  0  0  0  0  0  0  0  0  0  0
    4.1917   -1.4079    0.3114 N   0  0  0  0  0  0  0  0  0  0  0  0
   -6.8149    3.2366    1.8472 N   0  0  0  0  0  0  0  0  0  0  0  0
   -2.7594   -0.2134   -1.5214 C   0  0  0  0  0  0  0  0  0  0  0  0
   -2.5065   -1.4960    0.5580 C   0  0  0  0  0  0  0  0  0  0  0  0
   -1.2505   -0.2499   -1.7455 C   0  0  0  0  0  0  0  0  0  0  0  0
   -0.9931   -1.5447    0.3635 C   0  0  0  0  0  0  0  0  0  0  0  0
    0.7835    0.0097   -0.3933 C   0  0  0  0  0  0  0  0  0  0  0  0
    1.7922   -0.9078   -0.0821 C   0  0  0  0  0  0  0  0  0  0  0  0
    3.1400   -0.5145    0.0000 C   0  0  0  0  0  0  0  0  0  0  0  0
   -5.4428   -0.2631    0.0166 C   0  0  0  0  0  0  0  0  0  0  0  0
    1.0968    1.3436   -0.6304 C   0  0  0  0  0  0  0  0  0  0  0  0
    3.4309    0.8476   -0.2453 C   0  0  0  0  0  0  0  0  0  0  0  0
    2.4201    1.7670   -0.5573 C   0  0  0  0  0  0  0  0  0  0  0  0
    4.8360    1.3295   -0.1742 C   0  0  0  0  0  0  0  0  0  0  0  0
    3.8731   -2.8114    0.5612 C   0  0  0  0  0  0  0  0  0  0  0  0
   -5.7706    0.8298   -0.7693 C   0  0  0  0  0  0  0  0  0  0  0  0
   -5.5599   -0.2205    1.3963 C   0  0  0  0  0  0  0  0  0  0  0  0
    5.4896   -0.9334    0.3720 C   0  0  0  0  0  0  0  0  0  0  0  0
    5.8787    0.3287    0.1594 C   0  0  0  0  0  0  0  0  0  0  0  0
   -6.2279    1.9975   -0.1586 C   0  0  0  0  0  0  0  0  0  0  0  0
   -6.0173    0.9473    2.0070 C   0  0  0  0  0  0  0  0  0  0  0  0
    3.5854   -3.0628    2.0269 C   0  0  0  0  0  0  0  0  0  0  0  0
   -6.3513    2.0562    1.2295 C   0  0  0  0  0  0  0  0  0  0  0  0
    7.3024    0.6476    0.2687 C   0  0  0  0  0  0  0  0  0  0  0  0
   -3.0086    0.6906   -0.9559 H   0  0  0  0  0  0  0  0  0  0  0  0
   -3.2574   -0.1748   -2.4953 H   0  0  0  0  0  0  0  0  0  0  0  0
   -2.8152   -2.3939    1.1021 H   0  0  0  0  0  0  0  0  0  0  0  0
   -2.7660   -0.6161    1.1565 H   0  0  0  0  0  0  0  0  0  0  0  0
   -0.9910   -1.0886   -2.4047 H   0  0  0  0  0  0  0  0  0  0  0  0
   -0.9571    0.6675   -2.2665 H   0  0  0  0  0  0  0  0  0  0  0  0
   -0.5236   -1.5128    1.3545 H   0  0  0  0  0  0  0  0  0  0  0  0
   -0.7169   -2.4916   -0.1176 H   0  0  0  0  0  0  0  0  0  0  0  0
    1.5143   -1.9405    0.0952 H   0  0  0  0  0  0  0  0  0  0  0  0
    2.6455    2.8130   -0.7456 H   0  0  0  0  0  0  0  0  0  0  0  0
    3.0761   -3.1989   -0.0817 H   0  0  0  0  0  0  0  0  0  0  0  0
    4.7415   -3.4268    0.2866 H   0  0  0  0  0  0  0  0  0  0  0  0
   -5.6808    0.8060   -1.8510 H   0  0  0  0  0  0  0  0  0  0  0  0
   -5.3022   -1.0711    2.0199 H   0  0  0  0  0  0  0  0  0  0  0  0
    6.2065   -1.7103    0.6196 H   0  0  0  0  0  0  0  0  0  0  0  0
   -6.4847    2.8551   -0.7753 H   0  0  0  0  0  0  0  0  0  0  0  0
   -6.1084    0.9810    3.0896 H   0  0  0  0  0  0  0  0  0  0  0  0
    4.4327   -2.7658    2.6541 H   0  0  0  0  0  0  0  0  0  0  0  0
    2.7085   -2.5020    2.3655 H   0  0  0  0  0  0  0  0  0  0  0  0
    3.3938   -4.1265    2.1997 H   0  0  0  0  0  0  0  0  0  0  0  0
   -6.9028    3.2801    2.8537 H   0  0  0  0  0  0  0  0  0  0  0  0
   -7.0555    4.0416    1.2843 H   0  0  0  0  0  0  0  0  0  0  0  0
    8.5529    1.9144   -0.5132 H   0  0  0  0  0  0  0  0  0  0  0  0
  1  3  2  0  0  0  0
  1  4  2  0  0  0  0
  1  8  1  0  0  0  0
  1 19  1  0  0  0  0
  2 20  1  0  0  0  0
  5 23  2  0  0  0  0
  6 33  1  0  0  0  0
  6 56  1  0  0  0  0
  7 33  2  0  0  0  0
  8 12  1  0  0  0  0
  8 13  1  0  0  0  0
  9 14  1  0  0  0  0
  9 15  1  0  0  0  0
  9 16  1  0  0  0  0
 10 18  1  0  0  0  0
 10 24  1  0  0  0  0
 10 27  1  0  0  0  0
 11 32  1  0  0  0  0
 11 54  1  0  0  0  0
 11 55  1  0  0  0  0
 12 14  1  0  0  0  0
 12 34  1  0  0  0  0
 12 35  1  0  0  0  0
 13 15  1  0  0  0  0
 13 36  1  0  0  0  0
 13 37  1  0  0  0  0
 14 38  1  0  0  0  0
 14 39  1  0  0  0  0
 15 40  1  0  0  0  0
 15 41  1  0  0  0  0
 16 17  1  0  0  0  0
 16 20  2  0  0  0  0
 17 18  2  0  0  0  0
 17 42  1  0  0  0  0
 18 21  1  0  0  0  0
 19 25  2  0  0  0  0
 19 26  1  0  0  0  0
 20 22  1  0  0  0  0
 21 22  2  0  0  0  0
 21 23  1  0  0  0  0
 22 43  1  0  0  0  0
 23 28  1  0  0  0  0
 24 31  1  0  0  0  0
 24 44  1  0  0  0  0
 24 45  1  0  0  0  0
 25 29  1  0  0  0  0
 25 46  1  0  0  0  0
 26 30  2  0  0  0  0
 26 47  1  0  0  0  0
 27 28  2  0  0  0  0
 27 48  1  0  0  0  0
 28 33  1  0  0  0  0
 29 32  2  0  0  0  0
 29 49  1  0  0  0  0
 30 32  1  0  0  0  0
 30 50  1  0  0  0  0
 31 51  1  0  0  0  0
 31 52  1  0  0  0  0
 31 53  1  0  0  0  0
M  END
> <PUBCHEM_COMPOUND_CID>
1361321

> <PUBCHEM_CONFORMER_RMSD>
0.8

> <PUBCHEM_CONFORMER_DIVERSEORDER>
1
102
106
13
63
38
111
77
94
25
4
89
62
92
12
51
24
96
112
74
6
32
110
113
88
100
67
114
2
79
61
108
97
31
91
21
46
47
65
15
87
9
39
53
48
17
99
73
41
98
90
76
11
22
18
83
50
30
55
59
105
44
56
5
33
66
54
64
60
86
40
45
26
29
52
71
19
84
75
93
107
27
103
16
109
68
69
72
101
37
49
36
8
23
78
14
3
70
43
80
115
35
28
104
57
34
7
81
82
10
20
95
42
85
58

> <PUBCHEM_MMFF94_PARTIAL_CHARGES>
42
1 1.45
10 -0.57
11 -0.9
12 0.36
13 0.36
14 0.37
15 0.37
16 0.1
17 -0.15
18 0.1
19 -0.01
2 -0.19
20 0.19
21 0.09
22 -0.15
23 0.47
24 0.37
25 -0.15
26 -0.15
27 -0.05
28 0.03
29 -0.15
3 -0.65
30 -0.15
32 0.1
33 0.71
4 -0.65
42 0.15
43 0.15
46 0.15
47 0.15
48 0.15
49 0.15
5 -0.57
50 0.15
54 0.4
55 0.4
56 0.5
6 -0.65
7 -0.57
8 -0.85
9 -0.84

> <PUBCHEM_EFFECTIVE_ROTOR_COUNT>
6.2

> <PUBCHEM_PHARMACOPHORE_FEATURES>
15
1 10 cation
1 11 cation
1 11 donor
1 28 anion
1 3 acceptor
1 4 acceptor
1 5 acceptor
1 6 acceptor
1 7 acceptor
1 9 cation
3 6 7 33 anion
6 10 18 21 23 27 28 rings
6 16 17 18 20 21 22 rings
6 19 25 26 29 30 32 rings
6 8 9 12 13 14 15 rings

> <PUBCHEM_HEAVY_ATOM_COUNT>
33

> <PUBCHEM_ATOM_DEF_STEREO_COUNT>
0

> <PUBCHEM_ATOM_UDEF_STEREO_COUNT>
0

> <PUBCHEM_BOND_DEF_STEREO_COUNT>
0

> <PUBCHEM_BOND_UDEF_STEREO_COUNT>
0

> <PUBCHEM_ISOTOPIC_ATOM_COUNT>
0

> <PUBCHEM_COMPONENT_COUNT>
1

> <PUBCHEM_CACTVS_TAUTO_COUNT>
1

> <PUBCHEM_CONFORMER_ID>
0014C5A900000001

> <PUBCHEM_MMFF94_ENERGY>
105.2393

> <PUBCHEM_FEATURE_SELFOVERLAP>
76.561

> <PUBCHEM_SHAPE_FINGERPRINT>
10533779 1 17986115103001390209
10763959 59 13901905618141857186
10906281 52 18261405472216397590
11135926 11 18186791479411005854
12107183 9 18267021657494521883
12236239 1 18059856190282961446
12422481 6 18199185092753092663
12539765 74 18341343283987507516
13073987 5 18409168848595205867
13782708 43 16009020649456728834
13785724 45 17980200786325076414
14118638 360 18412541050794706599
14394314 77 18411422787118371817
14849402 71 18263368147353186324
15021287 119 17530686532818252237
15064981 113 17489294241149231829
15082195 135 10878834681091743970
15183329 4 18261666047438926223
15276724 80 18262228924330567677
15461852 350 16916779709039430029
1577012 14 18201719518752888121
16110190 28 18410015421003620309
20511986 3 18201431502076833698
20982279 24 16371566957159856530
21130935 74 18410853283197759490
21298829 104 18412263934876777466
21521721 280 18187645869097508312
21792964 463 18116738277785753692
22122407 14 18271816768888619377
23522609 53 18043272281928862676
23559900 14 17969211416454127806
24771293 8 18338232773882295900
2838139 119 17918274255892196473
3178227 256 18113614604543198776
3663271 9 18410293614403783763
394071 54 18259705588521774998
397830 11 14563103601030363092
4073 2 18041000695105606315
4093350 32 17988927739369415726
4169191 19 18189615110774933076
5028188 123 18059298764464416516
5104073 3 18260830393296626555
54039377 194 9294993680062361849
6086070 43 17632001031833361961
6328613 192 18342176661307328569
7226269 152 17988927734973949049
999808 66 15936408935744131481

> <PUBCHEM_SHAPE_MULTIPOLES>
626.43
22.21
3.03
1.52
5.42
0.36
-0.24
-8.55
-6.37
-1.02
-0.85
-2.47
0.13
-3.71

> <PUBCHEM_SHAPE_SELFOVERLAP>
1348.325

> <PUBCHEM_SHAPE_VOLUME>
348.2

> <PUBCHEM_COORDINATE_TYPE>
2
5
10

$$$$
