136173089
  -OEChem-03292013293D

 49 51  0     0  0  0  0  0  0999 V2000
    3.2419    0.4494   -2.9087 S   0  0  0  0  0  0  0  0  0  0  0  0
    3.9303   -1.9123    1.8859 O   0  0  0  0  0  0  0  0  0  0  0  0
    2.9599    2.8584    1.3891 O   0  0  0  0  0  0  0  0  0  0  0  0
    5.0116    0.3417    2.9156 O   0  0  0  0  0  0  0  0  0  0  0  0
    1.0502    0.6244   -1.4283 N   0  0  0  0  0  0  0  0  0  0  0  0
    2.9927    1.7032   -0.6136 N   0  0  0  0  0  0  0  0  0  0  0  0
    5.5859   -0.3036    1.8124 N   0  0  0  0  0  0  0  0  0  0  0  0
    3.6368   -1.8632   -1.3874 C   0  0  0  0  0  0  0  0  0  0  0  0
    5.1164   -1.5224   -1.1655 C   0  0  0  0  0  0  0  0  0  0  0  0
    3.0832   -1.3506   -2.7173 C   0  0  0  0  0  0  0  0  0  0  0  0
    5.6363   -2.0486    0.1725 C   0  0  0  0  0  0  0  0  0  0  0  0
   -1.0388    0.7149   -0.1762 C   0  0  0  0  0  0  0  0  0  0  0  0
   -3.7370    0.0437    0.0516 C   0  0  0  0  0  0  0  0  0  0  0  0
    0.3930    1.0715   -0.3000 C   0  0  0  0  0  0  0  0  0  0  0  0
    2.2972    0.9526   -1.5334 C   0  0  0  0  0  0  0  0  0  0  0  0
    4.9452   -1.4402    1.3804 C   0  0  0  0  0  0  0  0  0  0  0  0
   -2.0048    1.7195   -0.1162 C   0  0  0  0  0  0  0  0  0  0  0  0
   -1.4221   -0.6252   -0.1223 C   0  0  0  0  0  0  0  0  0  0  0  0
   -5.1365   -0.3044    0.1675 C   0  0  0  0  0  0  0  0  0  0  0  0
   -3.3539    1.3839   -0.0023 C   0  0  0  0  0  0  0  0  0  0  0  0
   -2.7711   -0.9608   -0.0083 C   0  0  0  0  0  0  0  0  0  0  0  0
    0.9651    1.8191    0.6624 C   0  0  0  0  0  0  0  0  0  0  0  0
    2.3963    2.1857    0.5326 C   0  0  0  0  0  0  0  0  0  0  0  0
   -5.5114   -1.4766    0.8238 C   0  0  0  0  0  0  0  0  0  0  0  0
   -6.1108    0.5321   -0.3768 C   0  0  0  0  0  0  0  0  0  0  0  0
   -6.8607   -1.8126    0.9358 C   0  0  0  0  0  0  0  0  0  0  0  0
   -7.4601    0.1963   -0.2649 C   0  0  0  0  0  0  0  0  0  0  0  0
   -7.8349   -0.9760    0.3914 C   0  0  0  0  0  0  0  0  0  0  0  0
    3.0254   -1.4803   -0.5634 H   0  0  0  0  0  0  0  0  0  0  0  0
    3.5194   -2.9542   -1.3672 H   0  0  0  0  0  0  0  0  0  0  0  0
    5.7145   -1.9561   -1.9757 H   0  0  0  0  0  0  0  0  0  0  0  0
    5.2765   -0.4397   -1.1883 H   0  0  0  0  0  0  0  0  0  0  0  0
    2.0302   -1.6338   -2.8184 H   0  0  0  0  0  0  0  0  0  0  0  0
    3.6229   -1.8207   -3.5463 H   0  0  0  0  0  0  0  0  0  0  0  0
    6.7151   -1.8625    0.2402 H   0  0  0  0  0  0  0  0  0  0  0  0
    5.5073   -3.1362    0.2279 H   0  0  0  0  0  0  0  0  0  0  0  0
   -1.7262    2.7699   -0.1567 H   0  0  0  0  0  0  0  0  0  0  0  0
   -0.6817   -1.4201   -0.1726 H   0  0  0  0  0  0  0  0  0  0  0  0
   -4.0674    2.2002    0.0701 H   0  0  0  0  0  0  0  0  0  0  0  0
   -3.0240   -2.0174   -0.0007 H   0  0  0  0  0  0  0  0  0  0  0  0
    0.4360    2.1666    1.5428 H   0  0  0  0  0  0  0  0  0  0  0  0
    3.9728    1.9074   -0.7828 H   0  0  0  0  0  0  0  0  0  0  0  0
   -4.7906   -2.1429    1.2900 H   0  0  0  0  0  0  0  0  0  0  0  0
   -5.8656    1.4388   -0.9231 H   0  0  0  0  0  0  0  0  0  0  0  0
    6.4793    0.0477    1.4873 H   0  0  0  0  0  0  0  0  0  0  0  0
   -7.1536   -2.7219    1.4526 H   0  0  0  0  0  0  0  0  0  0  0  0
   -8.2190    0.8439   -0.6944 H   0  0  0  0  0  0  0  0  0  0  0  0
   -8.8855   -1.2374    0.4785 H   0  0  0  0  0  0  0  0  0  0  0  0
    4.4741    1.0127    2.4615 H   0  0  0  0  0  0  0  0  0  0  0  0
  1 10  1  0  0  0  0
  1 15  1  0  0  0  0
  2 16  2  0  0  0  0
  3 23  2  0  0  0  0
  4  7  1  0  0  0  0
  4 49  1  0  0  0  0
  5 14  1  0  0  0  0
  5 15  2  0  0  0  0
  6 15  1  0  0  0  0
  6 23  1  0  0  0  0
  6 42  1  0  0  0  0
  7 16  1  0  0  0  0
  7 45  1  0  0  0  0
  8  9  1  0  0  0  0
  8 10  1  0  0  0  0
  8 29  1  0  0  0  0
  8 30  1  0  0  0  0
  9 11  1  0  0  0  0
  9 31  1  0  0  0  0
  9 32  1  0  0  0  0
 10 33  1  0  0  0  0
 10 34  1  0  0  0  0
 11 16  1  0  0  0  0
 11 35  1  0  0  0  0
 11 36  1  0  0  0  0
 12 14  1  0  0  0  0
 12 17  2  0  0  0  0
 12 18  1  0  0  0  0
 13 19  1  0  0  0  0
 13 20  2  0  0  0  0
 13 21  1  0  0  0  0
 14 22  2  0  0  0  0
 17 20  1  0  0  0  0
 17 37  1  0  0  0  0
 18 21  2  0  0  0  0
 18 38  1  0  0  0  0
 19 24  2  0  0  0  0
 19 25  1  0  0  0  0
 20 39  1  0  0  0  0
 21 40  1  0  0  0  0
 22 23  1  0  0  0  0
 22 41  1  0  0  0  0
 24 26  1  0  0  0  0
 24 43  1  0  0  0  0
 25 27  2  0  0  0  0
 25 44  1  0  0  0  0
 26 28  2  0  0  0  0
 26 46  1  0  0  0  0
 27 28  1  0  0  0  0
 27 47  1  0  0  0  0
 28 48  1  0  0  0  0
M  END
> <PUBCHEM_COMPOUND_CID>
136173089

> <PUBCHEM_CONFORMER_RMSD>
1

> <PUBCHEM_CONFORMER_DIVERSEORDER>
3
109
54
49
62
135
34
156
148
101
145
150
40
105
25
27
151
5
122
161
60
46
61
84
4
149
104
143
131
51
103
154
10
30
138
95
159
130
48
137
136
119
6
129
8
120
56
160
107
74
155
47
153
65
57
142
15
83
123
116
23
50
100
36
39
126
112
102
58
26
20
147
108
18
152
91
110
141
80
14
77
146
2
22
89
72
59
139
79
144
45
75
113
17
32
158
73
9
52
31
98
11
106
63
124
70
12
117
114
115
37
94
68
87
28
42
96
81
133
13
121
128
71
64
99
85
76
44
7
24
35
16
127
88
125
69
1
157
132
78
82
19
97
66
86
92
21
33
111
41
140
55
134
53
93
29
67
43
90
118
38

> <PUBCHEM_MMFF94_PARTIAL_CHARGES>
37
1 -0.37
10 0.23
11 0.06
12 0.03
14 0.14
15 0.65
16 0.57
17 -0.15
18 -0.15
2 -0.57
20 -0.15
21 -0.15
22 -0.14
23 0.62
24 -0.15
25 -0.15
26 -0.15
27 -0.15
28 -0.15
3 -0.57
37 0.15
38 0.15
39 0.15
4 -0.44
40 0.15
41 0.15
42 0.37
43 0.15
44 0.15
45 0.37
46 0.15
47 0.15
48 0.15
49 0.4
5 -0.62
6 -0.49
7 -0.39

> <PUBCHEM_EFFECTIVE_ROTOR_COUNT>
9

> <PUBCHEM_PHARMACOPHORE_FEATURES>
8
1 2 acceptor
1 3 acceptor
1 6 donor
1 7 donor
5 1 8 9 10 11 hydrophobe
6 12 13 17 18 20 21 rings
6 19 24 25 26 27 28 rings
6 5 6 14 15 22 23 rings

> <PUBCHEM_HEAVY_ATOM_COUNT>
28

> <PUBCHEM_ATOM_DEF_STEREO_COUNT>
0

> <PUBCHEM_ATOM_UDEF_STEREO_COUNT>
0

> <PUBCHEM_BOND_DEF_STEREO_COUNT>
0

> <PUBCHEM_BOND_UDEF_STEREO_COUNT>
0

> <PUBCHEM_ISOTOPIC_ATOM_COUNT>
0

> <PUBCHEM_COMPONENT_COUNT>
1

> <PUBCHEM_CACTVS_TAUTO_COUNT>
-1

> <PUBCHEM_CONFORMER_ID>
081DD62100000003

> <PUBCHEM_MMFF94_ENERGY>
75.6626

> <PUBCHEM_FEATURE_SELFOVERLAP>
40.596

> <PUBCHEM_SHAPE_FINGERPRINT>
10316853 100 18040994055244611314
10319926 262 18412543181045504113
10670039 82 10953732283636454110
12047536 79 17703785882088566304
12373685 5 17489011778324547095
125118 31 10879726347290239371
12661589 4 18041569168698323835
12717326 69 18197492046341125722
13533116 47 18334855051800487489
13782708 43 18411140251647910727
14211702 104 18188776175224410131
14251764 75 14260194719479652346
14347332 77 17240760645190349789
14461889 52 12463563015609859901
15183329 4 17312829251519182175
15475509 35 18333726910289955570
17134984 74 17313396646822160234
17857418 61 18114187410602668871
1813 80 17022892412136696384
19377110 9 15338833166805110533
1979834 28 17418375775195521150
20397935 70 18131350808639667354
20567600 234 15913320290914168554
20578428 11 18041568060934267380
20626108 58 18041285366265478948
21304303 94 16081092576021888016
21344244 78 16917071035885231616
21641784 216 12468629526488941423
21781051 124 17313680329786400235
21792934 111 18060422383696346713
21859007 373 18265602205142145381
23559900 14 18337965579186385653
3004659 81 18113345205869922942
3411729 13 18270398425397180248
394071 54 17203325619880667386
4066623 53 11242234244225053706
4340502 62 15554445197471673500
504579 68 14562525202934003015
5104073 3 17703803491976517753
5109719 28 11743257593487651987
513532 50 14490475330856753494
59682541 52 15285358414034379954

> <PUBCHEM_SHAPE_MULTIPOLES>
547.53
19.16
2.44
2.17
26.93
0.4
0.29
-10.91
-4.42
-2.29
-0.58
-5.5
-0.27
0.94

> <PUBCHEM_SHAPE_SELFOVERLAP>
1156.446

> <PUBCHEM_SHAPE_VOLUME>
306.9

> <PUBCHEM_COORDINATE_TYPE>
2
5
10

$$$$
