REMARK  Name = 1361321
REMARK  7 active torsions:
REMARK  status: ('A' for Active; 'I' for Inactive)
REMARK    1  A    between atoms: N_1  and  S_25
REMARK    2  A    between atoms: N_2  and  C_10
REMARK    3  A    between atoms: N_9  and  C_23
REMARK    4  A    between atoms: C_18  and  C_20
REMARK    5  A    between atoms: C_20  and  O_21
REMARK    6  A    between atoms: S_25  and  C_28
REMARK    7  A    between atoms: C_33  and  N_34
REMARK                            x       y       z     vdW  Elec       q    Type
REMARK                         _______ _______ _______ _____ _____    ______ ____
ROOT
ATOM      1  N   UNL     1      -3.179  -1.430  -0.770  0.00  0.00    -0.152 NA
ATOM      2  N   UNL     1      -0.546  -0.420  -0.466  0.00  0.00    -0.303 N 
ATOM      3  C   UNL     1      -2.759  -0.213  -1.521  0.00  0.00    +0.117 C 
ATOM      4  C   UNL     1      -2.506  -1.496   0.558  0.00  0.00    +0.117 C 
ATOM      5  C   UNL     1      -1.250  -0.250  -1.746  0.00  0.00    +0.110 C 
ATOM      6  C   UNL     1      -0.993  -1.545   0.363  0.00  0.00    +0.110 C 
ENDROOT
BRANCH   2  10
ATOM      7  F   UNL     1       0.134   2.228  -0.929  0.00  0.00    -0.203 F 
ATOM      8  O   UNL     1       5.121   2.502  -0.381  0.00  0.00    -0.286 OA
ATOM      9  N   UNL     1       4.192  -1.408   0.311  0.00  0.00    -0.286 N 
ATOM     10  C   UNL     1       0.783   0.010  -0.393  0.00  0.00    +0.077 C 
ATOM     11  C   UNL     1       1.792  -0.908  -0.082  0.00  0.00    +0.032 C 
ATOM     12  C   UNL     1       3.140  -0.514   0.000  0.00  0.00    +0.056 C 
ATOM     13  C   UNL     1       1.097   1.344  -0.630  0.00  0.00    +0.153 C 
ATOM     14  C   UNL     1       3.431   0.848  -0.245  0.00  0.00    +0.055 C 
ATOM     15  C   UNL     1       2.420   1.767  -0.557  0.00  0.00    +0.035 C 
ATOM     16  C   UNL     1       4.836   1.329  -0.174  0.00  0.00    +0.204 C 
ATOM     17  C   UNL     1       5.490  -0.933   0.372  0.00  0.00    +0.075 C 
ATOM     18  C   UNL     1       5.879   0.329   0.159  0.00  0.00    +0.129 C 
BRANCH  18  20
ATOM     19  O   UNL     1       8.087   0.069   1.001  0.00  0.00    -0.245 OA
ATOM     20  C   UNL     1       7.302   0.648   0.269  0.00  0.00    +0.342 C 
BRANCH  20  21
ATOM     21  O   UNL     1       7.604   1.671  -0.559  0.00  0.00    -0.477 OA
ATOM     22  H   UNL     1       6.935   2.058  -1.088  0.00  0.00    +0.295 HD
ENDBRANCH  20  21
ENDBRANCH  18  20
BRANCH   9  23
ATOM     23  C   UNL     1       3.873  -2.811   0.561  0.00  0.00    +0.096 C 
ATOM     24  C   UNL     1       3.585  -3.063   2.027  0.00  0.00    +0.024 C 
ENDBRANCH   9  23
ENDBRANCH   2  10
BRANCH   1  25
ATOM     25  S   UNL     1      -4.864  -1.741  -0.756  0.00  0.00    +0.063 S 
ATOM     26  O   UNL     1      -5.133  -2.844   0.140  0.00  0.00    -0.153 OA
ATOM     27  O   UNL     1      -5.350  -1.751  -2.119  0.00  0.00    -0.153 OA
BRANCH  25  28
ATOM     28  C   UNL     1      -5.443  -0.263   0.017  0.00  0.00    +0.122 C 
ATOM     29  C   UNL     1      -5.771   0.830  -0.769  0.00  0.00    +0.021 C 
ATOM     30  C   UNL     1      -5.560  -0.221   1.396  0.00  0.00    +0.021 C 
ATOM     31  C   UNL     1      -6.228   1.998  -0.159  0.00  0.00    +0.015 C 
ATOM     32  C   UNL     1      -6.017   0.947   2.007  0.00  0.00    +0.015 C 
ATOM     33  C   UNL     1      -6.351   2.056   1.230  0.00  0.00    +0.042 C 
BRANCH  33  34
ATOM     34  N   UNL     1      -6.815   3.237   1.847  0.00  0.00    -0.357 N 
ATOM     35  H   UNL     1      -7.051   4.019   1.299  0.00  0.00    +0.142 HD
ATOM     36  H   UNL     1      -6.903   3.278   2.827  0.00  0.00    +0.142 HD
ENDBRANCH  33  34
ENDBRANCH  25  28
ENDBRANCH   1  25
TORSDOF 7
