REMARK  Name = 136189563
REMARK  7 active torsions:
REMARK  status: ('A' for Active; 'I' for Inactive)
REMARK    1  A    between atoms: N_1  and  C_23
REMARK    2  A    between atoms: C_5  and  C_9
REMARK    3  A    between atoms: C_10  and  C_17
REMARK    4  A    between atoms: C_12  and  O_21
REMARK    5  A    between atoms: C_23  and  C_24
REMARK    6  A    between atoms: C_24  and  N_25
REMARK    7  A    between atoms: C_24  and  C_29
REMARK                            x       y       z     vdW  Elec       q    Type
REMARK                         _______ _______ _______ _____ _____    ______ ____
ROOT
ATOM      1  N   UNL     1       3.794  -0.336  -0.278  0.00  0.00    -0.310 N 
ATOM      2  N   UNL     1       1.524   0.139   0.128  0.00  0.00    -0.335 NA
ATOM      3  N   UNL     1       0.381  -0.990   1.924  0.00  0.00    -0.182 NA
ATOM      4  C   UNL     1       2.639  -0.548   0.455  0.00  0.00    +0.193 C 
ATOM      5  C   UNL     1       0.448  -0.126   0.892  0.00  0.00    +0.092 C 
ATOM      6  C   UNL     1       2.701  -1.460   1.489  0.00  0.00    +0.070 C 
ATOM      7  C   UNL     1       1.530  -1.642   2.196  0.00  0.00    +0.115 C 
ATOM      8  H   UNL     1       3.762   0.313  -1.018  0.00  0.00    +0.149 HD
ENDROOT
BRANCH   5   9
ATOM      9  C   UNL     1      -0.759   0.591   0.574  0.00  0.00    +0.108 C 
ATOM     10  C   UNL     1      -3.079   0.550  -0.098  0.00  0.00    +0.004 C 
ATOM     11  C   UNL     1      -1.900  -0.127   0.215  0.00  0.00    +0.014 C 
ATOM     12  C   UNL     1      -0.797   1.984   0.621  0.00  0.00    +0.144 C 
ATOM     13  C   UNL     1      -3.117   1.944  -0.051  0.00  0.00    +0.003 C 
ATOM     14  C   UNL     1      -1.976   2.661   0.308  0.00  0.00    +0.037 C 
BRANCH  10  17
ATOM     15  N   UNL     1      -6.353  -0.737  -0.729  0.00  0.00    -0.208 N 
ATOM     16  N   UNL     1      -5.690  -1.769  -1.278  0.00  0.00    -0.176 NA
ATOM     17  C   UNL     1      -4.255  -0.187  -0.469  0.00  0.00    +0.037 C 
ATOM     18  C   UNL     1      -5.539   0.238  -0.230  0.00  0.00    +0.086 C 
ATOM     19  C   UNL     1      -4.409  -1.428  -1.116  0.00  0.00    +0.119 C 
ATOM     20  C   UNL     1      -7.796  -0.740  -0.712  0.00  0.00    +0.140 C 
ENDBRANCH  10  17
BRANCH  12  21
ATOM     21  O   UNL     1       0.304   2.710   0.969  0.00  0.00    -0.505 OA
ATOM     22  H   UNL     1       1.105   2.273   1.182  0.00  0.00    +0.292 HD
ENDBRANCH  12  21
ENDBRANCH   5   9
BRANCH   1  23
ATOM     23  C   UNL     1       5.044  -1.013  -0.017  0.00  0.00    +0.067 C 
BRANCH  23  24
ATOM     24  C   UNL     1       6.107  -0.603  -1.047  0.00  0.00    -0.046 C 
BRANCH  24  25
ATOM     25  N   UNL     1       7.322  -1.381  -0.786  0.00  0.00    +0.383 N 
ATOM     26  H   UNL     1       7.105  -2.377  -0.832  0.00  0.00    -0.089 HD
ATOM     27  H   UNL     1       7.678  -1.154   0.142  0.00  0.00    -0.089 HD
ATOM     28  H   UNL     1       8.028  -1.154  -1.486  0.00  0.00    -0.089 HD
ENDBRANCH  24  25
BRANCH  24  29
ATOM     29  C   UNL     1       6.408   0.907  -0.983  0.00  0.00    -0.020 C 
ATOM     30  C   UNL     1       7.468   1.363  -1.978  0.00  0.00    -0.002 C 
ENDBRANCH  24  29
ENDBRANCH  23  24
ENDBRANCH   1  23
TORSDOF 7
