REMARK  Name = 136170966
REMARK  4 active torsions:
REMARK  status: ('A' for Active; 'I' for Inactive)
REMARK    1  A    between atoms: C_8  and  O_21
REMARK    2  A    between atoms: C_10  and  O_19
REMARK    3  A    between atoms: C_16  and  O_23
REMARK    4  A    between atoms: C_17  and  O_25
REMARK                            x       y       z     vdW  Elec       q    Type
REMARK                         _______ _______ _______ _____ _____    ______ ____
ROOT
ATOM      1  O   UNL     1      -4.221  -0.596  -0.515  0.00  0.00    -0.479 OA
ATOM      2  O   UNL     1       2.084   2.343   0.497  0.00  0.00    -0.283 OA
ATOM      3  O   UNL     1       1.842  -2.934  -0.265  0.00  0.00    -0.283 OA
ATOM      4  C   UNL     1      -1.771  -0.803  -0.092  0.00  0.00    +0.054 A 
ATOM      5  C   UNL     1      -3.123  -1.471  -0.191  0.00  0.00    +0.191 C 
ATOM      6  C   UNL     1      -1.703   0.580   0.100  0.00  0.00    +0.039 A 
ATOM      7  C   UNL     1       0.655  -0.920  -0.024  0.00  0.00    +0.082 A 
ATOM      8  C   UNL     1      -0.587  -1.552  -0.156  0.00  0.00    +0.136 A 
ATOM      9  C   UNL     1       0.718   0.457   0.176  0.00  0.00    +0.082 A 
ATOM     10  C   UNL     1      -0.461   1.210   0.239  0.00  0.00    +0.142 A 
ATOM     11  C   UNL     1      -2.949   1.334   0.147  0.00  0.00    +0.035 C 
ATOM     12  C   UNL     1      -4.108   0.734  -0.169  0.00  0.00    +0.117 C 
ATOM     13  C   UNL     1      -3.479  -2.209   1.100  0.00  0.00    +0.052 C 
ATOM     14  C   UNL     1       2.020   1.131   0.320  0.00  0.00    +0.235 C 
ATOM     15  C   UNL     1       1.889  -1.721  -0.092  0.00  0.00    +0.235 C 
ATOM     16  C   UNL     1       3.254   0.306   0.245  0.00  0.00    +0.214 C 
ATOM     17  C   UNL     1       3.193  -1.023   0.052  0.00  0.00    +0.211 C 
ATOM     18  C   UNL     1      -5.409   1.472  -0.195  0.00  0.00    +0.072 C 
ENDROOT
BRANCH  10  19
ATOM     19  O   UNL     1      -0.427   2.563   0.428  0.00  0.00    -0.471 OA
ATOM     20  C   UNL     1      -0.367   3.374  -0.741  0.00  0.00    +0.252 C 
ENDBRANCH  10  19
BRANCH   8  21
ATOM     21  O   UNL     1      -0.682  -2.900  -0.356  0.00  0.00    -0.506 OA
ATOM     22  H   UNL     1      -1.524  -3.302  -0.442  0.00  0.00    +0.292 HD
ENDBRANCH   8  21
BRANCH  16  23
ATOM     23  O   UNL     1       4.430   1.014   0.388  0.00  0.00    -0.465 OA
ATOM     24  C   UNL     1       4.903   1.459  -0.868  0.00  0.00    +0.253 C 
ENDBRANCH  16  23
BRANCH  17  25
ATOM     25  O   UNL     1       4.299  -1.844  -0.028  0.00  0.00    -0.501 OA
ATOM     26  H   UNL     1       4.190  -2.765  -0.164  0.00  0.00    +0.292 HD
ENDBRANCH  17  25
TORSDOF 4
