REMARK  Name = 136192476
REMARK  4 active torsions:
REMARK  status: ('A' for Active; 'I' for Inactive)
REMARK    1  A    between atoms: C_1  and  N_3
REMARK    2  A    between atoms: C_1  and  C_16
REMARK    3  A    between atoms: C_16  and  C_17
REMARK    4  A    between atoms: C_17  and  N_18
REMARK                            x       y       z     vdW  Elec       q    Type
REMARK                         _______ _______ _______ _____ _____    ______ ____
ROOT
ATOM      1  C   UNL     1      -0.408  -2.194  -0.536  0.00  0.00    +0.097 C 
ENDROOT
BRANCH   1   3
ATOM      2  O   UNL     1      -5.731   0.234   0.432  0.00  0.00    -0.268 OA
ATOM      3  N   UNL     1      -1.789  -1.853  -0.291  0.00  0.00    -0.261 N 
ATOM      4  N   UNL     1      -3.976  -2.137   0.081  0.00  0.00    -0.240 NA
ATOM      5  N   UNL     1      -1.645   0.563  -0.268  0.00  0.00    -0.356 NA
ATOM      6  N   UNL     1      -3.806   1.520   0.125  0.00  0.00    -0.242 N 
ATOM      7  N   UNL     1      -1.918   2.895  -0.174  0.00  0.00    -0.268 N 
ATOM      8  C   UNL     1      -2.321  -0.603  -0.174  0.00  0.00    +0.210 C 
ATOM      9  C   UNL     1      -3.660  -0.811   0.053  0.00  0.00    +0.176 C 
ATOM     10  C   UNL     1      -2.823  -2.742  -0.130  0.00  0.00    +0.222 C 
ATOM     11  C   UNL     1      -2.415   1.618  -0.114  0.00  0.00    +0.246 C 
ATOM     12  C   UNL     1      -4.527   0.322   0.225  0.00  0.00    +0.273 C 
ATOM     13  C   UNL     1      -2.811   4.029  -0.253  0.00  0.00    +0.116 C 
ATOM     14  C   UNL     1      -0.511   3.127  -0.412  0.00  0.00    +0.116 C 
ATOM     15  H   UNL     1      -4.308   2.361   0.228  0.00  0.00    +0.159 HD
ENDBRANCH   1   3
BRANCH   1  16
ATOM     16  C   UNL     1       0.393  -2.629   0.701  0.00  0.00    +0.043 C 
BRANCH  16  17
ATOM     17  C   UNL     1       1.888  -2.877   0.445  0.00  0.00    +0.096 C 
BRANCH  17  18
ATOM     18  N   UNL     1       2.638  -1.725  -0.175  0.00  0.00    -0.272 N 
ATOM     19  N   UNL     1       3.632  -0.487  -1.740  0.00  0.00    -0.242 NA
ATOM     20  N   UNL     1       2.993  -0.309   1.765  0.00  0.00    -0.228 NA
ATOM     21  N   UNL     1       4.210   1.721   1.170  0.00  0.00    -0.229 NA
ATOM     22  C   UNL     1       3.103  -0.612   0.463  0.00  0.00    +0.151 C 
ATOM     23  C   UNL     1       2.980  -1.605  -1.496  0.00  0.00    +0.221 C 
ATOM     24  C   UNL     1       3.716   0.143  -0.524  0.00  0.00    +0.140 C 
ATOM     25  C   UNL     1       4.284   1.351  -0.131  0.00  0.00    +0.143 C 
ATOM     26  C   UNL     1       3.578   0.881   2.025  0.00  0.00    +0.253 C 
ATOM     27  N   UNL     1       4.926   2.181  -1.066  0.00  0.00    -0.342 N 
ATOM     28  H   UNL     1       5.324   3.033  -0.777  0.00  0.00    +0.144 HD
ATOM     29  H   UNL     1       4.977   1.909  -2.011  0.00  0.00    +0.144 HD
ENDBRANCH  17  18
ENDBRANCH  16  17
ENDBRANCH   1  16
TORSDOF 4
