REMARK  Name = 136179141
REMARK  6 active torsions:
REMARK  status: ('A' for Active; 'I' for Inactive)
REMARK    1  A    between atoms: C_3  and  C_6
REMARK    2  A    between atoms: C_5  and  C_18
REMARK    3  A    between atoms: C_8  and  O_12
REMARK    4  A    between atoms: C_10  and  O_14
REMARK    5  A    between atoms: N_17  and  C_18
REMARK    6  A    between atoms: N_17  and  O_21
REMARK                            x       y       z     vdW  Elec       q    Type
REMARK                         _______ _______ _______ _____ _____    ______ ____
ROOT
ATOM      1  S   UNL     1       2.765   2.019   0.621  0.00  0.00    -0.072 S 
ATOM      2  N   UNL     1       1.781  -0.281  -0.032  0.00  0.00    -0.396 NA
ATOM      3  C   UNL     1       0.724   0.557   0.265  0.00  0.00    +0.121 C 
ATOM      4  C   UNL     1       1.059   1.841   0.639  0.00  0.00    +0.123 C 
ATOM      5  C   UNL     1       2.905   0.383   0.121  0.00  0.00    +0.192 C 
ENDROOT
BRANCH   3   6
ATOM      6  C   UNL     1      -0.637   0.106   0.187  0.00  0.00    +0.030 C 
ATOM      7  C   UNL     1      -1.654   1.009  -0.128  0.00  0.00    +0.042 C 
ATOM      8  C   UNL     1      -2.976   0.571  -0.203  0.00  0.00    +0.172 C 
ATOM      9  C   UNL     1      -0.944  -1.233   0.426  0.00  0.00    +0.006 C 
ATOM     10  C   UNL     1      -3.282  -0.768   0.036  0.00  0.00    +0.172 C 
ATOM     11  C   UNL     1      -2.266  -1.671   0.351  0.00  0.00    +0.040 C 
BRANCH   8  12
ATOM     12  O   UNL     1      -3.960   1.461  -0.511  0.00  0.00    -0.468 OA
ATOM     13  C   UNL     1      -3.563   2.812  -0.742  0.00  0.00    +0.253 C 
ENDBRANCH   8  12
BRANCH  10  14
ATOM     14  O   UNL     1      -4.570  -1.208  -0.035  0.00  0.00    -0.468 OA
ATOM     15  C   UNL     1      -4.797  -2.592   0.224  0.00  0.00    +0.253 C 
ENDBRANCH  10  14
ENDBRANCH   3   6
BRANCH   5  17
ATOM     16  N   UNL     1       5.366   0.566   0.076  0.00  0.00    -0.379 N 
ATOM     17  C   UNL     1       4.186  -0.195  -0.109  0.00  0.00    +0.196 C 
ATOM     18  H   UNL     1       6.246   0.155  -0.086  0.00  0.00    +0.157 HD
ATOM     19  H   UNL     1       5.307   1.505   0.366  0.00  0.00    +0.157 HD
BRANCH  17  20
ATOM     20  N   UNL     1       4.274  -1.473  -0.500  0.00  0.00    -0.114 NA
BRANCH  20  21
ATOM     21  O   UNL     1       5.591  -1.906  -0.685  0.00  0.00    -0.264 OA
ATOM     22  H   UNL     1       5.761  -2.786  -0.959  0.00  0.00    +0.247 HD
ENDBRANCH  20  21
ENDBRANCH  17  20
ENDBRANCH   5  17
TORSDOF 6
