REMARK  Name = 136173089
REMARK  9 active torsions:
REMARK  status: ('A' for Active; 'I' for Inactive)
REMARK    1  A    between atoms: C_4  and  C_9
REMARK    2  A    between atoms: C_5  and  S_21
REMARK    3  A    between atoms: C_10  and  C_15
REMARK    4  A    between atoms: S_21  and  C_22
REMARK    5  A    between atoms: C_22  and  C_23
REMARK    6  A    between atoms: C_23  and  C_24
REMARK    7  A    between atoms: C_24  and  C_25
REMARK    8  A    between atoms: C_25  and  C_28
REMARK    9  A    between atoms: N_27  and  O_30
REMARK                            x       y       z     vdW  Elec       q    Type
REMARK                         _______ _______ _______ _____ _____    ______ ____
ROOT
ATOM      1  O   UNL     1       2.960   2.858   1.389  0.00  0.00    -0.274 OA
ATOM      2  N   UNL     1       1.050   0.624  -1.428  0.00  0.00    -0.385 NA
ATOM      3  N   UNL     1       2.993   1.703  -0.614  0.00  0.00    -0.254 N 
ATOM      4  C   UNL     1       0.393   1.071  -0.300  0.00  0.00    +0.120 C 
ATOM      5  C   UNL     1       2.297   0.953  -1.533  0.00  0.00    +0.213 C 
ATOM      6  C   UNL     1       0.965   1.819   0.662  0.00  0.00    +0.144 C 
ATOM      7  C   UNL     1       2.396   2.186   0.533  0.00  0.00    +0.235 C 
ATOM      8  H   UNL     1       3.943   1.901  -0.778  0.00  0.00    +0.158 HD
ENDROOT
BRANCH   4   9
ATOM      9  C   UNL     1      -1.039   0.715  -0.176  0.00  0.00    +0.026 C 
ATOM     10  C   UNL     1      -3.737   0.044   0.052  0.00  0.00    +0.000 C 
ATOM     11  C   UNL     1      -2.005   1.720  -0.116  0.00  0.00    +0.002 C 
ATOM     12  C   UNL     1      -1.422  -0.625  -0.122  0.00  0.00    +0.002 C 
ATOM     13  C   UNL     1      -3.354   1.384  -0.002  0.00  0.00    +0.000 C 
ATOM     14  C   UNL     1      -2.771  -0.961  -0.008  0.00  0.00    +0.000 C 
BRANCH  10  15
ATOM     15  C   UNL     1      -5.136  -0.304   0.168  0.00  0.00    +0.000 C 
ATOM     16  C   UNL     1      -5.511  -1.477   0.824  0.00  0.00    +0.000 C 
ATOM     17  C   UNL     1      -6.111   0.532  -0.377  0.00  0.00    +0.000 C 
ATOM     18  C   UNL     1      -6.861  -1.813   0.936  0.00  0.00    +0.000 C 
ATOM     19  C   UNL     1      -7.460   0.196  -0.265  0.00  0.00    +0.000 C 
ATOM     20  C   UNL     1      -7.835  -0.976   0.391  0.00  0.00    +0.000 C 
ENDBRANCH  10  15
ENDBRANCH   4   9
BRANCH   5  21
ATOM     21  S   UNL     1       3.242   0.449  -2.909  0.00  0.00    -0.067 S 
BRANCH  21  22
ATOM     22  C   UNL     1       3.083  -1.351  -2.717  0.00  0.00    +0.066 C 
BRANCH  22  23
ATOM     23  C   UNL     1       3.637  -1.863  -1.387  0.00  0.00    +0.013 C 
BRANCH  23  24
ATOM     24  C   UNL     1       5.116  -1.522  -1.165  0.00  0.00    +0.011 C 
BRANCH  24  25
ATOM     25  C   UNL     1       5.636  -2.049   0.172  0.00  0.00    +0.087 C 
BRANCH  25  28
ATOM     26  O   UNL     1       3.930  -1.912   1.886  0.00  0.00    -0.273 OA
ATOM     27  N   UNL     1       5.586  -0.304   1.812  0.00  0.00    -0.197 N 
ATOM     28  C   UNL     1       4.945  -1.440   1.380  0.00  0.00    +0.244 C 
ATOM     29  H   UNL     1       6.399   0.036   1.373  0.00  0.00    +0.182 HD
BRANCH  27  30
ATOM     30  O   UNL     1       5.012   0.342   2.916  0.00  0.00    -0.295 OA
ATOM     31  H   UNL     1       5.535   1.127   3.140  0.00  0.00    +0.241 HD
ENDBRANCH  27  30
ENDBRANCH  25  28
ENDBRANCH  24  25
ENDBRANCH  23  24
ENDBRANCH  22  23
ENDBRANCH  21  22
ENDBRANCH   5  21
TORSDOF 9
