REMARK  Name = 136190395
REMARK  5 active torsions:
REMARK  status: ('A' for Active; 'I' for Inactive)
REMARK    1  A    between atoms: N_2  and  C_17
REMARK    2  A    between atoms: C_16  and  N_20
REMARK    3  A    between atoms: C_18  and  O_24
REMARK    4  A    between atoms: C_19  and  C_26
REMARK    5  A    between atoms: C_26  and  O_27
REMARK                            x       y       z     vdW  Elec       q    Type
REMARK                         _______ _______ _______ _____ _____    ______ ____
ROOT
ATOM      1  O   UNL     1       4.394  -1.796  -0.739  0.00  0.00    -0.268 OA
ATOM      2  N   UNL     1       0.137  -0.574   0.152  0.00  0.00    -0.240 N 
ATOM      3  N   UNL     1       1.454  -2.204  -0.629  0.00  0.00    -0.240 NA
ATOM      4  N   UNL     1       1.787   1.116   0.681  0.00  0.00    -0.357 NA
ATOM      5  N   UNL     1       3.986   0.322   0.155  0.00  0.00    -0.243 N 
ATOM      6  N   UNL     1       3.667   2.475   1.054  0.00  0.00    -0.321 N 
ATOM      7  C   UNL     1       1.413  -0.100   0.225  0.00  0.00    +0.211 C 
ATOM      8  C   UNL     1       0.212  -1.843  -0.368  0.00  0.00    +0.224 C 
ATOM      9  C   UNL     1       2.195  -1.120  -0.261  0.00  0.00    +0.176 C 
ATOM     10  C   UNL     1       3.620  -0.944  -0.322  0.00  0.00    +0.273 C 
ATOM     11  C   UNL     1       3.088   1.305   0.636  0.00  0.00    +0.239 C 
ATOM     12  H   UNL     1       4.945   0.546   0.156  0.00  0.00    +0.159 HD
ATOM     13  H   UNL     1       3.106   3.205   1.401  0.00  0.00    +0.146 HD
ATOM     14  H   UNL     1       4.645   2.585   1.007  0.00  0.00    +0.146 HD
ENDROOT
BRANCH   2  17
ATOM     15  O   UNL     1      -2.106  -0.787   1.073  0.00  0.00    -0.337 OA
ATOM     16  C   UNL     1      -1.820   0.880  -0.589  0.00  0.00    +0.016 C 
ATOM     17  C   UNL     1      -1.128   0.144   0.559  0.00  0.00    +0.178 C 
ATOM     18  C   UNL     1      -3.256   0.939  -0.091  0.00  0.00    +0.125 C 
ATOM     19  C   UNL     1      -3.417  -0.414   0.595  0.00  0.00    +0.171 C 
BRANCH  16  20
ATOM     20  N   UNL     1      -1.235   2.180  -0.881  0.00  0.00    +0.388 N 
ATOM     21  C   UNL     1      -1.675   2.674  -2.179  0.00  0.00    -0.105 C 
ATOM     22  H   UNL     1      -0.218   2.095  -0.884  0.00  0.00    -0.084 HD
ATOM     23  H   UNL     1      -1.536   2.840  -0.164  0.00  0.00    -0.084 HD
ENDBRANCH  16  20
BRANCH  18  24
ATOM     24  O   UNL     1      -3.392   1.965   0.893  0.00  0.00    -0.384 OA
ATOM     25  H   UNL     1      -3.292   2.833   0.471  0.00  0.00    +0.210 HD
ENDBRANCH  18  24
BRANCH  19  26
ATOM     26  C   UNL     1      -3.910  -1.504  -0.345  0.00  0.00    +0.169 C 
BRANCH  26  27
ATOM     27  O   UNL     1      -4.015  -2.716   0.381  0.00  0.00    -0.379 OA
ATOM     28  H   UNL     1      -4.329  -3.420  -0.208  0.00  0.00    +0.211 HD
ENDBRANCH  26  27
ENDBRANCH  19  26
ENDBRANCH   2  17
TORSDOF 5
