REMARK  Name = 136180640
REMARK  7 active torsions:
REMARK  status: ('A' for Active; 'I' for Inactive)
REMARK    1  A    between atoms: N_3  and  N_17
REMARK    2  A    between atoms: C_5  and  C_10
REMARK    3  A    between atoms: C_11  and  N_16
REMARK    4  A    between atoms: N_17  and  C_18
REMARK    5  A    between atoms: C_18  and  C_19
REMARK    6  A    between atoms: C_22  and  O_25
REMARK    7  A    between atoms: C_23  and  O_27
REMARK                            x       y       z     vdW  Elec       q    Type
REMARK                         _______ _______ _______ _____ _____    ______ ____
ROOT
ATOM      1  S   UNL     1      -0.417  -0.539   0.010  0.00  0.00    -0.027 S 
ATOM      2  N   UNL     1      -1.789   1.569   0.494  0.00  0.00    -0.137 NA
ATOM      3  N   UNL     1       1.746   1.085   0.124  0.00  0.00    -0.239 N 
ATOM      4  N   UNL     1      -0.469   1.982   0.463  0.00  0.00    -0.124 NA
ATOM      5  C   UNL     1      -1.902   0.277   0.273  0.00  0.00    +0.167 A 
ATOM      6  C   UNL     1       0.350   0.981   0.220  0.00  0.00    +0.197 A 
ATOM      7  H   UNL     1       2.283   0.281  -0.061  0.00  0.00    +0.170 HD
ENDROOT
BRANCH   5  10
ATOM      8  N   UNL     1      -4.327   0.172  -0.124  0.00  0.00    -0.249 N 
ATOM      9  N   UNL     1      -3.300  -1.661   0.596  0.00  0.00    -0.224 NA
ATOM     10  C   UNL     1      -3.144  -0.401   0.253  0.00  0.00    +0.163 C 
ATOM     11  C   UNL     1      -5.298  -0.783  -0.015  0.00  0.00    +0.218 C 
ATOM     12  C   UNL     1      -4.517   1.539  -0.560  0.00  0.00    +0.120 C 
ATOM     13  C   UNL     1      -4.640  -1.905   0.432  0.00  0.00    +0.140 C 
BRANCH  11  16
ATOM     14  O   UNL     1      -7.483  -1.499  -0.189  0.00  0.00    -0.125 OA
ATOM     15  O   UNL     1      -7.020   0.580  -0.719  0.00  0.00    -0.125 OA
ATOM     16  N   UNL     1      -6.646  -0.560  -0.318  0.00  0.00    +0.074 N 
ENDBRANCH  11  16
ENDBRANCH   5  10
BRANCH   3  17
ATOM     17  N   UNL     1       2.359   2.274   0.284  0.00  0.00    -0.127 NA
BRANCH  17  18
ATOM     18  C   UNL     1       3.657   2.232   0.171  0.00  0.00    +0.138 C 
BRANCH  18  19
ATOM     19  C   UNL     1       4.380   1.001  -0.105  0.00  0.00    +0.000 C 
ATOM     20  C   UNL     1       4.824   0.202   0.949  0.00  0.00    +0.037 C 
ATOM     21  C   UNL     1       4.631   0.619  -1.423  0.00  0.00    +0.000 C 
ATOM     22  C   UNL     1       5.518  -0.979   0.685  0.00  0.00    +0.167 C 
ATOM     23  C   UNL     1       5.769  -1.361  -0.633  0.00  0.00    +0.167 C 
ATOM     24  C   UNL     1       5.325  -0.562  -1.687  0.00  0.00    +0.039 C 
BRANCH  22  25
ATOM     25  O   UNL     1       5.946  -1.751   1.722  0.00  0.00    -0.503 OA
ATOM     26  H   UNL     1       5.774  -1.487   2.605  0.00  0.00    +0.292 HD
ENDBRANCH  22  25
BRANCH  23  27
ATOM     27  O   UNL     1       6.445  -2.512  -0.904  0.00  0.00    -0.503 OA
ATOM     28  H   UNL     1       6.747  -3.055  -0.203  0.00  0.00    +0.292 HD
ENDBRANCH  23  27
ENDBRANCH  18  19
ENDBRANCH  17  18
ENDBRANCH   3  17
TORSDOF 7
