136165051
  -OEChem-03292013293D

 36 38  0     1  0  0  0  0  0999 V2000
    1.5007   -0.0168    1.1908 O   0  0  0  0  0  0  0  0  0  0  0  0
    4.0042   -1.4965    0.3412 O   0  0  0  0  0  0  0  0  0  0  0  0
    2.0492   -2.6262   -1.2319 O   0  0  0  0  0  0  0  0  0  0  0  0
    3.4545    2.2247   -0.9287 O   0  0  0  0  0  0  0  0  0  0  0  0
   -4.7816   -0.4130   -0.2778 O   0  0  0  0  0  0  0  0  0  0  0  0
   -0.4014   -1.3097    0.3737 N   0  0  0  0  0  0  0  0  0  0  0  0
   -2.4508   -2.1896    0.2068 N   0  0  0  0  0  0  0  0  0  0  0  0
   -0.8995    1.0382    0.0608 N   0  0  0  0  0  0  0  0  0  0  0  0
   -3.2515    1.3513   -0.2712 N   0  0  0  0  0  0  0  0  0  0  0  0
   -1.7805    3.1895   -0.2795 N   0  0  0  0  0  0  0  0  0  0  0  0
    2.6894    0.4858    0.5404 C   0  0  1  0  0  0  0  0  0  0  0  0
    3.1613   -0.6157   -0.4003 C   0  0  2  0  0  0  0  0  0  0  0  0
    1.8614   -1.3069   -0.7603 C   0  0  2  0  0  0  0  0  0  0  0  0
    1.0964   -1.2485    0.5579 C   0  0  1  0  0  0  0  0  0  0  0  0
    2.3274    1.7750   -0.1841 C   0  0  1  0  0  0  0  0  0  0  0  0
   -1.2487   -0.2638    0.1549 C   0  0  0  0  0  0  0  0  0  0  0  0
    1.8974    2.8655    0.7842 C   0  0  0  0  0  0  0  0  0  0  0  0
   -1.1716   -2.4469    0.3968 C   0  0  0  0  0  0  0  0  0  0  0  0
   -2.4946   -0.8349    0.0573 C   0  0  0  0  0  0  0  0  0  0  0  0
   -3.6355    0.0062   -0.1770 C   0  0  0  0  0  0  0  0  0  0  0  0
   -1.9260    1.8323   -0.1540 C   0  0  0  0  0  0  0  0  0  0  0  0
    3.4384    0.6871    1.3156 H   0  0  0  0  0  0  0  0  0  0  0  0
    3.7244   -0.2822   -1.2760 H   0  0  0  0  0  0  0  0  0  0  0  0
    1.3343   -0.7374   -1.5355 H   0  0  0  0  0  0  0  0  0  0  0  0
    1.3387   -2.0831    1.2271 H   0  0  0  0  0  0  0  0  0  0  0  0
    1.5149    1.6009   -0.8969 H   0  0  0  0  0  0  0  0  0  0  0  0
    2.7188    3.1323    1.4587 H   0  0  0  0  0  0  0  0  0  0  0  0
    1.0359    2.5694    1.3885 H   0  0  0  0  0  0  0  0  0  0  0  0
    1.6374    3.7790    0.2381 H   0  0  0  0  0  0  0  0  0  0  0  0
    4.8105   -1.0034    0.5703 H   0  0  0  0  0  0  0  0  0  0  0  0
    2.6334   -2.5779   -2.0077 H   0  0  0  0  0  0  0  0  0  0  0  0
   -0.7440   -3.4277    0.5542 H   0  0  0  0  0  0  0  0  0  0  0  0
    3.1952    3.0390   -1.3925 H   0  0  0  0  0  0  0  0  0  0  0  0
   -3.9844    2.0350   -0.4369 H   0  0  0  0  0  0  0  0  0  0  0  0
   -0.8690    3.6287   -0.2126 H   0  0  0  0  0  0  0  0  0  0  0  0
   -2.5781    3.7937   -0.4447 H   0  0  0  0  0  0  0  0  0  0  0  0
  1 11  1  0  0  0  0
  1 14  1  0  0  0  0
  2 12  1  0  0  0  0
  2 30  1  0  0  0  0
  3 13  1  0  0  0  0
  3 31  1  0  0  0  0
  4 15  1  0  0  0  0
  4 33  1  0  0  0  0
  5 20  2  0  0  0  0
  6 14  1  0  0  0  0
  6 16  1  0  0  0  0
  6 18  1  0  0  0  0
  7 18  2  0  0  0  0
  7 19  1  0  0  0  0
  8 16  1  0  0  0  0
  8 21  2  0  0  0  0
  9 20  1  0  0  0  0
  9 21  1  0  0  0  0
  9 34  1  0  0  0  0
 10 21  1  0  0  0  0
 10 35  1  0  0  0  0
 10 36  1  0  0  0  0
 11 12  1  0  0  0  0
 11 15  1  0  0  0  0
 11 22  1  0  0  0  0
 12 13  1  0  0  0  0
 12 23  1  0  0  0  0
 13 14  1  0  0  0  0
 13 24  1  0  0  0  0
 14 25  1  0  0  0  0
 15 17  1  0  0  0  0
 15 26  1  0  0  0  0
 16 19  2  0  0  0  0
 17 27  1  0  0  0  0
 17 28  1  0  0  0  0
 17 29  1  0  0  0  0
 18 32  1  0  0  0  0
 19 20  1  0  0  0  0
M  END
> <PUBCHEM_COMPOUND_CID>
136165051

> <PUBCHEM_CONFORMER_RMSD>
0.6

> <PUBCHEM_CONFORMER_DIVERSEORDER>
1
8
31
6
14
30
32
10
19
39
20
2
23
15
17
18
11
26
4
3
22
35
37
24
29
9
7
28
13
38
33
21
16
34
27
5
40
25
12
36

> <PUBCHEM_MMFF94_PARTIAL_CHARGES>
27
1 -0.56
10 -0.85
11 0.28
12 0.28
13 0.28
14 0.54
15 0.28
16 -0.03
18 0.04
19 0.14
2 -0.68
20 0.72
21 0.56
3 -0.68
30 0.4
31 0.4
32 0.15
33 0.4
34 0.37
35 0.4
36 0.4
4 -0.68
5 -0.57
6 0.05
7 -0.57
8 -0.58
9 -0.49

> <PUBCHEM_EFFECTIVE_ROTOR_COUNT>
3

> <PUBCHEM_PHARMACOPHORE_FEATURES>
14
1 1 acceptor
1 10 donor
1 2 acceptor
1 2 donor
1 3 acceptor
1 3 donor
1 4 acceptor
1 4 donor
1 5 acceptor
1 9 donor
3 6 7 18 cation
5 1 11 12 13 14 rings
5 6 7 16 18 19 rings
6 8 9 16 19 20 21 rings

> <PUBCHEM_HEAVY_ATOM_COUNT>
21

> <PUBCHEM_ATOM_DEF_STEREO_COUNT>
4

> <PUBCHEM_ATOM_UDEF_STEREO_COUNT>
1

> <PUBCHEM_BOND_DEF_STEREO_COUNT>
0

> <PUBCHEM_BOND_UDEF_STEREO_COUNT>
0

> <PUBCHEM_ISOTOPIC_ATOM_COUNT>
0

> <PUBCHEM_COMPONENT_COUNT>
1

> <PUBCHEM_CACTVS_TAUTO_COUNT>
-1

> <PUBCHEM_CONFORMER_ID>
081DB6BB00000001

> <PUBCHEM_MMFF94_ENERGY>
51.5931

> <PUBCHEM_FEATURE_SELFOVERLAP>
71.238

> <PUBCHEM_SHAPE_FINGERPRINT>
10498660 4 18191872429426135204
10608611 8 18410854395023855690
10616163 171 18193842767147777668
10967382 1 18337952402026196025
12403259 226 18337105657755565527
12403260 363 18337380552826684291
12633257 1 18411705348293617808
13140716 1 18336827605904901859
13897977 150 18268145529759783369
14250199 8 18413388726587105549
14790565 3 18410580553148821249
15196674 1 18408884062055882321
15375462 6 18266461103805699926
15442244 35 18335698291794269314
15536298 74 18411981394400225417
16945 1 18410013208509835339
17802600 8 18409162186451615489
18186145 218 18339077065187919383
19591789 44 15459884603423033774
20510252 161 18341048515385726409
20905425 154 18339084903387482516
21501502 16 18411140272505536034
21618674 68 18412825793950677695
22802520 49 18412550932833414115
23114952 82 18201174182054465014
2334 1 18121780805175491579
23402539 116 18124303909958376430
23557571 272 18118978119950836062
23558518 356 18334580126807308057
23559900 14 18412821382893021170
238 59 17830417667156985965
2748010 2 18051130585984141691
335352 9 18337669711446951935
350125 39 18336549317730848161
4409770 3 17030761445105191196
44154327 71 18189336938496047925
474 4 17168715266081661500
495365 180 17773865566313698097
5262128 65 17915754084360802902
7097593 13 17970320707981257562
7364860 26 18341893021788309488
7832392 63 17907860600327965341
9709674 26 18413111640988447935
9981440 41 17610062635380718416

> <PUBCHEM_SHAPE_MULTIPOLES>
377.92
6.76
3.31
0.86
2.07
1.28
0.02
0.33
0.82
-0.75
0.22
-0.49
-0.08
0.49

> <PUBCHEM_SHAPE_SELFOVERLAP>
818.79

> <PUBCHEM_SHAPE_VOLUME>
206.4

> <PUBCHEM_COORDINATE_TYPE>
2
5
10

$$$$
