REMARK  Name = 136105618
REMARK  2 active torsions:
REMARK  status: ('A' for Active; 'I' for Inactive)
REMARK    1  A    between atoms: C_3  and  C_10
REMARK    2  A    between atoms: C_4  and  C_19
REMARK                            x       y       z     vdW  Elec       q    Type
REMARK                         _______ _______ _______ _____ _____    ______ ____
ROOT
ATOM      1  N   UNL     1       3.025   1.815  -0.228  0.00  0.00    -0.313 N 
ATOM      2  N   UNL     1       1.162   3.018  -0.120  0.00  0.00    -0.315 N 
ATOM      3  C   UNL     1       0.866   1.681  -0.030  0.00  0.00    +0.062 C 
ATOM      4  C   UNL     1       2.006   0.914  -0.095  0.00  0.00    +0.095 C 
ATOM      5  C   UNL     1       2.470   3.064  -0.238  0.00  0.00    +0.182 C 
ATOM      6  H   UNL     1       3.983   1.602  -0.303  0.00  0.00    +0.148 HD
ATOM      7  H   UNL     1       0.533   3.775  -0.100  0.00  0.00    +0.148 HD
ENDROOT
BRANCH   3  10
ATOM      8  S   UNL     1      -3.208  -1.219  -1.706  0.00  0.00    -0.086 S 
ATOM      9  N   UNL     1      -4.360  -0.346   0.431  0.00  0.00    -0.262 NA
ATOM     10  C   UNL     1      -0.473   1.178   0.114  0.00  0.00    +0.011 C 
ATOM     11  C   UNL     1      -0.992   0.318  -0.857  0.00  0.00    +0.008 C 
ATOM     12  C   UNL     1      -2.302  -0.158  -0.692  0.00  0.00    +0.041 C 
ATOM     13  C   UNL     1      -1.234   1.553   1.215  0.00  0.00    -0.018 C 
ATOM     14  C   UNL     1      -3.087   0.205   0.407  0.00  0.00    +0.065 C 
ATOM     15  C   UNL     1      -2.538   1.075   1.373  0.00  0.00    +0.072 C 
ATOM     16  C   UNL     1      -4.530  -1.107  -0.625  0.00  0.00    +0.187 C 
ENDBRANCH   3  10
BRANCH   4  19
ATOM     17  S   UNL     1       3.532  -1.212  -0.867  0.00  0.00    -0.074 S 
ATOM     18  N   UNL     1       1.420  -1.293   0.622  0.00  0.00    -0.402 NA
ATOM     19  C   UNL     1       2.213  -0.484  -0.045  0.00  0.00    +0.171 C 
ATOM     20  C   UNL     1       1.881  -2.587   0.480  0.00  0.00    +0.099 C 
ATOM     21  C   UNL     1       3.013  -2.743  -0.291  0.00  0.00    +0.119 C 
ATOM     22  C   UNL     1       1.138  -3.673   1.151  0.00  0.00    +0.062 C 
ENDBRANCH   4  19
TORSDOF 2
