136195727
  -OEChem-03292013293D

 37 38  0     1  0  0  0  0  0999 V2000
   -1.3937   -0.7803    0.7219 S   0  0  0  0  0  0  0  0  0  0  0  0
   -1.5545    3.0223    0.0433 O   0  0  0  0  0  0  0  0  0  0  0  0
    1.8686   -0.0395    1.4800 O   0  0  0  0  0  0  0  0  0  0  0  0
   -2.9267    1.1607    0.0523 N   0  0  0  0  0  0  0  0  0  0  0  0
    2.8544    0.3569   -0.6150 N   0  0  0  0  0  0  0  0  0  0  0  0
   -4.0013   -0.9211    0.1396 N   0  0  0  0  0  0  0  0  0  0  0  0
   -5.0954   -0.1527   -0.2411 N   0  0  0  0  0  0  0  0  0  0  0  0
   -0.6303    0.8738    0.6657 C   0  0  1  0  0  0  0  0  0  0  0  0
    0.5419    0.8952   -0.2989 C   0  0  0  0  0  0  0  0  0  0  0  0
   -1.7277    1.8215    0.2222 C   0  0  0  0  0  0  0  0  0  0  0  0
    1.8200    0.3454    0.3164 C   0  0  0  0  0  0  0  0  0  0  0  0
   -2.9550   -0.1845    0.2644 C   0  0  0  0  0  0  0  0  0  0  0  0
    4.1896   -0.0725   -0.4265 C   0  0  0  0  0  0  0  0  0  0  0  0
    5.1037    0.0105   -1.4769 C   0  0  0  0  0  0  0  0  0  0  0  0
    4.5917   -0.5787    0.8093 C   0  0  0  0  0  0  0  0  0  0  0  0
    6.4198   -0.4128   -1.2914 C   0  0  0  0  0  0  0  0  0  0  0  0
    5.9077   -1.0021    0.9950 C   0  0  0  0  0  0  0  0  0  0  0  0
    6.8218   -0.9192   -0.0554 C   0  0  0  0  0  0  0  0  0  0  0  0
   -6.1865   -0.8412   -0.3842 C   0  0  0  0  0  0  0  0  0  0  0  0
   -7.5176   -0.2561   -0.7906 C   0  0  0  0  0  0  0  0  0  0  0  0
   -6.1305   -2.3256   -0.1300 C   0  0  0  0  0  0  0  0  0  0  0  0
   -0.3432    1.1616    1.6828 H   0  0  0  0  0  0  0  0  0  0  0  0
    0.7619    1.9309   -0.5914 H   0  0  0  0  0  0  0  0  0  0  0  0
    0.3190    0.3527   -1.2266 H   0  0  0  0  0  0  0  0  0  0  0  0
   -3.7602    1.6639   -0.2336 H   0  0  0  0  0  0  0  0  0  0  0  0
    2.6442    0.7129   -1.5451 H   0  0  0  0  0  0  0  0  0  0  0  0
    4.8035    0.4030   -2.4451 H   0  0  0  0  0  0  0  0  0  0  0  0
    3.9434   -0.6742    1.6688 H   0  0  0  0  0  0  0  0  0  0  0  0
    7.1316   -0.3483   -2.1092 H   0  0  0  0  0  0  0  0  0  0  0  0
    6.2221   -1.3966    1.9569 H   0  0  0  0  0  0  0  0  0  0  0  0
    7.8465   -1.2488    0.0891 H   0  0  0  0  0  0  0  0  0  0  0  0
   -7.4215    0.8220   -0.9430 H   0  0  0  0  0  0  0  0  0  0  0  0
   -5.8373   -2.5263    0.9047 H   0  0  0  0  0  0  0  0  0  0  0  0
   -7.8507   -0.7241   -1.7205 H   0  0  0  0  0  0  0  0  0  0  0  0
   -8.2523   -0.4455   -0.0037 H   0  0  0  0  0  0  0  0  0  0  0  0
   -7.1191   -2.7670   -0.2893 H   0  0  0  0  0  0  0  0  0  0  0  0
   -5.4336   -2.8069   -0.8224 H   0  0  0  0  0  0  0  0  0  0  0  0
  1  8  1  0  0  0  0
  1 12  1  0  0  0  0
  2 10  2  0  0  0  0
  3 11  2  0  0  0  0
  4 10  1  0  0  0  0
  4 12  1  0  0  0  0
  4 25  1  0  0  0  0
  5 11  1  0  0  0  0
  5 13  1  0  0  0  0
  5 26  1  0  0  0  0
  6  7  1  0  0  0  0
  6 12  2  3  0  0  0
  7 19  2  0  0  0  0
  8  9  1  0  0  0  0
  8 10  1  0  0  0  0
  8 22  1  0  0  0  0
  9 11  1  0  0  0  0
  9 23  1  0  0  0  0
  9 24  1  0  0  0  0
 13 14  2  0  0  0  0
 13 15  1  0  0  0  0
 14 16  1  0  0  0  0
 14 27  1  0  0  0  0
 15 17  2  0  0  0  0
 15 28  1  0  0  0  0
 16 18  2  0  0  0  0
 16 29  1  0  0  0  0
 17 18  1  0  0  0  0
 17 30  1  0  0  0  0
 18 31  1  0  0  0  0
 19 20  1  0  0  0  0
 19 21  1  0  0  0  0
 20 32  1  0  0  0  0
 20 34  1  0  0  0  0
 20 35  1  0  0  0  0
 21 33  1  0  0  0  0
 21 36  1  0  0  0  0
 21 37  1  0  0  0  0
M  END
> <PUBCHEM_COMPOUND_CID>
136195727

> <PUBCHEM_CONFORMER_RMSD>
0.8

> <PUBCHEM_CONFORMER_DIVERSEORDER>
1
14
49
37
2
52
53
26
61
70
8
16
41
35
19
65
43
42
59
44
28
20
7
62
11
60
68
63
36
55
21
18
57
56
64
30
5
13
10
3
45
72
48
38
74
50
32
73
12
51
33
34
24
54
67
17
22
23
58
31
15
66
46
40
25
69
71
4
9
39
29
6
27
47

> <PUBCHEM_MMFF94_PARTIAL_CHARGES>
28
1 -0.37
10 0.57
11 0.57
12 0.65
13 0.12
14 -0.15
15 -0.15
16 -0.15
17 -0.15
18 -0.15
19 0.33
2 -0.57
20 0.06
21 0.06
25 0.37
26 0.37
27 0.15
28 0.15
29 0.15
3 -0.57
30 0.15
31 0.15
4 -0.49
5 -0.55
6 -0.45
7 -0.45
8 0.29
9 0.06

> <PUBCHEM_EFFECTIVE_ROTOR_COUNT>
5.6

> <PUBCHEM_PHARMACOPHORE_FEATURES>
7
1 2 acceptor
1 3 acceptor
1 4 donor
1 5 donor
1 7 acceptor
5 1 4 8 10 12 rings
6 13 14 15 16 17 18 rings

> <PUBCHEM_HEAVY_ATOM_COUNT>
21

> <PUBCHEM_ATOM_DEF_STEREO_COUNT>
0

> <PUBCHEM_ATOM_UDEF_STEREO_COUNT>
1

> <PUBCHEM_BOND_DEF_STEREO_COUNT>
0

> <PUBCHEM_BOND_UDEF_STEREO_COUNT>
1

> <PUBCHEM_ISOTOPIC_ATOM_COUNT>
0

> <PUBCHEM_COMPONENT_COUNT>
1

> <PUBCHEM_CACTVS_TAUTO_COUNT>
-1

> <PUBCHEM_CONFORMER_ID>
081E2E8F00000001

> <PUBCHEM_MMFF94_ENERGY>
54.5434

> <PUBCHEM_FEATURE_SELFOVERLAP>
35.522

> <PUBCHEM_SHAPE_FINGERPRINT>
10 15 11600003267107286623
10354089 29 13183020722836088306
10595046 47 18333735681061546956
106641 1 14405178486932929302
11524674 6 16702301269796218783
117890 112 7997969064109517086
11963148 33 18413101779586080079
12166972 35 17822293513025445013
12236239 1 17894914001577493792
13177829 20 13758068623782337647
13288520 33 18413108360107719489
13533116 47 18040992913220841738
13668630 136 18412830183354993998
13673619 4 17846780714928333617
13685833 64 17489588969730190162
13862211 1 18411418436305314475
13885169 127 17275108293679131025
13964095 4 18186516593182594173
14068700 675 18408323289329744141
14123256 34 18341899631901408987
1420 363 17418376883149240718
14251752 14 18113612374901141309
14251764 18 11887668485961256219
14294032 229 18044937870805803429
14508225 48 18333729135215578861
14556957 393 17603597300249663765
15048467 5 8214145152973760895
15183329 4 17240480299483997847
15188451 53 18410006612146651562
15690457 1 16271919442263078727
15716309 27 16415477155524426663
18006028 8 18202281412070819825
20281389 69 8862947164720025278
20374829 77 18412543232521333715
21150785 3 18041000661315053902
21267235 1 18410014369042263019
21424621 283 12035716580001078159
21623969 137 16415203356092143758
21637258 2 17632573868690397269
22224240 67 14979954774553256623
2297311 6 18272092677524267520
23035841 295 18410293618904219275
23198884 109 16008745806220570871
23402539 116 18335983086358966461
23522609 53 18123503598136987496
23559900 14 18261955279074254808
23622692 88 11815894561132624457
25147074 1 17751070328043222345
293599 30 7997974570157461205
29717793 49 17894914010267759182
3004659 81 18113897190766380481
335352 9 18409161118297138341
34797466 226 18060423534647367836
3545911 37 8646772196910732976
4098825 35 16661193751179725295
465052 167 18130793403130322759
5283156 175 18187644674141701106
5758199 1 10737279131290745789
59682541 35 17489581286672189778
59682541 52 15140943046515226090
59755656 215 18342175553063724799
6138700 20 18411136944423262031

> <PUBCHEM_SHAPE_MULTIPOLES>
404.36
20.25
1.74
1.09
4.42
0.77
0.07
-10.99
5.59
2.33
-0.11
-1.38
-0.11
-0.54

> <PUBCHEM_SHAPE_SELFOVERLAP>
829.791

> <PUBCHEM_SHAPE_VOLUME>
234.1

> <PUBCHEM_COORDINATE_TYPE>
2
5
10

$$$$
