136188797
  -OEChem-03292013293D

 43 45  0     1  0  0  0  0  0999 V2000
   -1.2564   -1.0694    1.0368 S   0  0  0  0  0  0  0  0  0  0  0  0
    1.5986    2.2374    0.4749 S   0  0  0  0  0  0  0  0  0  0  0  0
   -5.5056   -1.5468    0.1974 O   0  0  0  0  0  0  0  0  0  0  0  0
   -3.7231   -1.8909   -1.1811 O   0  0  0  0  0  0  0  0  0  0  0  0
    2.5087   -2.1445    0.1294 O   0  0  0  0  0  0  0  0  0  0  0  0
   -2.7084    0.6388   -0.4122 N   0  0  2  0  0  0  0  0  0  0  0  0
    0.9784   -0.0164   -0.6601 N   0  0  0  0  0  0  0  0  0  0  0  0
   -1.4500   -0.1155   -0.5061 C   0  0  1  0  0  0  0  0  0  0  0  0
   -3.6676   -0.0884    0.4452 C   0  0  1  0  0  0  0  0  0  0  0  0
   -0.2488    0.8114   -0.6665 C   0  0  1  0  0  0  0  0  0  0  0  0
   -2.8804   -0.5841    1.6676 C   0  0  0  0  0  0  0  0  0  0  0  0
   -0.1676    1.8435    0.4607 C   0  0  2  0  0  0  0  0  0  0  0  0
   -4.8090    0.8228    0.9166 C   0  0  0  0  0  0  0  0  0  0  0  0
   -3.2166    1.0600   -1.7144 C   0  0  0  0  0  0  0  0  0  0  0  0
   -4.2687   -1.2685   -0.2820 C   0  0  0  0  0  0  0  0  0  0  0  0
   -1.0133    3.0820    0.2192 C   0  0  0  0  0  0  0  0  0  0  0  0
    1.9699    0.6465   -0.1554 C   0  0  0  0  0  0  0  0  0  0  0  0
    3.3428    0.0955   -0.0726 C   0  0  0  0  0  0  0  0  0  0  0  0
    3.5570   -1.2757    0.0657 C   0  0  0  0  0  0  0  0  0  0  0  0
    4.4292    0.9684   -0.1334 C   0  0  0  0  0  0  0  0  0  0  0  0
    4.8574   -1.7743    0.1434 C   0  0  0  0  0  0  0  0  0  0  0  0
    5.7297    0.4699   -0.0557 C   0  0  0  0  0  0  0  0  0  0  0  0
    5.9438   -0.9014    0.0827 C   0  0  0  0  0  0  0  0  0  0  0  0
   -1.4665   -0.8436   -1.3256 H   0  0  0  0  0  0  0  0  0  0  0  0
   -0.3017    1.3064   -1.6463 H   0  0  0  0  0  0  0  0  0  0  0  0
   -2.7308    0.2111    2.4059 H   0  0  0  0  0  0  0  0  0  0  0  0
   -3.3528   -1.4387    2.1622 H   0  0  0  0  0  0  0  0  0  0  0  0
   -0.3893    1.4471    1.4545 H   0  0  0  0  0  0  0  0  0  0  0  0
   -4.4148    1.7708    1.3031 H   0  0  0  0  0  0  0  0  0  0  0  0
   -5.3829    0.3703    1.7347 H   0  0  0  0  0  0  0  0  0  0  0  0
   -5.5135    1.0649    0.1126 H   0  0  0  0  0  0  0  0  0  0  0  0
   -4.1349    1.6466   -1.6129 H   0  0  0  0  0  0  0  0  0  0  0  0
   -3.4140    0.2290   -2.3978 H   0  0  0  0  0  0  0  0  0  0  0  0
   -2.4985    1.7223   -2.2096 H   0  0  0  0  0  0  0  0  0  0  0  0
   -0.7310    3.8869    0.9084 H   0  0  0  0  0  0  0  0  0  0  0  0
   -2.0757    2.9003    0.3946 H   0  0  0  0  0  0  0  0  0  0  0  0
   -0.8989    3.4652   -0.8009 H   0  0  0  0  0  0  0  0  0  0  0  0
   -5.9139   -2.3104   -0.2635 H   0  0  0  0  0  0  0  0  0  0  0  0
    4.3055    2.0395   -0.2627 H   0  0  0  0  0  0  0  0  0  0  0  0
    5.0391   -2.8402    0.2514 H   0  0  0  0  0  0  0  0  0  0  0  0
    6.5760    1.1486   -0.1080 H   0  0  0  0  0  0  0  0  0  0  0  0
    6.9564   -1.2896    0.1420 H   0  0  0  0  0  0  0  0  0  0  0  0
    2.8514   -3.0496    0.2255 H   0  0  0  0  0  0  0  0  0  0  0  0
  1  8  1  0  0  0  0
  1 11  1  0  0  0  0
  2 12  1  0  0  0  0
  2 17  1  0  0  0  0
  3 15  1  0  0  0  0
  3 38  1  0  0  0  0
  4 15  2  0  0  0  0
  5 19  1  0  0  0  0
  5 43  1  0  0  0  0
  6  8  1  0  0  0  0
  6  9  1  0  0  0  0
  6 14  1  0  0  0  0
  7 10  1  0  0  0  0
  7 17  2  0  0  0  0
  8 10  1  0  0  0  0
  8 24  1  0  0  0  0
  9 11  1  0  0  0  0
  9 13  1  0  0  0  0
  9 15  1  0  0  0  0
 10 12  1  0  0  0  0
 10 25  1  0  0  0  0
 11 26  1  0  0  0  0
 11 27  1  0  0  0  0
 12 16  1  0  0  0  0
 12 28  1  0  0  0  0
 13 29  1  0  0  0  0
 13 30  1  0  0  0  0
 13 31  1  0  0  0  0
 14 32  1  0  0  0  0
 14 33  1  0  0  0  0
 14 34  1  0  0  0  0
 16 35  1  0  0  0  0
 16 36  1  0  0  0  0
 16 37  1  0  0  0  0
 17 18  1  0  0  0  0
 18 19  1  0  0  0  0
 18 20  2  0  0  0  0
 19 21  2  0  0  0  0
 20 22  1  0  0  0  0
 20 39  1  0  0  0  0
 21 23  1  0  0  0  0
 21 40  1  0  0  0  0
 22 23  2  0  0  0  0
 22 41  1  0  0  0  0
 23 42  1  0  0  0  0
M  END
> <PUBCHEM_COMPOUND_CID>
136188797

> <PUBCHEM_CONFORMER_RMSD>
0.8

> <PUBCHEM_CONFORMER_DIVERSEORDER>
1
28
36
7
23
27
14
32
29
22
35
2
21
3
30
6
37
19
10
25
31
33
34
20
39
38
8
11
24
12
18
5
4
9
17
26
13
15
16

> <PUBCHEM_MMFF94_PARTIAL_CHARGES>
27
1 -0.46
10 0.25
11 0.23
12 0.23
14 0.27
15 0.66
17 0.5
18 0.09
19 0.08
2 -0.37
20 -0.15
21 -0.15
22 -0.15
23 -0.15
3 -0.65
38 0.5
39 0.15
4 -0.57
40 0.15
41 0.15
42 0.15
43 0.45
5 -0.53
6 -0.81
7 -0.7
8 0.5
9 0.33

> <PUBCHEM_EFFECTIVE_ROTOR_COUNT>
4.6

> <PUBCHEM_PHARMACOPHORE_FEATURES>
9
1 3 acceptor
1 4 acceptor
1 5 donor
1 6 cation
1 7 acceptor
3 3 4 15 anion
5 1 6 8 9 11 rings
5 2 7 10 12 17 rings
6 18 19 20 21 22 23 rings

> <PUBCHEM_HEAVY_ATOM_COUNT>
23

> <PUBCHEM_ATOM_DEF_STEREO_COUNT>
4

> <PUBCHEM_ATOM_UDEF_STEREO_COUNT>
0

> <PUBCHEM_BOND_DEF_STEREO_COUNT>
0

> <PUBCHEM_BOND_UDEF_STEREO_COUNT>
0

> <PUBCHEM_ISOTOPIC_ATOM_COUNT>
0

> <PUBCHEM_COMPONENT_COUNT>
1

> <PUBCHEM_CACTVS_TAUTO_COUNT>
-1

> <PUBCHEM_CONFORMER_ID>
081E137D00000001

> <PUBCHEM_MMFF94_ENERGY>
70.1093

> <PUBCHEM_FEATURE_SELFOVERLAP>
45.727

> <PUBCHEM_SHAPE_FINGERPRINT>
11045515 52 18114179709700596484
12107183 9 17694229863348889130
12166972 35 17894917321919582004
12236239 1 17632580456964585554
12516196 113 18412826906289295432
12553582 1 18271513261066770260
12596602 18 17346597512771640842
12760667 363 18335703806558800738
12788726 201 18264202504879788544
13103583 49 17988936573647190521
13167823 11 18343582975165232567
13288520 33 18410012161144223143
13402501 40 18260834820901532426
13533116 47 18198904906335038425
13544653 18 18334581247788237612
13685833 64 18261680358649927299
13862211 1 18409727366110534250
14251764 18 18342465837645606825
14386348 63 18186805781340469010
14787075 74 18334294296976306714
14790565 3 17616823570950930164
15196674 1 18409166589157136202
15209289 33 18334296487435774259
15352361 1 18410293618518967538
15788980 27 18113336405703264940
15880784 105 18060702810041569578
15927050 60 17623569057775674316
17349148 13 18113338596416102032
17492 89 18195808467059874534
17844677 252 18335424556322681276
17857418 61 18412541045998287079
17980427 23 13254505500837683609
1813 80 18261688012017911604
200 152 18410009935992370170
20281475 54 18413107268701008980
20645477 70 18411138009606702726
21033650 10 13913447063134426406
21267235 1 18340774754644909430
21279426 13 18117838798202219141
22950370 63 18413390942822015156
23175994 123 18335425672602662709
23402539 116 18413106151961753453
23522609 53 18193871255777531292
23558518 356 18118977888338957392
23559900 14 18260823842949318749
26918003 58 18187367623276587544
2838139 119 10159699071106517466
2871803 45 18114181917719240602
3004659 81 18040997332894753810
314194 84 18412544344649260206
3286 77 18269558398397183621
335352 9 18411981343778749885
4214541 1 18334575694501246356
463206 1 18337672047894018443
465052 167 18272656783150841854
4921388 177 16081381759969165561
5104073 3 18198615533356660632
5283173 99 18041269959690832596
542803 24 17060622204813763018
59682541 35 18341606075793319840
59755656 215 17968088712477973147
59755656 520 18116706319371499661
9709674 26 18335145241772405994

> <PUBCHEM_SHAPE_MULTIPOLES>
453.46
12.53
2.4
1.1
6.92
0.84
-0.03
-5.41
0.12
-0.09
0.16
-1.28
0
-0.05

> <PUBCHEM_SHAPE_SELFOVERLAP>
944.019

> <PUBCHEM_SHAPE_VOLUME>
261.8

> <PUBCHEM_COORDINATE_TYPE>
2
5
10

$$$$
