REMARK  Name = 136183860
REMARK  5 active torsions:
REMARK  status: ('A' for Active; 'I' for Inactive)
REMARK    1  A    between atoms: N_2  and  C_16
REMARK    2  A    between atoms: C_15  and  C_19
REMARK    3  A    between atoms: C_17  and  C_22
REMARK    4  A    between atoms: C_19  and  O_20
REMARK    5  A    between atoms: C_22  and  O_23
REMARK                            x       y       z     vdW  Elec       q    Type
REMARK                         _______ _______ _______ _____ _____    ______ ____
ROOT
ATOM      1  O   UNL     1      -4.342  -1.534  -0.802  0.00  0.00    -0.268 OA
ATOM      2  N   UNL     1      -0.048  -0.430   0.068  0.00  0.00    -0.263 N 
ATOM      3  N   UNL     1      -1.419  -2.044  -0.649  0.00  0.00    -0.240 NA
ATOM      4  N   UNL     1      -1.638   1.342   0.504  0.00  0.00    -0.357 NA
ATOM      5  N   UNL     1      -3.861   0.607  -0.003  0.00  0.00    -0.243 N 
ATOM      6  N   UNL     1      -3.469   2.785   0.800  0.00  0.00    -0.321 N 
ATOM      7  C   UNL     1      -1.306   0.094   0.107  0.00  0.00    +0.210 C 
ATOM      8  C   UNL     1      -0.167  -1.718  -0.394  0.00  0.00    +0.222 C 
ATOM      9  C   UNL     1      -2.122  -0.918  -0.337  0.00  0.00    +0.176 C 
ATOM     10  C   UNL     1      -3.539  -0.693  -0.419  0.00  0.00    +0.273 C 
ATOM     11  C   UNL     1      -2.930   1.577   0.440  0.00  0.00    +0.239 C 
ATOM     12  H   UNL     1      -4.811   0.865  -0.020  0.00  0.00    +0.159 HD
ATOM     13  H   UNL     1      -2.884   3.509   1.118  0.00  0.00    +0.146 HD
ATOM     14  H   UNL     1      -4.441   2.928   0.740  0.00  0.00    +0.146 HD
ENDROOT
BRANCH   2  16
ATOM     15  C   UNL     1       2.681  -0.371   0.130  0.00  0.00    +0.050 C 
ATOM     16  C   UNL     1       1.305   0.296   0.473  0.00  0.00    +0.079 C 
ATOM     17  C   UNL     1       3.235   1.066  -0.098  0.00  0.00    +0.035 C 
ATOM     18  C   UNL     1       1.781   1.491  -0.408  0.00  0.00    +0.023 C 
BRANCH  15  19
ATOM     19  C   UNL     1       3.354  -1.162   1.237  0.00  0.00    +0.139 C 
BRANCH  19  20
ATOM     20  O   UNL     1       2.731  -2.435   1.327  0.00  0.00    -0.382 OA
ATOM     21  H   UNL     1       3.153  -2.951   2.032  0.00  0.00    +0.210 HD
ENDBRANCH  19  20
ENDBRANCH  15  19
BRANCH  17  22
ATOM     22  C   UNL     1       4.240   1.236  -1.219  0.00  0.00    +0.137 C 
BRANCH  22  23
ATOM     23  O   UNL     1       5.514   0.813  -0.756  0.00  0.00    -0.382 OA
ATOM     24  H   UNL     1       6.167   0.917  -1.466  0.00  0.00    +0.210 HD
ENDBRANCH  22  23
ENDBRANCH  17  22
ENDBRANCH   2  16
TORSDOF 5
