REMARK  Name = 136165051
REMARK  5 active torsions:
REMARK  status: ('A' for Active; 'I' for Inactive)
REMARK    1  A    between atoms: N_2  and  C_19
REMARK    2  A    between atoms: C_16  and  C_24
REMARK    3  A    between atoms: C_17  and  O_20
REMARK    4  A    between atoms: C_18  and  O_22
REMARK    5  A    between atoms: C_24  and  O_26
REMARK                            x       y       z     vdW  Elec       q    Type
REMARK                         _______ _______ _______ _____ _____    ______ ____
ROOT
ATOM      1  O   UNL     1      -4.782  -0.413  -0.278  0.00  0.00    -0.268 OA
ATOM      2  N   UNL     1      -0.401  -1.310   0.374  0.00  0.00    -0.237 N 
ATOM      3  N   UNL     1      -2.451  -2.190   0.207  0.00  0.00    -0.240 NA
ATOM      4  N   UNL     1      -0.899   1.038   0.061  0.00  0.00    -0.357 NA
ATOM      5  N   UNL     1      -3.252   1.351  -0.271  0.00  0.00    -0.243 N 
ATOM      6  N   UNL     1      -1.780   3.189  -0.280  0.00  0.00    -0.321 N 
ATOM      7  C   UNL     1      -1.249  -0.264   0.155  0.00  0.00    +0.211 C 
ATOM      8  C   UNL     1      -1.172  -2.447   0.397  0.00  0.00    +0.224 C 
ATOM      9  C   UNL     1      -2.495  -0.835   0.057  0.00  0.00    +0.176 C 
ATOM     10  C   UNL     1      -3.635   0.006  -0.177  0.00  0.00    +0.273 C 
ATOM     11  C   UNL     1      -1.926   1.832  -0.154  0.00  0.00    +0.239 C 
ATOM     12  H   UNL     1      -3.961   2.014  -0.432  0.00  0.00    +0.159 HD
ATOM     13  H   UNL     1      -0.887   3.597  -0.209  0.00  0.00    +0.146 HD
ATOM     14  H   UNL     1      -2.569   3.756  -0.440  0.00  0.00    +0.146 HD
ENDROOT
BRANCH   2  19
ATOM     15  O   UNL     1       1.501  -0.017   1.191  0.00  0.00    -0.333 OA
ATOM     16  C   UNL     1       2.689   0.486   0.540  0.00  0.00    +0.173 C 
ATOM     17  C   UNL     1       3.161  -0.616  -0.400  0.00  0.00    +0.171 C 
ATOM     18  C   UNL     1       1.861  -1.307  -0.760  0.00  0.00    +0.187 C 
ATOM     19  C   UNL     1       1.096  -1.248   0.558  0.00  0.00    +0.226 C 
BRANCH  17  20
ATOM     20  O   UNL     1       4.004  -1.496   0.341  0.00  0.00    -0.379 OA
ATOM     21  H   UNL     1       4.831  -1.041   0.564  0.00  0.00    +0.211 HD
ENDBRANCH  17  20
BRANCH  18  22
ATOM     22  O   UNL     1       2.049  -2.626  -1.232  0.00  0.00    -0.378 OA
ATOM     23  H   UNL     1       2.539  -2.604  -2.069  0.00  0.00    +0.211 HD
ENDBRANCH  18  22
BRANCH  16  24
ATOM     24  C   UNL     1       2.327   1.775  -0.184  0.00  0.00    +0.140 C 
ATOM     25  C   UNL     1       1.897   2.865   0.784  0.00  0.00    +0.034 C 
BRANCH  24  26
ATOM     26  O   UNL     1       3.454   2.225  -0.929  0.00  0.00    -0.382 OA
ATOM     27  H   UNL     1       3.731   1.531  -1.547  0.00  0.00    +0.210 HD
ENDBRANCH  24  26
ENDBRANCH  16  24
ENDBRANCH   2  19
TORSDOF 5
