REMARK  Name = 136195727
REMARK  6 active torsions:
REMARK  status: ('A' for Active; 'I' for Inactive)
REMARK    1  A    between atoms: N_4  and  C_7
REMARK    2  A    between atoms: N_4  and  N_9
REMARK    3  A    between atoms: C_5  and  C_13
REMARK    4  A    between atoms: N_9  and  C_10
REMARK    5  A    between atoms: C_13  and  C_16
REMARK    6  A    between atoms: N_15  and  C_18
REMARK                            x       y       z     vdW  Elec       q    Type
REMARK                         _______ _______ _______ _____ _____    ______ ____
ROOT
ATOM      1  S   UNL     1      -1.394  -0.780   0.722  0.00  0.00    -0.093 S 
ATOM      2  O   UNL     1      -1.554   3.022   0.043  0.00  0.00    -0.274 OA
ATOM      3  N   UNL     1      -2.927   1.161   0.052  0.00  0.00    -0.282 N 
ATOM      4  C   UNL     1      -0.630   0.874   0.666  0.00  0.00    +0.136 C 
ATOM      5  C   UNL     1      -1.728   1.821   0.222  0.00  0.00    +0.234 C 
ATOM      6  C   UNL     1      -2.955  -0.184   0.264  0.00  0.00    +0.215 C 
ATOM      7  H   UNL     1      -3.739   1.648  -0.215  0.00  0.00    +0.152 HD
ENDROOT
BRANCH   6   8
ATOM      8  N   UNL     1      -4.001  -0.921   0.140  0.00  0.00    -0.101 NA
BRANCH   8   9
ATOM      9  N   UNL     1      -5.095  -0.153  -0.241  0.00  0.00    -0.130 NA
BRANCH   9  10
ATOM     10  C   UNL     1      -6.186  -0.841  -0.384  0.00  0.00    +0.092 C 
ATOM     11  C   UNL     1      -7.518  -0.256  -0.791  0.00  0.00    +0.020 C 
ATOM     12  C   UNL     1      -6.130  -2.326  -0.130  0.00  0.00    +0.020 C 
ENDBRANCH   9  10
ENDBRANCH   8   9
ENDBRANCH   6   8
BRANCH   4  13
ATOM     13  C   UNL     1       0.542   0.895  -0.299  0.00  0.00    +0.105 C 
BRANCH  13  16
ATOM     14  O   UNL     1       1.869  -0.040   1.480  0.00  0.00    -0.275 OA
ATOM     15  N   UNL     1       2.854   0.357  -0.615  0.00  0.00    -0.284 N 
ATOM     16  C   UNL     1       1.820   0.345   0.316  0.00  0.00    +0.227 C 
ATOM     17  H   UNL     1       2.631   0.704  -1.509  0.00  0.00    +0.155 HD
BRANCH  15  18
ATOM     18  C   UNL     1       4.190  -0.072  -0.426  0.00  0.00    +0.050 C 
ATOM     19  C   UNL     1       5.104   0.011  -1.477  0.00  0.00    +0.015 C 
ATOM     20  C   UNL     1       4.592  -0.579   0.809  0.00  0.00    +0.015 C 
ATOM     21  C   UNL     1       6.420  -0.413  -1.291  0.00  0.00    +0.001 C 
ATOM     22  C   UNL     1       5.908  -1.002   0.995  0.00  0.00    +0.001 C 
ATOM     23  C   UNL     1       6.822  -0.919  -0.055  0.00  0.00    +0.000 C 
ENDBRANCH  15  18
ENDBRANCH  13  16
ENDBRANCH   4  13
TORSDOF 6
