136105618
  -OEChem-03292013293D

 30 33  0     0  0  0  0  0  0999 V2000
    3.5317   -1.2125   -0.8667 S   0  0  0  0  0  0  0  0  0  0  0  0
   -3.2081   -1.2188   -1.7056 S   0  0  0  0  0  0  0  0  0  0  0  0
    3.0250    1.8145   -0.2278 N   0  0  0  0  0  0  0  0  0  0  0  0
    1.1617    3.0180   -0.1197 N   0  0  0  0  0  0  0  0  0  0  0  0
    1.4200   -1.2927    0.6221 N   0  0  0  0  0  0  0  0  0  0  0  0
   -4.3601   -0.3464    0.4307 N   0  0  0  0  0  0  0  0  0  0  0  0
    0.8657    1.6808   -0.0300 C   0  0  0  0  0  0  0  0  0  0  0  0
   -0.4729    1.1784    0.1139 C   0  0  0  0  0  0  0  0  0  0  0  0
    2.0055    0.9145   -0.0947 C   0  0  0  0  0  0  0  0  0  0  0  0
   -0.9919    0.3183   -0.8569 C   0  0  0  0  0  0  0  0  0  0  0  0
    2.2129   -0.4839   -0.0452 C   0  0  0  0  0  0  0  0  0  0  0  0
   -2.3024   -0.1582   -0.6919 C   0  0  0  0  0  0  0  0  0  0  0  0
   -1.2343    1.5534    1.2154 C   0  0  0  0  0  0  0  0  0  0  0  0
   -3.0872    0.2048    0.4070 C   0  0  0  0  0  0  0  0  0  0  0  0
   -2.5383    1.0754    1.3734 C   0  0  0  0  0  0  0  0  0  0  0  0
    2.4701    3.0640   -0.2379 C   0  0  0  0  0  0  0  0  0  0  0  0
    1.8805   -2.5871    0.4800 C   0  0  0  0  0  0  0  0  0  0  0  0
    3.0133   -2.7426   -0.2911 C   0  0  0  0  0  0  0  0  0  0  0  0
   -4.5296   -1.1069   -0.6255 C   0  0  0  0  0  0  0  0  0  0  0  0
    1.1383   -3.6729    1.1505 C   0  0  0  0  0  0  0  0  0  0  0  0
   -0.4097    0.0244   -1.7265 H   0  0  0  0  0  0  0  0  0  0  0  0
   -0.8288    2.2219    1.9719 H   0  0  0  0  0  0  0  0  0  0  0  0
    4.0108    1.6009   -0.3049 H   0  0  0  0  0  0  0  0  0  0  0  0
   -3.1242    1.3744    2.2379 H   0  0  0  0  0  0  0  0  0  0  0  0
    3.0698    3.9578   -0.3335 H   0  0  0  0  0  0  0  0  0  0  0  0
    3.5468   -3.6497   -0.5379 H   0  0  0  0  0  0  0  0  0  0  0  0
    1.4022   -3.7124    2.2119 H   0  0  0  0  0  0  0  0  0  0  0  0
    0.0589   -3.5078    1.0712 H   0  0  0  0  0  0  0  0  0  0  0  0
    1.3619   -4.6474    0.7047 H   0  0  0  0  0  0  0  0  0  0  0  0
   -5.4543   -1.6370   -0.8081 H   0  0  0  0  0  0  0  0  0  0  0  0
  1 11  1  0  0  0  0
  1 18  1  0  0  0  0
  2 12  1  0  0  0  0
  2 19  1  0  0  0  0
  3  9  1  0  0  0  0
  3 16  1  0  0  0  0
  3 23  1  0  0  0  0
  4  7  1  0  0  0  0
  4 16  2  0  0  0  0
  5 11  2  0  0  0  0
  5 17  1  0  0  0  0
  6 14  1  0  0  0  0
  6 19  2  0  0  0  0
  7  8  1  0  0  0  0
  7  9  2  0  0  0  0
  8 10  2  0  0  0  0
  8 13  1  0  0  0  0
  9 11  1  0  0  0  0
 10 12  1  0  0  0  0
 10 21  1  0  0  0  0
 12 14  2  0  0  0  0
 13 15  2  0  0  0  0
 13 22  1  0  0  0  0
 14 15  1  0  0  0  0
 15 24  1  0  0  0  0
 16 25  1  0  0  0  0
 17 18  2  0  0  0  0
 17 20  1  0  0  0  0
 18 26  1  0  0  0  0
 19 30  1  0  0  0  0
 20 27  1  0  0  0  0
 20 28  1  0  0  0  0
 20 29  1  0  0  0  0
M  END
> <PUBCHEM_COMPOUND_CID>
136105618

> <PUBCHEM_CONFORMER_RMSD>
0.6

> <PUBCHEM_CONFORMER_DIVERSEORDER>
1
17
5
9
4
15
8
6
18
2
10
16
3
7
13
14
12
11

> <PUBCHEM_MMFF94_PARTIAL_CHARGES>
27
1 -0.08
10 -0.15
11 0.38
12 0.04
13 -0.15
14 0.23
15 -0.15
16 0.04
17 0.05
18 -0.11
19 0.23
2 -0.08
20 0.18
21 0.15
22 0.15
23 0.27
24 0.15
25 0.15
26 0.15
3 0.03
30 0.15
4 -0.57
5 -0.57
6 -0.57
7 0.17
8 0.05
9 -0.15

> <PUBCHEM_EFFECTIVE_ROTOR_COUNT>
2

> <PUBCHEM_PHARMACOPHORE_FEATURES>
8
1 3 donor
1 5 acceptor
1 6 acceptor
3 3 4 16 cation
5 1 5 11 17 18 rings
5 2 6 12 14 19 rings
5 3 4 7 9 16 rings
6 8 10 12 13 14 15 rings

> <PUBCHEM_HEAVY_ATOM_COUNT>
20

> <PUBCHEM_ATOM_DEF_STEREO_COUNT>
0

> <PUBCHEM_ATOM_UDEF_STEREO_COUNT>
0

> <PUBCHEM_BOND_DEF_STEREO_COUNT>
0

> <PUBCHEM_BOND_UDEF_STEREO_COUNT>
0

> <PUBCHEM_ISOTOPIC_ATOM_COUNT>
0

> <PUBCHEM_COMPONENT_COUNT>
1

> <PUBCHEM_CACTVS_TAUTO_COUNT>
-1

> <PUBCHEM_CONFORMER_ID>
081CCE9200000001

> <PUBCHEM_MMFF94_ENERGY>
31.8862

> <PUBCHEM_FEATURE_SELFOVERLAP>
40.668

> <PUBCHEM_SHAPE_FINGERPRINT>
11578080 2 17915151582070221897
12553582 1 18193277382048464122
12596599 1 17915472596647168810
13004483 165 17687737242733499194
13009979 54 17846226492501288922
13140716 1 18194112143554972130
13402501 40 17181367526782629995
13533116 47 18342173419345595679
13583140 156 18117865243149785137
14767858 380 18263384542118542462
14844126 61 16964342086159359762
15099037 8 18272370841402777457
15375462 189 18192725448722814018
17138139 8 17337849970060137079
17818456 19 17844816876177973201
20291156 8 18270117898821992159
20645477 70 18262226815976170655
21421861 104 18200613431519749427
21452121 199 17899119534843628578
21634736 98 18342740732220950894
21731516 1 18194680358932777550
22445834 79 18342181042126393689
2255824 54 18410858784749353692
23419403 2 14279297556800356752
23559900 14 18411974759045018433
23598291 2 18199764582230249881
23728640 28 16389567928610150826
238 59 18260553363194004274
33824 294 18335980986029924040
34934 24 17976544910056407688
352729 6 17834684077452914744
59682541 52 18119215478025588903
6992083 37 17840600201212732969
7097593 13 18270688541288583713
7364860 26 18341613741476603012
8272917 22 18410014372841527013
9981440 41 15976642544744217768

> <PUBCHEM_SHAPE_MULTIPOLES>
399.37
7.06
3.78
1.21
5.16
0.47
-0.03
2.89
-1.31
-4.13
0.65
0.76
0.38
-1.26

> <PUBCHEM_SHAPE_SELFOVERLAP>
875.362

> <PUBCHEM_SHAPE_VOLUME>
219.8

> <PUBCHEM_COORDINATE_TYPE>
2
5
10

$$$$
