136189563
  -OEChem-03292013293D

 47 49  0     1  0  0  0  0  0999 V2000
    0.3038    2.7099    0.9688 O   0  0  0  0  0  0  0  0  0  0  0  0
    3.7942   -0.3357   -0.2779 N   0  0  0  0  0  0  0  0  0  0  0  0
    7.3220   -1.3810   -0.7859 N   0  0  0  0  0  0  0  0  0  0  0  0
    1.5245    0.1394    0.1282 N   0  0  0  0  0  0  0  0  0  0  0  0
   -6.3525   -0.7367   -0.7294 N   0  0  0  0  0  0  0  0  0  0  0  0
    0.3806   -0.9897    1.9238 N   0  0  0  0  0  0  0  0  0  0  0  0
   -5.6897   -1.7694   -1.2779 N   0  0  0  0  0  0  0  0  0  0  0  0
    6.1073   -0.6034   -1.0468 C   0  0  1  0  0  0  0  0  0  0  0  0
    5.0440   -1.0128   -0.0174 C   0  0  0  0  0  0  0  0  0  0  0  0
    6.4083    0.9067   -0.9827 C   0  0  0  0  0  0  0  0  0  0  0  0
    7.4685    1.3631   -1.9780 C   0  0  0  0  0  0  0  0  0  0  0  0
    2.6385   -0.5478    0.4554 C   0  0  0  0  0  0  0  0  0  0  0  0
   -0.7591    0.5906    0.5741 C   0  0  0  0  0  0  0  0  0  0  0  0
   -3.0794    0.5500   -0.0979 C   0  0  0  0  0  0  0  0  0  0  0  0
   -1.9003   -0.1265    0.2148 C   0  0  0  0  0  0  0  0  0  0  0  0
   -4.2548   -0.1870   -0.4690 C   0  0  0  0  0  0  0  0  0  0  0  0
    0.4479   -0.1263    0.8924 C   0  0  0  0  0  0  0  0  0  0  0  0
   -0.7971    1.9841    0.6210 C   0  0  0  0  0  0  0  0  0  0  0  0
   -3.1174    1.9436   -0.0509 C   0  0  0  0  0  0  0  0  0  0  0  0
    2.7008   -1.4600    1.4891 C   0  0  0  0  0  0  0  0  0  0  0  0
   -1.9763    2.6607    0.3083 C   0  0  0  0  0  0  0  0  0  0  0  0
   -5.5390    0.2377   -0.2304 C   0  0  0  0  0  0  0  0  0  0  0  0
   -4.4088   -1.4277   -1.1158 C   0  0  0  0  0  0  0  0  0  0  0  0
    1.5297   -1.6422    2.1960 C   0  0  0  0  0  0  0  0  0  0  0  0
   -7.7957   -0.7397   -0.7118 C   0  0  0  0  0  0  0  0  0  0  0  0
    5.7466   -0.8497   -2.0536 H   0  0  0  0  0  0  0  0  0  0  0  0
    5.4012   -0.7735    0.9928 H   0  0  0  0  0  0  0  0  0  0  0  0
    4.8962   -2.0988   -0.0835 H   0  0  0  0  0  0  0  0  0  0  0  0
    5.4980    1.4813   -1.1867 H   0  0  0  0  0  0  0  0  0  0  0  0
    6.7319    1.1838    0.0288 H   0  0  0  0  0  0  0  0  0  0  0  0
    3.7206    0.3117   -1.0539 H   0  0  0  0  0  0  0  0  0  0  0  0
    8.4546    0.9559   -1.7359 H   0  0  0  0  0  0  0  0  0  0  0  0
    7.2062    1.0613   -2.9970 H   0  0  0  0  0  0  0  0  0  0  0  0
    7.5522    2.4547   -1.9600 H   0  0  0  0  0  0  0  0  0  0  0  0
    8.0006   -1.2239   -1.5294 H   0  0  0  0  0  0  0  0  0  0  0  0
    7.1045   -2.3766   -0.8125 H   0  0  0  0  0  0  0  0  0  0  0  0
   -1.8654   -1.2142    0.1815 H   0  0  0  0  0  0  0  0  0  0  0  0
   -4.0149    2.5037   -0.3012 H   0  0  0  0  0  0  0  0  0  0  0  0
    3.5793   -2.0222    1.7752 H   0  0  0  0  0  0  0  0  0  0  0  0
   -2.0197    3.7463    0.3377 H   0  0  0  0  0  0  0  0  0  0  0  0
   -5.9437    1.1213    0.2456 H   0  0  0  0  0  0  0  0  0  0  0  0
   -3.6466   -2.1019   -1.4810 H   0  0  0  0  0  0  0  0  0  0  0  0
    1.4811   -2.3384    3.0265 H   0  0  0  0  0  0  0  0  0  0  0  0
   -8.1309   -1.6152   -0.1501 H   0  0  0  0  0  0  0  0  0  0  0  0
   -8.1573    0.1729   -0.2316 H   0  0  0  0  0  0  0  0  0  0  0  0
   -8.1520   -0.7848   -1.7439 H   0  0  0  0  0  0  0  0  0  0  0  0
    0.0825    3.6566    0.9441 H   0  0  0  0  0  0  0  0  0  0  0  0
  1 18  1  0  0  0  0
  1 47  1  0  0  0  0
  2  9  1  0  0  0  0
  2 12  1  0  0  0  0
  2 31  1  0  0  0  0
  3  8  1  0  0  0  0
  3 35  1  0  0  0  0
  3 36  1  0  0  0  0
  4 12  2  0  0  0  0
  4 17  1  0  0  0  0
  5  7  1  0  0  0  0
  5 22  1  0  0  0  0
  5 25  1  0  0  0  0
  6 17  2  0  0  0  0
  6 24  1  0  0  0  0
  7 23  2  0  0  0  0
  8  9  1  0  0  0  0
  8 10  1  0  0  0  0
  8 26  1  0  0  0  0
  9 27  1  0  0  0  0
  9 28  1  0  0  0  0
 10 11  1  0  0  0  0
 10 29  1  0  0  0  0
 10 30  1  0  0  0  0
 11 32  1  0  0  0  0
 11 33  1  0  0  0  0
 11 34  1  0  0  0  0
 12 20  1  0  0  0  0
 13 15  1  0  0  0  0
 13 17  1  0  0  0  0
 13 18  2  0  0  0  0
 14 15  2  0  0  0  0
 14 16  1  0  0  0  0
 14 19  1  0  0  0  0
 15 37  1  0  0  0  0
 16 22  2  0  0  0  0
 16 23  1  0  0  0  0
 18 21  1  0  0  0  0
 19 21  2  0  0  0  0
 19 38  1  0  0  0  0
 20 24  2  0  0  0  0
 20 39  1  0  0  0  0
 21 40  1  0  0  0  0
 22 41  1  0  0  0  0
 23 42  1  0  0  0  0
 24 43  1  0  0  0  0
 25 44  1  0  0  0  0
 25 45  1  0  0  0  0
 25 46  1  0  0  0  0
M  END
> <PUBCHEM_COMPOUND_CID>
136189563

> <PUBCHEM_CONFORMER_RMSD>
1

> <PUBCHEM_CONFORMER_DIVERSEORDER>
3
62
52
26
75
58
73
108
84
94
4
89
95
18
78
40
60
107
49
51
90
46
99
41
81
102
110
77
38
22
6
65
68
103
54
34
85
59
42
80
19
100
33
24
27
23
70
109
35
2
63
7
79
37
106
92
96
8
21
25
13
69
15
105
71
104
98
28
17
67
97
86
93
32
76
31
45
1
43
12
53
61
5
64
44
36
57
10
14
20
87
66
101
88
74
48
9
82
16
56
83
39
91
72
55
11
50
47
29
30

> <PUBCHEM_MMFF94_PARTIAL_CHARGES>
33
1 -0.53
12 0.41
14 0.05
15 -0.15
16 -0.05
17 0.62
18 0.08
19 -0.15
2 -0.87
20 -0.15
21 -0.15
22 -0.3
23 0.14
24 0.16
25 0.26
3 -0.99
31 0.4
35 0.36
36 0.36
37 0.15
38 0.15
39 0.15
4 -0.62
40 0.15
41 0.15
42 0.15
43 0.15
47 0.45
5 0.31
6 -0.62
7 -0.71
8 0.27
9 0.37

> <PUBCHEM_EFFECTIVE_ROTOR_COUNT>
6

> <PUBCHEM_PHARMACOPHORE_FEATURES>
11
1 1 donor
1 11 hydrophobe
1 2 donor
1 3 cation
1 3 donor
1 7 acceptor
3 2 4 12 cation
3 4 6 17 cation
5 5 7 16 22 23 rings
6 13 14 15 18 19 21 rings
6 4 6 12 17 20 24 rings

> <PUBCHEM_HEAVY_ATOM_COUNT>
25

> <PUBCHEM_ATOM_DEF_STEREO_COUNT>
1

> <PUBCHEM_ATOM_UDEF_STEREO_COUNT>
0

> <PUBCHEM_BOND_DEF_STEREO_COUNT>
0

> <PUBCHEM_BOND_UDEF_STEREO_COUNT>
0

> <PUBCHEM_ISOTOPIC_ATOM_COUNT>
0

> <PUBCHEM_COMPONENT_COUNT>
1

> <PUBCHEM_CACTVS_TAUTO_COUNT>
-1

> <PUBCHEM_CONFORMER_ID>
081E167B00000003

> <PUBCHEM_MMFF94_ENERGY>
59.236

> <PUBCHEM_FEATURE_SELFOVERLAP>
55.962

> <PUBCHEM_SHAPE_FINGERPRINT>
10 15 9511457840112480190
10042902 136 17559941290195702991
10595046 47 18339083692638935796
10692045 39 8502384351252406540
11135609 187 17458621195080486825
11524674 6 15339115749798748303
11638347 137 14548731851244105391
11961588 58 17603868931730653640
12236239 1 18187926127553774407
12553582 1 18268687508015782187
12788726 201 18338228263976224713
13402501 40 17275386503758445879
13540713 5 17826505570198578768
13673619 4 16845572019513221058
13685833 64 15410895158868522030
13690498 29 18410848850917740541
13782708 43 16773504517070429662
13941219 33 11527947829470086196
14251732 14 18202282498407122522
14251764 30 16917347034873409382
14347424 109 8286202726517930670
14466204 15 7925915893513910175
14556957 393 18113911432994655349
14767858 380 18260267460264104396
14931854 50 18187638090336839319
15461852 350 18201726120814058558
16994733 274 15574985127663201613
17492 54 17749106686095920491
18222031 100 18058427920937154015
18643901 69 17846223232584084351
19427546 20 18336264527577663285
20554085 129 13407069331792511020
21049683 271 18041279958997157301
21150785 3 18410294722742333222
21267235 1 18342174497492838399
21365058 113 16702302381781285400
21403212 168 10375879554297025485
21521239 73 18335986381364000706
21591340 7 9007057946992690129
2297311 6 18059853948468099993
23522609 53 18268167373821637272
23559900 14 17987223594987770225
23622692 88 11239996767330248307
25147074 1 18043243539917332280
2838139 119 14418131858952445654
3004659 81 18409158927167523861
335352 9 18342731907149724285
34797466 226 17561078138385639432
484989 97 17896613966634123203
513202 73 13182476412797963088
5207 217 17603588542652785370
5283384 27 16153709855985804646
5385378 56 8502387653945184997
6058803 2 17828194398563011152
7237137 82 18261665970662732933
9980921 7 16661785447834523756

> <PUBCHEM_SHAPE_MULTIPOLES>
478.73
19.59
2.22
1.56
9.74
1.2
0.22
-3.92
-14.85
-0.04
0.53
1.23
-0.44
-2.49

> <PUBCHEM_SHAPE_SELFOVERLAP>
1029.01

> <PUBCHEM_SHAPE_VOLUME>
266.3

> <PUBCHEM_COORDINATE_TYPE>
2
5
10

$$$$
