REMARK  Name = 136190394
REMARK  5 active torsions:
REMARK  status: ('A' for Active; 'I' for Inactive)
REMARK    1  A    between atoms: N_2  and  C_18
REMARK    2  A    between atoms: C_16  and  N_20
REMARK    3  A    between atoms: C_17  and  O_24
REMARK    4  A    between atoms: C_19  and  C_26
REMARK    5  A    between atoms: C_26  and  O_27
REMARK                            x       y       z     vdW  Elec       q    Type
REMARK                         _______ _______ _______ _____ _____    ______ ____
ROOT
ATOM      1  O   UNL     1       4.495  -1.377  -1.222  0.00  0.00    -0.268 OA
ATOM      2  N   UNL     1       0.213  -0.446  -0.121  0.00  0.00    -0.240 N 
ATOM      3  N   UNL     1       1.547  -1.662  -1.443  0.00  0.00    -0.240 NA
ATOM      4  N   UNL     1       1.859   0.796   1.148  0.00  0.00    -0.357 NA
ATOM      5  N   UNL     1       4.071   0.194   0.452  0.00  0.00    -0.243 N 
ATOM      6  N   UNL     1       3.737   1.791   2.149  0.00  0.00    -0.321 N 
ATOM      7  C   UNL     1       1.492  -0.103   0.208  0.00  0.00    +0.211 C 
ATOM      8  C   UNL     1       0.298  -1.387  -1.118  0.00  0.00    +0.224 C 
ATOM      9  C   UNL     1       2.283  -0.863  -0.618  0.00  0.00    +0.176 C 
ATOM     10  C   UNL     1       3.712  -0.742  -0.528  0.00  0.00    +0.273 C 
ATOM     11  C   UNL     1       3.163   0.928   1.252  0.00  0.00    +0.239 C 
ATOM     12  H   UNL     1       5.032   0.354   0.595  0.00  0.00    +0.159 HD
ATOM     13  H   UNL     1       3.168   2.336   2.740  0.00  0.00    +0.146 HD
ATOM     14  H   UNL     1       4.717   1.867   2.202  0.00  0.00    +0.146 HD
ENDROOT
BRANCH   2  18
ATOM     15  O   UNL     1      -1.800  -0.955   1.147  0.00  0.00    -0.337 OA
ATOM     16  C   UNL     1      -2.025   0.697  -0.539  0.00  0.00    +0.020 C 
ATOM     17  C   UNL     1      -3.357   0.562   0.183  0.00  0.00    +0.125 C 
ATOM     18  C   UNL     1      -1.060   0.093   0.483  0.00  0.00    +0.179 C 
ATOM     19  C   UNL     1      -3.210  -0.783   0.886  0.00  0.00    +0.171 C 
BRANCH  16  20
ATOM     20  N   UNL     1      -1.687   2.060  -0.921  0.00  0.00    +0.390 N 
ATOM     21  C   UNL     1      -2.701   2.614  -1.822  0.00  0.00    -0.100 C 
ATOM     22  C   UNL     1      -0.367   2.110  -1.556  0.00  0.00    -0.100 C 
ATOM     23  H   UNL     1      -1.662   2.626  -0.073  0.00  0.00    -0.080 HD
ENDBRANCH  16  20
BRANCH  17  24
ATOM     24  O   UNL     1      -3.482   1.581   1.175  0.00  0.00    -0.384 OA
ATOM     25  H   UNL     1      -3.576   2.444   0.743  0.00  0.00    +0.210 HD
ENDBRANCH  17  24
BRANCH  19  26
ATOM     26  C   UNL     1      -3.684  -1.955   0.036  0.00  0.00    +0.169 C 
BRANCH  26  27
ATOM     27  O   UNL     1      -3.497  -3.152   0.770  0.00  0.00    -0.379 OA
ATOM     28  H   UNL     1      -3.795  -3.907   0.239  0.00  0.00    +0.211 HD
ENDBRANCH  26  27
ENDBRANCH  19  26
ENDBRANCH   2  18
TORSDOF 5
