REMARK  Name = 136177057
REMARK  3 active torsions:
REMARK  status: ('A' for Active; 'I' for Inactive)
REMARK    1  A    between atoms: N_2  and  CA_16
REMARK    2  A    between atoms: CA_16  and  C_19
REMARK    3  A    between atoms: C_19  and  O_20
REMARK                            x       y       z     vdW  Elec       q    Type
REMARK                         _______ _______ _______ _____ _____    ______ ____
ROOT
ATOM      1  O   UNL     1      -2.820  -2.347  -0.525  0.00  0.00    -0.273 OA
ATOM      2  N   UNL     1       1.590  -1.105   0.322  0.00  0.00    -0.288 N 
ATOM      3  N   UNL     1      -0.641  -1.678  -0.096  0.00  0.00    -0.246 N 
ATOM      4  N   UNL     1      -0.025   0.587   0.407  0.00  0.00    -0.361 NA
ATOM      5  N   UNL     1      -3.520   0.564  -0.090  0.00  0.00    -0.268 NA
ATOM      6  N   UNL     1      -1.985   2.102   0.410  0.00  0.00    -0.297 N 
ATOM      7  C   ACE A   0       0.292  -0.674   0.219  0.00  0.00    +0.242 C 
ATOM      8  C   UNL     1      -2.324  -0.091  -0.041  0.00  0.00    +0.200 C 
ATOM      9  C   UNL     1      -1.395   0.874   0.267  0.00  0.00    +0.184 C 
ATOM     10  C   UNL     1      -2.011  -1.468  -0.250  0.00  0.00    +0.251 C 
ATOM     11  C   UNL     1      -3.264   1.881   0.188  0.00  0.00    +0.164 C 
ATOM     12  H   UNL     1       1.788  -2.058   0.175  0.00  0.00    +0.151 HD
ATOM     13  H   UNL     1      -0.303  -2.594  -0.217  0.00  0.00    +0.159 HD
ATOM     14  H   UNL     1      -4.398   0.166  -0.287  0.00  0.00    +0.126 HD
ATOM     15  H   UNL     1      -1.551   2.958   0.629  0.00  0.00    +0.150 HD
ENDROOT
BRANCH   2  16
ATOM     16  CA  UNL     1       2.666  -0.218   0.636  0.00  0.00    +0.172 C 
ATOM     17  CB  UNL     1       3.863  -0.998   1.151  0.00  0.00    +0.033 C 
BRANCH  16  19
ATOM     18  OXT UNL     1       2.526   0.444  -1.677  0.00  0.00    -0.248 OA
ATOM     19  C   UNL     1       3.053   0.591  -0.580  0.00  0.00    +0.332 C 
BRANCH  19  20
ATOM     20  O   UNL     1       3.994   1.537  -0.340  0.00  0.00    -0.479 OA
ATOM     21  H   UNL     1       4.372   1.616   0.514  0.00  0.00    +0.295 HD
ENDBRANCH  19  20
ENDBRANCH  16  19
ENDBRANCH   2  16
TORSDOF 3
