REMARK  Name = 136125613
REMARK  4 active torsions:
REMARK  status: ('A' for Active; 'I' for Inactive)
REMARK    1  A    between atoms: N_2  and  C_15
REMARK    2  A    between atoms: C_15  and  C_16
REMARK    3  A    between atoms: C_16  and  C_17
REMARK    4  A    between atoms: C_17  and  N_19
REMARK                            x       y       z     vdW  Elec       q    Type
REMARK                         _______ _______ _______ _____ _____    ______ ____
ROOT
ATOM      1  O   UNL     1      -5.227   1.125  -1.529  0.00  0.00    -0.268 OA
ATOM      2  N   UNL     1      -1.371   1.676   0.762  0.00  0.00    -0.261 N 
ATOM      3  N   UNL     1      -2.080  -0.629   0.548  0.00  0.00    -0.356 NA
ATOM      4  N   UNL     1      -3.019   2.715  -0.337  0.00  0.00    -0.240 NA
ATOM      5  N   UNL     1      -4.130  -0.756  -0.685  0.00  0.00    -0.242 N 
ATOM      6  N   UNL     1      -3.093  -2.707   0.128  0.00  0.00    -0.268 N 
ATOM      7  C   UNL     1      -2.222   0.698   0.337  0.00  0.00    +0.210 C 
ATOM      8  C   UNL     1      -3.219   1.366  -0.332  0.00  0.00    +0.176 C 
ATOM      9  C   UNL     1      -1.893   2.872   0.332  0.00  0.00    +0.222 C 
ATOM     10  C   UNL     1      -3.054  -1.341   0.023  0.00  0.00    +0.246 C 
ATOM     11  C   UNL     1      -4.297   0.617  -0.916  0.00  0.00    +0.273 C 
ATOM     12  C   UNL     1      -3.713  -3.507  -0.904  0.00  0.00    +0.116 C 
ATOM     13  C   UNL     1      -2.304  -3.391   1.129  0.00  0.00    +0.116 C 
ATOM     14  H   UNL     1      -4.817  -1.362  -1.046  0.00  0.00    +0.159 HD
ENDROOT
BRANCH   2  15
ATOM     15  C   UNL     1      -0.153   1.505   1.517  0.00  0.00    +0.097 C 
BRANCH  15  16
ATOM     16  C   UNL     1       0.998   1.021   0.629  0.00  0.00    +0.044 C 
BRANCH  16  17
ATOM     17  C   UNL     1       2.306   0.871   1.399  0.00  0.00    +0.111 C 
BRANCH  17  19
ATOM     18  O   UNL     1       3.374  -1.736   1.338  0.00  0.00    -0.193 OA
ATOM     19  N   UNL     1       3.389   0.437   0.561  0.00  0.00    -0.205 N 
ATOM     20  N   UNL     1       4.920  -1.242  -0.250  0.00  0.00    -0.306 NA
ATOM     21  N   UNL     1       6.501  -0.730  -1.876  0.00  0.00    -0.332 N 
ATOM     22  C   UNL     1       3.974   1.355  -0.297  0.00  0.00    +0.081 C 
ATOM     23  C   UNL     1       3.872  -0.895   0.587  0.00  0.00    +0.274 C 
ATOM     24  C   UNL     1       4.982   1.041  -1.109  0.00  0.00    +0.065 C 
ATOM     25  C   UNL     1       5.461  -0.365  -1.053  0.00  0.00    +0.193 C 
ATOM     26  H   UNL     1       6.839  -1.654  -1.861  0.00  0.00    +0.145 HD
ATOM     27  H   UNL     1       6.907  -0.067  -2.480  0.00  0.00    +0.145 HD
ENDBRANCH  17  19
ENDBRANCH  16  17
ENDBRANCH  15  16
ENDBRANCH   2  15
TORSDOF 4
