REMARK  Name = 136188797
REMARK  5 active torsions:
REMARK  status: ('A' for Active; 'I' for Inactive)
REMARK    1  A    between atoms: C_3  and  C_9
REMARK    2  A    between atoms: C_6  and  C_19
REMARK    3  A    between atoms: C_10  and  C_16
REMARK    4  A    between atoms: C_16  and  O_17
REMARK    5  A    between atoms: C_20  and  O_25
REMARK                            x       y       z     vdW  Elec       q    Type
REMARK                         _______ _______ _______ _____ _____    ______ ____
ROOT
ATOM      1  S   UNL     1       1.599   2.237   0.475  0.00  0.00    -0.094 S 
ATOM      2  N   UNL     1       0.978  -0.016  -0.660  0.00  0.00    -0.266 NA
ATOM      3  C   UNL     1      -0.249   0.811  -0.666  0.00  0.00    +0.105 C 
ATOM      4  C   UNL     1      -0.168   1.843   0.461  0.00  0.00    +0.074 C 
ATOM      5  C   UNL     1      -1.013   3.082   0.219  0.00  0.00    +0.014 C 
ATOM      6  C   UNL     1       1.970   0.646  -0.155  0.00  0.00    +0.104 C 
ENDROOT
BRANCH   3   9
ATOM      7  S   UNL     1      -1.256  -1.069   1.037  0.00  0.00    -0.162 S 
ATOM      8  N   UNL     1      -2.708   0.639  -0.412  0.00  0.00    +0.404 N 
ATOM      9  C   UNL     1      -1.450  -0.116  -0.506  0.00  0.00    +0.017 C 
ATOM     10  C   UNL     1      -3.668  -0.088   0.445  0.00  0.00    +0.061 C 
ATOM     11  C   UNL     1      -2.880  -0.584   1.668  0.00  0.00    +0.047 C 
ATOM     12  C   UNL     1      -4.809   0.823   0.917  0.00  0.00    -0.009 C 
ATOM     13  C   UNL     1      -3.217   1.060  -1.714  0.00  0.00    -0.098 C 
ATOM     14  H   UNL     1      -2.533   1.529   0.054  0.00  0.00    -0.077 HD
BRANCH  10  16
ATOM     15  O   UNL     1      -3.723  -1.891  -1.181  0.00  0.00    -0.252 OA
ATOM     16  C   UNL     1      -4.269  -1.268  -0.282  0.00  0.00    +0.296 C 
BRANCH  16  17
ATOM     17  O   UNL     1      -5.506  -1.547   0.197  0.00  0.00    -0.482 OA
ATOM     18  H   UNL     1      -5.867  -1.029   0.890  0.00  0.00    +0.295 HD
ENDBRANCH  16  17
ENDBRANCH  10  16
ENDBRANCH   3   9
BRANCH   6  19
ATOM     19  C   UNL     1       3.343   0.096  -0.073  0.00  0.00    +0.057 C 
ATOM     20  C   UNL     1       3.557  -1.276   0.066  0.00  0.00    +0.136 C 
ATOM     21  C   UNL     1       4.429   0.968  -0.133  0.00  0.00    +0.005 C 
ATOM     22  C   UNL     1       4.857  -1.774   0.143  0.00  0.00    +0.037 C 
ATOM     23  C   UNL     1       5.730   0.470  -0.056  0.00  0.00    +0.000 C 
ATOM     24  C   UNL     1       5.944  -0.901   0.083  0.00  0.00    +0.003 C 
BRANCH  20  25
ATOM     25  O   UNL     1       2.509  -2.144   0.129  0.00  0.00    -0.505 OA
ATOM     26  H   UNL     1       1.630  -1.823   0.078  0.00  0.00    +0.292 HD
ENDBRANCH  20  25
ENDBRANCH   6  19
TORSDOF 5
