REMARK  Name = 136237316
REMARK  9 active torsions:
REMARK  status: ('A' for Active; 'I' for Inactive)
REMARK    1  A    between atoms: N_2  and  C_4
REMARK    2  A    between atoms: N_2  and  C_26
REMARK    3  A    between atoms: C_3  and  C_8
REMARK    4  A    between atoms: C_4  and  C_5
REMARK    5  A    between atoms: C_8  and  N_9
REMARK    6  A    between atoms: C_10  and  C_17
REMARK    7  A    between atoms: C_17  and  C_18
REMARK    8  A    between atoms: C_23  and  O_24
REMARK    9  A    between atoms: C_26  and  C_31
REMARK                            x       y       z     vdW  Elec       q    Type
REMARK                         _______ _______ _______ _____ _____    ______ ____
ROOT
ATOM      1  O   UNL     1      -0.608  -1.632   1.238  0.00  0.00    -0.277 OA
ATOM      2  N   UNL     1      -2.472  -1.829  -0.174  0.00  0.00    -0.274 N 
ATOM      3  C   UNL     1      -1.230  -1.276   0.233  0.00  0.00    +0.205 C 
ENDROOT
BRANCH   2   4
ATOM      4  C   UNL     1      -3.044  -2.895   0.665  0.00  0.00    +0.094 C 
BRANCH   4   5
ATOM      5  C   UNL     1      -2.581  -4.239   0.217  0.00  0.00    +0.020 C 
ATOM      6  C   UNL     1      -3.361  -5.003  -0.817  0.00  0.00    +0.002 C 
ATOM      7  C   UNL     1      -3.345  -5.473   0.611  0.00  0.00    +0.002 C 
ENDBRANCH   4   5
ENDBRANCH   2   4
BRANCH   3   8
ATOM      8  C   UNL     1      -0.693  -0.182  -0.675  0.00  0.00    +0.010 C 
BRANCH   8   9
ATOM      9  N   UNL     1       0.584   0.302  -0.149  0.00  0.00    +0.393 N 
ATOM     10  C   UNL     1       3.332   1.280  -0.354  0.00  0.00    +0.058 C 
ATOM     11  C   UNL     1       1.672  -0.614  -0.517  0.00  0.00    -0.076 C 
ATOM     12  C   UNL     1       0.853   1.665  -0.628  0.00  0.00    -0.076 C 
ATOM     13  C   UNL     1       3.006  -0.150   0.072  0.00  0.00    -0.015 C 
ATOM     14  C   UNL     1       2.158   2.208  -0.044  0.00  0.00    -0.015 C 
ATOM     15  H   UNL     1       0.528   0.332   0.869  0.00  0.00    -0.079 HD
BRANCH  10  17
ATOM     16  O   UNL     1       4.515   2.759   1.079  0.00  0.00    -0.291 OA
ATOM     17  C   UNL     1       4.557   1.765   0.357  0.00  0.00    +0.172 C 
BRANCH  17  18
ATOM     18  C   UNL     1       5.838   1.025   0.180  0.00  0.00    +0.035 C 
ATOM     19  C   UNL     1       6.780   1.006   1.208  0.00  0.00    +0.006 C 
ATOM     20  C   UNL     1       6.095   0.351  -1.014  0.00  0.00    +0.006 C 
ATOM     21  C   UNL     1       7.979   0.312   1.043  0.00  0.00    +0.037 C 
ATOM     22  C   UNL     1       7.294  -0.343  -1.179  0.00  0.00    +0.037 C 
ATOM     23  C   UNL     1       8.236  -0.362  -0.150  0.00  0.00    +0.139 C 
BRANCH  23  24
ATOM     24  O   UNL     1       9.405  -1.040  -0.312  0.00  0.00    -0.471 OA
ATOM     25  C   UNL     1      10.323  -1.018   0.780  0.00  0.00    +0.252 C 
ENDBRANCH  23  24
ENDBRANCH  17  18
ENDBRANCH  10  17
ENDBRANCH   8   9
ENDBRANCH   3   8
BRANCH   2  26
ATOM     26  C   UNL     1      -3.230  -1.454  -1.325  0.00  0.00    +0.169 C 
BRANCH  26  31
ATOM     27  O   UNL     1      -7.216   2.689   1.509  0.00  0.00    -0.352 OA
ATOM     28  O   UNL     1      -4.518   3.090  -1.773  0.00  0.00    -0.274 OA
ATOM     29  N   UNL     1      -3.921   0.876  -1.519  0.00  0.00    -0.261 N 
ATOM     30  N   UNL     1      -5.000  -0.522   0.050  0.00  0.00    -0.398 NA
ATOM     31  C   UNL     1      -4.118  -0.328  -0.880  0.00  0.00    +0.182 C 
ATOM     32  C   UNL     1      -5.771   0.564   0.396  0.00  0.00    +0.101 C 
ATOM     33  C   UNL     1      -5.673   1.791  -0.151  0.00  0.00    +0.154 C 
ATOM     34  C   UNL     1      -4.661   2.004  -1.220  0.00  0.00    +0.236 C 
ATOM     35  C   UNL     1      -6.802   0.313   1.466  0.00  0.00    +0.087 C 
ATOM     36  C   UNL     1      -6.529   2.946   0.278  0.00  0.00    +0.158 C 
ATOM     37  C   UNL     1      -7.858   1.415   1.502  0.00  0.00    +0.149 C 
ATOM     38  H   UNL     1      -3.226   0.936  -2.214  0.00  0.00    +0.157 HD
ENDBRANCH  26  31
ENDBRANCH   2  26
TORSDOF 9
