136218794
  -OEChem-03292013293D

 47 51  0     1  0  0  0  0  0999 V2000
   -3.2171    1.3060    0.2682 O   0  0  0  0  0  0  0  0  0  0  0  0
   -2.2662   -1.1002    1.8803 O   0  0  0  0  0  0  0  0  0  0  0  0
   -1.1697   -2.8278   -0.3627 O   0  0  0  0  0  0  0  0  0  0  0  0
    4.2244    0.4898    0.0253 O   0  0  0  0  0  0  0  0  0  0  0  0
    1.4936   -3.1290   -0.1656 O   0  0  0  0  0  0  0  0  0  0  0  0
    3.0003    3.0700   -0.0920 O   0  0  0  0  0  0  0  0  0  0  0  0
    4.0581   -1.7678   -0.0618 N   0  0  0  0  0  0  0  0  0  0  0  0
   -3.5676   -1.0108   -0.2096 C   0  0  0  0  0  0  0  0  0  0  0  0
   -2.2034   -0.8367    0.4807 C   0  0  1  0  0  0  0  0  0  0  0  0
   -4.2446    0.2930    0.2820 C   0  0  2  0  0  0  0  0  0  0  0  0
   -2.0035    0.6345    0.3077 C   0  0  0  0  0  0  0  0  0  0  0  0
   -4.3157   -2.2733    0.2818 C   0  0  0  0  0  0  0  0  0  0  0  0
   -3.5081   -1.0496   -1.7429 C   0  0  0  0  0  0  0  0  0  0  0  0
   -1.0323   -1.6512   -0.0307 C   0  0  0  0  0  0  0  0  0  0  0  0
   -0.8043    1.2221    0.1087 C   0  0  0  0  0  0  0  0  0  0  0  0
    0.4023    0.3448    0.0425 C   0  0  0  0  0  0  0  0  0  0  0  0
    0.3279   -1.0145   -0.0228 C   0  0  0  0  0  0  0  0  0  0  0  0
   -5.4330    0.7916   -0.5266 C   0  0  0  0  0  0  0  0  0  0  0  0
   -0.6117    2.6867   -0.0417 C   0  0  0  0  0  0  0  0  0  0  0  0
    1.7381    1.0004    0.0102 C   0  0  0  0  0  0  0  0  0  0  0  0
    1.5588   -1.9091   -0.0941 C   0  0  0  0  0  0  0  0  0  0  0  0
    2.8895    0.1747    0.0005 C   0  0  0  0  0  0  0  0  0  0  0  0
    1.8305    2.3434   -0.0467 C   0  0  0  0  0  0  0  0  0  0  0  0
    0.6435    3.1795   -0.1022 C   0  0  0  0  0  0  0  0  0  0  0  0
    2.8135   -1.2017   -0.0517 C   0  0  0  0  0  0  0  0  0  0  0  0
   -1.7725    3.6391   -0.1261 C   0  0  0  0  0  0  0  0  0  0  0  0
    4.8496   -0.7200   -0.0133 C   0  0  0  0  0  0  0  0  0  0  0  0
    6.3199   -0.6840    0.0029 C   0  0  0  0  0  0  0  0  0  0  0  0
   -4.5677    0.1828    1.3267 H   0  0  0  0  0  0  0  0  0  0  0  0
   -4.5075   -1.1321   -2.1846 H   0  0  0  0  0  0  0  0  0  0  0  0
   -3.0306   -0.1585   -2.1646 H   0  0  0  0  0  0  0  0  0  0  0  0
   -2.9415   -1.9182   -2.0951 H   0  0  0  0  0  0  0  0  0  0  0  0
   -4.4540   -2.2686    1.3680 H   0  0  0  0  0  0  0  0  0  0  0  0
   -5.3125   -2.3339   -0.1692 H   0  0  0  0  0  0  0  0  0  0  0  0
   -3.7732   -3.1857    0.0147 H   0  0  0  0  0  0  0  0  0  0  0  0
   -5.1374    1.1138   -1.5304 H   0  0  0  0  0  0  0  0  0  0  0  0
   -5.8636    1.6767   -0.0445 H   0  0  0  0  0  0  0  0  0  0  0  0
   -6.2143    0.0305   -0.6047 H   0  0  0  0  0  0  0  0  0  0  0  0
   -1.4686   -0.7382    2.3034 H   0  0  0  0  0  0  0  0  0  0  0  0
    0.7902    4.2513   -0.2105 H   0  0  0  0  0  0  0  0  0  0  0  0
   -2.4206    3.3902   -0.9730 H   0  0  0  0  0  0  0  0  0  0  0  0
   -1.4454    4.6744   -0.2772 H   0  0  0  0  0  0  0  0  0  0  0  0
   -2.3566    3.6270    0.7998 H   0  0  0  0  0  0  0  0  0  0  0  0
    2.8031    4.0208   -0.1239 H   0  0  0  0  0  0  0  0  0  0  0  0
    6.7005   -0.1320   -0.8616 H   0  0  0  0  0  0  0  0  0  0  0  0
    6.6825   -0.1970    0.9130 H   0  0  0  0  0  0  0  0  0  0  0  0
    6.7333   -1.6965   -0.0300 H   0  0  0  0  0  0  0  0  0  0  0  0
  1 10  1  0  0  0  0
  1 11  1  0  0  0  0
  2  9  1  0  0  0  0
  2 39  1  0  0  0  0
  3 14  2  0  0  0  0
  4 22  1  0  0  0  0
  4 27  1  0  0  0  0
  5 21  2  0  0  0  0
  6 23  1  0  0  0  0
  6 44  1  0  0  0  0
  7 25  1  0  0  0  0
  7 27  2  0  0  0  0
  8  9  1  0  0  0  0
  8 10  1  0  0  0  0
  8 12  1  0  0  0  0
  8 13  1  0  0  0  0
  9 11  1  0  0  0  0
  9 14  1  0  0  0  0
 10 18  1  0  0  0  0
 10 29  1  0  0  0  0
 11 15  2  0  0  0  0
 12 33  1  0  0  0  0
 12 34  1  0  0  0  0
 12 35  1  0  0  0  0
 13 30  1  0  0  0  0
 13 31  1  0  0  0  0
 13 32  1  0  0  0  0
 14 17  1  0  0  0  0
 15 16  1  0  0  0  0
 15 19  1  0  0  0  0
 16 17  2  0  0  0  0
 16 20  1  0  0  0  0
 17 21  1  0  0  0  0
 18 36  1  0  0  0  0
 18 37  1  0  0  0  0
 18 38  1  0  0  0  0
 19 24  2  0  0  0  0
 19 26  1  0  0  0  0
 20 22  1  0  0  0  0
 20 23  2  0  0  0  0
 21 25  1  0  0  0  0
 22 25  2  0  0  0  0
 23 24  1  0  0  0  0
 24 40  1  0  0  0  0
 26 41  1  0  0  0  0
 26 42  1  0  0  0  0
 26 43  1  0  0  0  0
 27 28  1  0  0  0  0
 28 45  1  0  0  0  0
 28 46  1  0  0  0  0
 28 47  1  0  0  0  0
M  END
> <PUBCHEM_COMPOUND_CID>
136218794

> <PUBCHEM_CONFORMER_RMSD>
0.6

> <PUBCHEM_CONFORMER_DIVERSEORDER>
1

> <PUBCHEM_MMFF94_PARTIAL_CHARGES>
25
1 -0.36
10 0.28
11 -0.06
14 0.49
17 0.03
19 -0.14
2 -0.68
20 0.05
21 0.64
22 0.09
23 0.08
24 -0.15
25 0.14
26 0.14
27 0.3
28 0.18
3 -0.57
39 0.4
4 -0.28
40 0.15
44 0.45
5 -0.57
6 -0.53
7 -0.57
9 0.48

> <PUBCHEM_EFFECTIVE_ROTOR_COUNT>
0.6

> <PUBCHEM_PHARMACOPHORE_FEATURES>
13
1 1 acceptor
1 17 anion
1 2 acceptor
1 2 donor
1 3 acceptor
1 5 acceptor
1 6 donor
3 8 12 13 hydrophobe
5 1 8 9 10 11 rings
5 4 7 22 25 27 rings
6 15 16 19 20 23 24 rings
6 16 17 20 21 22 25 rings
6 9 11 14 15 16 17 rings

> <PUBCHEM_HEAVY_ATOM_COUNT>
28

> <PUBCHEM_ATOM_DEF_STEREO_COUNT>
2

> <PUBCHEM_ATOM_UDEF_STEREO_COUNT>
0

> <PUBCHEM_BOND_DEF_STEREO_COUNT>
0

> <PUBCHEM_BOND_UDEF_STEREO_COUNT>
0

> <PUBCHEM_ISOTOPIC_ATOM_COUNT>
0

> <PUBCHEM_COMPONENT_COUNT>
1

> <PUBCHEM_CACTVS_TAUTO_COUNT>
-1

> <PUBCHEM_CONFORMER_ID>
081E88AA00000001

> <PUBCHEM_MMFF94_ENERGY>
86.5182

> <PUBCHEM_FEATURE_SELFOVERLAP>
66.226

> <PUBCHEM_SHAPE_FINGERPRINT>
10411042 1 18338237171010915499
10616163 171 18339082571167213734
10670039 82 18263381222198233518
10675989 125 16388161653360382668
10906281 52 18265634124721228128
10967382 1 18194684997391903736
1100329 8 18410574032644290650
12011746 2 18410855425879206462
12166972 35 17894915173713383958
12236239 1 17775283880980009911
12293681 4 18187656794629179195
12403259 226 18411415141659313985
12553582 1 18409439267740111994
12596599 1 17702964615526687055
12788726 201 18190457168950997857
12838862 33 18267003021035260332
13140716 1 18337960111413117954
13402501 40 18409448059527714708
138480 1 18266461082130689160
14117953 113 18342176613867204709
14790565 3 18411146831000387364
15196674 1 18410575131913019937
15927050 60 17764872785902460116
16087824 20 18266178319408043141
16945 1 18411146839325856802
17349148 13 18186519886742222746
17357779 13 18336815438156959812
17492 89 18122624126505464707
18681886 176 18272079543757058018
19591789 44 18338799025736678556
19930381 70 18121779697496000187
200 152 18131627885548917183
20028762 73 18130506460698168326
20721686 56 18336547243994562280
20775438 99 16689870401960496119
20905425 154 18124878949986091382
21236236 1 18267866090640028784
21267235 1 18411427232092524427
21421861 104 17899134910362383290
21641784 216 18042141894434979340
221490 88 18264212572309029363
2334 1 18050854613029465544
23402539 116 18342733013990516726
23559900 14 18411411834545143200
23566358 2 18123185710447523270
2748010 2 18193562400241006792
3004659 81 18114179748634122892
335352 9 18410573977036485005
34934 24 18337951169528850611
350125 39 18411140195070147784
484989 97 18190459562044820755
5104073 3 18339645641195103945
59755656 215 18337670802273712631
9709674 26 18267591199742616510

> <PUBCHEM_SHAPE_MULTIPOLES>
536.03
9.8
3.73
0.85
5.06
2.19
-0.01
-3.13
-0.65
-0.07
-0.2
-0.75
-0.24
0.05

> <PUBCHEM_SHAPE_SELFOVERLAP>
1220.258

> <PUBCHEM_SHAPE_VOLUME>
278.8

> <PUBCHEM_COORDINATE_TYPE>
2
5
10

$$$$
