REMARK  Name = 136267814
REMARK  2 active torsions:
REMARK  status: ('A' for Active; 'I' for Inactive)
REMARK    1  A    between atoms: N_3  and  C_19
REMARK    2  A    between atoms: C_20  and  S_25
REMARK                            x       y       z     vdW  Elec       q    Type
REMARK                         _______ _______ _______ _____ _____    ______ ____
ROOT
ATOM      1  S   UNL     1      -7.287  -0.459  -0.154  0.00  0.00    -0.139 S 
ATOM      2  O   UNL     1      -4.100   2.089   1.934  0.00  0.00    -0.274 OA
ATOM      3  N   UNL     1       2.063   0.301  -0.259  0.00  0.00    -0.303 N 
ATOM      4  N   UNL     1      -0.635  -0.373   0.097  0.00  0.00    -0.268 N 
ATOM      5  N   UNL     1      -2.407   0.841   1.006  0.00  0.00    -0.247 N 
ATOM      6  N   UNL     1      -2.828  -0.808  -0.607  0.00  0.00    -0.381 NA
ATOM      7  C   UNL     1       1.208   0.101  -1.437  0.00  0.00    +0.112 C 
ATOM      8  C   UNL     1       1.371   0.708   0.974  0.00  0.00    +0.112 C 
ATOM      9  C   UNL     1       0.214  -0.243   1.275  0.00  0.00    +0.116 C 
ATOM     10  C   UNL     1       0.051  -0.840  -1.103  0.00  0.00    +0.116 C 
ATOM     11  C   UNL     1      -1.986  -0.145   0.132  0.00  0.00    +0.243 C 
ATOM     12  C   UNL     1      -4.169  -0.507  -0.499  0.00  0.00    +0.100 C 
ATOM     13  C   UNL     1      -4.687   0.427   0.326  0.00  0.00    +0.136 C 
ATOM     14  C   UNL     1      -5.032  -1.336  -1.428  0.00  0.00    +0.067 C 
ATOM     15  C   UNL     1      -3.727   1.203   1.169  0.00  0.00    +0.236 C 
ATOM     16  C   UNL     1      -6.139   0.776   0.502  0.00  0.00    +0.073 C 
ATOM     17  C   UNL     1      -6.426  -0.789  -1.708  0.00  0.00    +0.065 C 
ATOM     18  H   UNL     1      -1.727   1.309   1.542  0.00  0.00    +0.158 HD
ENDROOT
BRANCH   3  19
ATOM     19  C   UNL     1       3.389   0.713  -0.427  0.00  0.00    +0.065 C 
ATOM     20  C   UNL     1       4.450  -0.070   0.027  0.00  0.00    +0.119 C 
ATOM     21  C   UNL     1       3.642   1.929  -1.062  0.00  0.00    +0.016 C 
ATOM     22  C   UNL     1       5.764   0.362  -0.154  0.00  0.00    +0.020 C 
ATOM     23  C   UNL     1       4.956   2.362  -1.242  0.00  0.00    +0.001 C 
ATOM     24  C   UNL     1       6.017   1.578  -0.788  0.00  0.00    +0.001 C 
BRANCH  20  25
ATOM     25  S   UNL     1       4.173  -1.603   0.829  0.00  0.00    +0.012 S 
ATOM     26  O   UNL     1       5.453  -2.138   1.267  0.00  0.00    -0.169 OA
ATOM     27  O   UNL     1       3.098  -1.411   1.789  0.00  0.00    -0.169 OA
ATOM     28  C   UNL     1       3.576  -2.669  -0.461  0.00  0.00    +0.182 C 
ENDBRANCH  20  25
ENDBRANCH   3  19
TORSDOF 2
