REMARK  Name = 136237281
REMARK  4 active torsions:
REMARK  status: ('A' for Active; 'I' for Inactive)
REMARK    1  A    between atoms: C_3  and  C_10
REMARK    2  A    between atoms: C_5  and  C_17
REMARK    3  A    between atoms: C_11  and  O_15
REMARK    4  A    between atoms: C_18  and  O_23
REMARK                            x       y       z     vdW  Elec       q    Type
REMARK                         _______ _______ _______ _____ _____    ______ ____
ROOT
ATOM      1  S   UNL     1      -1.891   2.730  -0.283  0.00  0.00    -0.093 S 
ATOM      2  N   UNL     1      -0.425   0.624   0.133  0.00  0.00    -0.263 NA
ATOM      3  C   UNL     1       0.495   1.778   0.040  0.00  0.00    +0.143 C 
ATOM      4  C   UNL     1      -0.165   2.887  -0.769  0.00  0.00    +0.090 C 
ATOM      5  C   UNL     1      -1.655   1.024   0.038  0.00  0.00    +0.104 C 
ENDROOT
BRANCH   3  10
ATOM      6  S   UNL     1       1.475   0.603  -2.256  0.00  0.00    -0.117 S 
ATOM      7  O   UNL     1       3.263   1.257   2.088  0.00  0.00    -0.275 OA
ATOM      8  N   UNL     1       2.418   0.241   0.149  0.00  0.00    -0.269 N 
ATOM      9  C   UNL     1       2.358  -1.081  -0.427  0.00  0.00    +0.114 C 
ATOM     10  C   UNL     1       1.796   1.314  -0.601  0.00  0.00    +0.147 C 
ATOM     11  C   UNL     1       3.501  -1.803   0.276  0.00  0.00    +0.139 C 
ATOM     12  C   UNL     1       2.412  -0.928  -1.938  0.00  0.00    +0.081 C 
ATOM     13  C   UNL     1       3.562  -1.119   1.649  0.00  0.00    +0.116 C 
ATOM     14  C   UNL     1       3.089   0.293   1.359  0.00  0.00    +0.229 C 
BRANCH  11  15
ATOM     15  O   UNL     1       4.750  -1.610  -0.376  0.00  0.00    -0.382 OA
ATOM     16  H   UNL     1       4.729  -2.036  -1.247  0.00  0.00    +0.210 HD
ENDBRANCH  11  15
ENDBRANCH   3  10
BRANCH   5  17
ATOM     17  C   UNL     1      -2.809   0.103   0.157  0.00  0.00    +0.057 C 
ATOM     18  C   UNL     1      -2.703  -1.232  -0.234  0.00  0.00    +0.136 C 
ATOM     19  C   UNL     1      -4.014   0.587   0.667  0.00  0.00    +0.005 C 
ATOM     20  C   UNL     1      -3.802  -2.083  -0.116  0.00  0.00    +0.037 C 
ATOM     21  C   UNL     1      -5.113  -0.264   0.785  0.00  0.00    +0.000 C 
ATOM     22  C   UNL     1      -5.007  -1.599   0.394  0.00  0.00    +0.003 C 
BRANCH  18  23
ATOM     23  O   UNL     1      -1.535  -1.723  -0.737  0.00  0.00    -0.505 OA
ATOM     24  H   UNL     1      -0.789  -1.162  -0.822  0.00  0.00    +0.292 HD
ENDBRANCH  18  23
ENDBRANCH   5  17
TORSDOF 4
