REMARK  Name = 136247480
REMARK  4 active torsions:
REMARK  status: ('A' for Active; 'I' for Inactive)
REMARK    1  A    between atoms: N_2  and  C_16
REMARK    2  A    between atoms: C_17  and  C_23
REMARK    3  A    between atoms: C_18  and  O_21
REMARK    4  A    between atoms: C_23  and  O_24
REMARK                            x       y       z     vdW  Elec       q    Type
REMARK                         _______ _______ _______ _____ _____    ______ ____
ROOT
ATOM      1  O   UNL     1      -4.394   1.707   0.188  0.00  0.00    -0.268 OA
ATOM      2  N   UNL     1      -0.062   0.425   0.214  0.00  0.00    -0.235 N 
ATOM      3  N   UNL     1      -1.461   2.169   0.272  0.00  0.00    -0.240 NA
ATOM      4  N   UNL     1      -1.639  -1.406   0.090  0.00  0.00    -0.357 NA
ATOM      5  N   UNL     1      -3.884  -0.570   0.085  0.00  0.00    -0.243 N 
ATOM      6  N   UNL     1      -3.463  -2.884  -0.022  0.00  0.00    -0.321 N 
ATOM      7  C   UNL     1      -1.321  -0.095   0.162  0.00  0.00    +0.211 C 
ATOM      8  C   UNL     1      -0.198   1.791   0.279  0.00  0.00    +0.224 C 
ATOM      9  C   UNL     1      -2.154   0.997   0.199  0.00  0.00    +0.176 C 
ATOM     10  C   UNL     1      -3.576   0.796   0.159  0.00  0.00    +0.273 C 
ATOM     11  C   UNL     1      -2.936  -1.620   0.052  0.00  0.00    +0.239 C 
ATOM     12  H   UNL     1      -4.836  -0.818   0.053  0.00  0.00    +0.159 HD
ATOM     13  H   UNL     1      -2.864  -3.665  -0.049  0.00  0.00    +0.146 HD
ATOM     14  H   UNL     1      -4.439  -3.010  -0.049  0.00  0.00    +0.146 HD
ENDROOT
BRANCH   2  16
ATOM     15  O   UNL     1       2.231   0.359   0.997  0.00  0.00    -0.331 OA
ATOM     16  C   UNL     1       1.243  -0.337   0.203  0.00  0.00    +0.218 C 
ATOM     17  C   UNL     1       3.495   0.301   0.304  0.00  0.00    +0.177 C 
ATOM     18  C   UNL     1       3.148   0.254  -1.179  0.00  0.00    +0.162 C 
ATOM     19  C   UNL     1       1.859  -0.491  -1.157  0.00  0.00    +0.031 C 
ATOM     20  C   UNL     1       1.404  -1.275  -2.141  0.00  0.00    -0.003 C 
BRANCH  18  21
ATOM     21  O   UNL     1       2.901   1.572  -1.657  0.00  0.00    -0.378 OA
ATOM     22  H   UNL     1       3.734   2.070  -1.676  0.00  0.00    +0.211 HD
ENDBRANCH  18  21
BRANCH  17  23
ATOM     23  C   UNL     1       4.266  -0.924   0.786  0.00  0.00    +0.170 C 
BRANCH  23  24
ATOM     24  O   UNL     1       4.542  -0.769   2.166  0.00  0.00    -0.379 OA
ATOM     25  H   UNL     1       5.033  -1.541   2.487  0.00  0.00    +0.211 HD
ENDBRANCH  23  24
ENDBRANCH  17  23
ENDBRANCH   2  16
TORSDOF 4
