REMARK  Name = 136240579
REMARK  4 active torsions:
REMARK  status: ('A' for Active; 'I' for Inactive)
REMARK    1  A    between atoms: N_4  and  C_7
REMARK    2  A    between atoms: N_4  and  C_20
REMARK    3  A    between atoms: C_5  and  C_11
REMARK    4  A    between atoms: C_20  and  C_22
REMARK                            x       y       z     vdW  Elec       q    Type
REMARK                         _______ _______ _______ _____ _____    ______ ____
ROOT
ATOM      1  S   UNL     1       0.474   0.023   0.254  0.00  0.00    -0.072 S 
ATOM      2  O   UNL     1       0.816   3.696  -0.771  0.00  0.00    -0.270 OA
ATOM      3  N   UNL     1       2.168   1.849  -0.352  0.00  0.00    -0.279 N 
ATOM      4  C   UNL     1      -1.441   1.940  -0.147  0.00  0.00    +0.007 C 
ATOM      5  C   UNL     1      -0.139   1.587  -0.134  0.00  0.00    +0.081 C 
ATOM      6  C   UNL     1       2.120   0.532   0.011  0.00  0.00    +0.202 C 
ATOM      7  C   UNL     1       0.967   2.524  -0.460  0.00  0.00    +0.253 C 
ATOM      8  H   UNL     1       3.025   2.300  -0.530  0.00  0.00    +0.152 HD
ENDROOT
BRANCH   4  10
ATOM      9  N   UNL     1      -5.807  -1.383   1.081  0.00  0.00    -0.248 NA
ATOM     10  C   UNL     1      -2.571   1.078   0.161  0.00  0.00    -0.021 C 
ATOM     11  C   UNL     1      -4.267  -0.505  -0.552  0.00  0.00    -0.004 C 
ATOM     12  C   UNL     1      -3.176   0.330  -0.845  0.00  0.00    +0.054 C 
ATOM     13  C   UNL     1      -4.763  -0.593   0.766  0.00  0.00    +0.060 C 
ATOM     14  C   UNL     1      -3.054   0.996   1.461  0.00  0.00    -0.024 C 
ATOM     15  C   UNL     1      -4.140   0.166   1.752  0.00  0.00    +0.071 C 
ATOM     16  C   UNL     1      -4.894  -1.269  -1.546  0.00  0.00    -0.001 C 
ATOM     17  C   UNL     1      -5.971  -2.084  -1.224  0.00  0.00    +0.020 C 
ATOM     18  C   UNL     1      -6.384  -2.104   0.092  0.00  0.00    +0.098 C 
ENDBRANCH   4  10
BRANCH   6  19
ATOM     19  N   UNL     1       3.146  -0.230   0.154  0.00  0.00    -0.185 NA
BRANCH  19  20
ATOM     20  C   UNL     1       4.426   0.419  -0.104  0.00  0.00    +0.124 C 
BRANCH  20  22
ATOM     21  S   UNL     1       5.611  -1.950  -0.942  0.00  0.00    -0.089 S 
ATOM     22  C   UNL     1       5.574  -0.541   0.029  0.00  0.00    +0.025 C 
ATOM     23  C   UNL     1       6.667  -0.459   0.863  0.00  0.00    +0.004 C 
ATOM     24  C   UNL     1       7.547  -1.568   0.702  0.00  0.00    +0.007 C 
ATOM     25  C   UNL     1       7.093  -2.455  -0.249  0.00  0.00    +0.035 C 
ENDBRANCH  20  22
ENDBRANCH  19  20
ENDBRANCH   6  19
TORSDOF 4
