REMARK  Name = 136251857
REMARK  10 active torsions:
REMARK  status: ('A' for Active; 'I' for Inactive)
REMARK    1  A    between atoms: C_3  and  S_11
REMARK    2  A    between atoms: C_6  and  N_26
REMARK    3  A    between atoms: C_9  and  O_24
REMARK    4  A    between atoms: S_11  and  N_14
REMARK    5  A    between atoms: N_14  and  C_16
REMARK    6  A    between atoms: C_16  and  C_18
REMARK    7  A    between atoms: N_26  and  N_27
REMARK    8  A    between atoms: N_27  and  C_28
REMARK    9  A    between atoms: C_31  and  C_35
REMARK   10  A    between atoms: C_35  and  O_36
REMARK                            x       y       z     vdW  Elec       q    Type
REMARK                         _______ _______ _______ _____ _____    ______ ____
ROOT
ATOM      1  N   UNL     1      -0.668  -3.394   2.137  0.00  0.00    -0.324 N 
ATOM      2  C   UNL     1      -0.133  -2.248   0.299  0.00  0.00    +0.038 A 
ATOM      3  C   UNL     1       2.100  -2.093  -0.625  0.00  0.00    +0.122 C 
ATOM      4  C   UNL     1       0.383  -3.055   1.315  0.00  0.00    +0.060 A 
ATOM      5  C   UNL     1       0.743  -1.758  -0.690  0.00  0.00    +0.023 C 
ATOM      6  C   UNL     1      -1.530  -2.115   0.540  0.00  0.00    +0.141 A 
ATOM      7  C   UNL     1       2.588  -2.901   0.400  0.00  0.00    +0.021 C 
ATOM      8  C   UNL     1       1.738  -3.398   1.392  0.00  0.00    +0.018 C 
ATOM      9  C   UNL     1      -1.828  -2.830   1.677  0.00  0.00    +0.217 A 
ATOM     10  H   UNL     1      -0.596  -3.959   2.940  0.00  0.00    +0.169 HD
ENDROOT
BRANCH   3  11
ATOM     11  S   UNL     1       3.195  -1.489  -1.846  0.00  0.00    +0.061 S 
ATOM     12  O   UNL     1       4.338  -2.387  -1.935  0.00  0.00    -0.153 OA
ATOM     13  O   UNL     1       2.413  -1.208  -3.043  0.00  0.00    -0.153 OA
BRANCH  11  14
ATOM     14  N   UNL     1       3.714  -0.007  -1.173  0.00  0.00    -0.175 NA
ATOM     15  H   UNL     1       2.883   0.576  -1.067  0.00  0.00    +0.149 HD
BRANCH  14  16
ATOM     16  C   UNL     1       4.409   0.007   0.122  0.00  0.00    +0.118 C 
BRANCH  16  18
ATOM     17  F   UNL     1       7.928   4.377   0.612  0.00  0.00    -0.204 F 
ATOM     18  C   UNL     1       5.348   1.173   0.253  0.00  0.00    -0.005 C 
ATOM     19  C   UNL     1       4.892   2.379   0.785  0.00  0.00    -0.001 C 
ATOM     20  C   UNL     1       6.675   1.049  -0.158  0.00  0.00    -0.001 C 
ATOM     21  C   UNL     1       5.763   3.462   0.906  0.00  0.00    +0.029 C 
ATOM     22  C   UNL     1       7.547   2.131  -0.037  0.00  0.00    +0.029 C 
ATOM     23  C   UNL     1       7.091   3.338   0.495  0.00  0.00    +0.140 C 
ENDBRANCH  16  18
ENDBRANCH  14  16
ENDBRANCH  11  14
ENDBRANCH   3  11
BRANCH   9  24
ATOM     24  O   UNL     1      -2.969  -3.028   2.321  0.00  0.00    -0.492 OA
ATOM     25  H   UNL     1      -2.985  -3.555   3.096  0.00  0.00    +0.294 HD
ENDBRANCH   9  24
BRANCH   6  26
ATOM     26  N   UNL     1      -2.426  -1.391  -0.237  0.00  0.00    -0.123 NA
BRANCH  26  27
ATOM     27  N   UNL     1      -3.365  -0.952   0.474  0.00  0.00    -0.128 NA
BRANCH  27  28
ATOM     28  C   UNL     1      -4.271  -0.220  -0.311  0.00  0.00    +0.089 C 
ATOM     29  C   UNL     1      -4.989   0.835   0.252  0.00  0.00    +0.024 C 
ATOM     30  C   UNL     1      -4.454  -0.548  -1.655  0.00  0.00    +0.018 C 
ATOM     31  C   UNL     1      -5.889   1.562  -0.527  0.00  0.00    +0.077 C 
ATOM     32  C   UNL     1      -5.354   0.179  -2.435  0.00  0.00    +0.002 C 
ATOM     33  C   UNL     1      -6.072   1.233  -1.871  0.00  0.00    +0.007 C 
BRANCH  31  35
ATOM     34  O   UNL     1      -7.768   3.013  -0.303  0.00  0.00    -0.245 OA
ATOM     35  C   UNL     1      -6.638   2.661   0.061  0.00  0.00    +0.341 C 
BRANCH  35  36
ATOM     36  O   UNL     1      -5.939   3.262   1.071  0.00  0.00    -0.441 OA
ATOM     37  C   UNL     1      -6.573   4.363   1.731  0.00  0.00    +0.256 C 
ENDBRANCH  35  36
ENDBRANCH  31  35
ENDBRANCH  27  28
ENDBRANCH  26  27
ENDBRANCH   6  26
TORSDOF 10
