REMARK  Name = 136276948
REMARK  5 active torsions:
REMARK  status: ('A' for Active; 'I' for Inactive)
REMARK    1  A    between atoms: C2*_2  and  O2*_17
REMARK    2  A    between atoms: C1*_3  and  N_7
REMARK    3  A    between atoms: C3*_4  and  O3*_19
REMARK    4  A    between atoms: C4*_5  and  C5*_21
REMARK    5  A    between atoms: C5*_21  and  O5*_22
REMARK                            x       y       z     vdW  Elec       q    Type
REMARK                         _______ _______ _______ _____ _____    ______ ____
ROOT
ATOM      1  O4* UNL     1       2.054   0.168   0.995  0.00  0.00    -0.332 OA
ATOM      2  C2* UNL     1       1.590  -1.396  -0.760  0.00  0.00    +0.188 C 
ATOM      3  C1* UNL     1       1.018  -0.690   0.475  0.00  0.00    +0.243 C 
ATOM      4  C3* UNL     1       2.836  -0.599  -1.096  0.00  0.00    +0.171 C 
ATOM      5  C4* UNL     1       3.269  -0.082   0.270  0.00  0.00    +0.176 C 
ENDROOT
BRANCH   3   7
ATOM      6  S   UNL     1      -4.745   1.818  -0.543  0.00  0.00    +0.011 S 
ATOM      7  N   UNL     1      -0.237   0.100   0.173  0.00  0.00    -0.170 N 
ATOM      8  N   UNL     1      -0.139   1.379  -0.246  0.00  0.00    -0.172 NA
ATOM      9  N   UNL     1      -1.980  -1.509   0.646  0.00  0.00    -0.299 N 
ATOM     10  N   UNL     1      -4.230  -0.728   0.316  0.00  0.00    -0.208 NA
ATOM     11  C   UNL     1      -1.522  -0.309   0.266  0.00  0.00    +0.130 C 
ATOM     12  C   UNL     1      -2.336   0.730  -0.103  0.00  0.00    +0.101 C 
ATOM     13  C   UNL     1      -1.417   1.756  -0.412  0.00  0.00    +0.129 C 
ATOM     14  C   UNL     1      -3.779   0.532  -0.086  0.00  0.00    -0.010 C 
ATOM     15  C   UNL     1      -3.354  -1.638   0.644  0.00  0.00    +0.227 C 
ATOM     16  H   UNL     1      -1.380  -2.244   0.908  0.00  0.00    +0.150 HD
ENDBRANCH   3   7
BRANCH   2  17
ATOM     17  O2* UNL     1       1.943  -2.736  -0.423  0.00  0.00    -0.378 OA
ATOM     18  H2* UNL     1       1.141  -3.238  -0.210  0.00  0.00    +0.211 HD
ENDBRANCH   2  17
BRANCH   4  19
ATOM     19  O3* UNL     1       2.493   0.481  -1.954  0.00  0.00    -0.379 OA
ATOM     20  H3* UNL     1       2.219   0.134  -2.817  0.00  0.00    +0.211 HD
ENDBRANCH   4  19
BRANCH   5  21
ATOM     21  C5* UNL     1       4.111   1.181   0.252  0.00  0.00    +0.169 C 
BRANCH  21  22
ATOM     22  O5* UNL     1       4.425   1.542   1.587  0.00  0.00    -0.379 OA
ATOM     23  H5* UNL     1       4.964   2.348   1.586  0.00  0.00    +0.211 HD
ENDBRANCH  21  22
ENDBRANCH   5  21
TORSDOF 5
