13629527
  -OEChem-03292013303D

 36 37  0     1  0  0  0  0  0999 V2000
    3.8860   -1.2136   -0.0588 S   0  0  0  0  0  0  0  0  0  0  0  0
    2.7079    0.9766   -2.1683 O   0  0  0  0  0  0  0  0  0  0  0  0
    5.1902   -0.4270    0.5507 O   0  0  0  0  0  0  0  0  0  0  0  0
    4.2313   -1.5891   -1.4310 O   0  0  0  0  0  0  0  0  0  0  0  0
    3.5525   -2.2724    0.8956 O   0  0  0  0  0  0  0  0  0  0  0  0
   -1.1660    2.0376    1.3691 O   0  0  0  0  0  0  0  0  0  0  0  0
    2.6671   -0.0698   -0.0794 N   0  0  0  0  0  0  0  0  0  0  0  0
   -0.1329    1.2868   -0.5684 N   0  0  0  0  0  0  0  0  0  0  0  0
   -3.4802    2.4263   -0.0691 N   0  0  0  0  0  0  0  0  0  0  0  0
    1.7263    0.3952    0.9266 C   0  0  2  0  0  0  0  0  0  0  0  0
    1.2292    1.4316   -0.1095 C   0  0  1  0  0  0  0  0  0  0  0  0
    2.2961    0.8158   -1.0411 C   0  0  0  0  0  0  0  0  0  0  0  0
    2.4460    0.9017    2.1532 C   0  0  0  0  0  0  0  0  0  0  0  0
   -1.2304    1.6059    0.2192 C   0  0  0  0  0  0  0  0  0  0  0  0
   -2.5516    1.3811   -0.5092 C   0  0  1  0  0  0  0  0  0  0  0  0
   -3.0812   -0.0140   -0.2490 C   0  0  0  0  0  0  0  0  0  0  0  0
   -3.8462   -0.6365   -1.2193 C   0  0  0  0  0  0  0  0  0  0  0  0
   -2.7874   -0.6338    0.9523 C   0  0  0  0  0  0  0  0  0  0  0  0
   -4.3337   -1.9213   -0.9801 C   0  0  0  0  0  0  0  0  0  0  0  0
   -3.2749   -1.9187    1.1914 C   0  0  0  0  0  0  0  0  0  0  0  0
   -4.0480   -2.5624    0.2252 C   0  0  0  0  0  0  0  0  0  0  0  0
    0.9882   -0.3767    1.1782 H   0  0  0  0  0  0  0  0  0  0  0  0
    1.4625    2.4740    0.1398 H   0  0  0  0  0  0  0  0  0  0  0  0
    1.7417    1.4029    2.8255 H   0  0  0  0  0  0  0  0  0  0  0  0
    2.9019    0.0783    2.7127 H   0  0  0  0  0  0  0  0  0  0  0  0
    3.2328    1.6219    1.9029 H   0  0  0  0  0  0  0  0  0  0  0  0
   -0.3109    0.9304   -1.5046 H   0  0  0  0  0  0  0  0  0  0  0  0
   -2.3864    1.5115   -1.5861 H   0  0  0  0  0  0  0  0  0  0  0  0
    5.0790   -0.0715    1.4634 H   0  0  0  0  0  0  0  0  0  0  0  0
   -3.0877    3.3441   -0.2754 H   0  0  0  0  0  0  0  0  0  0  0  0
   -3.5984    2.3850    0.9427 H   0  0  0  0  0  0  0  0  0  0  0  0
   -4.0748   -0.1447   -2.1602 H   0  0  0  0  0  0  0  0  0  0  0  0
   -2.2089   -0.1660    1.7403 H   0  0  0  0  0  0  0  0  0  0  0  0
   -4.9362   -2.4224   -1.7321 H   0  0  0  0  0  0  0  0  0  0  0  0
   -3.0568   -2.4167    2.1317 H   0  0  0  0  0  0  0  0  0  0  0  0
   -4.4286   -3.5623    0.4120 H   0  0  0  0  0  0  0  0  0  0  0  0
  1  3  1  0  0  0  0
  1  4  2  0  0  0  0
  1  5  2  0  0  0  0
  1  7  1  0  0  0  0
  2 12  2  0  0  0  0
  3 29  1  0  0  0  0
  6 14  2  0  0  0  0
  7 10  1  0  0  0  0
  7 12  1  0  0  0  0
  8 11  1  0  0  0  0
  8 14  1  0  0  0  0
  8 27  1  0  0  0  0
  9 15  1  0  0  0  0
  9 30  1  0  0  0  0
  9 31  1  0  0  0  0
 10 11  1  0  0  0  0
 10 13  1  0  0  0  0
 10 22  1  0  0  0  0
 11 12  1  0  0  0  0
 11 23  1  0  0  0  0
 13 24  1  0  0  0  0
 13 25  1  0  0  0  0
 13 26  1  0  0  0  0
 14 15  1  0  0  0  0
 15 16  1  0  0  0  0
 15 28  1  0  0  0  0
 16 17  2  0  0  0  0
 16 18  1  0  0  0  0
 17 19  1  0  0  0  0
 17 32  1  0  0  0  0
 18 20  2  0  0  0  0
 18 33  1  0  0  0  0
 19 21  2  0  0  0  0
 19 34  1  0  0  0  0
 20 21  1  0  0  0  0
 20 35  1  0  0  0  0
 21 36  1  0  0  0  0
M  END
> <PUBCHEM_COMPOUND_CID>
13629527

> <PUBCHEM_CONFORMER_RMSD>
0.8

> <PUBCHEM_CONFORMER_DIVERSEORDER>
3
43
54
57
83
82
89
20
94
78
38
49
21
67
84
30
60
93
65
7
69
28
26
80
23
74
86
31
16
13
9
71
18
77
91
44
10
95
1
88
6
81
63
25
41
79
87
24
8
39
17
56
48
50
22
47
34
58
70
72
53
11
19
36
61
12
5
96
42
85
62
32
2
27
55
92
64
40
35
4
51
46
66
76
14
33
75
45
68
52
59
29
73
37
15
90

> <PUBCHEM_MMFF94_PARTIAL_CHARGES>
29
1 1.62
10 0.31
11 0.28
12 0.75
14 0.57
15 0.47
16 -0.14
17 -0.15
18 -0.15
19 -0.15
2 -0.57
20 -0.15
21 -0.15
27 0.37
29 0.5
3 -0.68
30 0.36
31 0.36
32 0.15
33 0.15
34 0.15
35 0.15
36 0.15
4 -0.65
5 -0.65
6 -0.57
7 -0.68
8 -0.65
9 -0.99

> <PUBCHEM_EFFECTIVE_ROTOR_COUNT>
5.6

> <PUBCHEM_PHARMACOPHORE_FEATURES>
11
1 2 acceptor
1 3 acceptor
1 4 acceptor
1 5 acceptor
1 6 acceptor
1 8 donor
1 9 cation
1 9 donor
4 1 3 4 5 anion
4 7 10 11 12 rings
6 16 17 18 19 20 21 rings

> <PUBCHEM_HEAVY_ATOM_COUNT>
21

> <PUBCHEM_ATOM_DEF_STEREO_COUNT>
0

> <PUBCHEM_ATOM_UDEF_STEREO_COUNT>
3

> <PUBCHEM_BOND_DEF_STEREO_COUNT>
0

> <PUBCHEM_BOND_UDEF_STEREO_COUNT>
0

> <PUBCHEM_ISOTOPIC_ATOM_COUNT>
0

> <PUBCHEM_COMPONENT_COUNT>
1

> <PUBCHEM_CACTVS_TAUTO_COUNT>
2

> <PUBCHEM_CONFORMER_ID>
00CFF85700000003

> <PUBCHEM_MMFF94_ENERGY>
42.3829

> <PUBCHEM_FEATURE_SELFOVERLAP>
55.88

> <PUBCHEM_SHAPE_FINGERPRINT>
10498660 4 10665219346170923159
10928967 22 18272380805506222375
10968037 57 18201727262426474767
11552529 35 15481243110682187070
11796584 16 18270399369888604230
12346177 29 18410566254748752477
12363563 72 18342175626399246325
12553582 1 18191595348791357299
12596599 1 17313104172106676063
12633257 1 16128094558841447839
12892183 10 13901642860790390623
13296908 3 18131348643981769145
13583140 156 17703776016622292660
13965767 371 11887414481168226619
15209294 21 11743838053874344240
15342168 16 8213605314972861831
16752209 62 18334005103980119659
18186145 218 16008750229588908381
18915474 69 18187368756820867166
193927 3 18409173241924529111
19862831 5 17385441037739807683
20281475 54 18337959008044528409
20403669 9 18413109476493729295
20681677 155 18263081020230805345
22646028 28 18409728478058463231
23403322 49 18409163346652208015
23503958 8 18411981321448916304
235170 7 16588584339522438111
23559900 14 18339349838213358905
27216 239 10663822996863895247
2838139 119 12397740769589161918
3004659 81 17822561811337682031
312425 83 16805034129693730671
339767 52 18187068564593432474
474 4 7853039142333947671
633830 44 15937274183102891372
9709674 26 18337100276441189993

> <PUBCHEM_SHAPE_MULTIPOLES>
391.73
10.11
2.65
1.58
2.49
0.34
-0.05
6.67
1.2
-1.68
-0.24
0.89
-0.1
0.15

> <PUBCHEM_SHAPE_SELFOVERLAP>
808.817

> <PUBCHEM_SHAPE_VOLUME>
225.2

> <PUBCHEM_COORDINATE_TYPE>
2
5
10

$$$$
