REMARK  Name = 136267825
REMARK  3 active torsions:
REMARK  status: ('A' for Active; 'I' for Inactive)
REMARK    1  A    between atoms: CA_8  and  C_27
REMARK    2  A    between atoms: C_22  and  O_30
REMARK    3  A    between atoms: C_27  and  O_28
REMARK                            x       y       z     vdW  Elec       q    Type
REMARK                         _______ _______ _______ _____ _____    ______ ____
ROOT
ATOM      1  O   UNL     1      -0.058  -2.962  -0.160  0.00  0.00    -0.456 OA
ATOM      2  N   UNL     1      -0.135   1.296   0.215  0.00  0.00    -0.325 N 
ATOM      3  N   UNL     1       2.277  -2.667  -0.086  0.00  0.00    -0.325 N 
ATOM      4  N   UNL     1      -5.010  -0.359   0.119  0.00  0.00    -0.248 NA
ATOM      5  C   UNL     1      -1.345  -0.820   0.004  0.00  0.00    +0.022 C 
ATOM      6  C   UNL     1      -0.194  -0.083   0.081  0.00  0.00    +0.046 C 
ATOM      7  C   UNL     1      -2.698  -0.255   0.101  0.00  0.00    +0.083 C 
ATOM      8  CA  UNL     1      -1.062   2.272  -0.324  0.00  0.00    +0.173 C 
ATOM      9  C   UNL     1      -2.379   2.283   0.441  0.00  0.00    +0.055 C 
ATOM     10  C   UNL     1       1.057  -0.808   0.040  0.00  0.00    +0.065 A 
ATOM     11  C   UNL     1      -3.103   1.003   0.303  0.00  0.00    -0.014 C 
ATOM     12  C   UNL     1      -1.296  -2.317  -0.136  0.00  0.00    +0.210 C 
ATOM     13  C   UNL     1       1.007  -2.177  -0.070  0.00  0.00    +0.204 A 
ATOM     14  C   UNL     1       2.436  -0.430   0.048  0.00  0.00    +0.024 A 
ATOM     15  C   UNL     1      -3.872  -1.111   0.005  0.00  0.00    +0.066 C 
ATOM     16  C   UNL     1       3.174  -1.622  -0.021  0.00  0.00    +0.059 A 
ATOM     17  C   UNL     1      -4.564   0.847   0.292  0.00  0.00    +0.091 C 
ATOM     18  C   UNL     1      -2.431  -3.042  -0.219  0.00  0.00    +0.022 C 
ATOM     19  C   UNL     1      -3.752  -2.435  -0.158  0.00  0.00    +0.015 C 
ATOM     20  C   UNL     1       3.158   0.784   0.096  0.00  0.00    +0.038 C 
ATOM     21  C   UNL     1       4.574  -1.654  -0.028  0.00  0.00    +0.020 C 
ATOM     22  C   UNL     1       4.559   0.764   0.088  0.00  0.00    +0.134 C 
ATOM     23  C   UNL     1       5.255  -0.438   0.030  0.00  0.00    +0.038 C 
ATOM     24  H   UNL     1       0.622   1.652   0.734  0.00  0.00    +0.147 HD
ATOM     25  H   UNL     1       2.518  -3.620  -0.136  0.00  0.00    +0.169 HD
ENDROOT
BRANCH   8  27
ATOM     26  OXT UNL     1       0.366   3.954   0.661  0.00  0.00    -0.248 OA
ATOM     27  C   UNL     1      -0.410   3.617  -0.220  0.00  0.00    +0.332 C 
BRANCH  27  28
ATOM     28  O   UNL     1      -0.801   4.418  -1.241  0.00  0.00    -0.479 OA
ATOM     29  H   UNL     1      -1.400   4.097  -1.885  0.00  0.00    +0.295 HD
ENDBRANCH  27  28
ENDBRANCH   8  27
BRANCH  22  30
ATOM     30  O   UNL     1       5.246   1.940   0.137  0.00  0.00    -0.506 OA
ATOM     31  H   UNL     1       4.782   2.753   0.176  0.00  0.00    +0.292 HD
ENDBRANCH  22  30
TORSDOF 3
