REMARK  Name = 13629527
REMARK  5 active torsions:
REMARK  status: ('A' for Active; 'I' for Inactive)
REMARK    1  A    between atoms: N_2  and  C_8
REMARK    2  A    between atoms: C_3  and  C_15
REMARK    3  A    between atoms: N_6  and  S_11
REMARK    4  A    between atoms: C_15  and  C_16
REMARK    5  A    between atoms: C_15  and  N_22
REMARK                            x       y       z     vdW  Elec       q    Type
REMARK                         _______ _______ _______ _____ _____    ______ ____
ROOT
ATOM      1  O   UNL     1      -1.166   2.038   1.369  0.00  0.00    -0.277 OA
ATOM      2  N   UNL     1      -0.133   1.287  -0.568  0.00  0.00    -0.298 N 
ATOM      3  C   UNL     1      -1.230   1.606   0.219  0.00  0.00    +0.206 C 
ATOM      4  H   UNL     1      -0.290   0.947  -1.479  0.00  0.00    +0.150 HD
ENDROOT
BRANCH   2   8
ATOM      5  O   UNL     1       2.708   0.977  -2.168  0.00  0.00    -0.271 OA
ATOM      6  N   UNL     1       2.667  -0.070  -0.079  0.00  0.00    -0.156 N 
ATOM      7  C   UNL     1       1.726   0.395   0.927  0.00  0.00    +0.126 C 
ATOM      8  C   UNL     1       1.229   1.432  -0.110  0.00  0.00    +0.170 C 
ATOM      9  C   UNL     1       2.296   0.816  -1.041  0.00  0.00    +0.264 C 
ATOM     10  C   UNL     1       2.446   0.902   2.153  0.00  0.00    +0.026 C 
BRANCH   6  11
ATOM     11  S   UNL     1       3.886  -1.214  -0.059  0.00  0.00    +0.096 S 
ATOM     12  O   UNL     1       5.190  -0.427   0.551  0.00  0.00    -0.050 OA
ATOM     13  O   UNL     1       4.231  -1.589  -1.431  0.00  0.00    -0.050 OA
ATOM     14  O   UNL     1       3.553  -2.272   0.896  0.00  0.00    -0.050 OA
ENDBRANCH   6  11
ENDBRANCH   2   8
BRANCH   3  15
ATOM     15  C   UNL     1      -2.552   1.381  -0.509  0.00  0.00    +0.036 C 
BRANCH  15  16
ATOM     16  C   UNL     1      -3.081  -0.014  -0.249  0.00  0.00    -0.034 C 
ATOM     17  C   UNL     1      -3.846  -0.636  -1.219  0.00  0.00    -0.006 C 
ATOM     18  C   UNL     1      -2.787  -0.634   0.952  0.00  0.00    -0.006 C 
ATOM     19  C   UNL     1      -4.334  -1.921  -0.980  0.00  0.00    -0.000 C 
ATOM     20  C   UNL     1      -3.275  -1.919   1.191  0.00  0.00    -0.000 C 
ATOM     21  C   UNL     1      -4.048  -2.562   0.225  0.00  0.00    -0.000 C 
ENDBRANCH  15  16
BRANCH  15  22
ATOM     22  N   UNL     1      -3.480   2.426  -0.069  0.00  0.00    +0.390 N 
ATOM     23  H   UNL     1      -3.078   3.343  -0.266  0.00  0.00    -0.088 HD
ATOM     24  H   UNL     1      -3.644   2.335   0.933  0.00  0.00    -0.088 HD
ATOM     25  H   UNL     1      -4.364   2.328  -0.569  0.00  0.00    -0.088 HD
ENDBRANCH  15  22
ENDBRANCH   3  15
TORSDOF 5
