136237281
  -OEChem-03292013293D

 38 41  0     1  0  0  0  0  0999 V2000
    1.4746    0.6029   -2.2563 S   0  0  0  0  0  0  0  0  0  0  0  0
   -1.8911    2.7302   -0.2833 S   0  0  0  0  0  0  0  0  0  0  0  0
    4.7500   -1.6098   -0.3761 O   0  0  0  0  0  0  0  0  0  0  0  0
    3.2629    1.2574    2.0877 O   0  0  0  0  0  0  0  0  0  0  0  0
   -1.5354   -1.7230   -0.7368 O   0  0  0  0  0  0  0  0  0  0  0  0
    2.4181    0.2409    0.1494 N   0  0  0  0  0  0  0  0  0  0  0  0
   -0.4255    0.6244    0.1330 N   0  0  0  0  0  0  0  0  0  0  0  0
    2.3576   -1.0810   -0.4274 C   0  0  2  0  0  0  0  0  0  0  0  0
    1.7963    1.3137   -0.6005 C   0  0  2  0  0  0  0  0  0  0  0  0
    3.5006   -1.8026    0.2763 C   0  0  2  0  0  0  0  0  0  0  0  0
    2.4122   -0.9277   -1.9380 C   0  0  0  0  0  0  0  0  0  0  0  0
    3.5624   -1.1187    1.6495 C   0  0  0  0  0  0  0  0  0  0  0  0
    0.4955    1.7781    0.0396 C   0  0  1  0  0  0  0  0  0  0  0  0
    3.0892    0.2929    1.3594 C   0  0  0  0  0  0  0  0  0  0  0  0
   -0.1648    2.8868   -0.7690 C   0  0  0  0  0  0  0  0  0  0  0  0
   -1.6545    1.0239    0.0384 C   0  0  0  0  0  0  0  0  0  0  0  0
   -2.8089    0.1026    0.1572 C   0  0  0  0  0  0  0  0  0  0  0  0
   -2.7032   -1.2319   -0.2341 C   0  0  0  0  0  0  0  0  0  0  0  0
   -4.0137    0.5866    0.6670 C   0  0  0  0  0  0  0  0  0  0  0  0
   -3.8022   -2.0826   -0.1157 C   0  0  0  0  0  0  0  0  0  0  0  0
   -5.1129   -0.2641    0.7854 C   0  0  0  0  0  0  0  0  0  0  0  0
   -5.0071   -1.5988    0.3941 C   0  0  0  0  0  0  0  0  0  0  0  0
    1.3996   -1.5177   -0.1149 H   0  0  0  0  0  0  0  0  0  0  0  0
    2.5090    2.1421   -0.6728 H   0  0  0  0  0  0  0  0  0  0  0  0
    3.3229   -2.8798    0.3505 H   0  0  0  0  0  0  0  0  0  0  0  0
    1.9710   -1.7831   -2.4564 H   0  0  0  0  0  0  0  0  0  0  0  0
    3.4277   -0.7744   -2.3136 H   0  0  0  0  0  0  0  0  0  0  0  0
    4.5706   -1.0964    2.0713 H   0  0  0  0  0  0  0  0  0  0  0  0
    2.8579   -1.5735    2.3531 H   0  0  0  0  0  0  0  0  0  0  0  0
    0.7011    2.1287    1.0608 H   0  0  0  0  0  0  0  0  0  0  0  0
    0.2351    3.8712   -0.5094 H   0  0  0  0  0  0  0  0  0  0  0  0
   -0.1128    2.7685   -1.8528 H   0  0  0  0  0  0  0  0  0  0  0  0
    5.4268   -2.0755    0.1442 H   0  0  0  0  0  0  0  0  0  0  0  0
   -4.1303    1.6127    1.0028 H   0  0  0  0  0  0  0  0  0  0  0  0
   -3.7342   -3.1246   -0.4168 H   0  0  0  0  0  0  0  0  0  0  0  0
   -6.0498    0.1110    1.1870 H   0  0  0  0  0  0  0  0  0  0  0  0
   -5.8626   -2.2613    0.4874 H   0  0  0  0  0  0  0  0  0  0  0  0
   -1.6523   -2.6645   -0.9511 H   0  0  0  0  0  0  0  0  0  0  0  0
  1  9  1  0  0  0  0
  1 11  1  0  0  0  0
  2 15  1  0  0  0  0
  2 16  1  0  0  0  0
  3 10  1  0  0  0  0
  3 33  1  0  0  0  0
  4 14  2  0  0  0  0
  5 18  1  0  0  0  0
  5 38  1  0  0  0  0
  6  8  1  0  0  0  0
  6  9  1  0  0  0  0
  6 14  1  0  0  0  0
  7 13  1  0  0  0  0
  7 16  2  0  0  0  0
  8 10  1  0  0  0  0
  8 11  1  0  0  0  0
  8 23  1  0  0  0  0
  9 13  1  0  0  0  0
  9 24  1  0  0  0  0
 10 12  1  0  0  0  0
 10 25  1  0  0  0  0
 11 26  1  0  0  0  0
 11 27  1  0  0  0  0
 12 14  1  0  0  0  0
 12 28  1  0  0  0  0
 12 29  1  0  0  0  0
 13 15  1  0  0  0  0
 13 30  1  0  0  0  0
 15 31  1  0  0  0  0
 15 32  1  0  0  0  0
 16 17  1  0  0  0  0
 17 18  1  0  0  0  0
 17 19  2  0  0  0  0
 18 20  2  0  0  0  0
 19 21  1  0  0  0  0
 19 34  1  0  0  0  0
 20 22  1  0  0  0  0
 20 35  1  0  0  0  0
 21 22  2  0  0  0  0
 21 36  1  0  0  0  0
 22 37  1  0  0  0  0
M  END
> <PUBCHEM_COMPOUND_CID>
136237281

> <PUBCHEM_CONFORMER_RMSD>
0.6

> <PUBCHEM_CONFORMER_DIVERSEORDER>
1
30
33
8
24
10
28
23
29
16
19
31
20
26
5
21
4
6
22
12
32
25
13
27
7
9
3
15
17
18
2
11
14

> <PUBCHEM_MMFF94_PARTIAL_CHARGES>
28
1 -0.46
10 0.28
11 0.23
12 0.06
13 0.25
14 0.57
15 0.23
16 0.5
17 0.09
18 0.08
19 -0.15
2 -0.37
20 -0.15
21 -0.15
22 -0.15
3 -0.68
33 0.4
34 0.15
35 0.15
36 0.15
37 0.15
38 0.45
4 -0.57
5 -0.53
6 -0.66
7 -0.7
8 0.3
9 0.53

> <PUBCHEM_EFFECTIVE_ROTOR_COUNT>
3.6

> <PUBCHEM_PHARMACOPHORE_FEATURES>
9
1 3 acceptor
1 3 donor
1 4 acceptor
1 5 donor
1 7 acceptor
5 1 6 8 9 11 rings
5 2 7 13 15 16 rings
5 6 8 10 12 14 rings
6 17 18 19 20 21 22 rings

> <PUBCHEM_HEAVY_ATOM_COUNT>
22

> <PUBCHEM_ATOM_DEF_STEREO_COUNT>
4

> <PUBCHEM_ATOM_UDEF_STEREO_COUNT>
0

> <PUBCHEM_BOND_DEF_STEREO_COUNT>
0

> <PUBCHEM_BOND_UDEF_STEREO_COUNT>
0

> <PUBCHEM_ISOTOPIC_ATOM_COUNT>
0

> <PUBCHEM_COMPONENT_COUNT>
1

> <PUBCHEM_CACTVS_TAUTO_COUNT>
-1

> <PUBCHEM_CONFORMER_ID>
081ED0E100000001

> <PUBCHEM_MMFF94_ENERGY>
58.14

> <PUBCHEM_FEATURE_SELFOVERLAP>
45.871

> <PUBCHEM_SHAPE_FINGERPRINT>
11578080 2 17531511127694877676
11720765 8 12397111788454142080
12363563 72 18333452053715241097
12422481 6 18125185783177679537
12553582 1 18409172146876375085
12633257 1 17275097332221224494
12714826 92 17749664113159443829
12788726 201 18263103049176088653
13083527 12 18116136939229549884
13583140 156 18129360645338410760
13828863 39 16986006163303892416
13911987 19 14419292866834679686
14178342 30 18266740173300025161
14251764 38 13541086498168855747
14790565 3 17761495094192501332
14848178 96 9799426507286321971
15885798 251 18407761439256656817
16752209 62 18187645735362782365
1798214 55 10087641498501045979
1813 80 17676201385873339341
18186145 218 11602811407178200605
19078846 21 18336274500280182277
19141452 34 18343301457876743123
20291156 8 18260830384215587307
20626108 58 18269550701578457747
20775530 9 17461706312564987650
21421861 104 18261962945685849529
21756936 100 15193572408120097568
2255824 54 17901393616715802989
22646028 28 18333452045041072819
23184049 29 18410011035346138821
23557571 272 18271247105832488741
23559900 14 17845393127244008029
23598291 2 17387149592931553996
238 59 13623535644950819776
3004659 81 17966972733681567431
5104073 3 18199763582341445899
6823239 73 17916606334926979164
7970288 3 18186518782783440227
8988823 20 17417521514853630113

> <PUBCHEM_SHAPE_MULTIPOLES>
432.88
9.43
2.72
1.58
5.21
1.17
0.19
-6.25
-2.73
0.77
0.31
-2
0.07
-0.07

> <PUBCHEM_SHAPE_SELFOVERLAP>
917.857

> <PUBCHEM_SHAPE_VOLUME>
244.6

> <PUBCHEM_COORDINATE_TYPE>
2
5
10

$$$$
