136267825
  -OEChem-03292013293D

 40 45  0     1  0  0  0  0  0999 V2000
   -0.0584   -2.9617   -0.1603 O   0  0  0  0  0  0  0  0  0  0  0  0
   -0.8010    4.4182   -1.2406 O   0  0  0  0  0  0  0  0  0  0  0  0
    0.3661    3.9540    0.6615 O   0  0  0  0  0  0  0  0  0  0  0  0
    5.2464    1.9405    0.1370 O   0  0  0  0  0  0  0  0  0  0  0  0
   -0.1348    1.2961    0.2149 N   0  0  0  0  0  0  0  0  0  0  0  0
    2.2769   -2.6665   -0.0861 N   0  0  0  0  0  0  0  0  0  0  0  0
   -5.0103   -0.3592    0.1195 N   0  0  0  0  0  0  0  0  0  0  0  0
   -1.3448   -0.8199    0.0039 C   0  0  0  0  0  0  0  0  0  0  0  0
   -0.1941   -0.0830    0.0808 C   0  0  0  0  0  0  0  0  0  0  0  0
   -2.6979   -0.2548    0.1009 C   0  0  0  0  0  0  0  0  0  0  0  0
   -1.0617    2.2721   -0.3241 C   0  0  1  0  0  0  0  0  0  0  0  0
   -2.3793    2.2832    0.4409 C   0  0  0  0  0  0  0  0  0  0  0  0
    1.0574   -0.8078    0.0403 C   0  0  0  0  0  0  0  0  0  0  0  0
   -3.1028    1.0028    0.3032 C   0  0  0  0  0  0  0  0  0  0  0  0
   -1.2960   -2.3173   -0.1362 C   0  0  0  0  0  0  0  0  0  0  0  0
    1.0072   -2.1768   -0.0701 C   0  0  0  0  0  0  0  0  0  0  0  0
    2.4356   -0.4300    0.0484 C   0  0  0  0  0  0  0  0  0  0  0  0
   -3.8715   -1.1107    0.0046 C   0  0  0  0  0  0  0  0  0  0  0  0
    3.1737   -1.6224   -0.0212 C   0  0  0  0  0  0  0  0  0  0  0  0
   -4.5636    0.8474    0.2922 C   0  0  0  0  0  0  0  0  0  0  0  0
   -2.4310   -3.0423   -0.2186 C   0  0  0  0  0  0  0  0  0  0  0  0
   -3.7515   -2.4348   -0.1577 C   0  0  0  0  0  0  0  0  0  0  0  0
   -0.4102    3.6166   -0.2199 C   0  0  0  0  0  0  0  0  0  0  0  0
    3.1580    0.7839    0.0959 C   0  0  0  0  0  0  0  0  0  0  0  0
    4.5739   -1.6542   -0.0279 C   0  0  0  0  0  0  0  0  0  0  0  0
    4.5588    0.7645    0.0885 C   0  0  0  0  0  0  0  0  0  0  0  0
    5.2546   -0.4378    0.0302 C   0  0  0  0  0  0  0  0  0  0  0  0
   -1.2196    2.0520   -1.3885 H   0  0  0  0  0  0  0  0  0  0  0  0
   -3.0090    3.0974    0.0600 H   0  0  0  0  0  0  0  0  0  0  0  0
   -2.2136    2.4915    1.5056 H   0  0  0  0  0  0  0  0  0  0  0  0
    0.7032    1.6561    0.6570 H   0  0  0  0  0  0  0  0  0  0  0  0
    2.5268   -3.6433   -0.1559 H   0  0  0  0  0  0  0  0  0  0  0  0
   -5.2038    1.7316    0.4245 H   0  0  0  0  0  0  0  0  0  0  0  0
   -2.3927   -4.1230   -0.3144 H   0  0  0  0  0  0  0  0  0  0  0  0
   -4.6177   -3.0831   -0.2251 H   0  0  0  0  0  0  0  0  0  0  0  0
    2.6426    1.7384    0.1296 H   0  0  0  0  0  0  0  0  0  0  0  0
    5.1160   -2.5928   -0.0809 H   0  0  0  0  0  0  0  0  0  0  0  0
    6.3419   -0.4381    0.0247 H   0  0  0  0  0  0  0  0  0  0  0  0
   -0.3856    5.3054   -1.1894 H   0  0  0  0  0  0  0  0  0  0  0  0
    4.6122    2.6770    0.1741 H   0  0  0  0  0  0  0  0  0  0  0  0
  1 15  1  0  0  0  0
  1 16  1  0  0  0  0
  2 23  1  0  0  0  0
  2 39  1  0  0  0  0
  3 23  2  0  0  0  0
  4 26  1  0  0  0  0
  4 40  1  0  0  0  0
  5  9  1  0  0  0  0
  5 11  1  0  0  0  0
  5 31  1  0  0  0  0
  6 16  1  0  0  0  0
  6 19  1  0  0  0  0
  6 32  1  0  0  0  0
  7 18  1  0  0  0  0
  7 20  2  0  0  0  0
  8  9  2  0  0  0  0
  8 10  1  0  0  0  0
  8 15  1  0  0  0  0
  9 13  1  0  0  0  0
 10 14  2  0  0  0  0
 10 18  1  0  0  0  0
 11 12  1  0  0  0  0
 11 23  1  0  0  0  0
 11 28  1  0  0  0  0
 12 14  1  0  0  0  0
 12 29  1  0  0  0  0
 12 30  1  0  0  0  0
 13 16  2  0  0  0  0
 13 17  1  0  0  0  0
 14 20  1  0  0  0  0
 15 21  2  0  0  0  0
 17 19  2  0  0  0  0
 17 24  1  0  0  0  0
 18 22  2  0  0  0  0
 19 25  1  0  0  0  0
 20 33  1  0  0  0  0
 21 22  1  0  0  0  0
 21 34  1  0  0  0  0
 22 35  1  0  0  0  0
 24 26  2  0  0  0  0
 24 36  1  0  0  0  0
 25 27  2  0  0  0  0
 25 37  1  0  0  0  0
 26 27  1  0  0  0  0
 27 38  1  0  0  0  0
M  END
> <PUBCHEM_COMPOUND_CID>
136267825

> <PUBCHEM_CONFORMER_RMSD>
0.6

> <PUBCHEM_CONFORMER_DIVERSEORDER>
1
2

> <PUBCHEM_MMFF94_PARTIAL_CHARGES>
34
1 -0.14
11 0.43
12 0.14
13 -0.05
14 -0.12
15 0.08
16 -0.09
18 0.17
19 -0.15
2 -0.65
20 0.38
21 -0.15
22 -0.15
23 0.66
24 -0.15
25 -0.15
26 0.08
27 -0.15
3 -0.57
31 0.4
32 0.27
33 0.06
34 0.15
35 0.15
36 0.15
37 0.15
38 0.15
39 0.5
4 -0.53
40 0.45
5 -0.87
6 0.03
7 -0.62
9 0.15

> <PUBCHEM_EFFECTIVE_ROTOR_COUNT>
1.6

> <PUBCHEM_PHARMACOPHORE_FEATURES>
16
1 1 acceptor
1 2 acceptor
1 3 acceptor
1 4 donor
1 5 cation
1 5 donor
1 6 cation
1 6 donor
1 7 acceptor
3 2 3 23 anion
5 6 13 16 17 19 rings
5 7 10 14 18 20 rings
6 1 8 9 13 15 16 rings
6 17 19 24 25 26 27 rings
6 8 10 15 18 21 22 rings
7 5 8 9 10 11 12 14 rings

> <PUBCHEM_HEAVY_ATOM_COUNT>
27

> <PUBCHEM_ATOM_DEF_STEREO_COUNT>
1

> <PUBCHEM_ATOM_UDEF_STEREO_COUNT>
0

> <PUBCHEM_BOND_DEF_STEREO_COUNT>
0

> <PUBCHEM_BOND_UDEF_STEREO_COUNT>
0

> <PUBCHEM_ISOTOPIC_ATOM_COUNT>
0

> <PUBCHEM_COMPONENT_COUNT>
1

> <PUBCHEM_CACTVS_TAUTO_COUNT>
-1

> <PUBCHEM_CONFORMER_ID>
081F483100000001

> <PUBCHEM_MMFF94_ENERGY>
83.429

> <PUBCHEM_FEATURE_SELFOVERLAP>
81.628

> <PUBCHEM_SHAPE_FINGERPRINT>
10319926 262 18196632027313196578
10411042 1 17907295812445974887
10498660 4 18409729530193529990
10670039 82 18336282150118019076
10675989 125 17469308255056301581
10967382 1 18411419501362115371
1100329 8 18339084920772774617
11578080 2 17025423401418929199
11595378 159 18042106709803920522
12107183 9 17760926243190847170
12403259 226 18341889676145760720
12553582 1 18410561899461750379
12788726 201 18189050910932612106
12838862 33 18339061736681969377
13140716 1 18336832974751587475
13402501 40 18413106164989197208
138480 1 15456493701010143149
14020679 6 17968670418690473867
14790565 3 18052825741384806961
14955137 171 18263945356971868755
15196674 1 18411982481175008162
15961568 22 18337394933010467412
18336668 15 18041841843065336492
19591789 44 18411980290793960592
19611394 137 17826525649545818706
19930381 70 18194398033563143848
20510252 161 18197778791189421993
20642791 178 18117007782492944293
21267235 1 18411428310055800475
21857420 4 15617448541178673686
22113638 7 18339359802499977981
23227448 37 18413670205674505206
23402539 116 18342733031202183863
23558518 356 17900552172191650784
23559900 14 18271238417266500152
238 59 15516424845935665861
3178227 256 18337125527318866771
335352 9 18339924814433892422
34934 24 18409444778647662147
350125 39 18338800005738353770
5104073 3 18410573998364077178
59755656 215 18340210683336109838
9709674 26 18270686346555559878

> <PUBCHEM_SHAPE_MULTIPOLES>
517.23
9.5
4.6
0.68
6.42
3.72
-0.04
-1.49
0.59
-1.44
-0.69
-0.09
0.26
0

> <PUBCHEM_SHAPE_SELFOVERLAP>
1207.13

> <PUBCHEM_SHAPE_VOLUME>
261.3

> <PUBCHEM_COORDINATE_TYPE>
2
5
10

$$$$
