REMARK  Name = 136259909
REMARK  11 active torsions:
REMARK  status: ('A' for Active; 'I' for Inactive)
REMARK    1  A    between atoms: C_1  and  O_23
REMARK    2  A    between atoms: C_2  and  N_18
REMARK    3  A    between atoms: C_7  and  O_12
REMARK    4  A    between atoms: C_8  and  O_16
REMARK    5  A    between atoms: C_10  and  O_14
REMARK    6  A    between atoms: N_18  and  N_19
REMARK    7  A    between atoms: N_19  and  C_21
REMARK    8  A    between atoms: O_23  and  C_29
REMARK    9  A    between atoms: C_25  and  O_31
REMARK   10  A    between atoms: C_26  and  O_33
REMARK   11  A    between atoms: C_27  and  O_35
REMARK                            x       y       z     vdW  Elec       q    Type
REMARK                         _______ _______ _______ _____ _____    ______ ____
ROOT
ATOM      1  C   UNL     1      -0.318   0.958  -0.330  0.00  0.00    +0.158 C 
ATOM      2  C   UNL     1       0.666  -0.022  -0.456  0.00  0.00    +0.126 C 
ATOM      3  C   UNL     1       2.024   0.301  -0.301  0.00  0.00    +0.059 A 
ATOM      4  C   UNL     1       2.389   1.638  -0.014  0.00  0.00    +0.038 A 
ATOM      5  C   UNL     1       0.040   2.273  -0.047  0.00  0.00    +0.038 C 
ATOM      6  C   UNL     1       1.385   2.612   0.110  0.00  0.00    +0.006 C 
ATOM      7  C   UNL     1       3.028  -0.673  -0.424  0.00  0.00    +0.169 A 
ATOM      8  C   UNL     1       3.747   1.961   0.141  0.00  0.00    +0.133 A 
ATOM      9  C   UNL     1       4.731   0.980   0.015  0.00  0.00    +0.049 A 
ATOM     10  C   UNL     1       4.372  -0.334  -0.267  0.00  0.00    +0.171 A 
ATOM     11  C   UNL     1       6.173   1.341   0.181  0.00  0.00    +0.038 C 
ENDROOT
BRANCH   7  12
ATOM     12  O   UNL     1       2.751  -1.984  -0.699  0.00  0.00    -0.503 OA
ATOM     13  H   UNL     1       1.863  -2.261  -0.813  0.00  0.00    +0.292 HD
ENDBRANCH   7  12
BRANCH  10  14
ATOM     14  O   UNL     1       5.336  -1.293  -0.390  0.00  0.00    -0.469 OA
ATOM     15  C   UNL     1       5.708  -1.990   0.796  0.00  0.00    +0.253 C 
ENDBRANCH  10  14
BRANCH   8  16
ATOM     16  O   UNL     1       4.129   3.244   0.420  0.00  0.00    -0.506 OA
ATOM     17  H   UNL     1       3.482   3.917   0.508  0.00  0.00    +0.292 HD
ENDBRANCH   8  16
BRANCH   2  18
ATOM     18  N   UNL     1       0.230  -1.327  -0.741  0.00  0.00    -0.122 NA
BRANCH  18  19
ATOM     19  N   UNL     1       0.022  -1.944   0.326  0.00  0.00    -0.090 NA
BRANCH  19  21
ATOM     20  O   UNL     1      -0.586  -3.761  -1.007  0.00  0.00    -0.272 OA
ATOM     21  C   UNL     1      -0.409  -3.232   0.090  0.00  0.00    +0.261 C 
ATOM     22  C   UNL     1      -0.666  -3.993   1.364  0.00  0.00    +0.098 C 
ENDBRANCH  19  21
ENDBRANCH  18  19
ENDBRANCH   2  18
BRANCH   1  23
ATOM     23  O   UNL     1      -1.645   0.652  -0.479  0.00  0.00    -0.449 OA
BRANCH  23  29
ATOM     24  O   UNL     1      -3.085  -0.291   1.155  0.00  0.00    -0.319 OA
ATOM     25  C   UNL     1      -4.578   1.301  -0.711  0.00  0.00    +0.173 C 
ATOM     26  C   UNL     1      -5.130  -0.013  -0.157  0.00  0.00    +0.167 C 
ATOM     27  C   UNL     1      -3.565   1.919   0.254  0.00  0.00    +0.210 C 
ATOM     28  C   UNL     1      -3.977  -0.942   0.245  0.00  0.00    +0.148 C 
ATOM     29  C   UNL     1      -2.489   0.905   0.639  0.00  0.00    +0.318 C 
ATOM     30  C   UNL     1      -4.476  -2.207   0.938  0.00  0.00    +0.035 C 
BRANCH  25  31
ATOM     31  O   UNL     1      -5.656   2.209  -0.929  0.00  0.00    -0.379 OA
ATOM     32  H   UNL     1      -6.295   1.811  -1.542  0.00  0.00    +0.211 HD
ENDBRANCH  25  31
BRANCH  26  33
ATOM     33  O   UNL     1      -5.925  -0.622  -1.171  0.00  0.00    -0.379 OA
ATOM     34  H   UNL     1      -6.650  -0.026  -1.416  0.00  0.00    +0.211 HD
ENDBRANCH  26  33
BRANCH  27  35
ATOM     35  O   UNL     1      -4.223   2.332   1.453  0.00  0.00    -0.377 OA
ATOM     36  H   UNL     1      -4.913   2.978   1.237  0.00  0.00    +0.211 HD
ENDBRANCH  27  35
ENDBRANCH  23  29
ENDBRANCH   1  23
TORSDOF 11
