REMARK  Name = 136270239
REMARK  8 active torsions:
REMARK  status: ('A' for Active; 'I' for Inactive)
REMARK    1  A    between atoms: N_2  and  C_17
REMARK    2  A    between atoms: C_10  and  N_12
REMARK    3  A    between atoms: C_17  and  O_18
REMARK    4  A    between atoms: O_18  and  C_19
REMARK    5  A    between atoms: C_19  and  C_20
REMARK    6  A    between atoms: C_19  and  C_23
REMARK    7  A    between atoms: C_20  and  O_21
REMARK    8  A    between atoms: C_23  and  O_24
REMARK                            x       y       z     vdW  Elec       q    Type
REMARK                         _______ _______ _______ _____ _____    ______ ____
ROOT
ATOM      1  O   UNL     1       3.373   3.182   0.557  0.00  0.00    -0.268 OA
ATOM      2  N   UNL     1      -0.933   2.069  -0.258  0.00  0.00    -0.235 N 
ATOM      3  N   UNL     1       0.462   3.723   0.308  0.00  0.00    -0.240 NA
ATOM      4  N   UNL     1       0.630   0.232  -0.487  0.00  0.00    -0.352 NA
ATOM      5  N   UNL     1       2.866   0.978  -0.025  0.00  0.00    -0.239 N 
ATOM      6  C   UNL     1       0.316   1.521  -0.226  0.00  0.00    +0.212 C 
ATOM      7  C   UNL     1       1.147   2.559   0.123  0.00  0.00    +0.176 C 
ATOM      8  C   UNL     1      -0.793   3.395   0.070  0.00  0.00    +0.224 C 
ATOM      9  C   UNL     1       2.561   2.318   0.249  0.00  0.00    +0.274 C 
ATOM     10  C   UNL     1       1.911   0.006  -0.375  0.00  0.00    +0.279 C 
ATOM     11  H   UNL     1       3.809   0.699   0.030  0.00  0.00    +0.159 HD
ENDROOT
BRANCH  10  12
ATOM     12  N   UNL     1       2.399  -1.249  -0.605  0.00  0.00    -0.185 NA
ATOM     13  N   UNL     1       2.261  -3.534   0.139  0.00  0.00    -0.287 N 
ATOM     14  C   UNL     1       1.940  -2.188   0.157  0.00  0.00    +0.168 C 
ATOM     15  C   UNL     1       3.223  -4.068  -0.815  0.00  0.00    +0.114 C 
ATOM     16  C   UNL     1       1.471  -4.504   0.885  0.00  0.00    +0.114 C 
ENDBRANCH  10  12
BRANCH   2  17
ATOM     17  C   UNL     1      -2.171   1.400  -0.574  0.00  0.00    +0.244 C 
BRANCH  17  18
ATOM     18  O   UNL     1      -2.361   0.339   0.358  0.00  0.00    -0.332 OA
BRANCH  18  19
ATOM     19  C   UNL     1      -3.267  -0.638  -0.136  0.00  0.00    +0.175 C 
BRANCH  19  20
ATOM     20  C   UNL     1      -3.036  -1.944   0.615  0.00  0.00    +0.169 C 
BRANCH  20  21
ATOM     21  O   UNL     1      -1.707  -2.402   0.389  0.00  0.00    -0.379 OA
ATOM     22  H   UNL     1      -1.566  -3.233   0.869  0.00  0.00    +0.211 HD
ENDBRANCH  20  21
ENDBRANCH  19  20
BRANCH  19  23
ATOM     23  C   UNL     1      -4.683  -0.117   0.076  0.00  0.00    +0.169 C 
BRANCH  23  24
ATOM     24  O   UNL     1      -5.608  -1.076  -0.425  0.00  0.00    -0.379 OA
ATOM     25  H   UNL     1      -6.513  -0.751  -0.294  0.00  0.00    +0.211 HD
ENDBRANCH  23  24
ENDBRANCH  19  23
ENDBRANCH  18  19
ENDBRANCH  17  18
ENDBRANCH   2  17
TORSDOF 8
