REMARK  Name = 136248812
REMARK  6 active torsions:
REMARK  status: ('A' for Active; 'I' for Inactive)
REMARK    1  A    between atoms: N_2  and  C_17
REMARK    2  A    between atoms: N_3  and  C_29
REMARK    3  A    between atoms: C_16  and  P_20
REMARK    4  A    between atoms: C_16  and  O_24
REMARK    5  A    between atoms: C_19  and  C_26
REMARK    6  A    between atoms: C_26  and  O_27
REMARK                            x       y       z     vdW  Elec       q    Type
REMARK                         _______ _______ _______ _____ _____    ______ ____
ROOT
ATOM      1  O   UNL     1       4.891  -0.971  -0.612  0.00  0.00    -0.273 OA
ATOM      2  N   UNL     1       0.579  -0.042   0.631  0.00  0.00    -0.249 N 
ATOM      3  N   UNL     1       2.069  -1.659   0.042  0.00  0.00    -0.243 NA
ATOM      4  N   UNL     1       2.160   1.900   0.435  0.00  0.00    -0.361 NA
ATOM      5  N   UNL     1       4.341   1.244  -0.212  0.00  0.00    -0.246 N 
ATOM      6  N   UNL     1       3.853   3.501   0.168  0.00  0.00    -0.321 N 
ATOM      7  C   UNL     1       0.656  -1.493   0.399  0.00  0.00    +0.173 C 
ATOM      8  C   UNL     1       1.818   0.571   0.378  0.00  0.00    +0.189 C 
ATOM      9  C   UNL     1       2.678  -0.416   0.040  0.00  0.00    +0.204 C 
ATOM     10  C   UNL     1       4.075  -0.115  -0.297  0.00  0.00    +0.252 C 
ATOM     11  C   UNL     1       3.397   2.208   0.144  0.00  0.00    +0.239 C 
ATOM     12  H   UNL     1       5.254   1.548  -0.417  0.00  0.00    +0.159 HD
ATOM     13  H   UNL     1       3.242   4.233   0.411  0.00  0.00    +0.146 HD
ATOM     14  H   UNL     1       4.791   3.696  -0.058  0.00  0.00    +0.146 HD
ENDROOT
BRANCH   2  17
ATOM     15  O   UNL     1      -1.508  -0.179   1.752  0.00  0.00    -0.334 OA
ATOM     16  C   UNL     1      -2.892   0.755   0.069  0.00  0.00    +0.217 C 
ATOM     17  C   UNL     1      -0.679   0.612   0.886  0.00  0.00    +0.198 C 
ATOM     18  C   UNL     1      -1.458   0.818  -0.401  0.00  0.00    +0.092 C 
ATOM     19  C   UNL     1      -2.833  -0.272   1.191  0.00  0.00    +0.182 C 
BRANCH  16  20
ATOM     20  P   UNL     1      -4.100   0.506  -1.222  0.00  0.00    +0.421 P 
ATOM     21  O   UNL     1      -3.708  -0.838  -1.855  0.00  0.00    -0.136 OA
ATOM     22  O   UNL     1      -5.447   0.482  -0.483  0.00  0.00    -0.136 OA
ATOM     23  O   UNL     1      -3.917   1.714  -2.153  0.00  0.00    -0.251 OA
ENDBRANCH  16  20
BRANCH  16  24
ATOM     24  O   UNL     1      -3.236   2.027   0.616  0.00  0.00    -0.374 OA
ATOM     25  H   UNL     1      -3.274   2.686  -0.095  0.00  0.00    +0.211 HD
ENDBRANCH  16  24
BRANCH  19  26
ATOM     26  C   UNL     1      -3.031  -1.711   0.730  0.00  0.00    +0.170 C 
BRANCH  26  27
ATOM     27  O   UNL     1      -2.944  -2.570   1.856  0.00  0.00    -0.379 OA
ATOM     28  H   UNL     1      -3.069  -3.489   1.572  0.00  0.00    +0.211 HD
ENDBRANCH  26  27
ENDBRANCH  19  26
ENDBRANCH   2  17
BRANCH   3  29
ATOM     29  C   UNL     1       2.615  -2.945  -0.298  0.00  0.00    +0.074 C 
ATOM     30  C   UNL     1       2.622  -3.127  -1.804  0.00  0.00    +0.019 C 
ENDBRANCH   3  29
TORSDOF 6
