REMARK  Name = 136240571
REMARK  6 active torsions:
REMARK  status: ('A' for Active; 'I' for Inactive)
REMARK    1  A    between atoms: N_4  and  C_10
REMARK    2  A    between atoms: N_4  and  C_16
REMARK    3  A    between atoms: C_6  and  O_12
REMARK    4  A    between atoms: C_7  and  O_14
REMARK    5  A    between atoms: C_9  and  C_18
REMARK    6  A    between atoms: C_18  and  O_19
REMARK                            x       y       z     vdW  Elec       q    Type
REMARK                         _______ _______ _______ _____ _____    ______ ____
ROOT
ATOM      1  S   UNL     1       1.496   0.851   1.371  0.00  0.00    -0.078 S 
ATOM      2  O   UNL     1      -0.994   1.103   0.434  0.00  0.00    -0.341 OA
ATOM      3  N   UNL     1       0.892  -1.237  -0.021  0.00  0.00    -0.272 NA
ATOM      4  C   UNL     1      -0.174  -1.173   0.969  0.00  0.00    +0.123 C 
ATOM      5  C   UNL     1      -1.499  -1.723   0.449  0.00  0.00    +0.157 C 
ATOM      6  C   UNL     1      -2.213  -0.768  -0.504  0.00  0.00    +0.168 C 
ATOM      7  C   UNL     1      -0.265   0.311   1.374  0.00  0.00    +0.182 C 
ATOM      8  C   UNL     1      -2.306   0.617   0.145  0.00  0.00    +0.175 C 
ATOM      9  C   UNL     1       1.903  -0.324   0.116  0.00  0.00    +0.181 C 
ATOM     10  H   UNL     1       0.886  -1.901  -0.748  0.00  0.00    +0.125 HD
ENDROOT
BRANCH   5  11
ATOM     11  O   UNL     1      -1.331  -2.998  -0.159  0.00  0.00    -0.380 OA
ATOM     12  H   UNL     1      -0.877  -3.593   0.457  0.00  0.00    +0.211 HD
ENDBRANCH   5  11
BRANCH   6  13
ATOM     13  O   UNL     1      -1.513  -0.688  -1.745  0.00  0.00    -0.379 OA
ATOM     14  H   UNL     1      -1.462  -1.571  -2.145  0.00  0.00    +0.211 HD
ENDBRANCH   6  13
BRANCH   9  15
ATOM     15  N   UNL     1       3.021  -0.238  -0.518  0.00  0.00    -0.194 NA
BRANCH  15  16
ATOM     16  C   UNL     1       3.855   0.890  -0.124  0.00  0.00    +0.091 C 
ATOM     17  C   UNL     1       5.138   0.861  -0.928  0.00  0.00    +0.020 C 
ENDBRANCH  15  16
ENDBRANCH   9  15
BRANCH   8  18
ATOM     18  C   UNL     1      -2.977   1.636  -0.767  0.00  0.00    +0.169 C 
BRANCH  18  19
ATOM     19  O   UNL     1      -3.033   2.880  -0.092  0.00  0.00    -0.379 OA
ATOM     20  H   UNL     1      -3.459   3.539  -0.663  0.00  0.00    +0.211 HD
ENDBRANCH  18  19
ENDBRANCH   8  18
TORSDOF 6
