REMARK  Name = 136248652
REMARK  4 active torsions:
REMARK  status: ('A' for Active; 'I' for Inactive)
REMARK    1  A    between atoms: N_3  and  C1*_15
REMARK    2  A    between atoms: C3*_17  and  O3*_19
REMARK    3  A    between atoms: C4*_18  and  C5*_21
REMARK    4  A    between atoms: C5*_21  and  O5*_22
REMARK                            x       y       z     vdW  Elec       q    Type
REMARK                         _______ _______ _______ _____ _____    ______ ____
ROOT
ATOM      1  O   UNL     1       0.691  -2.172   0.509  0.00  0.00    -0.252 OA
ATOM      2  O   UNL     1      -4.572  -1.347   0.096  0.00  0.00    -0.273 OA
ATOM      3  N   UNL     1      -0.210   0.005   0.087  0.00  0.00    -0.207 N 
ATOM      4  N   UNL     1      -1.635  -1.730   0.314  0.00  0.00    -0.276 N 
ATOM      5  N   UNL     1      -1.884   1.752  -0.301  0.00  0.00    -0.236 NA
ATOM      6  N   UNL     1      -4.119   0.910  -0.270  0.00  0.00    -0.282 N 
ATOM      7  C   UNL     1      -1.507   0.461  -0.058  0.00  0.00    +0.141 C 
ATOM      8  C   UNL     1      -0.245  -1.408   0.329  0.00  0.00    +0.311 C 
ATOM      9  C   UNL     1      -2.334  -0.584   0.080  0.00  0.00    +0.205 C 
ATOM     10  C   UNL     1      -3.784  -0.419  -0.023  0.00  0.00    +0.249 C 
ATOM     11  C   UNL     1      -3.168   1.915  -0.395  0.00  0.00    +0.220 C 
ATOM     12  H   UNL     1      -2.022  -2.625   0.448  0.00  0.00    +0.152 HD
ATOM     13  H   UNL     1      -5.070   1.148  -0.359  0.00  0.00    +0.151 HD
ENDROOT
BRANCH   3  15
ATOM     14  O4* UNL     1       1.778   0.372  -1.092  0.00  0.00    -0.335 OA
ATOM     15  C1* UNL     1       0.970   0.816   0.007  0.00  0.00    +0.203 C 
ATOM     16  C2* UNL     1       1.826   0.737   1.260  0.00  0.00    +0.083 C 
ATOM     17  C3* UNL     1       3.224   0.898   0.712  0.00  0.00    +0.144 C 
ATOM     18  C4* UNL     1       3.141   0.221  -0.649  0.00  0.00    +0.173 C 
BRANCH  17  19
ATOM     19  O3* UNL     1       3.520   2.283   0.547  0.00  0.00    -0.382 OA
ATOM     20  H3* UNL     1       3.572   2.708   1.418  0.00  0.00    +0.210 HD
ENDBRANCH  17  19
BRANCH  18  21
ATOM     21  C5* UNL     1       3.451  -1.269  -0.591  0.00  0.00    +0.169 C 
BRANCH  21  22
ATOM     22  O5* UNL     1       4.858  -1.443  -0.561  0.00  0.00    -0.379 OA
ATOM     23  H5* UNL     1       5.066  -2.390  -0.524  0.00  0.00    +0.211 HD
ENDBRANCH  21  22
ENDBRANCH  18  21
ENDBRANCH   3  15
TORSDOF 4
