REMARK  Name = 136257761
REMARK  4 active torsions:
REMARK  status: ('A' for Active; 'I' for Inactive)
REMARK    1  A    between atoms: N_1  and  C_14
REMARK    2  A    between atoms: N_2  and  C_7
REMARK    3  A    between atoms: N_3  and  N_13
REMARK    4  A    between atoms: C_14  and  C_18
REMARK                            x       y       z     vdW  Elec       q    Type
REMARK                         _______ _______ _______ _____ _____    ______ ____
ROOT
ATOM      1  N   UNL     1      -0.410   0.245   0.112  0.00  0.00    -0.339 N 
ATOM      2  N   UNL     1      -2.340   1.555   0.301  0.00  0.00    -0.358 N 
ATOM      3  N   UNL     1      -2.487  -0.798  -0.194  0.00  0.00    -0.060 NA
ATOM      4  C   UNL     1      -1.797   0.294   0.062  0.00  0.00    +0.223 C 
ATOM      5  H   UNL     1       0.071   1.081   0.306  0.00  0.00    +0.164 HD
ATOM      6  H   UNL     1      -3.322   1.621   0.274  0.00  0.00    +0.162 HD
ATOM      7  C   UNL     1      -1.623   2.778   0.586  0.00  0.00    +0.142 C 
ENDROOT
BRANCH   3  10
ATOM      8  O   UNL     1      -4.378  -0.403  -1.306  0.00  0.00    -0.106 OA
ATOM      9  O   UNL     1      -4.470  -0.872   0.820  0.00  0.00    -0.106 OA
ATOM     10  N   UNL     1      -3.831  -0.677  -0.226  0.00  0.00    +0.156 N 
ENDBRANCH   3  10
BRANCH   1  11
ATOM     11  C   UNL     1       0.375  -0.949  -0.102  0.00  0.00    +0.135 C 
BRANCH  11  15
ATOM     12 CL   UNL     1       5.602   0.718  -0.783  0.00  0.00    -0.054 Cl
ATOM     13  S   UNL     1       2.705   0.167  -1.174  0.00  0.00    -0.058 S 
ATOM     14  N   UNL     1       4.000  -0.530   0.952  0.00  0.00    -0.226 NA
ATOM     15  C   UNL     1       1.840  -0.652   0.060  0.00  0.00    +0.051 C 
ATOM     16  C   UNL     1       2.690  -0.940   1.107  0.00  0.00    +0.105 C 
ATOM     17  C   UNL     1       4.124   0.065  -0.214  0.00  0.00    +0.168 C 
ENDBRANCH  11  15
ENDBRANCH   1  11
TORSDOF 3
