REMARK  Name = 136227923
REMARK  8 active torsions:
REMARK  status: ('A' for Active; 'I' for Inactive)
REMARK    1  A    between atoms: N_2  and  N_17
REMARK    2  A    between atoms: C_3  and  C_7
REMARK    3  A    between atoms: C_10  and  O_15
REMARK    4  A    between atoms: N_17  and  C_18
REMARK    5  A    between atoms: C_18  and  C_19
REMARK    6  A    between atoms: C_20  and  O_25
REMARK    7  A    between atoms: C_22  and  O_27
REMARK    8  A    between atoms: C_24  and  O_29
REMARK                            x       y       z     vdW  Elec       q    Type
REMARK                         _______ _______ _______ _____ _____    ______ ____
ROOT
ATOM      1  O   UNL     1       0.596   2.366   0.463  0.00  0.00    -0.269 OA
ATOM      2  N   UNL     1       0.023   0.186  -0.066  0.00  0.00    -0.228 N 
ATOM      3  C   UNL     1       0.942   1.211   0.161  0.00  0.00    +0.263 C 
ATOM      4  H   UNL     1       0.335  -0.716  -0.304  0.00  0.00    +0.171 HD
ENDROOT
BRANCH   3   7
ATOM      5  C   UNL     1       4.112  -0.801   0.256  0.00  0.00    +0.000 C 
ATOM      6  C   UNL     1       5.064   0.162  -0.158  0.00  0.00    +0.003 C 
ATOM      7  C   UNL     1       2.353   0.866   0.048  0.00  0.00    +0.088 C 
ATOM      8  C   UNL     1       2.761  -0.432   0.354  0.00  0.00    +0.008 C 
ATOM      9  C   UNL     1       4.636   1.464  -0.462  0.00  0.00    +0.037 C 
ATOM     10  C   UNL     1       3.288   1.813  -0.359  0.00  0.00    +0.138 C 
ATOM     11  C   UNL     1       4.541  -2.103   0.561  0.00  0.00    +0.000 C 
ATOM     12  C   UNL     1       6.416  -0.207  -0.256  0.00  0.00    +0.000 C 
ATOM     13  C   UNL     1       5.888  -2.452   0.458  0.00  0.00    +0.000 C 
ATOM     14  C   UNL     1       6.824  -1.505   0.051  0.00  0.00    +0.000 C 
BRANCH  10  15
ATOM     15  O   UNL     1       2.909   3.086  -0.664  0.00  0.00    -0.505 OA
ATOM     16  H   UNL     1       2.007   3.334  -0.599  0.00  0.00    +0.292 HD
ENDBRANCH  10  15
ENDBRANCH   3   7
BRANCH   2  17
ATOM     17  N   UNL     1      -1.303   0.441   0.044  0.00  0.00    -0.126 NA
BRANCH  17  18
ATOM     18  C   UNL     1      -2.056  -0.584  -0.189  0.00  0.00    +0.141 C 
BRANCH  18  19
ATOM     19  C   UNL     1      -3.526  -0.504  -0.117  0.00  0.00    +0.034 C 
ATOM     20  C   UNL     1      -4.316  -1.625  -0.371  0.00  0.00    +0.134 C 
ATOM     21  C   UNL     1      -4.125   0.712   0.212  0.00  0.00    +0.040 C 
ATOM     22  C   UNL     1      -5.515   0.807   0.286  0.00  0.00    +0.167 C 
ATOM     23  C   UNL     1      -5.706  -1.530  -0.297  0.00  0.00    +0.076 C 
ATOM     24  C   UNL     1      -6.305  -0.314   0.031  0.00  0.00    +0.171 C 
BRANCH  20  25
ATOM     25  O   UNL     1      -3.750  -2.822  -0.694  0.00  0.00    -0.506 OA
ATOM     26  H   UNL     1      -2.818  -2.900  -0.747  0.00  0.00    +0.292 HD
ENDBRANCH  20  25
BRANCH  22  27
ATOM     27  O   UNL     1      -6.088   2.000   0.607  0.00  0.00    -0.503 OA
ATOM     28  H   UNL     1      -5.549   2.748   0.776  0.00  0.00    +0.292 HD
ENDBRANCH  22  27
BRANCH  24  29
ATOM     29  O   UNL     1      -7.663  -0.233   0.100  0.00  0.00    -0.503 OA
ATOM     30  H   UNL     1      -8.073   0.580   0.320  0.00  0.00    +0.292 HD
ENDBRANCH  24  29
ENDBRANCH  18  19
ENDBRANCH  17  18
ENDBRANCH   2  17
TORSDOF 8
