136272509
  -OEChem-03292013293D

 52 56  0     1  0  0  0  0  0999 V2000
   -2.8342   -1.2978   -0.9690 O   0  0  0  0  0  0  0  0  0  0  0  0
   -2.6023   -4.1726    0.0775 O   0  0  0  0  0  0  0  0  0  0  0  0
    1.0138   -2.2085    0.2649 O   0  5  0  0  0  0  0  0  0  0  0  0
   -5.4919   -0.4689   -0.7084 O   0  0  0  0  0  0  0  0  0  0  0  0
    0.2614    4.2182    0.3745 O   0  0  0  0  0  0  0  0  0  0  0  0
   -0.8528   -0.1303   -0.1398 N   0  0  0  0  0  0  0  0  0  0  0  0
    1.5318   -1.0569   -0.2844 N   0  3  2  0  0  0  0  0  0  0  0  0
    0.8373    1.3263    0.0141 N   0  0  0  0  0  0  0  0  0  0  0  0
   -2.7464    1.3631    0.0679 N   0  0  0  0  0  0  0  0  0  0  0  0
   -1.9964    3.6232    0.3325 N   0  0  0  0  0  0  0  0  0  0  0  0
    4.7548    0.9269   -2.2877 N   0  0  0  0  0  0  0  0  0  0  0  0
   -4.2946    3.1155    0.3020 N   0  0  0  0  0  0  0  0  0  0  0  0
   -1.5728   -1.4467   -0.2908 C   0  0  1  0  0  0  0  0  0  0  0  0
   -1.8795   -2.1171    1.0438 C   0  0  0  0  0  0  0  0  0  0  0  0
   -3.0720   -2.9777    0.6972 C   0  0  1  0  0  0  0  0  0  0  0  0
   -3.8195   -2.1309   -0.3249 C   0  0  1  0  0  0  0  0  0  0  0  0
    0.5078    0.0583   -0.1357 C   0  0  0  0  0  0  0  0  0  0  0  0
   -1.4220    1.0989    0.0176 C   0  0  0  0  0  0  0  0  0  0  0  0
    1.8043   -1.3314   -1.7445 C   0  0  0  0  0  0  0  0  0  0  0  0
    2.8209   -0.7447    0.4431 C   0  0  0  0  0  0  0  0  0  0  0  0
   -4.8601   -1.2205    0.3129 C   0  0  0  0  0  0  0  0  0  0  0  0
   -0.3620    1.9682    0.1088 C   0  0  0  0  0  0  0  0  0  0  0  0
    3.9360   -0.2102   -0.2531 C   0  0  0  0  0  0  0  0  0  0  0  0
    2.8201   -0.4553   -2.3906 C   0  0  0  0  0  0  0  0  0  0  0  0
    3.8351    0.0981   -1.7061 C   0  0  0  0  0  0  0  0  0  0  0  0
    2.9102   -0.9657    1.8326 C   0  0  0  0  0  0  0  0  0  0  0  0
   -0.6182    3.3712    0.2828 C   0  0  0  0  0  0  0  0  0  0  0  0
    5.1188    0.0353    0.4690 C   0  0  0  0  0  0  0  0  0  0  0  0
   -3.0104    2.6419    0.2271 C   0  0  0  0  0  0  0  0  0  0  0  0
    4.0889   -0.7007    2.5245 C   0  0  0  0  0  0  0  0  0  0  0  0
    5.1939   -0.2091    1.8420 C   0  0  0  0  0  0  0  0  0  0  0  0
   -0.9672   -2.0718   -0.9517 H   0  0  0  0  0  0  0  0  0  0  0  0
   -2.1664   -1.3687    1.7923 H   0  0  0  0  0  0  0  0  0  0  0  0
   -1.0411   -2.6906    1.4444 H   0  0  0  0  0  0  0  0  0  0  0  0
   -3.6693   -3.2604    1.5687 H   0  0  0  0  0  0  0  0  0  0  0  0
   -4.2837   -2.7375   -1.1105 H   0  0  0  0  0  0  0  0  0  0  0  0
    0.8430   -1.2549   -2.2653 H   0  0  0  0  0  0  0  0  0  0  0  0
    2.1364   -2.3758   -1.8131 H   0  0  0  0  0  0  0  0  0  0  0  0
   -5.6223   -1.8104    0.8317 H   0  0  0  0  0  0  0  0  0  0  0  0
   -4.4107   -0.5208    1.0229 H   0  0  0  0  0  0  0  0  0  0  0  0
    2.7151   -0.2715   -3.4565 H   0  0  0  0  0  0  0  0  0  0  0  0
   -3.3832   -4.6902   -0.1833 H   0  0  0  0  0  0  0  0  0  0  0  0
    2.0574   -1.3460    2.3898 H   0  0  0  0  0  0  0  0  0  0  0  0
    6.0122    0.4172   -0.0185 H   0  0  0  0  0  0  0  0  0  0  0  0
   -6.1509    0.1022   -0.2782 H   0  0  0  0  0  0  0  0  0  0  0  0
    4.1446   -0.8811    3.5938 H   0  0  0  0  0  0  0  0  0  0  0  0
   -2.2900    4.5882    0.4539 H   0  0  0  0  0  0  0  0  0  0  0  0
    6.1176   -0.0087    2.3773 H   0  0  0  0  0  0  0  0  0  0  0  0
    5.4325    1.4293   -1.7306 H   0  0  0  0  0  0  0  0  0  0  0  0
    4.6747    1.1424   -3.2742 H   0  0  0  0  0  0  0  0  0  0  0  0
   -5.0894    2.4887    0.2370 H   0  0  0  0  0  0  0  0  0  0  0  0
   -4.4880    4.1033    0.4247 H   0  0  0  0  0  0  0  0  0  0  0  0
  1 13  1  0  0  0  0
  1 16  1  0  0  0  0
  2 15  1  0  0  0  0
  2 42  1  0  0  0  0
  3  7  1  0  0  0  0
  4 21  1  0  0  0  0
  4 45  1  0  0  0  0
  5 27  2  0  0  0  0
  6 13  1  0  0  0  0
  6 17  1  0  0  0  0
  6 18  1  0  0  0  0
  7 17  1  0  0  0  0
  7 19  1  0  0  0  0
  7 20  1  0  0  0  0
  8 17  2  0  0  0  0
  8 22  1  0  0  0  0
  9 18  1  0  0  0  0
  9 29  2  0  0  0  0
 10 27  1  0  0  0  0
 10 29  1  0  0  0  0
 10 47  1  0  0  0  0
 11 25  1  0  0  0  0
 11 49  1  0  0  0  0
 11 50  1  0  0  0  0
 12 29  1  0  0  0  0
 12 51  1  0  0  0  0
 12 52  1  0  0  0  0
 13 14  1  0  0  0  0
 13 32  1  0  0  0  0
 14 15  1  0  0  0  0
 14 33  1  0  0  0  0
 14 34  1  0  0  0  0
 15 16  1  0  0  0  0
 15 35  1  0  0  0  0
 16 21  1  0  0  0  0
 16 36  1  0  0  0  0
 18 22  2  0  0  0  0
 19 24  1  0  0  0  0
 19 37  1  0  0  0  0
 19 38  1  0  0  0  0
 20 23  1  0  0  0  0
 20 26  2  0  0  0  0
 21 39  1  0  0  0  0
 21 40  1  0  0  0  0
 22 27  1  0  0  0  0
 23 25  1  0  0  0  0
 23 28  2  0  0  0  0
 24 25  2  0  0  0  0
 24 41  1  0  0  0  0
 26 30  1  0  0  0  0
 26 43  1  0  0  0  0
 28 31  1  0  0  0  0
 28 44  1  0  0  0  0
 30 31  2  0  0  0  0
 30 46  1  0  0  0  0
 31 48  1  0  0  0  0
M  CHG  2   3  -1   7   1
M  END
> <PUBCHEM_COMPOUND_CID>
136272509

> <PUBCHEM_CONFORMER_RMSD>
0.8

> <PUBCHEM_CONFORMER_DIVERSEORDER>
1
5
17
28
15
4
21
19
27
26
3
14
20
23
32
11
25
31
29
8
30
16
24
22
18
2
9
13
7
10
6
12

> <PUBCHEM_MMFF94_PARTIAL_CHARGES>
42
1 -0.56
10 -0.49
11 -0.9
12 -0.85
13 0.54
15 0.28
16 0.28
17 0.14
18 -0.03
19 0.39
2 -0.68
20 0.01
21 0.28
22 0.14
23 0.03
24 -0.29
25 0.07
26 -0.15
27 0.72
28 -0.15
29 0.56
3 -0.75
30 -0.15
31 -0.15
4 -0.68
41 0.15
42 0.4
43 0.15
44 0.15
45 0.4
46 0.15
47 0.37
48 0.15
49 0.4
5 -0.57
50 0.4
51 0.4
52 0.4
6 0.05
7 0.53
8 -0.57
9 -0.58

> <PUBCHEM_EFFECTIVE_ROTOR_COUNT>
4.4

> <PUBCHEM_PHARMACOPHORE_FEATURES>
16
1 1 acceptor
1 10 donor
1 11 cation
1 11 donor
1 12 donor
1 2 acceptor
1 2 donor
1 4 acceptor
1 4 donor
1 5 acceptor
4 6 7 8 17 cation
5 1 13 14 15 16 rings
5 6 8 17 18 22 rings
6 20 23 26 28 30 31 rings
6 7 19 20 23 24 25 rings
6 9 10 18 22 27 29 rings

> <PUBCHEM_HEAVY_ATOM_COUNT>
31

> <PUBCHEM_ATOM_DEF_STEREO_COUNT>
3

> <PUBCHEM_ATOM_UDEF_STEREO_COUNT>
1

> <PUBCHEM_BOND_DEF_STEREO_COUNT>
0

> <PUBCHEM_BOND_UDEF_STEREO_COUNT>
0

> <PUBCHEM_ISOTOPIC_ATOM_COUNT>
0

> <PUBCHEM_COMPONENT_COUNT>
1

> <PUBCHEM_CACTVS_TAUTO_COUNT>
-1

> <PUBCHEM_CONFORMER_ID>
081F5A7D00000001

> <PUBCHEM_MMFF94_ENERGY>
90.2083

> <PUBCHEM_FEATURE_SELFOVERLAP>
81.406

> <PUBCHEM_SHAPE_FINGERPRINT>
10319926 262 18198605663432552858
10369192 42 16700601519699308632
10675989 125 16749858128748413589
10906281 52 18340779195182190015
1100329 8 18410291415665527161
11049842 53 18121793724859787006
11578080 2 17418103082952027858
11640471 11 17677918772013230852
12160290 23 18200311001012784925
12236239 1 17749103418185470626
12553582 1 18339090375307796699
12788726 201 18334867129401322715
13009979 54 18114170892643797554
13140716 1 18412537730378785632
13782708 43 17489314066523376886
14081887 123 18341891848982481144
14178342 30 18337386020562690746
14251757 5 18337123331899436199
14289278 72 18124580995837766218
14400156 260 18194406585782170249
14790565 3 17908722634957255873
15238133 3 18333726931759711943
15324884 4 17775573043821528374
161222 619 17201327867356362536
16752209 62 18410297999222501311
16992727 255 18045472276717124069
17349148 13 17967532359288330946
17818456 19 18262227803624067898
17974551 9 17551188963112177346
1813 80 18129105691457731374
19319366 153 17821443573727011923
20511986 3 17749374984297582870
20600515 1 18270956976560110475
20642791 13 18201148867928743581
20642791 35 18194974156107428509
21033648 29 17346604096825065571
21304303 282 17830419853195249029
22149856 69 17545616556800737025
22182313 1 17846782884113353030
23419403 2 17829295280348664476
23557571 272 18272938198029424844
23559900 14 18199194064475718941
25147074 1 17967537844351509814
3052486 1 18409166576119240672
3411729 13 17908140232895854432
392239 28 18117822499455459378
469060 322 18339936969132883115
57527293 21 17774707775642260518
6004065 56 18126549336257268911
7226269 152 18335690646810615027
81228 2 18271258127029644443
9658208 31 17841726118368289233

> <PUBCHEM_SHAPE_MULTIPOLES>
573.75
10.21
4.19
1.75
1.99
2.78
-0.27
-2.35
0.79
-6.23
0.83
3.39
-0.5
-0.72

> <PUBCHEM_SHAPE_SELFOVERLAP>
1269.184

> <PUBCHEM_SHAPE_VOLUME>
301.6

> <PUBCHEM_COORDINATE_TYPE>
2
5
10

$$$$
