REMARK  Name = 136218209
REMARK  5 active torsions:
REMARK  status: ('A' for Active; 'I' for Inactive)
REMARK    1  A    between atoms: N_2  and  C1*_34
REMARK    2  A    between atoms: N_3  and  C_17
REMARK    3  A    between atoms: C3*_36  and  O3*_38
REMARK    4  A    between atoms: C4*_37  and  C5*_40
REMARK    5  A    between atoms: C5*_40  and  O5*_41
REMARK                            x       y       z     vdW  Elec       q    Type
REMARK                         _______ _______ _______ _____ _____    ______ ____
ROOT
ATOM      1  O   UNL     1      -2.340  -4.380   0.165  0.00  0.00    -0.267 OA
ATOM      2  N   UNL     1      -2.583   0.124  -0.106  0.00  0.00    -0.200 N 
ATOM      3  N   UNL     1      -0.233   0.612  -0.108  0.00  0.00    -0.275 N 
ATOM      4  N   UNL     1      -1.210  -1.637   0.014  0.00  0.00    -0.364 NA
ATOM      5  N   UNL     1      -4.734  -0.987  -0.063  0.00  0.00    -0.355 NA
ATOM      6  N   UNL     1      -4.440  -3.360   0.082  0.00  0.00    -0.242 N 
ATOM      7  N   UNL     1      -6.596  -2.417   0.002  0.00  0.00    -0.321 N 
ATOM      8  C   UNL     1      -1.285  -0.323  -0.065  0.00  0.00    +0.250 C 
ATOM      9  C   UNL     1      -3.382  -0.980  -0.049  0.00  0.00    +0.229 C 
ATOM     10  C   UNL     1      -2.512  -2.041   0.024  0.00  0.00    +0.232 C 
ATOM     11  C   UNL     1      -3.038  -3.376   0.098  0.00  0.00    +0.286 C 
ATOM     12  C   UNL     1      -5.243  -2.198   0.004  0.00  0.00    +0.240 C 
ATOM     13  H   UNL     1      -0.536   1.546  -0.168  0.00  0.00    +0.156 HD
ATOM     14  H   UNL     1      -4.903  -4.228   0.128  0.00  0.00    +0.159 HD
ATOM     15  H   UNL     1      -7.218  -1.656  -0.050  0.00  0.00    +0.146 HD
ATOM     16  H   UNL     1      -6.945  -3.336   0.052  0.00  0.00    +0.146 HD
ENDROOT
BRANCH   3  17
ATOM     17  C   UNL     1       1.171   0.472  -0.084  0.00  0.00    +0.051 C 
ATOM     18  C   UNL     1       3.961   0.194  -0.037  0.00  0.00    +0.000 C 
ATOM     19  C   UNL     1       5.371   0.054  -0.013  0.00  0.00    +0.000 C 
ATOM     20  C   UNL     1       3.136  -0.953   0.022  0.00  0.00    +0.001 C 
ATOM     21  C   UNL     1       3.380   1.481  -0.121  0.00  0.00    +0.001 C 
ATOM     22  C   UNL     1       1.742  -0.797  -0.002  0.00  0.00    +0.015 C 
ATOM     23  C   UNL     1       1.983   1.603  -0.143  0.00  0.00    +0.015 C 
ATOM     24  C   UNL     1       6.196   1.201  -0.073  0.00  0.00    +0.000 C 
ATOM     25  C   UNL     1       5.952  -1.233   0.070  0.00  0.00    +0.000 C 
ATOM     26  C   UNL     1       3.729  -2.219   0.104  0.00  0.00    +0.000 C 
ATOM     27  C   UNL     1       4.214   2.606  -0.179  0.00  0.00    +0.000 C 
ATOM     28  C   UNL     1       5.603   2.468  -0.155  0.00  0.00    +0.000 C 
ATOM     29  C   UNL     1       5.118  -2.357   0.128  0.00  0.00    +0.000 C 
ATOM     30  C   UNL     1       7.590   1.046  -0.049  0.00  0.00    +0.000 C 
ATOM     31  C   UNL     1       7.349  -1.355   0.092  0.00  0.00    +0.000 C 
ATOM     32  C   UNL     1       8.161  -0.223   0.034  0.00  0.00    +0.000 C 
ENDBRANCH   3  17
BRANCH   2  34
ATOM     33  O4* UNL     1      -4.285   1.676  -0.924  0.00  0.00    -0.335 OA
ATOM     34  C1* UNL     1      -3.050   1.555  -0.195  0.00  0.00    +0.203 C 
ATOM     35  C2* UNL     1      -3.292   2.191   1.169  0.00  0.00    +0.083 C 
ATOM     36  C3* UNL     1      -4.294   3.273   0.839  0.00  0.00    +0.144 C 
ATOM     37  C4* UNL     1      -5.133   2.637  -0.262  0.00  0.00    +0.173 C 
BRANCH  36  38
ATOM     38  O3* UNL     1      -3.590   4.396   0.314  0.00  0.00    -0.382 OA
ATOM     39  H3* UNL     1      -3.056   4.800   1.016  0.00  0.00    +0.210 HD
ENDBRANCH  36  38
BRANCH  37  40
ATOM     40  C5* UNL     1      -6.349   1.896   0.279  0.00  0.00    +0.169 C 
BRANCH  40  41
ATOM     41  O5* UNL     1      -7.070   1.350  -0.812  0.00  0.00    -0.379 OA
ATOM     42  H5* UNL     1      -7.848   0.875  -0.480  0.00  0.00    +0.211 HD
ENDBRANCH  40  41
ENDBRANCH  37  40
ENDBRANCH   2  34
TORSDOF 5
