REMARK  Name = 136272509
REMARK  6 active torsions:
REMARK  status: ('A' for Active; 'I' for Inactive)
REMARK    1  A    between atoms: N_2  and  C1*_30
REMARK    2  A    between atoms: C_7  and  N_16
REMARK    3  A    between atoms: C_21  and  N_26
REMARK    4  A    between atoms: C3*_32  and  O3*_34
REMARK    5  A    between atoms: C4*_33  and  C5*_36
REMARK    6  A    between atoms: C5*_36  and  O5*_37
REMARK                            x       y       z     vdW  Elec       q    Type
REMARK                         _______ _______ _______ _____ _____    ______ ____
ROOT
ATOM      1  O   UNL     1       0.261   4.218   0.374  0.00  0.00    -0.267 OA
ATOM      2  N   UNL     1      -0.853  -0.130  -0.140  0.00  0.00    -0.197 N 
ATOM      3  N   UNL     1       0.837   1.326   0.014  0.00  0.00    -0.361 NA
ATOM      4  N   UNL     1      -2.746   1.363   0.068  0.00  0.00    -0.355 NA
ATOM      5  N   UNL     1      -1.996   3.623   0.333  0.00  0.00    -0.242 N 
ATOM      6  N   UNL     1      -4.295   3.115   0.302  0.00  0.00    -0.321 N 
ATOM      7  C   UNL     1       0.508   0.058  -0.136  0.00  0.00    +0.270 C 
ATOM      8  C   UNL     1      -1.422   1.099   0.018  0.00  0.00    +0.229 C 
ATOM      9  C   UNL     1      -0.362   1.968   0.109  0.00  0.00    +0.232 C 
ATOM     10  C   UNL     1      -0.618   3.371   0.283  0.00  0.00    +0.286 C 
ATOM     11  C   UNL     1      -3.010   2.642   0.227  0.00  0.00    +0.240 C 
ATOM     12  H   UNL     1      -2.282   4.558   0.450  0.00  0.00    +0.159 HD
ATOM     13  H   UNL     1      -5.054   2.492   0.237  0.00  0.00    +0.146 HD
ATOM     14  H   UNL     1      -4.458   4.079   0.421  0.00  0.00    +0.146 HD
ENDROOT
BRANCH   7  16
ATOM     15  O   UNL     1       1.014  -2.208   0.265  0.00  0.00    -0.097 OA
ATOM     16  N   UNL     1       1.532  -1.057  -0.284  0.00  0.00    -0.220 NA
ATOM     17  C   UNL     1       1.804  -1.331  -1.744  0.00  0.00    +0.148 C 
ATOM     18  C   UNL     1       2.821  -0.745   0.443  0.00  0.00    +0.074 C 
ATOM     19  C   UNL     1       3.936  -0.210  -0.253  0.00  0.00    +0.029 C 
ATOM     20  C   UNL     1       2.820  -0.455  -2.391  0.00  0.00    +0.013 C 
ATOM     21  C   UNL     1       3.835   0.098  -1.706  0.00  0.00    +0.040 C 
ATOM     22  C   UNL     1       2.910  -0.966   1.833  0.00  0.00    +0.018 C 
ATOM     23  C   UNL     1       5.119   0.035   0.469  0.00  0.00    +0.003 C 
ATOM     24  C   UNL     1       4.089  -0.701   2.525  0.00  0.00    +0.001 C 
ATOM     25  C   UNL     1       5.194  -0.209   1.842  0.00  0.00    +0.000 C 
BRANCH  21  26
ATOM     26  N   UNL     1       4.755   0.927  -2.288  0.00  0.00    -0.357 N 
ATOM     27  H   UNL     1       5.483   1.310  -1.747  0.00  0.00    +0.142 HD
ATOM     28  H   UNL     1       4.689   1.140  -3.247  0.00  0.00    +0.142 HD
ENDBRANCH  21  26
ENDBRANCH   7  16
BRANCH   2  30
ATOM     29  O4* UNL     1      -2.834  -1.298  -0.969  0.00  0.00    -0.335 OA
ATOM     30  C1* UNL     1      -1.573  -1.447  -0.291  0.00  0.00    +0.203 C 
ATOM     31  C2* UNL     1      -1.879  -2.117   1.044  0.00  0.00    +0.083 C 
ATOM     32  C3* UNL     1      -3.072  -2.978   0.697  0.00  0.00    +0.144 C 
ATOM     33  C4* UNL     1      -3.820  -2.131  -0.325  0.00  0.00    +0.173 C 
BRANCH  32  34
ATOM     34  O3* UNL     1      -2.602  -4.173   0.077  0.00  0.00    -0.382 OA
ATOM     35  H3* UNL     1      -2.127  -4.710   0.730  0.00  0.00    +0.210 HD
ENDBRANCH  32  34
BRANCH  33  36
ATOM     36  C5* UNL     1      -4.860  -1.220   0.313  0.00  0.00    +0.169 C 
BRANCH  36  37
ATOM     37  O5* UNL     1      -5.492  -0.469  -0.708  0.00  0.00    -0.379 OA
ATOM     38  H5* UNL     1      -6.158   0.116  -0.314  0.00  0.00    +0.211 HD
ENDBRANCH  36  37
ENDBRANCH  33  36
ENDBRANCH   2  30
TORSDOF 6
