136267826
  -OEChem-03292013293D

 38 42  0     0  0  0  0  0  0999 V2000
    0.6072   -0.8110   -2.5101 O   0  0  0  0  0  0  0  0  0  0  0  0
   -3.2594    2.2803    2.0582 O   0  0  0  0  0  0  0  0  0  0  0  0
    2.9896   -2.1893    2.6421 O   0  0  0  0  0  0  0  0  0  0  0  0
   -3.7935   -1.7241    0.6376 N   0  0  0  0  0  0  0  0  0  0  0  0
   -0.7772    2.2866   -0.1626 N   0  0  0  0  0  0  0  0  0  0  0  0
    3.2940    1.6473   -1.2622 N   0  0  0  0  0  0  0  0  0  0  0  0
   -2.1631   -0.4098   -0.1184 C   0  0  0  0  0  0  0  0  0  0  0  0
   -0.9898   -0.1013   -0.8341 C   0  0  0  0  0  0  0  0  0  0  0  0
   -0.2571    1.1676   -0.5362 C   0  0  0  0  0  0  0  0  0  0  0  0
   -2.9797    0.3341    0.7745 C   0  0  0  0  0  0  0  0  0  0  0  0
   -2.7305   -1.6771   -0.2369 C   0  0  0  0  0  0  0  0  0  0  0  0
    1.2306    1.1461   -0.6155 C   0  0  0  0  0  0  0  0  0  0  0  0
    2.1381    0.3458    0.1332 C   0  0  0  0  0  0  0  0  0  0  0  0
   -0.4855   -1.0581   -1.7305 C   0  0  0  0  0  0  0  0  0  0  0  0
   -3.9440   -0.5150    1.2676 C   0  0  0  0  0  0  0  0  0  0  0  0
    3.4259    0.6797   -0.2920 C   0  0  0  0  0  0  0  0  0  0  0  0
   -2.8378    1.7491    1.0354 C   0  0  0  0  0  0  0  0  0  0  0  0
   -2.2028    2.5458   -0.0846 C   0  0  0  0  0  0  0  0  0  0  0  0
   -2.2243   -2.6466   -1.1069 C   0  0  0  0  0  0  0  0  0  0  0  0
    1.9710    1.9360   -1.4646 C   0  0  0  0  0  0  0  0  0  0  0  0
   -1.1018   -2.3035   -1.8669 C   0  0  0  0  0  0  0  0  0  0  0  0
    1.9873   -0.6335    1.1348 C   0  0  0  0  0  0  0  0  0  0  0  0
    4.5748    0.0805    0.2365 C   0  0  0  0  0  0  0  0  0  0  0  0
    3.1275   -1.2413    1.6728 C   0  0  0  0  0  0  0  0  0  0  0  0
    4.4005   -0.8883    1.2289 C   0  0  0  0  0  0  0  0  0  0  0  0
   -4.7547   -0.3583    1.9655 H   0  0  0  0  0  0  0  0  0  0  0  0
   -4.3896   -2.5278    0.7795 H   0  0  0  0  0  0  0  0  0  0  0  0
   -2.7095    2.3428   -1.0354 H   0  0  0  0  0  0  0  0  0  0  0  0
   -2.3560    3.6099    0.1269 H   0  0  0  0  0  0  0  0  0  0  0  0
   -2.6843   -3.6247   -1.1972 H   0  0  0  0  0  0  0  0  0  0  0  0
    1.6780    2.6767   -2.1957 H   0  0  0  0  0  0  0  0  0  0  0  0
   -0.7044   -3.0413   -2.5609 H   0  0  0  0  0  0  0  0  0  0  0  0
    4.0631    2.0812   -1.7537 H   0  0  0  0  0  0  0  0  0  0  0  0
    0.9969   -0.9101    1.4859 H   0  0  0  0  0  0  0  0  0  0  0  0
    5.5661    0.3547   -0.1083 H   0  0  0  0  0  0  0  0  0  0  0  0
    5.2769   -1.3697    1.6566 H   0  0  0  0  0  0  0  0  0  0  0  0
    0.8004   -1.5918   -3.0565 H   0  0  0  0  0  0  0  0  0  0  0  0
    2.0433   -2.3129    2.8302 H   0  0  0  0  0  0  0  0  0  0  0  0
  1 14  1  0  0  0  0
  1 37  1  0  0  0  0
  2 17  2  0  0  0  0
  3 24  1  0  0  0  0
  3 38  1  0  0  0  0
  4 11  1  0  0  0  0
  4 15  1  0  0  0  0
  4 27  1  0  0  0  0
  5  9  2  0  0  0  0
  5 18  1  0  0  0  0
  6 16  1  0  0  0  0
  6 20  1  0  0  0  0
  6 33  1  0  0  0  0
  7  8  1  0  0  0  0
  7 10  1  0  0  0  0
  7 11  2  0  0  0  0
  8  9  1  0  0  0  0
  8 14  2  0  0  0  0
  9 12  1  0  0  0  0
 10 15  2  0  0  0  0
 10 17  1  0  0  0  0
 11 19  1  0  0  0  0
 12 13  1  0  0  0  0
 12 20  2  0  0  0  0
 13 16  2  0  0  0  0
 13 22  1  0  0  0  0
 14 21  1  0  0  0  0
 15 26  1  0  0  0  0
 16 23  1  0  0  0  0
 17 18  1  0  0  0  0
 18 28  1  0  0  0  0
 18 29  1  0  0  0  0
 19 21  2  0  0  0  0
 19 30  1  0  0  0  0
 20 31  1  0  0  0  0
 21 32  1  0  0  0  0
 22 24  2  0  0  0  0
 22 34  1  0  0  0  0
 23 25  2  0  0  0  0
 23 35  1  0  0  0  0
 24 25  1  0  0  0  0
 25 36  1  0  0  0  0
M  END
> <PUBCHEM_COMPOUND_CID>
136267826

> <PUBCHEM_CONFORMER_RMSD>
0.6

> <PUBCHEM_CONFORMER_DIVERSEORDER>
1
4
3
2

> <PUBCHEM_MMFF94_PARTIAL_CHARGES>
34
1 -0.53
10 -0.09
11 -0.15
12 -0.09
14 0.08
15 -0.3
16 -0.15
17 0.6
18 0.31
19 -0.15
2 -0.57
20 -0.3
21 -0.15
22 -0.15
23 -0.15
24 0.08
25 -0.15
26 0.15
27 0.27
3 -0.53
30 0.15
31 0.15
32 0.15
33 0.27
34 0.15
35 0.15
36 0.15
37 0.45
38 0.45
4 0.03
5 -0.7
6 0.03
8 0.09
9 0.45

> <PUBCHEM_EFFECTIVE_ROTOR_COUNT>
1.2

> <PUBCHEM_PHARMACOPHORE_FEATURES>
13
1 1 donor
1 2 acceptor
1 3 donor
1 4 cation
1 4 donor
1 5 acceptor
1 6 cation
1 6 donor
5 4 7 10 11 15 rings
5 6 12 13 16 20 rings
6 13 16 22 23 24 25 rings
6 7 8 11 14 19 21 rings
7 5 7 8 9 10 17 18 rings

> <PUBCHEM_HEAVY_ATOM_COUNT>
25

> <PUBCHEM_ATOM_DEF_STEREO_COUNT>
0

> <PUBCHEM_ATOM_UDEF_STEREO_COUNT>
0

> <PUBCHEM_BOND_DEF_STEREO_COUNT>
0

> <PUBCHEM_BOND_UDEF_STEREO_COUNT>
0

> <PUBCHEM_ISOTOPIC_ATOM_COUNT>
0

> <PUBCHEM_COMPONENT_COUNT>
1

> <PUBCHEM_CACTVS_TAUTO_COUNT>
-1

> <PUBCHEM_CONFORMER_ID>
081F483200000001

> <PUBCHEM_MMFF94_ENERGY>
72.8888

> <PUBCHEM_FEATURE_SELFOVERLAP>
66.203

> <PUBCHEM_SHAPE_FINGERPRINT>
10165383 225 16772137879835406751
10369192 42 15478717640654859992
10764073 3 15439028066419904997
11273773 118 15551595367530279370
11725454 13 15984818182062613685
12363563 72 13551476989871093115
12553582 1 18267580380667101118
12633257 1 18190467051844572225
12788726 201 18198631119255225139
13140716 1 17699296769828437391
13583140 156 17967537908391495365
13726171 33 17843714224433693160
13911987 19 16590287556364682676
13965767 371 18122084021293336345
14251764 3 16773790372971511985
14787075 74 17110175256504583293
15295992 7 15410896279665101706
15375462 189 18262518233327372326
15403338 16 18040433300462231971
16110190 28 18123743155076674226
16752209 62 18272927237288800837
16945 1 17845384387196232333
17349148 13 18130215047698819327
17357779 13 14851607686804782950
1813 80 17822019696402437694
19377110 9 18263912389320135848
21033648 29 16773792563431272128
21427221 339 18336271132688101818
21731516 1 18264472039931181606
22112679 90 18127685148209509294
22182313 1 18056788471764361837
23559900 14 17984726431918344119
23598288 3 18410005529108193381
25222932 49 17757576400981843315
35225 105 17774994708926370715
392239 28 17759809534487377848
484985 159 17461696442650857451
5265222 85 17488475229846493340
59444896 2 11477868867560418199
7097593 13 18189052014813111696
81228 2 16556197189270100271
84936 31 16010462246386352980
90316 7 18341613763030716733
90525 40 18412260623177527831
9862522 239 18131349674752405693

> <PUBCHEM_SHAPE_MULTIPOLES>
481.94
7.71
2.81
2.06
3.92
0.22
0.17
-0.88
3.96
-1.91
-0.21
0.63
-0.77
-2.54

> <PUBCHEM_SHAPE_SELFOVERLAP>
1114.483

> <PUBCHEM_SHAPE_VOLUME>
245.3

> <PUBCHEM_COORDINATE_TYPE>
2
5
10

$$$$
