REMARK  Name = 136267826
REMARK  3 active torsions:
REMARK  status: ('A' for Active; 'I' for Inactive)
REMARK    1  A    between atoms: C_6  and  C_17
REMARK    2  A    between atoms: C_9  and  O_28
REMARK    3  A    between atoms: C_23  and  O_26
REMARK                            x       y       z     vdW  Elec       q    Type
REMARK                         _______ _______ _______ _____ _____    ______ ____
ROOT
ATOM      1  O   UNL     1      -3.259   2.280   2.058  0.00  0.00    -0.289 OA
ATOM      2  N   UNL     1      -3.793  -1.724   0.638  0.00  0.00    -0.311 N 
ATOM      3  N   UNL     1      -0.777   2.287  -0.163  0.00  0.00    -0.262 NA
ATOM      4  C   UNL     1      -2.163  -0.410  -0.118  0.00  0.00    +0.022 C 
ATOM      5  C   UNL     1      -0.990  -0.101  -0.834  0.00  0.00    +0.052 C 
ATOM      6  C   UNL     1      -0.257   1.168  -0.536  0.00  0.00    +0.081 C 
ATOM      7  C   UNL     1      -2.980   0.334   0.774  0.00  0.00    +0.053 C 
ATOM      8  C   UNL     1      -2.731  -1.677  -0.237  0.00  0.00    +0.049 C 
ATOM      9  C   UNL     1      -0.485  -1.058  -1.730  0.00  0.00    +0.135 C 
ATOM     10  C   UNL     1      -3.944  -0.515   1.268  0.00  0.00    +0.065 C 
ATOM     11  C   UNL     1      -2.838   1.749   1.035  0.00  0.00    +0.199 C 
ATOM     12  C   UNL     1      -2.203   2.546  -0.085  0.00  0.00    +0.194 C 
ATOM     13  C   UNL     1      -2.224  -2.647  -1.107  0.00  0.00    +0.018 C 
ATOM     14  C   UNL     1      -1.102  -2.304  -1.867  0.00  0.00    +0.038 C 
ATOM     15  H   UNL     1      -4.364  -2.512   0.789  0.00  0.00    +0.152 HD
ENDROOT
BRANCH   6  17
ATOM     16  N   UNL     1       3.294   1.647  -1.262  0.00  0.00    -0.312 N 
ATOM     17  C   UNL     1       1.231   1.146  -0.616  0.00  0.00    +0.033 C 
ATOM     18  C   UNL     1       2.138   0.346   0.133  0.00  0.00    +0.019 C 
ATOM     19  C   UNL     1       3.426   0.680  -0.292  0.00  0.00    +0.049 C 
ATOM     20  C   UNL     1       1.971   1.936  -1.465  0.00  0.00    +0.063 C 
ATOM     21  C   UNL     1       1.987  -0.633   1.135  0.00  0.00    +0.038 C 
ATOM     22  C   UNL     1       4.575   0.081   0.236  0.00  0.00    +0.018 C 
ATOM     23  C   UNL     1       3.127  -1.241   1.673  0.00  0.00    +0.134 C 
ATOM     24  C   UNL     1       4.401  -0.888   1.229  0.00  0.00    +0.038 C 
ATOM     25  H   UNL     1       4.043   2.071  -1.741  0.00  0.00    +0.152 HD
BRANCH  23  26
ATOM     26  O   UNL     1       2.990  -2.189   2.642  0.00  0.00    -0.506 OA
ATOM     27  H   UNL     1       2.136  -2.430   2.944  0.00  0.00    +0.292 HD
ENDBRANCH  23  26
ENDBRANCH   6  17
BRANCH   9  28
ATOM     28  O   UNL     1       0.607  -0.811  -2.510  0.00  0.00    -0.505 OA
ATOM     29  H   UNL     1       1.050   0.013  -2.449  0.00  0.00    +0.292 HD
ENDBRANCH   9  28
TORSDOF 3
