136276948
  -OEChem-03292013293D

 31 33  0     1  0  0  0  0  0999 V2000
   -4.7451    1.8182   -0.5434 S   0  0  0  0  0  0  0  0  0  0  0  0
    2.0545    0.1676    0.9948 O   0  0  0  0  0  0  0  0  0  0  0  0
    1.9430   -2.7357   -0.4234 O   0  0  0  0  0  0  0  0  0  0  0  0
    2.4926    0.4815   -1.9539 O   0  0  0  0  0  0  0  0  0  0  0  0
    4.4254    1.5416    1.5871 O   0  0  0  0  0  0  0  0  0  0  0  0
   -0.2371    0.0998    0.1729 N   0  0  0  0  0  0  0  0  0  0  0  0
   -0.1394    1.3790   -0.2462 N   0  0  0  0  0  0  0  0  0  0  0  0
   -1.9799   -1.5086    0.6462 N   0  0  0  0  0  0  0  0  0  0  0  0
   -4.2298   -0.7282    0.3155 N   0  0  0  0  0  0  0  0  0  0  0  0
    1.5897   -1.3957   -0.7603 C   0  0  1  0  0  0  0  0  0  0  0  0
    1.0179   -0.6895    0.4755 C   0  0  1  0  0  0  0  0  0  0  0  0
    2.8357   -0.5992   -1.0956 C   0  0  2  0  0  0  0  0  0  0  0  0
    3.2693   -0.0821    0.2695 C   0  0  1  0  0  0  0  0  0  0  0  0
    4.1114    1.1807    0.2517 C   0  0  0  0  0  0  0  0  0  0  0  0
   -1.5215   -0.3091    0.2662 C   0  0  0  0  0  0  0  0  0  0  0  0
   -2.3363    0.7298   -0.1031 C   0  0  0  0  0  0  0  0  0  0  0  0
   -1.4174    1.7555   -0.4116 C   0  0  0  0  0  0  0  0  0  0  0  0
   -3.7794    0.5325   -0.0858 C   0  0  0  0  0  0  0  0  0  0  0  0
   -3.3537   -1.6383    0.6441 C   0  0  0  0  0  0  0  0  0  0  0  0
    0.8769   -1.4411   -1.5906 H   0  0  0  0  0  0  0  0  0  0  0  0
    0.7349   -1.3866    1.2721 H   0  0  0  0  0  0  0  0  0  0  0  0
    3.6275   -1.1865   -1.5710 H   0  0  0  0  0  0  0  0  0  0  0  0
    3.7930   -0.8707    0.8250 H   0  0  0  0  0  0  0  0  0  0  0  0
    3.5622    2.0196   -0.1875 H   0  0  0  0  0  0  0  0  0  0  0  0
    5.0420    1.0243   -0.3023 H   0  0  0  0  0  0  0  0  0  0  0  0
    1.1244   -3.1969   -0.1727 H   0  0  0  0  0  0  0  0  0  0  0  0
    2.1787    0.1001   -2.7915 H   0  0  0  0  0  0  0  0  0  0  0  0
   -1.6123    2.7631   -0.7506 H   0  0  0  0  0  0  0  0  0  0  0  0
   -1.3818   -2.2828    0.9157 H   0  0  0  0  0  0  0  0  0  0  0  0
    4.9666    2.3485    1.5460 H   0  0  0  0  0  0  0  0  0  0  0  0
   -3.6859   -2.6389    0.9628 H   0  0  0  0  0  0  0  0  0  0  0  0
  1 18  2  0  0  0  0
  2 11  1  0  0  0  0
  2 13  1  0  0  0  0
  3 10  1  0  0  0  0
  3 26  1  0  0  0  0
  4 12  1  0  0  0  0
  4 27  1  0  0  0  0
  5 14  1  0  0  0  0
  5 30  1  0  0  0  0
  6  7  1  0  0  0  0
  6 11  1  0  0  0  0
  6 15  1  0  0  0  0
  7 17  2  0  0  0  0
  8 15  1  0  0  0  0
  8 19  1  0  0  0  0
  8 29  1  0  0  0  0
  9 18  1  0  0  0  0
  9 19  2  0  0  0  0
 10 11  1  0  0  0  0
 10 12  1  0  0  0  0
 10 20  1  0  0  0  0
 11 21  1  0  0  0  0
 12 13  1  0  0  0  0
 12 22  1  0  0  0  0
 13 14  1  0  0  0  0
 13 23  1  0  0  0  0
 14 24  1  0  0  0  0
 14 25  1  0  0  0  0
 15 16  2  0  0  0  0
 16 17  1  0  0  0  0
 16 18  1  0  0  0  0
 17 28  1  0  0  0  0
 19 31  1  0  0  0  0
M  END
> <PUBCHEM_COMPOUND_CID>
136276948

> <PUBCHEM_CONFORMER_RMSD>
0.6

> <PUBCHEM_CONFORMER_DIVERSEORDER>
1
7
11
5
12
14
9
3
13
4
10
8
6
2

> <PUBCHEM_MMFF94_PARTIAL_CHARGES>
25
1 -0.38
10 0.28
11 0.54
12 0.28
13 0.28
14 0.28
15 -0.07
16 -0.09
17 0.14
18 0.68
19 0.44
2 -0.56
26 0.4
27 0.4
28 0.15
29 0.4
3 -0.68
30 0.4
31 0.06
4 -0.68
5 -0.68
6 0.31
7 -0.71
8 -0.53
9 -0.66

> <PUBCHEM_EFFECTIVE_ROTOR_COUNT>
3

> <PUBCHEM_PHARMACOPHORE_FEATURES>
14
1 1 acceptor
1 2 acceptor
1 3 acceptor
1 3 donor
1 4 acceptor
1 4 donor
1 5 acceptor
1 5 donor
1 7 acceptor
1 8 donor
3 8 9 19 cation
5 2 10 11 12 13 rings
5 6 7 15 16 17 rings
6 8 9 15 16 18 19 rings

> <PUBCHEM_HEAVY_ATOM_COUNT>
19

> <PUBCHEM_ATOM_DEF_STEREO_COUNT>
4

> <PUBCHEM_ATOM_UDEF_STEREO_COUNT>
0

> <PUBCHEM_BOND_DEF_STEREO_COUNT>
0

> <PUBCHEM_BOND_UDEF_STEREO_COUNT>
0

> <PUBCHEM_ISOTOPIC_ATOM_COUNT>
0

> <PUBCHEM_COMPONENT_COUNT>
1

> <PUBCHEM_CACTVS_TAUTO_COUNT>
-1

> <PUBCHEM_CONFORMER_ID>
081F6BD400000001

> <PUBCHEM_MMFF94_ENERGY>
50.1599

> <PUBCHEM_FEATURE_SELFOVERLAP>
71.158

> <PUBCHEM_SHAPE_FINGERPRINT>
10498660 4 18408890615822743221
10608611 8 18339641144274848737
11132069 177 18260831496796908709
12173636 292 18189613844197027813
12236239 1 17095243627154960472
12403259 415 18343023328648154440
13214271 11 18410848897692479165
13296908 3 18272093781615530271
13544592 145 18195533597267618015
14866123 147 10813221264880286068
15196674 1 18408322164237664251
15219456 202 18342458131719864571
15375358 24 18411695487265055281
16945 1 18336277777097512509
17980427 23 17822570624594788860
18186145 218 17749673961503609631
19784866 170 18410855481740245912
200 152 17274535434692650015
20279233 1 18413672396239473827
20510252 161 18340206280968290081
20645477 56 18260831449942801581
20645477 70 17632013044292250375
23402539 116 18187358839883928750
23557571 272 18336272305208872588
23559900 14 18336270033398202062
296302 2 18272086106413961705
34934 24 18408878525827116071
474 4 15937839494792493076
495365 180 17844793820344667139
5104073 3 18336829697738455379
633830 44 16773252699106492143
7364860 26 18268146457779038098
81228 2 18115320964093948585
9709674 26 18409735036621600471

> <PUBCHEM_SHAPE_MULTIPOLES>
351.46
8.88
2.07
1.11
1.87
0.5
-0.17
-2.91
0.73
0.37
-0.02
-1.12
-0.15
1.43

> <PUBCHEM_SHAPE_SELFOVERLAP>
748.785

> <PUBCHEM_SHAPE_VOLUME>
197.6

> <PUBCHEM_COORDINATE_TYPE>
2
5
10

$$$$
