136259909
  -OEChem-03292013293D

 55 57  0     1  0  0  0  0  0999 V2000
   -3.0847   -0.2906    1.1548 O   0  0  0  0  0  0  0  0  0  0  0  0
   -1.6446    0.6521   -0.4788 O   0  0  0  0  0  0  0  0  0  0  0  0
   -5.6561    2.2088   -0.9293 O   0  0  0  0  0  0  0  0  0  0  0  0
   -5.9253   -0.6224   -1.1712 O   0  0  0  0  0  0  0  0  0  0  0  0
   -4.2225    2.3319    1.4528 O   0  0  0  0  0  0  0  0  0  0  0  0
    2.7506   -1.9838   -0.6992 O   0  0  0  0  0  0  0  0  0  0  0  0
    5.3358   -1.2927   -0.3904 O   0  0  0  0  0  0  0  0  0  0  0  0
    4.1286    3.2444    0.4199 O   0  0  0  0  0  0  0  0  0  0  0  0
   -0.5857   -3.7608   -1.0071 O   0  0  0  0  0  0  0  0  0  0  0  0
    0.2301   -1.3274   -0.7409 N   0  0  0  0  0  0  0  0  0  0  0  0
    0.0216   -1.9439    0.3256 N   0  0  0  0  0  0  0  0  0  0  0  0
   -4.5782    1.3014   -0.7110 C   0  0  2  0  0  0  0  0  0  0  0  0
   -5.1305   -0.0126   -0.1570 C   0  0  2  0  0  0  0  0  0  0  0  0
   -3.5647    1.9192    0.2538 C   0  0  2  0  0  0  0  0  0  0  0  0
   -3.9767   -0.9420    0.2447 C   0  0  2  0  0  0  0  0  0  0  0  0
   -2.4893    0.9048    0.6386 C   0  0  1  0  0  0  0  0  0  0  0  0
   -4.4761   -2.2065    0.9382 C   0  0  0  0  0  0  0  0  0  0  0  0
   -0.3181    0.9584   -0.3295 C   0  0  0  0  0  0  0  0  0  0  0  0
    0.6662   -0.0222   -0.4558 C   0  0  0  0  0  0  0  0  0  0  0  0
    2.0239    0.3011   -0.3008 C   0  0  0  0  0  0  0  0  0  0  0  0
    2.3887    1.6380   -0.0139 C   0  0  0  0  0  0  0  0  0  0  0  0
    0.0404    2.2731   -0.0473 C   0  0  0  0  0  0  0  0  0  0  0  0
    1.3847    2.6122    0.1098 C   0  0  0  0  0  0  0  0  0  0  0  0
    3.0277   -0.6733   -0.4245 C   0  0  0  0  0  0  0  0  0  0  0  0
    3.7465    1.9612    0.1411 C   0  0  0  0  0  0  0  0  0  0  0  0
    4.7306    0.9803    0.0147 C   0  0  0  0  0  0  0  0  0  0  0  0
    4.3720   -0.3344   -0.2674 C   0  0  0  0  0  0  0  0  0  0  0  0
    6.1728    1.3409    0.1809 C   0  0  0  0  0  0  0  0  0  0  0  0
    5.7077   -1.9900    0.7957 C   0  0  0  0  0  0  0  0  0  0  0  0
   -0.4093   -3.2325    0.0896 C   0  0  0  0  0  0  0  0  0  0  0  0
   -0.6662   -3.9926    1.3639 C   0  0  0  0  0  0  0  0  0  0  0  0
   -4.1101    1.1234   -1.6872 H   0  0  0  0  0  0  0  0  0  0  0  0
   -5.7873    0.1899    0.6971 H   0  0  0  0  0  0  0  0  0  0  0  0
   -3.1317    2.8149   -0.2050 H   0  0  0  0  0  0  0  0  0  0  0  0
   -3.4132   -1.2569   -0.6433 H   0  0  0  0  0  0  0  0  0  0  0  0
   -1.9122    1.3030    1.4832 H   0  0  0  0  0  0  0  0  0  0  0  0
   -5.1392   -2.7857    0.2890 H   0  0  0  0  0  0  0  0  0  0  0  0
   -3.6330   -2.8419    1.2277 H   0  0  0  0  0  0  0  0  0  0  0  0
   -5.0142   -1.9594    1.8601 H   0  0  0  0  0  0  0  0  0  0  0  0
   -5.2770    3.0354   -1.2737 H   0  0  0  0  0  0  0  0  0  0  0  0
   -5.3450   -0.8342   -1.9222 H   0  0  0  0  0  0  0  0  0  0  0  0
   -3.5617    2.7730    2.0135 H   0  0  0  0  0  0  0  0  0  0  0  0
   -0.7109    3.0527    0.0405 H   0  0  0  0  0  0  0  0  0  0  0  0
    1.6072    3.6565    0.3100 H   0  0  0  0  0  0  0  0  0  0  0  0
    6.4498    1.2995    1.2391 H   0  0  0  0  0  0  0  0  0  0  0  0
    6.8335    0.6721   -0.3804 H   0  0  0  0  0  0  0  0  0  0  0  0
    6.3803    2.3481   -0.1965 H   0  0  0  0  0  0  0  0  0  0  0  0
    3.5840   -2.4707   -0.8164 H   0  0  0  0  0  0  0  0  0  0  0  0
    3.4486    3.6863    0.9523 H   0  0  0  0  0  0  0  0  0  0  0  0
    6.4584   -2.7395    0.5301 H   0  0  0  0  0  0  0  0  0  0  0  0
    4.8451   -2.5017    1.2342 H   0  0  0  0  0  0  0  0  0  0  0  0
    6.1449   -1.3044    1.5279 H   0  0  0  0  0  0  0  0  0  0  0  0
   -1.2959   -3.4000    2.0329 H   0  0  0  0  0  0  0  0  0  0  0  0
    0.2858   -4.2175    1.8518 H   0  0  0  0  0  0  0  0  0  0  0  0
   -1.1833   -4.9291    1.1371 H   0  0  0  0  0  0  0  0  0  0  0  0
  1 15  1  0  0  0  0
  1 16  1  0  0  0  0
  2 16  1  0  0  0  0
  2 18  1  0  0  0  0
  3 12  1  0  0  0  0
  3 40  1  0  0  0  0
  4 13  1  0  0  0  0
  4 41  1  0  0  0  0
  5 14  1  0  0  0  0
  5 42  1  0  0  0  0
  6 24  1  0  0  0  0
  6 48  1  0  0  0  0
  7 27  1  0  0  0  0
  7 29  1  0  0  0  0
  8 25  1  0  0  0  0
  8 49  1  0  0  0  0
  9 30  2  0  0  0  0
 10 11  2  0  0  0  0
 10 19  1  0  0  0  0
 11 30  1  0  0  0  0
 12 13  1  0  0  0  0
 12 14  1  0  0  0  0
 12 32  1  0  0  0  0
 13 15  1  0  0  0  0
 13 33  1  0  0  0  0
 14 16  1  0  0  0  0
 14 34  1  0  0  0  0
 15 17  1  0  0  0  0
 15 35  1  0  0  0  0
 16 36  1  0  0  0  0
 17 37  1  0  0  0  0
 17 38  1  0  0  0  0
 17 39  1  0  0  0  0
 18 19  2  0  0  0  0
 18 22  1  0  0  0  0
 19 20  1  0  0  0  0
 20 21  2  0  0  0  0
 20 24  1  0  0  0  0
 21 23  1  0  0  0  0
 21 25  1  0  0  0  0
 22 23  2  0  0  0  0
 22 43  1  0  0  0  0
 23 44  1  0  0  0  0
 24 27  2  0  0  0  0
 25 26  2  0  0  0  0
 26 27  1  0  0  0  0
 26 28  1  0  0  0  0
 28 45  1  0  0  0  0
 28 46  1  0  0  0  0
 28 47  1  0  0  0  0
 29 50  1  0  0  0  0
 29 51  1  0  0  0  0
 29 52  1  0  0  0  0
 30 31  1  0  0  0  0
 31 53  1  0  0  0  0
 31 54  1  0  0  0  0
 31 55  1  0  0  0  0
M  END
> <PUBCHEM_COMPOUND_CID>
136259909

> <PUBCHEM_CONFORMER_RMSD>
0.8

> <PUBCHEM_CONFORMER_DIVERSEORDER>
3
78
32
6
62
80
60
41
44
81
37
52
86
83
85
77
55
84
21
72
63
66
47
93
90
76
15
67
14
49
26
61
25
74
46
27
56
69
87
51
22
17
28
38
40
92
23
24
58
31
39
53
30
65
64
36
8
29
91
9
45
68
18
73
20
88
79
33
19
54
82
34
43
4
13
50
70
89
57
48
35
11
2
7
59
75
71
16
42
10
12
5
1

> <PUBCHEM_MMFF94_PARTIAL_CHARGES>
35
1 -0.56
10 -0.18
11 -0.21
12 0.28
13 0.28
14 0.28
15 0.28
16 0.56
18 0.08
19 0.18
2 -0.36
22 -0.15
23 -0.15
24 0.08
25 0.08
26 -0.14
27 0.08
28 0.14
29 0.28
3 -0.68
30 0.72
31 0.06
4 -0.68
40 0.4
41 0.4
42 0.4
43 0.15
44 0.15
48 0.45
49 0.45
5 -0.68
6 -0.53
7 -0.36
8 -0.53
9 -0.57

> <PUBCHEM_EFFECTIVE_ROTOR_COUNT>
6.2

> <PUBCHEM_PHARMACOPHORE_FEATURES>
16
1 1 acceptor
1 11 donor
1 2 acceptor
1 3 acceptor
1 3 donor
1 4 acceptor
1 4 donor
1 5 acceptor
1 5 donor
1 6 donor
1 7 acceptor
1 8 donor
1 9 acceptor
6 1 12 13 14 15 16 rings
6 18 19 20 21 22 23 rings
6 20 21 24 25 26 27 rings

> <PUBCHEM_HEAVY_ATOM_COUNT>
31

> <PUBCHEM_ATOM_DEF_STEREO_COUNT>
5

> <PUBCHEM_ATOM_UDEF_STEREO_COUNT>
0

> <PUBCHEM_BOND_DEF_STEREO_COUNT>
0

> <PUBCHEM_BOND_UDEF_STEREO_COUNT>
0

> <PUBCHEM_ISOTOPIC_ATOM_COUNT>
0

> <PUBCHEM_COMPONENT_COUNT>
1

> <PUBCHEM_CACTVS_TAUTO_COUNT>
-1

> <PUBCHEM_CONFORMER_ID>
081F294500000003

> <PUBCHEM_MMFF94_ENERGY>
113.9244

> <PUBCHEM_FEATURE_SELFOVERLAP>
81.285

> <PUBCHEM_SHAPE_FINGERPRINT>
10906281 52 18272384057460337036
1100329 8 18410289195167194674
11370993 70 18409729577955082859
11578080 2 16771253976003954754
11607047 403 15977459413026423723
12236239 1 17704069573273675733
12788726 201 17846789473152919688
13140716 1 18338524044951213577
13402501 40 18409168822191905606
14466204 15 18338233743652945480
14787075 74 18060139885657478865
14790565 3 18410859841338208412
15131766 46 16083635901310408116
15196674 1 18411140233909053960
19591789 44 18409730651475393198
20028762 73 18201714012157071902
20197701 30 18410570695365056779
20511986 3 17773863217357457649
21033648 29 18339631339097251017
21197605 99 18270684302177487911
21279426 13 18409168779437665078
22393880 68 18335697218120945671
23559900 14 18410285943771904833
335352 9 18412826907144175828
3383291 50 18191583048280543330
338550 245 18262241139438843556
350125 39 18339368568960881865
392239 28 18341339911224980171
4073 2 18187087299129910648
5104073 3 18341618109221194344
6138700 20 18265616490081811630
9896288 288 17474934443476561570
9981440 41 18259988184806970451

> <PUBCHEM_SHAPE_MULTIPOLES>
575.18
13.38
4.12
0.98
0.03
2.89
-0.1
-3.25
-0.01
-0.18
-0.72
-0.74
0.27
0.52

> <PUBCHEM_SHAPE_SELFOVERLAP>
1240.591

> <PUBCHEM_SHAPE_VOLUME>
316.7

> <PUBCHEM_COORDINATE_TYPE>
2
5
10

$$$$
