136218209
  -OEChem-03292013293D

 58 64  0     1  0  0  0  0  0999 V2000
   -4.2855    1.6762   -0.9237 O   0  0  0  0  0  0  0  0  0  0  0  0
   -3.5896    4.3961    0.3141 O   0  0  0  0  0  0  0  0  0  0  0  0
   -7.0698    1.3503   -0.8120 O   0  0  0  0  0  0  0  0  0  0  0  0
   -2.3404   -4.3798    0.1653 O   0  0  0  0  0  0  0  0  0  0  0  0
   -2.5830    0.1239   -0.1056 N   0  0  0  0  0  0  0  0  0  0  0  0
   -0.2328    0.6117   -0.1085 N   0  0  0  0  0  0  0  0  0  0  0  0
   -1.2095   -1.6371    0.0143 N   0  0  0  0  0  0  0  0  0  0  0  0
   -4.7335   -0.9866   -0.0631 N   0  0  0  0  0  0  0  0  0  0  0  0
   -4.4397   -3.3600    0.0816 N   0  0  0  0  0  0  0  0  0  0  0  0
   -6.5958   -2.4174    0.0017 N   0  0  0  0  0  0  0  0  0  0  0  0
   -3.0495    1.5550   -0.1952 C   0  0  2  0  0  0  0  0  0  0  0  0
   -3.2920    2.1910    1.1692 C   0  0  0  0  0  0  0  0  0  0  0  0
   -4.2936    3.2727    0.8387 C   0  0  2  0  0  0  0  0  0  0  0  0
   -5.1334    2.6366   -0.2615 C   0  0  2  0  0  0  0  0  0  0  0  0
   -6.3489    1.8956    0.2790 C   0  0  0  0  0  0  0  0  0  0  0  0
   -1.2848   -0.3230   -0.0647 C   0  0  0  0  0  0  0  0  0  0  0  0
   -3.3821   -0.9798   -0.0486 C   0  0  0  0  0  0  0  0  0  0  0  0
   -2.5120   -2.0406    0.0241 C   0  0  0  0  0  0  0  0  0  0  0  0
    1.1712    0.4718   -0.0844 C   0  0  0  0  0  0  0  0  0  0  0  0
    3.9611    0.1943   -0.0374 C   0  0  0  0  0  0  0  0  0  0  0  0
    5.3710    0.0542   -0.0135 C   0  0  0  0  0  0  0  0  0  0  0  0
    3.1356   -0.9525    0.0222 C   0  0  0  0  0  0  0  0  0  0  0  0
    3.3800    1.4811   -0.1207 C   0  0  0  0  0  0  0  0  0  0  0  0
    1.7419   -0.7972   -0.0023 C   0  0  0  0  0  0  0  0  0  0  0  0
    1.9829    1.6032   -0.1433 C   0  0  0  0  0  0  0  0  0  0  0  0
   -3.0379   -3.3756    0.0980 C   0  0  0  0  0  0  0  0  0  0  0  0
    6.1964    1.2011   -0.0731 C   0  0  0  0  0  0  0  0  0  0  0  0
    5.9520   -1.2326    0.0698 C   0  0  0  0  0  0  0  0  0  0  0  0
   -5.2427   -2.1976    0.0036 C   0  0  0  0  0  0  0  0  0  0  0  0
    3.7292   -2.2193    0.1045 C   0  0  0  0  0  0  0  0  0  0  0  0
    4.2137    2.6060   -0.1789 C   0  0  0  0  0  0  0  0  0  0  0  0
    5.6029    2.4679   -0.1554 C   0  0  0  0  0  0  0  0  0  0  0  0
    5.1184   -2.3574    0.1280 C   0  0  0  0  0  0  0  0  0  0  0  0
    7.5901    1.0458   -0.0486 C   0  0  0  0  0  0  0  0  0  0  0  0
    7.3491   -1.3547    0.0924 C   0  0  0  0  0  0  0  0  0  0  0  0
    8.1609   -0.2232    0.0337 C   0  0  0  0  0  0  0  0  0  0  0  0
   -2.3016    2.0986   -0.7801 H   0  0  0  0  0  0  0  0  0  0  0  0
   -2.3618    2.5651    1.6080 H   0  0  0  0  0  0  0  0  0  0  0  0
   -3.7357    1.4667    1.8625 H   0  0  0  0  0  0  0  0  0  0  0  0
   -4.8688    3.6092    1.7059 H   0  0  0  0  0  0  0  0  0  0  0  0
   -5.4443    3.3622   -1.0216 H   0  0  0  0  0  0  0  0  0  0  0  0
   -7.0083    2.5819    0.8199 H   0  0  0  0  0  0  0  0  0  0  0  0
   -6.0669    1.0775    0.9473 H   0  0  0  0  0  0  0  0  0  0  0  0
   -4.2523    5.0614    0.0613 H   0  0  0  0  0  0  0  0  0  0  0  0
   -0.4936    1.5941   -0.1369 H   0  0  0  0  0  0  0  0  0  0  0  0
    1.1336   -1.6939    0.0447 H   0  0  0  0  0  0  0  0  0  0  0  0
    1.5283    2.5906   -0.2075 H   0  0  0  0  0  0  0  0  0  0  0  0
   -7.8404    0.8860   -0.4431 H   0  0  0  0  0  0  0  0  0  0  0  0
    3.1150   -3.1164    0.1515 H   0  0  0  0  0  0  0  0  0  0  0  0
    3.7895    3.6060   -0.2434 H   0  0  0  0  0  0  0  0  0  0  0  0
   -4.9167   -4.2558    0.1297 H   0  0  0  0  0  0  0  0  0  0  0  0
    6.2178    3.3645   -0.2024 H   0  0  0  0  0  0  0  0  0  0  0  0
    5.5428   -3.3573    0.1925 H   0  0  0  0  0  0  0  0  0  0  0  0
    8.2450    1.9134   -0.0933 H   0  0  0  0  0  0  0  0  0  0  0  0
    7.8184   -2.3341    0.1562 H   0  0  0  0  0  0  0  0  0  0  0  0
    9.2417   -0.3307    0.0520 H   0  0  0  0  0  0  0  0  0  0  0  0
   -7.2524   -1.6462   -0.0510 H   0  0  0  0  0  0  0  0  0  0  0  0
   -6.9797   -3.3546    0.0534 H   0  0  0  0  0  0  0  0  0  0  0  0
  1 11  1  0  0  0  0
  1 14  1  0  0  0  0
  2 13  1  0  0  0  0
  2 44  1  0  0  0  0
  3 15  1  0  0  0  0
  3 48  1  0  0  0  0
  4 26  2  0  0  0  0
  5 11  1  0  0  0  0
  5 16  1  0  0  0  0
  5 17  1  0  0  0  0
  6 16  1  0  0  0  0
  6 19  1  0  0  0  0
  6 45  1  0  0  0  0
  7 16  2  0  0  0  0
  7 18  1  0  0  0  0
  8 17  1  0  0  0  0
  8 29  2  0  0  0  0
  9 26  1  0  0  0  0
  9 29  1  0  0  0  0
  9 51  1  0  0  0  0
 10 29  1  0  0  0  0
 10 57  1  0  0  0  0
 10 58  1  0  0  0  0
 11 12  1  0  0  0  0
 11 37  1  0  0  0  0
 12 13  1  0  0  0  0
 12 38  1  0  0  0  0
 12 39  1  0  0  0  0
 13 14  1  0  0  0  0
 13 40  1  0  0  0  0
 14 15  1  0  0  0  0
 14 41  1  0  0  0  0
 15 42  1  0  0  0  0
 15 43  1  0  0  0  0
 17 18  2  0  0  0  0
 18 26  1  0  0  0  0
 19 24  2  0  0  0  0
 19 25  1  0  0  0  0
 20 21  1  0  0  0  0
 20 22  2  0  0  0  0
 20 23  1  0  0  0  0
 21 27  2  0  0  0  0
 21 28  1  0  0  0  0
 22 24  1  0  0  0  0
 22 30  1  0  0  0  0
 23 25  2  0  0  0  0
 23 31  1  0  0  0  0
 24 46  1  0  0  0  0
 25 47  1  0  0  0  0
 27 32  1  0  0  0  0
 27 34  1  0  0  0  0
 28 33  1  0  0  0  0
 28 35  2  0  0  0  0
 30 33  2  0  0  0  0
 30 49  1  0  0  0  0
 31 32  2  0  0  0  0
 31 50  1  0  0  0  0
 32 52  1  0  0  0  0
 33 53  1  0  0  0  0
 34 36  2  0  0  0  0
 34 54  1  0  0  0  0
 35 36  1  0  0  0  0
 35 55  1  0  0  0  0
 36 56  1  0  0  0  0
M  END
> <PUBCHEM_COMPOUND_CID>
136218209

> <PUBCHEM_CONFORMER_RMSD>
0.8

> <PUBCHEM_CONFORMER_DIVERSEORDER>
1
34
115
91
56
66
127
54
60
143
137
2
19
111
145
51
123
86
110
102
136
46
148
95
90
10
147
5
31
84
22
50
107
130
133
142
98
141
7
77
121
97
119
16
108
116
14
29
72
105
25
125
43
112
53
113
85
71
89
79
101
15
57
94
24
49
114
61
11
3
132
37
76
21
59
80
120
104
62
30
128
146
12
122
131
83
140
64
68
138
55
126
23
129
18
134
6
103
26
106
63
41
52
69
78
70
75
38
81
8
44
13
67
99
93
144
100
33
82
27
20
65
58
109
42
139
35
17
45
28
135
48
87
40
32
88
92
47
39
96
73
74
118
36
9
124
117
4

> <PUBCHEM_MMFF94_PARTIAL_CHARGES>
44
1 -0.56
10 -0.85
11 0.54
13 0.28
14 0.28
15 0.28
16 0.27
17 -0.03
18 0.14
19 0.1
2 -0.68
24 -0.15
25 -0.15
26 0.72
29 0.56
3 -0.68
30 -0.15
31 -0.15
32 -0.15
33 -0.15
34 -0.15
35 -0.15
36 -0.15
4 -0.57
44 0.4
45 0.4
46 0.15
47 0.15
48 0.4
49 0.15
5 0.05
50 0.15
51 0.37
52 0.15
53 0.15
54 0.15
55 0.15
56 0.15
57 0.4
58 0.4
6 -0.58
7 -0.57
8 -0.58
9 -0.49

> <PUBCHEM_EFFECTIVE_ROTOR_COUNT>
5

> <PUBCHEM_PHARMACOPHORE_FEATURES>
17
1 1 acceptor
1 10 donor
1 2 acceptor
1 2 donor
1 3 acceptor
1 3 donor
1 4 acceptor
1 6 donor
1 9 donor
4 5 6 7 16 cation
5 1 11 12 13 14 rings
5 5 7 16 17 18 rings
6 19 20 22 23 24 25 rings
6 20 21 22 28 30 33 rings
6 20 21 23 27 31 32 rings
6 21 27 28 34 35 36 rings
6 8 9 17 18 26 29 rings

> <PUBCHEM_HEAVY_ATOM_COUNT>
36

> <PUBCHEM_ATOM_DEF_STEREO_COUNT>
0

> <PUBCHEM_ATOM_UDEF_STEREO_COUNT>
3

> <PUBCHEM_BOND_DEF_STEREO_COUNT>
0

> <PUBCHEM_BOND_UDEF_STEREO_COUNT>
0

> <PUBCHEM_ISOTOPIC_ATOM_COUNT>
0

> <PUBCHEM_COMPONENT_COUNT>
1

> <PUBCHEM_CACTVS_TAUTO_COUNT>
-1

> <PUBCHEM_CONFORMER_ID>
081E866100000001

> <PUBCHEM_MMFF94_ENERGY>
115.9247

> <PUBCHEM_FEATURE_SELFOVERLAP>
86.591

> <PUBCHEM_SHAPE_FINGERPRINT>
10050765 1 18410856555898905098
100830 39 18410575050536105249
10319926 262 18342164583996130920
10411042 1 18050850220212410295
10580692 12 18410012152311507024
10595046 47 18337111275999959108
10835480 77 18411976958342554500
11007060 377 18408045117298480795
11227688 84 17621029193841224303
12107183 9 18120651340847058098
12107698 1 18339079392781047702
12133447 93 18340498811987243580
12788726 201 18262791999502880347
14118638 360 18335419088760468546
14790565 3 17978513031538372505
15021287 119 17385733482084442717
15064986 266 18262246611137858467
15064986 96 17774726351624015878
15131766 46 15288212849330711191
15183329 4 18410854322415898960
15361156 5 17895206497699099940
15400415 2 18410011018561830390
15419008 42 17986960639772845148
15439362 3 17907297650923326213
15448158 71 17196584291233652393
15890870 6 18338514120137016789
16112460 7 18265052440584880544
17844677 252 18410580617060971614
18608769 82 18413109476867613081
19958102 18 18334849511867487479
21033648 144 18335412422723461901
21033648 29 17702644628200907610
21130935 74 18410852145616618426
21133410 171 17330777808149725306
21236236 1 18411138043216990831
23559900 14 18194957667711875713
24771293 8 18187084010329986044
249057 3 18409167684273829884
32027 91 17698742319732282190
335352 9 18410577241849790500
350125 39 18411700993650499139
4073 2 18186806911265092666
4098825 35 18409730672718101984
4144715 1 18410022039664631514
497634 4 18333446568947097957
5028188 123 18337403678127748230
5104073 3 18410847768617234336
59755656 520 18335416838440179213
6086070 43 16988268863622949616
9831232 110 18201168638328274998
99344 41 18410854317667114422

> <PUBCHEM_SHAPE_MULTIPOLES>
687.5
21.76
4.56
0.7
13.84
0.67
-0.04
-2.47
0.42
-7.24
-0.45
-0.35
-0.23
-0.55

> <PUBCHEM_SHAPE_SELFOVERLAP>
1573.711

> <PUBCHEM_SHAPE_VOLUME>
351.3

> <PUBCHEM_COORDINATE_TYPE>
2
5
10

$$$$
