136248812
  -OEChem-03292013293D

 43 45  0     1  0  0  0  0  0999 V2000
   -4.1004    0.5056   -1.2224 P   0  0  0  0  0  0  0  0  0  0  0  0
   -1.5077   -0.1788    1.7523 O   0  0  0  0  0  0  0  0  0  0  0  0
   -3.2355    2.0273    0.6163 O   0  0  0  0  0  0  0  0  0  0  0  0
   -2.9442   -2.5695    1.8557 O   0  0  0  0  0  0  0  0  0  0  0  0
   -3.7081   -0.8383   -1.8545 O   0  5  0  0  0  0  0  0  0  0  0  0
   -5.4468    0.4820   -0.4833 O   0  5  0  0  0  0  0  0  0  0  0  0
   -3.9166    1.7139   -2.1529 O   0  0  0  0  0  0  0  0  0  0  0  0
    4.8913   -0.9709   -0.6117 O   0  0  0  0  0  0  0  0  0  0  0  0
    0.5785   -0.0421    0.6307 N   0  0  3  0  0  0  0  0  0  0  0  0
    2.0691   -1.6590    0.0421 N   0  0  3  0  0  0  0  0  0  0  0  0
    2.1602    1.8997    0.4353 N   0  0  0  0  0  0  0  0  0  0  0  0
    4.3407    1.2443   -0.2124 N   0  0  0  0  0  0  0  0  0  0  0  0
    3.8525    3.5005    0.1680 N   0  0  0  0  0  0  0  0  0  0  0  0
   -2.8924    0.7554    0.0691 C   0  0  2  0  0  0  0  0  0  0  0  0
   -0.6789    0.6117    0.8863 C   0  0  1  0  0  0  0  0  0  0  0  0
   -1.4583    0.8176   -0.4012 C   0  0  0  0  0  0  0  0  0  0  0  0
   -2.8333   -0.2724    1.1914 C   0  0  1  0  0  0  0  0  0  0  0  0
    0.6558   -1.4927    0.3987 C   0  0  0  0  0  0  0  0  0  0  0  0
   -3.0308   -1.7108    0.7299 C   0  0  0  0  0  0  0  0  0  0  0  0
    1.8183    0.5705    0.3784 C   0  0  0  0  0  0  0  0  0  0  0  0
    2.6778   -0.4158    0.0395 C   0  0  0  0  0  0  0  0  0  0  0  0
    2.6153   -2.9445   -0.2985 C   0  0  0  0  0  0  0  0  0  0  0  0
    4.0747   -0.1149   -0.2966 C   0  0  0  0  0  0  0  0  0  0  0  0
    2.6221   -3.1268   -1.8041 C   0  0  0  0  0  0  0  0  0  0  0  0
    3.3968    2.2084    0.1440 C   0  0  0  0  0  0  0  0  0  0  0  0
   -0.5188    1.5693    1.3961 H   0  0  0  0  0  0  0  0  0  0  0  0
   -1.1937    1.7692   -0.8747 H   0  0  0  0  0  0  0  0  0  0  0  0
   -1.2596    0.0252   -1.1311 H   0  0  0  0  0  0  0  0  0  0  0  0
   -3.5337   -0.0436    2.0024 H   0  0  0  0  0  0  0  0  0  0  0  0
    0.0153   -1.8052   -0.4312 H   0  0  0  0  0  0  0  0  0  0  0  0
    0.4132   -2.0526    1.3078 H   0  0  0  0  0  0  0  0  0  0  0  0
   -2.2676   -2.0271    0.0150 H   0  0  0  0  0  0  0  0  0  0  0  0
   -4.0274   -1.8599    0.3090 H   0  0  0  0  0  0  0  0  0  0  0  0
   -4.1361    1.9604    0.9773 H   0  0  0  0  0  0  0  0  0  0  0  0
    3.6272   -3.0596    0.1043 H   0  0  0  0  0  0  0  0  0  0  0  0
    2.0133   -3.7398    0.1569 H   0  0  0  0  0  0  0  0  0  0  0  0
   -3.0744   -3.4781    1.5347 H   0  0  0  0  0  0  0  0  0  0  0  0
    1.6085   -3.0584   -2.2135 H   0  0  0  0  0  0  0  0  0  0  0  0
    3.2325   -2.3671   -2.3021 H   0  0  0  0  0  0  0  0  0  0  0  0
    3.0267   -4.1098   -2.0649 H   0  0  0  0  0  0  0  0  0  0  0  0
    5.2833    1.5566   -0.4263 H   0  0  0  0  0  0  0  0  0  0  0  0
    3.2388    4.2691    0.4153 H   0  0  0  0  0  0  0  0  0  0  0  0
    4.8143    3.7266   -0.0604 H   0  0  0  0  0  0  0  0  0  0  0  0
  1  5  1  0  0  0  0
  1  6  1  0  0  0  0
  1  7  2  0  0  0  0
  1 14  1  0  0  0  0
  2 15  1  0  0  0  0
  2 17  1  0  0  0  0
  3 14  1  0  0  0  0
  3 34  1  0  0  0  0
  4 19  1  0  0  0  0
  4 37  1  0  0  0  0
  8 23  2  0  0  0  0
  9 15  1  0  0  0  0
  9 18  1  0  0  0  0
  9 20  1  0  0  0  0
 10 18  1  0  0  0  0
 10 21  1  0  0  0  0
 10 22  1  0  0  0  0
 11 20  1  0  0  0  0
 11 25  2  0  0  0  0
 12 23  1  0  0  0  0
 12 25  1  0  0  0  0
 12 41  1  0  0  0  0
 13 25  1  0  0  0  0
 13 42  1  0  0  0  0
 13 43  1  0  0  0  0
 14 16  1  0  0  0  0
 14 17  1  0  0  0  0
 15 16  1  0  0  0  0
 15 26  1  0  0  0  0
 16 27  1  0  0  0  0
 16 28  1  0  0  0  0
 17 19  1  0  0  0  0
 17 29  1  0  0  0  0
 18 30  1  0  0  0  0
 18 31  1  0  0  0  0
 19 32  1  0  0  0  0
 19 33  1  0  0  0  0
 20 21  2  0  0  0  0
 21 23  1  0  0  0  0
 22 24  1  0  0  0  0
 22 35  1  0  0  0  0
 22 36  1  0  0  0  0
 24 38  1  0  0  0  0
 24 39  1  0  0  0  0
 24 40  1  0  0  0  0
M  CHG  2   5  -1   6  -1
M  END
> <PUBCHEM_COMPOUND_CID>
136248812

> <PUBCHEM_CONFORMER_RMSD>
0.8

> <PUBCHEM_CONFORMER_DIVERSEORDER>
1
8
11
9
4
2
5
6
3
10
7

> <PUBCHEM_MMFF94_PARTIAL_CHARGES>
28
1 1.1
10 -0.84
11 -0.62
12 -0.49
13 -0.85
14 0.28
15 0.65
17 0.28
18 0.74
19 0.28
2 -0.56
20 0.27
21 0.11
22 0.37
23 0.62
25 0.56
3 -0.68
34 0.4
37 0.4
4 -0.68
41 0.37
42 0.4
43 0.4
5 -1.03
6 -1.03
7 -1.03
8 -0.57
9 -0.84

> <PUBCHEM_EFFECTIVE_ROTOR_COUNT>
5.6

> <PUBCHEM_PHARMACOPHORE_FEATURES>
17
1 10 cation
1 12 donor
1 13 donor
1 2 acceptor
1 3 acceptor
1 3 donor
1 4 acceptor
1 4 donor
1 5 acceptor
1 6 acceptor
1 7 acceptor
1 8 acceptor
1 9 cation
4 1 5 6 7 anion
5 2 14 15 16 17 rings
5 9 10 18 20 21 rings
6 11 12 20 21 23 25 rings

> <PUBCHEM_HEAVY_ATOM_COUNT>
25

> <PUBCHEM_ATOM_DEF_STEREO_COUNT>
3

> <PUBCHEM_ATOM_UDEF_STEREO_COUNT>
0

> <PUBCHEM_BOND_DEF_STEREO_COUNT>
0

> <PUBCHEM_BOND_UDEF_STEREO_COUNT>
0

> <PUBCHEM_ISOTOPIC_ATOM_COUNT>
0

> <PUBCHEM_COMPONENT_COUNT>
1

> <PUBCHEM_CACTVS_TAUTO_COUNT>
-1

> <PUBCHEM_CONFORMER_ID>
081EFDEC00000001

> <PUBCHEM_MMFF94_ENERGY>
81.8711

> <PUBCHEM_FEATURE_SELFOVERLAP>
86.521

> <PUBCHEM_SHAPE_FINGERPRINT>
10871710 139 16172022531189685756
12236239 1 17418094295417460225
12403259 415 18189343518644206920
12553582 1 17763765190819770058
12670546 177 18410283718756604535
12730499 353 18334298669094570371
12788726 201 16968872061291670466
13009979 54 17058373566128162970
13224815 77 18341335573297461395
13583140 156 18260548918045745306
13911987 19 18126010613660599480
13944108 23 16383648192577661485
16752209 62 15984812723639079373
17349148 13 18270952454228417402
18186145 218 17896044247817075905
200 152 17989485208158135497
20645477 56 18040720251527233801
20645477 70 18342739594075450030
20681677 76 18262238936131391000
20693207 138 18189922879499244331
21033648 144 18261104218593847404
21033648 29 17530956952443816645
21054139 6 17988346170352731078
21709351 56 18411983568233763782
221490 88 18338530706778013522
22182313 1 18114194042216849003
22393880 68 18259982686700178770
23557571 272 17677061230068288763
23559900 14 18409446973407293994
23596394 208 18335702706751786678
23598288 3 16987183581206086025
238 59 18413384337173051790
3060560 45 18342176661897847614
4015057 19 18338796710754860394
4028521 119 17895187779936146645
4280585 95 17768537084485854806
46194498 28 18410568462055877685
495365 180 18342444985336980088
5104073 3 18335708281724826352
5281201 14 18264204721219653741
58051976 378 18413108346938046034
633830 44 17773342164714660632
9709674 26 18339930311633075011

> <PUBCHEM_SHAPE_MULTIPOLES>
452.35
10.03
3.18
1.49
2.13
0.48
-0.33
-2.1
-3.07
-3.5
-0.34
1.82
0.55
1.83

> <PUBCHEM_SHAPE_SELFOVERLAP>
951.275

> <PUBCHEM_SHAPE_VOLUME>
257.1

> <PUBCHEM_COORDINATE_TYPE>
2
5
10

$$$$
