REMARK  Name = 136274596
REMARK  2 active torsions:
REMARK  status: ('A' for Active; 'I' for Inactive)
REMARK    1  A    between atoms: C_8  and  C_17
REMARK    2  A    between atoms: C_17  and  C_18
REMARK                            x       y       z     vdW  Elec       q    Type
REMARK                         _______ _______ _______ _____ _____    ______ ____
ROOT
ATOM      1  O   UNL     1      -1.063  -2.629   0.003  0.00  0.00    -0.266 OA
ATOM      2  N   UNL     1       0.703  -0.561   0.002  0.00  0.00    -0.386 NA
ATOM      3  N   UNL     1      -2.860  -1.165   0.000  0.00  0.00    -0.241 N 
ATOM      4  N   UNL     1      -0.379   2.033  -0.001  0.00  0.00    -0.200 NA
ATOM      5  N   UNL     1      -2.558   1.173  -0.002  0.00  0.00    -0.318 NA
ATOM      6  N   UNL     1      -4.718   0.257  -0.004  0.00  0.00    -0.320 N 
ATOM      7  C   UNL     1      -0.624  -0.325   0.001  0.00  0.00    +0.257 C 
ATOM      8  C   UNL     1       1.483   0.536   0.002  0.00  0.00    +0.170 C 
ATOM      9  C   UNL     1      -1.173   0.943   0.000  0.00  0.00    +0.121 C 
ATOM     10  C   UNL     1      -1.513  -1.491   0.002  0.00  0.00    +0.293 C 
ATOM     11  C   UNL     1       0.953   1.809   0.001  0.00  0.00    +0.199 C 
ATOM     12  C   UNL     1      -3.353   0.137  -0.002  0.00  0.00    +0.248 C 
ATOM     13  H   UNL     1      -3.512  -1.904   0.001  0.00  0.00    +0.159 HD
ATOM     14  H   UNL     1      -5.282  -0.550  -0.004  0.00  0.00    +0.146 HD
ATOM     15  H   UNL     1      -5.134   1.149  -0.006  0.00  0.00    +0.146 HD
ENDROOT
BRANCH   8  17
ATOM     16  O   UNL     1       3.716   1.276   0.004  0.00  0.00    -0.289 OA
ATOM     17  C   UNL     1       2.916   0.314   0.003  0.00  0.00    +0.200 C 
BRANCH  17  18
ATOM     18  C   UNL     1       3.476  -1.122   0.004  0.00  0.00    +0.072 C 
ATOM     19  C   UNL     1       4.995  -1.185  -0.013  0.00  0.00    +0.009 C 
ENDBRANCH  17  18
ENDBRANCH   8  17
TORSDOF 2
