REMARK  Name = 136234676
REMARK  4 active torsions:
REMARK  status: ('A' for Active; 'I' for Inactive)
REMARK    1  A    between atoms: N_5  and  C_7
REMARK    2  A    between atoms: N_5  and  N_12
REMARK    3  A    between atoms: N_12  and  C_14
REMARK    4  A    between atoms: C_19  and  O_20
REMARK                            x       y       z     vdW  Elec       q    Type
REMARK                         _______ _______ _______ _____ _____    ______ ____
ROOT
ATOM      1  N   UNL     1       0.285   0.688   0.001  0.00  0.00    -0.135 NA
ENDROOT
BRANCH   1   7
ATOM      2  O   UNL     1       3.873  -2.497  -0.003  0.00  0.00    -0.270 OA
ATOM      3  O   UNL     1       4.705   2.025   0.001  0.00  0.00    -0.252 OA
ATOM      4  N   UNL     1       2.515   1.331   0.001  0.00  0.00    -0.254 N 
ATOM      5  N   UNL     1       4.266  -0.232  -0.001  0.00  0.00    -0.236 N 
ATOM      6  C   UNL     1       1.967  -1.064   0.000  0.00  0.00    +0.091 C 
ATOM      7  C   UNL     1       1.536   0.371   0.001  0.00  0.00    +0.146 C 
ATOM      8  C   UNL     1       3.442  -1.344  -0.002  0.00  0.00    +0.255 C 
ATOM      9  C   UNL     1       3.884   1.105   0.000  0.00  0.00    +0.311 C 
ATOM     10  H   UNL     1       2.218   2.270   0.002  0.00  0.00    +0.158 HD
ATOM     11  H   UNL     1       5.235  -0.408  -0.003  0.00  0.00    +0.159 HD
ENDBRANCH   1   7
BRANCH   1  12
ATOM     12  N   UNL     1      -0.536  -0.380   0.001  0.00  0.00    -0.244 N 
ATOM     13  H   UNL     1      -0.154  -1.287   0.000  0.00  0.00    +0.172 HD
BRANCH  12  14
ATOM     14  C   UNL     1      -1.929  -0.213   0.002  0.00  0.00    +0.063 C 
ATOM     15  C   UNL     1      -2.766  -1.329   0.004  0.00  0.00    +0.019 C 
ATOM     16  C   UNL     1      -2.478   1.069  -0.002  0.00  0.00    +0.019 C 
ATOM     17  C   UNL     1      -4.151  -1.164   0.003  0.00  0.00    +0.038 C 
ATOM     18  C   UNL     1      -3.863   1.235  -0.003  0.00  0.00    +0.038 C 
ATOM     19  C   UNL     1      -4.699   0.119  -0.001  0.00  0.00    +0.134 C 
BRANCH  19  20
ATOM     20  O   UNL     1      -6.051   0.280  -0.002  0.00  0.00    -0.506 OA
ATOM     21  H   UNL     1      -6.612  -0.470  -0.001  0.00  0.00    +0.292 HD
ENDBRANCH  19  20
ENDBRANCH  12  14
ENDBRANCH   1  12
TORSDOF 4
