136274596
  -OEChem-03292013293D

 25 26  0     0  0  0  0  0  0999 V2000
    3.7155    1.2756    0.0035 O   0  0  0  0  0  0  0  0  0  0  0  0
   -1.0627   -2.6292    0.0032 O   0  0  0  0  0  0  0  0  0  0  0  0
    0.7025   -0.5611    0.0023 N   0  0  0  0  0  0  0  0  0  0  0  0
   -2.8602   -1.1654    0.0003 N   0  0  0  0  0  0  0  0  0  0  0  0
   -0.3785    2.0333   -0.0006 N   0  0  0  0  0  0  0  0  0  0  0  0
   -2.5584    1.1725   -0.0020 N   0  0  0  0  0  0  0  0  0  0  0  0
   -4.7178    0.2566   -0.0043 N   0  0  0  0  0  0  0  0  0  0  0  0
   -0.6237   -0.3249    0.0013 C   0  0  0  0  0  0  0  0  0  0  0  0
    1.4830    0.5361    0.0019 C   0  0  0  0  0  0  0  0  0  0  0  0
   -1.1734    0.9434   -0.0004 C   0  0  0  0  0  0  0  0  0  0  0  0
    3.4758   -1.1216    0.0045 C   0  0  0  0  0  0  0  0  0  0  0  0
    2.9163    0.3143    0.0031 C   0  0  0  0  0  0  0  0  0  0  0  0
   -1.5131   -1.4906    0.0018 C   0  0  0  0  0  0  0  0  0  0  0  0
    0.9528    1.8086    0.0006 C   0  0  0  0  0  0  0  0  0  0  0  0
   -3.3532    0.1374   -0.0018 C   0  0  0  0  0  0  0  0  0  0  0  0
    4.9951   -1.1851   -0.0134 C   0  0  0  0  0  0  0  0  0  0  0  0
    3.1077   -1.6295    0.9028 H   0  0  0  0  0  0  0  0  0  0  0  0
    3.0878   -1.6397   -0.8794 H   0  0  0  0  0  0  0  0  0  0  0  0
    1.5664    2.7021    0.0004 H   0  0  0  0  0  0  0  0  0  0  0  0
   -3.5311   -1.9281    0.0004 H   0  0  0  0  0  0  0  0  0  0  0  0
    5.3972   -0.6933   -0.9051 H   0  0  0  0  0  0  0  0  0  0  0  0
    5.4183   -0.6866    0.8648 H   0  0  0  0  0  0  0  0  0  0  0  0
    5.3333   -2.2258   -0.0134 H   0  0  0  0  0  0  0  0  0  0  0  0
   -5.1654    1.1667   -0.0061 H   0  0  0  0  0  0  0  0  0  0  0  0
   -5.3202   -0.5592   -0.0043 H   0  0  0  0  0  0  0  0  0  0  0  0
  1 12  2  0  0  0  0
  2 13  2  0  0  0  0
  3  8  2  0  0  0  0
  3  9  1  0  0  0  0
  4 13  1  0  0  0  0
  4 15  1  0  0  0  0
  4 20  1  0  0  0  0
  5 10  2  0  0  0  0
  5 14  1  0  0  0  0
  6 10  1  0  0  0  0
  6 15  2  0  0  0  0
  7 15  1  0  0  0  0
  7 24  1  0  0  0  0
  7 25  1  0  0  0  0
  8 10  1  0  0  0  0
  8 13  1  0  0  0  0
  9 12  1  0  0  0  0
  9 14  2  0  0  0  0
 11 12  1  0  0  0  0
 11 16  1  0  0  0  0
 11 17  1  0  0  0  0
 11 18  1  0  0  0  0
 14 19  1  0  0  0  0
 16 21  1  0  0  0  0
 16 22  1  0  0  0  0
 16 23  1  0  0  0  0
M  END
> <PUBCHEM_COMPOUND_CID>
136274596

> <PUBCHEM_CONFORMER_RMSD>
0.6

> <PUBCHEM_CONFORMER_DIVERSEORDER>
1
6
5
7
8
3
4
2

> <PUBCHEM_MMFF94_PARTIAL_CHARGES>
19
1 -0.57
10 0.49
11 0.06
12 0.42
13 0.54
14 0.16
15 0.56
19 0.15
2 -0.57
20 0.37
24 0.4
25 0.4
3 -0.62
4 -0.49
5 -0.62
6 -0.63
7 -0.85
8 0.4
9 0.4

> <PUBCHEM_EFFECTIVE_ROTOR_COUNT>
2

> <PUBCHEM_PHARMACOPHORE_FEATURES>
9
1 1 acceptor
1 16 hydrophobe
1 2 acceptor
1 3 acceptor
1 4 donor
1 7 donor
3 5 6 10 cation
6 3 5 8 9 10 14 rings
6 4 6 8 10 13 15 rings

> <PUBCHEM_HEAVY_ATOM_COUNT>
16

> <PUBCHEM_ATOM_DEF_STEREO_COUNT>
0

> <PUBCHEM_ATOM_UDEF_STEREO_COUNT>
0

> <PUBCHEM_BOND_DEF_STEREO_COUNT>
0

> <PUBCHEM_BOND_UDEF_STEREO_COUNT>
0

> <PUBCHEM_ISOTOPIC_ATOM_COUNT>
0

> <PUBCHEM_COMPONENT_COUNT>
1

> <PUBCHEM_CACTVS_TAUTO_COUNT>
-1

> <PUBCHEM_CONFORMER_ID>
081F62A400000001

> <PUBCHEM_MMFF94_ENERGY>
37.5991

> <PUBCHEM_FEATURE_SELFOVERLAP>
45.761

> <PUBCHEM_SHAPE_FINGERPRINT>
10967382 1 18410573980893452578
11132069 177 18410848880454659272
11458722 379 18336268938218737346
12032990 46 18409171016925520593
12715332 25 18201719578740382327
13288520 33 18340771438592566294
13380535 76 18342177752097276383
13690532 89 18410292501811704673
13862211 1 18410851045266194151
14115302 16 18187092771023363990
14144814 61 18410012156289989282
14911166 2 18409161104520803253
14993402 34 18408601452970409221
15099037 51 18409728443851712223
15196674 1 18410855494572439111
15242433 33 18408326609607807060
15442244 35 18411139134471292264
15536298 74 18413387657504356160
16945 1 18338516464402481697
17804303 29 18341615914729905320
18186145 218 17458337572235025662
200 152 17774997977306318223
20510252 161 18200592497295754816
20645476 183 17824282572478025078
20645477 70 18413389830605074198
21267235 1 18410020913760305018
21501502 16 18122627420649850717
23402539 116 18272643520217868325
23463225 33 18409730660059981686
23559900 14 18341610452043448232
2748010 2 18051128400025330885
335352 9 18410573946512596157
34934 24 18339636862640776024
43471831 8 18191303767124246051
5104073 3 18411419548274369234
54173680 148 18337675342239124299
559249 180 17898563182165727962
69090 78 18341609321760089639
7364860 26 18341049743883828136
8809292 202 18335704961646598770
9709674 26 18341899588904510294

> <PUBCHEM_SHAPE_MULTIPOLES>
292.63
7.82
2.06
0.58
3.28
0.32
0
1.65
0.02
0.01
0
0.04
0
0.01

> <PUBCHEM_SHAPE_SELFOVERLAP>
629.918

> <PUBCHEM_SHAPE_VOLUME>
159.6

> <PUBCHEM_COORDINATE_TYPE>
2
5
10

$$$$
