136240579
  -OEChem-03292013293D

 37 40  0     0  0  0  0  0  0999 V2000
    0.4743    0.0227    0.2544 S   0  0  0  0  0  0  0  0  0  0  0  0
    5.6107   -1.9505   -0.9424 S   0  0  0  0  0  0  0  0  0  0  0  0
    0.8156    3.6965   -0.7706 O   0  0  0  0  0  0  0  0  0  0  0  0
    2.1680    1.8493   -0.3524 N   0  0  0  0  0  0  0  0  0  0  0  0
    3.1456   -0.2296    0.1545 N   0  0  0  0  0  0  0  0  0  0  0  0
   -5.8072   -1.3829    1.0805 N   0  0  0  0  0  0  0  0  0  0  0  0
   -2.5713    1.0782    0.1606 C   0  0  0  0  0  0  0  0  0  0  0  0
   -4.2674   -0.5049   -0.5522 C   0  0  0  0  0  0  0  0  0  0  0  0
   -3.1757    0.3299   -0.8453 C   0  0  0  0  0  0  0  0  0  0  0  0
   -4.7630   -0.5932    0.7656 C   0  0  0  0  0  0  0  0  0  0  0  0
   -1.4412    1.9399   -0.1470 C   0  0  0  0  0  0  0  0  0  0  0  0
   -0.1390    1.5873   -0.1335 C   0  0  0  0  0  0  0  0  0  0  0  0
   -3.0543    0.9962    1.4608 C   0  0  0  0  0  0  0  0  0  0  0  0
   -4.1398    0.1663    1.7519 C   0  0  0  0  0  0  0  0  0  0  0  0
    2.1202    0.5322    0.0109 C   0  0  0  0  0  0  0  0  0  0  0  0
    0.9667    2.5243   -0.4602 C   0  0  0  0  0  0  0  0  0  0  0  0
   -4.8944   -1.2692   -1.5455 C   0  0  0  0  0  0  0  0  0  0  0  0
    4.4255    0.4193   -0.1040 C   0  0  0  0  0  0  0  0  0  0  0  0
    5.5738   -0.5410    0.0295 C   0  0  0  0  0  0  0  0  0  0  0  0
   -5.9705   -2.0839   -1.2241 C   0  0  0  0  0  0  0  0  0  0  0  0
   -6.3842   -2.1045    0.0924 C   0  0  0  0  0  0  0  0  0  0  0  0
    6.6674   -0.4591    0.8630 C   0  0  0  0  0  0  0  0  0  0  0  0
    7.5473   -1.5680    0.7017 C   0  0  0  0  0  0  0  0  0  0  0  0
    7.0927   -2.4552   -0.2489 C   0  0  0  0  0  0  0  0  0  0  0  0
   -2.8013    0.3911   -1.8662 H   0  0  0  0  0  0  0  0  0  0  0  0
   -1.7163    2.9601   -0.4069 H   0  0  0  0  0  0  0  0  0  0  0  0
   -2.5993    1.5713    2.2638 H   0  0  0  0  0  0  0  0  0  0  0  0
   -4.4993    0.1196    2.7783 H   0  0  0  0  0  0  0  0  0  0  0  0
   -4.5475   -1.2339   -2.5757 H   0  0  0  0  0  0  0  0  0  0  0  0
    4.5866    1.2407    0.6071 H   0  0  0  0  0  0  0  0  0  0  0  0
    4.4636    0.8313   -1.1218 H   0  0  0  0  0  0  0  0  0  0  0  0
    3.0325    2.3441   -0.5402 H   0  0  0  0  0  0  0  0  0  0  0  0
   -6.4669   -2.6814   -1.9795 H   0  0  0  0  0  0  0  0  0  0  0  0
   -7.2203   -2.7226    0.4028 H   0  0  0  0  0  0  0  0  0  0  0  0
    6.8330    0.3550    1.5572 H   0  0  0  0  0  0  0  0  0  0  0  0
    8.4670   -1.7079    1.2548 H   0  0  0  0  0  0  0  0  0  0  0  0
    7.5600   -3.3757   -0.5693 H   0  0  0  0  0  0  0  0  0  0  0  0
  1 12  1  0  0  0  0
  1 15  1  0  0  0  0
  2 19  1  0  0  0  0
  2 24  1  0  0  0  0
  3 16  2  0  0  0  0
  4 15  1  0  0  0  0
  4 16  1  0  0  0  0
  4 32  1  0  0  0  0
  5 15  2  0  0  0  0
  5 18  1  0  0  0  0
  6 10  1  0  0  0  0
  6 21  2  0  0  0  0
  7  9  2  0  0  0  0
  7 11  1  0  0  0  0
  7 13  1  0  0  0  0
  8  9  1  0  0  0  0
  8 10  2  0  0  0  0
  8 17  1  0  0  0  0
  9 25  1  0  0  0  0
 10 14  1  0  0  0  0
 11 12  2  3  0  0  0
 11 26  1  0  0  0  0
 12 16  1  0  0  0  0
 13 14  2  0  0  0  0
 13 27  1  0  0  0  0
 14 28  1  0  0  0  0
 17 20  2  0  0  0  0
 17 29  1  0  0  0  0
 18 19  1  0  0  0  0
 18 30  1  0  0  0  0
 18 31  1  0  0  0  0
 19 22  2  0  0  0  0
 20 21  1  0  0  0  0
 20 33  1  0  0  0  0
 21 34  1  0  0  0  0
 22 23  1  0  0  0  0
 22 35  1  0  0  0  0
 23 24  2  0  0  0  0
 23 36  1  0  0  0  0
 24 37  1  0  0  0  0
M  END
> <PUBCHEM_COMPOUND_CID>
136240579

> <PUBCHEM_CONFORMER_RMSD>
0.6

> <PUBCHEM_CONFORMER_DIVERSEORDER>
1
33
57
46
58
32
63
40
9
15
72
61
36
39
34
49
60
42
56
18
51
41
45
55
64
62
13
54
23
66
6
48
65
28
67
37
4
12
5
68
22
14
59
25
70
26
38
8
7
35
31
53
47
11
71
3
19
30
2
69
52
16
10
17
50
27
29
44
20
24
43
21

> <PUBCHEM_MMFF94_PARTIAL_CHARGES>
34
1 -0.24
10 0.31
11 -0.18
12 0.12
13 -0.15
14 -0.15
15 0.65
16 0.62
17 -0.15
18 0.43
19 -0.14
2 -0.08
20 -0.15
21 0.16
22 -0.15
23 -0.15
24 -0.11
25 0.15
26 0.15
27 0.15
28 0.15
29 0.15
3 -0.57
32 0.37
33 0.15
34 0.15
35 0.15
36 0.15
37 0.15
4 -0.49
5 -0.7
6 -0.62
7 0.03
9 -0.15

> <PUBCHEM_EFFECTIVE_ROTOR_COUNT>
3.4

> <PUBCHEM_PHARMACOPHORE_FEATURES>
7
1 3 acceptor
1 4 donor
1 6 acceptor
5 1 4 12 15 16 rings
5 2 19 22 23 24 rings
6 6 8 10 17 20 21 rings
6 7 8 9 10 13 14 rings

> <PUBCHEM_HEAVY_ATOM_COUNT>
24

> <PUBCHEM_ATOM_DEF_STEREO_COUNT>
0

> <PUBCHEM_ATOM_UDEF_STEREO_COUNT>
0

> <PUBCHEM_BOND_DEF_STEREO_COUNT>
0

> <PUBCHEM_BOND_UDEF_STEREO_COUNT>
1

> <PUBCHEM_ISOTOPIC_ATOM_COUNT>
0

> <PUBCHEM_COMPONENT_COUNT>
1

> <PUBCHEM_CACTVS_TAUTO_COUNT>
-1

> <PUBCHEM_CONFORMER_ID>
081EDDC300000001

> <PUBCHEM_MMFF94_ENERGY>
58.246

> <PUBCHEM_FEATURE_SELFOVERLAP>
35.554

> <PUBCHEM_SHAPE_FINGERPRINT>
10 15 13470689256291987170
10319926 262 16271382836874425641
10740516 88 17679879377820400027
11211813 128 18341894070720678786
11475781 23 11025804176680157218
11963148 33 18337104558878044878
12166972 35 18343302604042616216
12236239 1 18129669724539450825
12293681 160 11530481121150273364
12390115 104 9871456630444704452
12596602 18 17418374667125795866
12760667 363 18334577927588587864
13533116 47 18270962478360637960
13540713 5 18264510466857113740
13668630 136 18186800296387923555
13757389 114 8061112994902519168
13782708 43 18270957930923759562
13862211 1 18335421257861182930
14123256 34 18333733524196732210
14251764 18 18202282528962653454
14251764 30 18201997703716098186
14556957 393 16588600699205337118
14849402 71 17202474675718059016
14931854 50 17313097540640592603
15183329 4 18259985964251115570
15188451 53 17846213384640682109
15326921 28 17128759898645434841
15716309 27 18272370866993213706
16992779 147 16127224867578570506
17780758 139 17704072867892912881
18222031 100 18335132107593603400
190975 80 18343860031464153440
19784866 240 18410575119671845885
20028762 73 18343865532674558374
20281389 69 11024105439172018898
20526848 3 9223232957424542634
20621476 66 10087634918975138946
21307412 95 17603866763041707707
21315759 148 16988287469806332702
21365058 113 17386008407257087573
21682296 61 18409169908823919250
21756936 100 8430309152164644169
21774942 28 12468628422993211798
229767 44 17846775234624365726
229767 8 17912374126411702790
23081809 10 18334869303056051700
23198884 109 13406792229355797019
23389318 12 18187368753596681278
23522609 53 18124068751725168592
23559900 14 17168711971768242837
270888 7 9223236243063714847
2838139 119 11458431236689371686
3014063 24 18342454858991838374
312425 54 17561091254556430234
314194 84 18410018762192647368
3383291 50 18334575767400322106
34797466 226 16009320936052969212
3627633 1 18337107844195782052
3663271 9 17561083601304335370
397830 11 17489576879813906024
406291 66 18341609356268190415
445580 204 11169908381701970726
44880568 143 16950276308751096876
4938544 92 17702670938838597905
5104073 3 17561365097318286128
559249 180 18342176661955901997
5718773 13 18410291454030004279
636775 72 8717667586127306142
636775 8 18269283375036748318
6431902 208 18408604729925331370
6712543 237 16056884624039212015
7970288 3 18410854373565337246
96874 4 18129936896953637735

> <PUBCHEM_SHAPE_MULTIPOLES>
480.8
20.69
2.91
1.24
20.49
1.15
0.17
-20.9
1.96
0.32
-0.94
-1.46
-0.17
-0.85

> <PUBCHEM_SHAPE_SELFOVERLAP>
1037.454

> <PUBCHEM_SHAPE_VOLUME>
265.5

> <PUBCHEM_COORDINATE_TYPE>
2
5
10

$$$$
