REMARK  Name = 136218794
REMARK  2 active torsions:
REMARK  status: ('A' for Active; 'I' for Inactive)
REMARK    1  A    between atoms: C_7  and  O_27
REMARK    2  A    between atoms: C_21  and  O_29
REMARK                            x       y       z     vdW  Elec       q    Type
REMARK                         _______ _______ _______ _____ _____    ______ ____
ROOT
ATOM      1  O   UNL     1      -3.217   1.306   0.268  0.00  0.00    -0.351 OA
ATOM      2  O   UNL     1      -1.170  -2.828  -0.363  0.00  0.00    -0.293 OA
ATOM      3  O   UNL     1       4.224   0.490   0.025  0.00  0.00    -0.446 OA
ATOM      4  O   UNL     1       1.494  -3.129  -0.166  0.00  0.00    -0.288 OA
ATOM      5  N   UNL     1       4.058  -1.768  -0.062  0.00  0.00    -0.369 NA
ATOM      6  C   UNL     1      -3.568  -1.011  -0.210  0.00  0.00    +0.057 C 
ATOM      7  C   UNL     1      -2.203  -0.837   0.481  0.00  0.00    +0.170 C 
ATOM      8  C   UNL     1      -4.245   0.293   0.282  0.00  0.00    +0.118 C 
ATOM      9  C   UNL     1      -2.003   0.634   0.308  0.00  0.00    +0.168 C 
ATOM     10  C   UNL     1      -4.316  -2.273   0.282  0.00  0.00    +0.005 C 
ATOM     11  C   UNL     1      -3.508  -1.050  -1.743  0.00  0.00    +0.005 C 
ATOM     12  C   UNL     1      -1.032  -1.651  -0.031  0.00  0.00    +0.188 C 
ATOM     13  C   UNL     1      -0.804   1.222   0.109  0.00  0.00    +0.000 C 
ATOM     14  C   UNL     1       0.402   0.345   0.043  0.00  0.00    -0.007 C 
ATOM     15  C   UNL     1       0.328  -1.014  -0.023  0.00  0.00    +0.146 C 
ATOM     16  C   UNL     1      -5.433   0.792  -0.527  0.00  0.00    +0.032 C 
ATOM     17  C   UNL     1      -0.612   2.687  -0.042  0.00  0.00    -0.021 C 
ATOM     18  C   UNL     1       1.738   1.000   0.010  0.00  0.00    +0.055 C 
ATOM     19  C   UNL     1       1.559  -1.909  -0.094  0.00  0.00    +0.213 C 
ATOM     20  C   UNL     1       2.889   0.175   0.001  0.00  0.00    +0.247 C 
ATOM     21  C   UNL     1       1.831   2.343  -0.047  0.00  0.00    +0.133 C 
ATOM     22  C   UNL     1       0.643   3.179  -0.102  0.00  0.00    +0.032 C 
ATOM     23  C   UNL     1       2.813  -1.202  -0.052  0.00  0.00    +0.191 C 
ATOM     24  C   UNL     1      -1.772   3.639  -0.126  0.00  0.00    +0.031 C 
ATOM     25  C   UNL     1       4.850  -0.720  -0.013  0.00  0.00    +0.253 C 
ATOM     26  C   UNL     1       6.320  -0.684   0.003  0.00  0.00    +0.110 C 
ENDROOT
BRANCH   7  27
ATOM     27  O   UNL     1      -2.266  -1.100   1.880  0.00  0.00    -0.377 OA
ATOM     28  H   UNL     1      -3.002  -0.603   2.270  0.00  0.00    +0.211 HD
ENDBRANCH   7  27
BRANCH  21  29
ATOM     29  O   UNL     1       3.000   3.070  -0.092  0.00  0.00    -0.506 OA
ATOM     30  H   UNL     1       3.827   2.630  -0.062  0.00  0.00    +0.292 HD
ENDBRANCH  21  29
TORSDOF 2
