REMARK  Name = 136347029
REMARK  4 active torsions:
REMARK  status: ('A' for Active; 'I' for Inactive)
REMARK    1  A    between atoms: C_19  and  O_25
REMARK    2  A    between atoms: C_20  and  O_23
REMARK    3  A    between atoms: C_21  and  O_29
REMARK    4  A    between atoms: C_22  and  O_27
REMARK                            x       y       z     vdW  Elec       q    Type
REMARK                         _______ _______ _______ _____ _____    ______ ____
ROOT
ATOM      1  O   UNL     1       1.539   1.575   0.001  0.00  0.00    -0.450 OA
ATOM      2  O   UNL     1      -1.539   1.575   0.000  0.00  0.00    -0.450 OA
ATOM      3  O   UNL     1      -1.349  -3.048   0.004  0.00  0.00    -0.283 OA
ATOM      4  O   UNL     1       1.348  -3.048  -0.003  0.00  0.00    -0.283 OA
ATOM      5  C   UNL     1       0.712   0.499   0.001  0.00  0.00    +0.183 A 
ATOM      6  C   UNL     1      -0.712   0.498   0.000  0.00  0.00    +0.183 A 
ATOM      7  C   UNL     1      -1.443  -0.680   0.000  0.00  0.00    +0.083 A 
ATOM      8  C   UNL     1       1.442  -0.680   0.000  0.00  0.00    +0.083 A 
ATOM      9  C   UNL     1       2.810  -0.306   0.000  0.00  0.00    +0.044 A 
ATOM     10  C   UNL     1      -2.810  -0.306   0.000  0.00  0.00    +0.044 A 
ATOM     11  C   UNL     1       2.815   1.088   0.000  0.00  0.00    +0.149 A 
ATOM     12  C   UNL     1      -2.815   1.089   0.000  0.00  0.00    +0.149 A 
ATOM     13  C   UNL     1       0.768  -1.972  -0.001  0.00  0.00    +0.237 C 
ATOM     14  C   UNL     1      -0.768  -1.972   0.001  0.00  0.00    +0.237 C 
ATOM     15  C   UNL     1      -4.045  -0.979   0.000  0.00  0.00    +0.043 C 
ATOM     16  C   UNL     1       4.045  -0.979  -0.001  0.00  0.00    +0.043 C 
ATOM     17  C   UNL     1      -3.973   1.864   0.000  0.00  0.00    +0.077 C 
ATOM     18  C   UNL     1       3.973   1.864   0.000  0.00  0.00    +0.077 C 
ATOM     19  C   UNL     1       5.226  -0.224   0.000  0.00  0.00    +0.168 C 
ATOM     20  C   UNL     1      -5.226  -0.224   0.000  0.00  0.00    +0.168 C 
ATOM     21  C   UNL     1      -5.188   1.172   0.000  0.00  0.00    +0.171 C 
ATOM     22  C   UNL     1       5.188   1.172   0.000  0.00  0.00    +0.171 C 
ENDROOT
BRANCH  20  23
ATOM     23  O   UNL     1      -6.424  -0.877   0.000  0.00  0.00    -0.503 OA
ATOM     24  H   UNL     1      -6.447  -1.813  -0.001  0.00  0.00    +0.292 HD
ENDBRANCH  20  23
BRANCH  19  25
ATOM     25  O   UNL     1       6.425  -0.876   0.000  0.00  0.00    -0.503 OA
ATOM     26  H   UNL     1       6.448  -1.813   0.000  0.00  0.00    +0.292 HD
ENDBRANCH  19  25
BRANCH  22  27
ATOM     27  O   UNL     1       6.351   1.888   0.000  0.00  0.00    -0.503 OA
ATOM     28  H   UNL     1       6.325   2.824   0.000  0.00  0.00    +0.292 HD
ENDBRANCH  22  27
BRANCH  21  29
ATOM     29  O   UNL     1      -6.350   1.888  -0.001  0.00  0.00    -0.503 OA
ATOM     30  H   UNL     1      -6.323   2.825  -0.001  0.00  0.00    +0.292 HD
ENDBRANCH  21  29
TORSDOF 4
