REMARK  Name = 136349541
REMARK  7 active torsions:
REMARK  status: ('A' for Active; 'I' for Inactive)
REMARK    1  A    between atoms: N_3  and  C_16
REMARK    2  A    between atoms: C_16  and  C_17
REMARK    3  A    between atoms: C_17  and  C_18
REMARK    4  A    between atoms: C_18  and  C_19
REMARK    5  A    between atoms: C_18  and  C_22
REMARK    6  A    between atoms: C_19  and  O_20
REMARK    7  A    between atoms: C_22  and  O_23
REMARK                            x       y       z     vdW  Elec       q    Type
REMARK                         _______ _______ _______ _____ _____    ______ ____
ROOT
ATOM      1  F   UNL     1       0.784  -2.828   0.841  0.00  0.00    -0.152 F 
ATOM      2  O   UNL     1      -3.911  -1.384  -1.176  0.00  0.00    -0.267 OA
ATOM      3  N   UNL     1       0.028  -0.555   0.876  0.00  0.00    -0.212 N 
ATOM      4  N   UNL     1      -1.274  -2.131  -0.032  0.00  0.00    -0.353 NA
ATOM      5  N   UNL     1      -1.355   1.404   0.551  0.00  0.00    -0.355 NA
ATOM      6  N   UNL     1      -3.401   0.805  -0.543  0.00  0.00    -0.242 N 
ATOM      7  N   UNL     1      -2.970   3.040   0.059  0.00  0.00    -0.321 N 
ATOM      8  C   UNL     1      -1.097   0.082   0.443  0.00  0.00    +0.228 C 
ATOM      9  C   UNL     1      -1.874  -0.909  -0.107  0.00  0.00    +0.233 C 
ATOM     10  C   UNL     1      -0.125  -1.885   0.568  0.00  0.00    +0.337 C 
ATOM     11  C   UNL     1      -3.153  -0.569  -0.665  0.00  0.00    +0.286 C 
ATOM     12  C   UNL     1      -2.522   1.744   0.047  0.00  0.00    +0.240 C 
ATOM     13  H   UNL     1      -4.255   1.145  -0.897  0.00  0.00    +0.159 HD
ATOM     14  H   UNL     1      -2.413   3.749   0.453  0.00  0.00    +0.146 HD
ATOM     15  H   UNL     1      -3.848   3.260  -0.327  0.00  0.00    +0.146 HD
ENDROOT
BRANCH   3  16
ATOM     16  C   UNL     1       1.220   0.063   1.563  0.00  0.00    +0.103 C 
BRANCH  16  17
ATOM     17  C   UNL     1       2.559  -0.221   0.867  0.00  0.00    +0.027 C 
BRANCH  17  18
ATOM     18  C   UNL     1       2.713   0.391  -0.548  0.00  0.00    +0.060 C 
BRANCH  18  19
ATOM     19  C   UNL     1       4.062  -0.031  -1.156  0.00  0.00    +0.140 C 
BRANCH  19  20
ATOM     20  O   UNL     1       4.117  -1.447  -1.279  0.00  0.00    -0.382 OA
ATOM     21  H   UNL     1       4.969  -1.706  -1.663  0.00  0.00    +0.210 HD
ENDBRANCH  19  20
ENDBRANCH  18  19
BRANCH  18  22
ATOM     22  C   UNL     1       2.594   1.921  -0.556  0.00  0.00    +0.140 C 
BRANCH  22  23
ATOM     23  O   UNL     1       3.606   2.511   0.247  0.00  0.00    -0.382 OA
ATOM     24  H   UNL     1       3.513   3.476   0.228  0.00  0.00    +0.210 HD
ENDBRANCH  22  23
ENDBRANCH  18  22
ENDBRANCH  17  18
ENDBRANCH  16  17
ENDBRANCH   3  16
TORSDOF 7
