136347029
  -OEChem-03292013293D

 34 38  0     0  0  0  0  0  0999 V2000
    1.5389    1.5751    0.0006 O   0  0  0  0  0  0  0  0  0  0  0  0
   -1.5389    1.5751    0.0003 O   0  0  0  0  0  0  0  0  0  0  0  0
   -1.3488   -3.0481    0.0037 O   0  0  0  0  0  0  0  0  0  0  0  0
    1.3484   -3.0483   -0.0029 O   0  0  0  0  0  0  0  0  0  0  0  0
   -6.4243   -0.8767   -0.0004 O   0  0  0  0  0  0  0  0  0  0  0  0
    6.4245   -0.8761    0.0002 O   0  0  0  0  0  0  0  0  0  0  0  0
    6.3506    1.8876   -0.0003 O   0  0  0  0  0  0  0  0  0  0  0  0
   -6.3501    1.8883   -0.0008 O   0  0  0  0  0  0  0  0  0  0  0  0
    0.7120    0.4986    0.0005 C   0  0  0  0  0  0  0  0  0  0  0  0
   -0.7119    0.4985    0.0003 C   0  0  0  0  0  0  0  0  0  0  0  0
   -1.4426   -0.6804    0.0004 C   0  0  0  0  0  0  0  0  0  0  0  0
    1.4425   -0.6805   -0.0002 C   0  0  0  0  0  0  0  0  0  0  0  0
    2.8102   -0.3063   -0.0001 C   0  0  0  0  0  0  0  0  0  0  0  0
   -2.8103   -0.3063   -0.0001 C   0  0  0  0  0  0  0  0  0  0  0  0
    2.8146    1.0883    0.0004 C   0  0  0  0  0  0  0  0  0  0  0  0
   -2.8146    1.0885    0.0001 C   0  0  0  0  0  0  0  0  0  0  0  0
    0.7683   -1.9723   -0.0012 C   0  0  0  0  0  0  0  0  0  0  0  0
   -0.7684   -1.9723    0.0009 C   0  0  0  0  0  0  0  0  0  0  0  0
   -4.0454   -0.9791   -0.0004 C   0  0  0  0  0  0  0  0  0  0  0  0
    4.0454   -0.9792   -0.0005 C   0  0  0  0  0  0  0  0  0  0  0  0
   -3.9730    1.8641    0.0000 C   0  0  0  0  0  0  0  0  0  0  0  0
    3.9730    1.8641    0.0003 C   0  0  0  0  0  0  0  0  0  0  0  0
    5.2258   -0.2237   -0.0003 C   0  0  0  0  0  0  0  0  0  0  0  0
   -5.2259   -0.2236   -0.0004 C   0  0  0  0  0  0  0  0  0  0  0  0
   -5.1877    1.1724   -0.0002 C   0  0  0  0  0  0  0  0  0  0  0  0
    5.1877    1.1724    0.0000 C   0  0  0  0  0  0  0  0  0  0  0  0
    4.0790   -2.0649   -0.0008 H   0  0  0  0  0  0  0  0  0  0  0  0
   -4.0791   -2.0648   -0.0005 H   0  0  0  0  0  0  0  0  0  0  0  0
    3.9239    2.9471    0.0005 H   0  0  0  0  0  0  0  0  0  0  0  0
   -3.9239    2.9471    0.0001 H   0  0  0  0  0  0  0  0  0  0  0  0
    6.2637   -1.8353    0.0000 H   0  0  0  0  0  0  0  0  0  0  0  0
   -6.2630   -1.8358   -0.0005 H   0  0  0  0  0  0  0  0  0  0  0  0
    6.1387    2.8369   -0.0001 H   0  0  0  0  0  0  0  0  0  0  0  0
   -6.1377    2.8375   -0.0007 H   0  0  0  0  0  0  0  0  0  0  0  0
  1  9  1  0  0  0  0
  1 15  1  0  0  0  0
  2 10  1  0  0  0  0
  2 16  1  0  0  0  0
  3 18  2  0  0  0  0
  4 17  2  0  0  0  0
  5 24  1  0  0  0  0
  5 32  1  0  0  0  0
  6 23  1  0  0  0  0
  6 31  1  0  0  0  0
  7 26  1  0  0  0  0
  7 33  1  0  0  0  0
  8 25  1  0  0  0  0
  8 34  1  0  0  0  0
  9 10  1  0  0  0  0
  9 12  2  0  0  0  0
 10 11  2  0  0  0  0
 11 14  1  0  0  0  0
 11 18  1  0  0  0  0
 12 13  1  0  0  0  0
 12 17  1  0  0  0  0
 13 15  1  0  0  0  0
 13 20  2  0  0  0  0
 14 16  1  0  0  0  0
 14 19  2  0  0  0  0
 15 22  2  0  0  0  0
 16 21  2  0  0  0  0
 17 18  1  0  0  0  0
 19 24  1  0  0  0  0
 19 28  1  0  0  0  0
 20 23  1  0  0  0  0
 20 27  1  0  0  0  0
 21 25  1  0  0  0  0
 21 30  1  0  0  0  0
 22 26  1  0  0  0  0
 22 29  1  0  0  0  0
 23 26  2  0  0  0  0
 24 25  2  0  0  0  0
M  END
> <PUBCHEM_COMPOUND_CID>
136347029

> <PUBCHEM_CONFORMER_RMSD>
0.6

> <PUBCHEM_CONFORMER_DIVERSEORDER>
1

> <PUBCHEM_MMFF94_PARTIAL_CHARGES>
32
1 -0.28
10 0.14
11 -0.09
12 -0.09
15 0.14
16 0.14
17 0.66
18 0.66
19 -0.15
2 -0.28
20 -0.15
21 -0.15
22 -0.15
23 0.08
24 0.08
25 0.08
26 0.08
27 0.15
28 0.15
29 0.15
3 -0.57
30 0.15
31 0.45
32 0.45
33 0.45
34 0.45
4 -0.57
5 -0.53
6 -0.53
7 -0.53
8 -0.53
9 0.14

> <PUBCHEM_EFFECTIVE_ROTOR_COUNT>
0

> <PUBCHEM_PHARMACOPHORE_FEATURES>
13
1 1 acceptor
1 2 acceptor
1 3 acceptor
1 4 acceptor
1 5 donor
1 6 donor
1 7 donor
1 8 donor
5 1 9 12 13 15 rings
5 2 10 11 14 16 rings
6 13 15 20 22 23 26 rings
6 14 16 19 21 24 25 rings
6 9 10 11 12 17 18 rings

> <PUBCHEM_HEAVY_ATOM_COUNT>
26

> <PUBCHEM_ATOM_DEF_STEREO_COUNT>
0

> <PUBCHEM_ATOM_UDEF_STEREO_COUNT>
0

> <PUBCHEM_BOND_DEF_STEREO_COUNT>
0

> <PUBCHEM_BOND_UDEF_STEREO_COUNT>
0

> <PUBCHEM_ISOTOPIC_ATOM_COUNT>
0

> <PUBCHEM_COMPONENT_COUNT>
1

> <PUBCHEM_CACTVS_TAUTO_COUNT>
-1

> <PUBCHEM_CONFORMER_ID>
08207D9500000001

> <PUBCHEM_MMFF94_ENERGY>
48.8656

> <PUBCHEM_FEATURE_SELFOVERLAP>
66.359

> <PUBCHEM_SHAPE_FINGERPRINT>
10 15 18261669389709882216
10050765 1 18194402191782225443
10906281 52 18338817657299774184
12107183 9 17618786855702627601
12236239 1 18260266351898966816
12403259 415 18410564089552719028
12788726 201 17703516510329734712
12838862 33 18338779178688042145
13140716 1 18266178520400327522
13402501 40 18410855460128493108
13533116 47 17846218835191739370
13631057 29 18200590423754815895
13785724 45 17761489189018573682
138480 1 17762056536496064802
14251764 18 18334009506754147200
14790565 3 18410578387493481696
15042514 8 18192153913631356651
15131766 46 15866338314136975670
15196674 1 18410855464423135591
18608769 82 18339645659061307355
18681886 176 18411414038010987728
19611394 137 17896897632603044899
200 152 18131068230009361881
21033648 29 18341321283978782488
21236236 1 18341049730840664239
21267235 1 18410581686027877827
21279426 13 18340489950161144374
21709351 56 18335133194315184309
23402539 116 18343578555754414621
23559900 14 18272367629258103936
23569917 315 18412832377762321286
3004659 81 18407762517741607108
335352 9 18410857647258442102
34797466 226 17489033755382543532
350125 39 18410011013744688644
3545911 37 18411419526820819176
3680242 22 18336263432065214338
38695281 34 18202563951762005847
4073 2 18041003976492035354
4214541 1 18410575093311315104
4340502 62 18411984645737818046
474229 33 18411138047928910399
495365 180 17274812610960907800
5104073 3 18408604751262570401
59755656 215 18410577245153266758
59755656 520 18040994055339529987
6138700 20 18337956684493841862
9996256 80 18341893026009553703

> <PUBCHEM_SHAPE_MULTIPOLES>
488.11
14.64
2.55
0.59
0
1.12
0
-5.75
0
0
0
0
0
0

> <PUBCHEM_SHAPE_SELFOVERLAP>
1141.799

> <PUBCHEM_SHAPE_VOLUME>
246.4

> <PUBCHEM_COORDINATE_TYPE>
2
5
10

$$$$
