REMARK  Name = 136372377
REMARK  4 active torsions:
REMARK  status: ('A' for Active; 'I' for Inactive)
REMARK    1  A    between atoms: N_3  and  C_7
REMARK    2  A    between atoms: N_3  and  C_20
REMARK    3  A    between atoms: C_8  and  O_25
REMARK    4  A    between atoms: C_9  and  O_27
REMARK                            x       y       z     vdW  Elec       q    Type
REMARK                         _______ _______ _______ _____ _____    ______ ____
ROOT
ATOM      1  N   UNL     1       0.034   0.186  -0.008  0.00  0.00    -0.370 NA
ATOM      2  N   UNL     1       0.280  -2.190   0.001  0.00  0.00    -0.273 N 
ATOM      3  C   UNL     1      -1.906  -1.028  -0.001  0.00  0.00    +0.084 C 
ATOM      4  C   UNL     1      -2.279   0.305  -0.006  0.00  0.00    +0.086 C 
ATOM      5  C   UNL     1      -0.443  -1.032  -0.002  0.00  0.00    +0.190 C 
ATOM      6  C   UNL     1      -1.038   1.060  -0.010  0.00  0.00    +0.209 C 
ATOM      7  C   UNL     1      -2.836  -2.046   0.004  0.00  0.00    +0.138 C 
ATOM      8  C   UNL     1      -3.601   0.697  -0.007  0.00  0.00    +0.138 C 
ATOM      9  C   UNL     1      -4.184  -1.675   0.004  0.00  0.00    +0.040 C 
ATOM     10  C   UNL     1      -4.563  -0.317  -0.002  0.00  0.00    +0.040 C 
ATOM     11  H   UNL     1      -0.236  -3.029   0.005  0.00  0.00    +0.156 HD
ATOM     12  N   UNL     1       2.425  -1.191  -0.005  0.00  0.00    -0.229 NA
ATOM     13  C   UNL     1       1.672  -2.314   0.000  0.00  0.00    +0.134 C 
ATOM     14  C   UNL     1       2.194  -3.598   0.004  0.00  0.00    +0.034 C 
ATOM     15  C   UNL     1       3.578  -3.737   0.003  0.00  0.00    +0.004 C 
ATOM     16  C   UNL     1       3.765  -1.366  -0.006  0.00  0.00    +0.100 C 
ATOM     17  C   UNL     1       4.385  -2.606  -0.002  0.00  0.00    +0.021 C 
ENDROOT
BRANCH   7  18
ATOM     18  O   UNL     1      -2.484  -3.354   0.011  0.00  0.00    -0.505 OA
ATOM     19  H   UNL     1      -1.578  -3.595   0.011  0.00  0.00    +0.292 HD
ENDBRANCH   7  18
BRANCH   8  20
ATOM     20  O   UNL     1      -3.969   2.001  -0.012  0.00  0.00    -0.505 OA
ATOM     21  H   UNL     1      -3.315   2.672  -0.016  0.00  0.00    +0.292 HD
ENDBRANCH   8  20
BRANCH   6  22
ATOM     22  N   UNL     1      -0.921   2.341  -0.015  0.00  0.00    -0.165 NA
BRANCH  22  24
ATOM     23  N   UNL     1       0.950   3.051   1.196  0.00  0.00    -0.227 NA
ATOM     24  C   UNL     1       0.395   2.838  -0.018  0.00  0.00    +0.154 C 
ATOM     25  C   UNL     1       1.042   3.078  -1.220  0.00  0.00    +0.036 C 
ATOM     26  C   UNL     1       2.342   3.569  -1.171  0.00  0.00    +0.005 C 
ATOM     27  C   UNL     1       2.215   3.528   1.203  0.00  0.00    +0.100 C 
ATOM     28  C   UNL     1       2.947   3.801   0.059  0.00  0.00    +0.021 C 
ENDBRANCH  22  24
ENDBRANCH   6  22
TORSDOF 4
