136349541
  -OEChem-03292013293D

 33 34  0     0  0  0  0  0  0999 V2000
    0.7843   -2.8275    0.8413 F   0  0  0  0  0  0  0  0  0  0  0  0
    3.6060    2.5111    0.2473 O   0  0  0  0  0  0  0  0  0  0  0  0
    4.1168   -1.4470   -1.2786 O   0  0  0  0  0  0  0  0  0  0  0  0
   -3.9114   -1.3839   -1.1761 O   0  0  0  0  0  0  0  0  0  0  0  0
    0.0279   -0.5554    0.8757 N   0  0  0  0  0  0  0  0  0  0  0  0
   -1.2741   -2.1313   -0.0316 N   0  0  0  0  0  0  0  0  0  0  0  0
   -1.3554    1.4043    0.5514 N   0  0  0  0  0  0  0  0  0  0  0  0
   -3.4006    0.8052   -0.5433 N   0  0  0  0  0  0  0  0  0  0  0  0
   -2.9695    3.0396    0.0586 N   0  0  0  0  0  0  0  0  0  0  0  0
    2.7134    0.3911   -0.5476 C   0  0  0  0  0  0  0  0  0  0  0  0
    2.5590   -0.2211    0.8665 C   0  0  0  0  0  0  0  0  0  0  0  0
    1.2200    0.0625    1.5627 C   0  0  0  0  0  0  0  0  0  0  0  0
    4.0619   -0.0313   -1.1562 C   0  0  0  0  0  0  0  0  0  0  0  0
    2.5935    1.9214   -0.5561 C   0  0  0  0  0  0  0  0  0  0  0  0
   -1.0975    0.0822    0.4434 C   0  0  0  0  0  0  0  0  0  0  0  0
   -1.8739   -0.9090   -0.1066 C   0  0  0  0  0  0  0  0  0  0  0  0
   -0.1254   -1.8852    0.5675 C   0  0  0  0  0  0  0  0  0  0  0  0
   -3.1532   -0.5693   -0.6655 C   0  0  0  0  0  0  0  0  0  0  0  0
   -2.5218    1.7440    0.0471 C   0  0  0  0  0  0  0  0  0  0  0  0
    1.9169   -0.0211   -1.1803 H   0  0  0  0  0  0  0  0  0  0  0  0
    3.3608    0.1595    1.5121 H   0  0  0  0  0  0  0  0  0  0  0  0
    2.7072   -1.3058    0.8129 H   0  0  0  0  0  0  0  0  0  0  0  0
    1.0178    1.1320    1.6630 H   0  0  0  0  0  0  0  0  0  0  0  0
    1.2118   -0.3805    2.5656 H   0  0  0  0  0  0  0  0  0  0  0  0
    4.1837    0.3994   -2.1556 H   0  0  0  0  0  0  0  0  0  0  0  0
    4.9009    0.2920   -0.5310 H   0  0  0  0  0  0  0  0  0  0  0  0
    1.6174    2.2484   -0.1871 H   0  0  0  0  0  0  0  0  0  0  0  0
    2.7049    2.3019   -1.5775 H   0  0  0  0  0  0  0  0  0  0  0  0
    4.9801   -1.6663   -1.6686 H   0  0  0  0  0  0  0  0  0  0  0  0
    3.4849    3.4746    0.1977 H   0  0  0  0  0  0  0  0  0  0  0  0
   -4.2820    1.1546   -0.9082 H   0  0  0  0  0  0  0  0  0  0  0  0
   -2.4104    3.7845    0.4599 H   0  0  0  0  0  0  0  0  0  0  0  0
   -3.8704    3.2914   -0.3329 H   0  0  0  0  0  0  0  0  0  0  0  0
  1 17  1  0  0  0  0
  2 14  1  0  0  0  0
  2 30  1  0  0  0  0
  3 13  1  0  0  0  0
  3 29  1  0  0  0  0
  4 18  2  0  0  0  0
  5 12  1  0  0  0  0
  5 15  1  0  0  0  0
  5 17  1  0  0  0  0
  6 16  1  0  0  0  0
  6 17  2  0  0  0  0
  7 15  1  0  0  0  0
  7 19  2  0  0  0  0
  8 18  1  0  0  0  0
  8 19  1  0  0  0  0
  8 31  1  0  0  0  0
  9 19  1  0  0  0  0
  9 32  1  0  0  0  0
  9 33  1  0  0  0  0
 10 11  1  0  0  0  0
 10 13  1  0  0  0  0
 10 14  1  0  0  0  0
 10 20  1  0  0  0  0
 11 12  1  0  0  0  0
 11 21  1  0  0  0  0
 11 22  1  0  0  0  0
 12 23  1  0  0  0  0
 12 24  1  0  0  0  0
 13 25  1  0  0  0  0
 13 26  1  0  0  0  0
 14 27  1  0  0  0  0
 14 28  1  0  0  0  0
 15 16  2  0  0  0  0
 16 18  1  0  0  0  0
M  END
> <PUBCHEM_COMPOUND_CID>
136349541

> <PUBCHEM_CONFORMER_RMSD>
0.8

> <PUBCHEM_CONFORMER_DIVERSEORDER>
1
25
8
16
32
11
23
10
3
26
22
7
15
24
4
29
28
6
33
17
20
5
30
21
19
27
12
18
2
13
14
9
31

> <PUBCHEM_MMFF94_PARTIAL_CHARGES>
22
1 -0.14
12 0.26
13 0.28
14 0.28
15 -0.03
16 0.14
17 0.32
18 0.72
19 0.56
2 -0.68
29 0.4
3 -0.68
30 0.4
31 0.37
32 0.4
33 0.4
4 -0.57
5 0.05
6 -0.57
7 -0.58
8 -0.49
9 -0.85

> <PUBCHEM_EFFECTIVE_ROTOR_COUNT>
5

> <PUBCHEM_PHARMACOPHORE_FEATURES>
10
1 2 acceptor
1 2 donor
1 3 acceptor
1 3 donor
1 4 acceptor
1 8 donor
1 9 donor
3 5 6 17 cation
5 5 6 15 16 17 rings
6 7 8 15 16 18 19 rings

> <PUBCHEM_HEAVY_ATOM_COUNT>
19

> <PUBCHEM_ATOM_DEF_STEREO_COUNT>
0

> <PUBCHEM_ATOM_UDEF_STEREO_COUNT>
0

> <PUBCHEM_BOND_DEF_STEREO_COUNT>
0

> <PUBCHEM_BOND_UDEF_STEREO_COUNT>
0

> <PUBCHEM_ISOTOPIC_ATOM_COUNT>
0

> <PUBCHEM_COMPONENT_COUNT>
1

> <PUBCHEM_CACTVS_TAUTO_COUNT>
-1

> <PUBCHEM_CONFORMER_ID>
0820876500000001

> <PUBCHEM_MMFF94_ENERGY>
33.0552

> <PUBCHEM_FEATURE_SELFOVERLAP>
50.925

> <PUBCHEM_SHAPE_FINGERPRINT>
10498660 4 18335691754717193637
10756046 5 18197497316402920743
11640471 11 17314220249692487336
12173636 292 18336264638602513757
12202030 40 14978803624692059551
14251751 93 18342177704847114757
15775835 57 17603865619904569260
16945 1 18338782499251383923
17134986 127 18264768766120859216
1813 80 13398636069169937248
18186145 218 18334010605421801684
20361792 2 14692580926623512624
20510252 161 18266181810582386891
20671657 1 18120650236565319289
21501502 16 18194389005853156651
21524375 3 17968093101475406194
21864079 5 18334574629112161953
22802520 49 18270691985899762874
23557571 272 17974290129630273602
23559900 14 18272650186550651328
2637199 183 18188784842024781568
2748010 2 17762879358315068099
4028521 119 18261390108738480780
474 4 17676493808790148757
5262128 65 18058748973594730204
7832392 63 18194117413131892248
9709674 26 18341899653286191588
9981440 41 17393319232544348216

> <PUBCHEM_SHAPE_MULTIPOLES>
341.22
7.23
2.79
1.16
2.56
0.68
0.04
1.77
-3.29
-0.63
0.17
0.59
-0.27
-0.19

> <PUBCHEM_SHAPE_SELFOVERLAP>
716.683

> <PUBCHEM_SHAPE_VOLUME>
192.5

> <PUBCHEM_COORDINATE_TYPE>
2
5
10

$$$$
