REMARK  Name = 136417
REMARK  8 active torsions:
REMARK  status: ('A' for Active; 'I' for Inactive)
REMARK    1  A    between atoms: C_5  and  C_12
REMARK    2  A    between atoms: C_6  and  O_22
REMARK    3  A    between atoms: C_8  and  O_30
REMARK    4  A    between atoms: C_9  and  O_24
REMARK    5  A    between atoms: C_10  and  O_26
REMARK    6  A    between atoms: C_11  and  O_28
REMARK    7  A    between atoms: C_15  and  O_18
REMARK    8  A    between atoms: C_16  and  O_20
REMARK                            x       y       z     vdW  Elec       q    Type
REMARK                         _______ _______ _______ _____ _____    ______ ____
ROOT
ATOM      1  O   UNL     1       0.092  -0.524   0.283  0.00  0.00    -0.447 OA
ATOM      2  O   UNL     1       1.530   3.276   0.012  0.00  0.00    -0.283 OA
ATOM      3  C   UNL     1       1.992   0.967   0.068  0.00  0.00    +0.117 A 
ATOM      4  C   UNL     1       1.440  -0.307   0.166  0.00  0.00    +0.188 A 
ATOM      5  C   UNL     1      -0.757   0.571   0.296  0.00  0.00    +0.182 A 
ATOM      6  C   UNL     1       2.267  -1.430   0.147  0.00  0.00    +0.210 A 
ATOM      7  C   UNL     1       1.098   2.134   0.092  0.00  0.00    +0.238 A 
ATOM      8  C   UNL     1       3.375   1.129  -0.050  0.00  0.00    +0.177 A 
ATOM      9  C   UNL     1      -0.353   1.855   0.220  0.00  0.00    +0.212 A 
ATOM     10  C   UNL     1       3.648  -1.273   0.029  0.00  0.00    +0.212 A 
ATOM     11  C   UNL     1       4.201   0.004  -0.069  0.00  0.00    +0.209 A 
ENDROOT
BRANCH   5  12
ATOM     12  C   UNL     1      -2.171   0.179   0.415  0.00  0.00    +0.041 C 
ATOM     13  C   UNL     1      -2.931  -0.049  -0.732  0.00  0.00    +0.043 C 
ATOM     14  C   UNL     1      -2.752   0.037   1.676  0.00  0.00    +0.006 C 
ATOM     15  C   UNL     1      -4.271  -0.420  -0.619  0.00  0.00    +0.172 C 
ATOM     16  C   UNL     1      -4.851  -0.562   0.642  0.00  0.00    +0.172 C 
ATOM     17  C   UNL     1      -4.091  -0.333   1.789  0.00  0.00    +0.040 C 
BRANCH  15  18
ATOM     18  O   UNL     1      -5.003  -0.641  -1.746  0.00  0.00    -0.468 OA
ATOM     19  C   UNL     1      -5.691   0.478  -2.301  0.00  0.00    +0.253 C 
ENDBRANCH  15  18
BRANCH  16  20
ATOM     20  O   UNL     1      -6.159  -0.924   0.766  0.00  0.00    -0.468 OA
ATOM     21  C   UNL     1      -6.439  -2.320   0.844  0.00  0.00    +0.253 C 
ENDBRANCH  16  20
ENDBRANCH   5  12
BRANCH   6  22
ATOM     22  O   UNL     1       1.732  -2.681   0.243  0.00  0.00    -0.465 OA
ATOM     23  C   UNL     1       1.376  -3.327  -0.976  0.00  0.00    +0.253 C 
ENDBRANCH   6  22
BRANCH   9  24
ATOM     24  O   UNL     1      -1.180   2.956   0.262  0.00  0.00    -0.465 OA
ATOM     25  C   UNL     1      -1.625   3.350  -1.014  0.00  0.00    +0.253 C 
ENDBRANCH   9  24
BRANCH  10  26
ATOM     26  O   UNL     1       4.459  -2.370   0.011  0.00  0.00    -0.465 OA
ATOM     27  C   UNL     1       5.264  -2.559  -1.151  0.00  0.00    +0.253 C 
ENDBRANCH  10  26
BRANCH  11  28
ATOM     28  O   UNL     1       5.553   0.151  -0.183  0.00  0.00    -0.465 OA
ATOM     29  C   UNL     1       6.294   0.273   1.028  0.00  0.00    +0.253 C 
ENDBRANCH  11  28
BRANCH   8  30
ATOM     30  O   UNL     1       3.954   2.360  -0.148  0.00  0.00    -0.503 OA
ATOM     31  H   UNL     1       3.421   3.130  -0.138  0.00  0.00    +0.292 HD
ENDBRANCH   8  30
TORSDOF 8
