REMARK  Name = 13647251
REMARK  4 active torsions:
REMARK  status: ('A' for Active; 'I' for Inactive)
REMARK    1  A    between atoms: N_3  and  C_16
REMARK    2  A    between atoms: C_14  and  O_18
REMARK    3  A    between atoms: C_17  and  C_20
REMARK    4  A    between atoms: C_20  and  O_21
REMARK                            x       y       z     vdW  Elec       q    Type
REMARK                         _______ _______ _______ _____ _____    ______ ____
ROOT
ATOM      1 BR   UNL     1      -2.692  -2.921  -1.056  0.00  0.00    -0.044 Br
ATOM      2  O   UNL     1      -1.419   2.438   1.054  0.00  0.00    -0.193 OA
ATOM      3  N   UNL     1      -0.650   0.385   0.341  0.00  0.00    -0.177 N 
ATOM      4  N   UNL     1      -2.991   0.953   0.374  0.00  0.00    -0.305 NA
ATOM      5  N   UNL     1      -4.622  -0.536  -0.313  0.00  0.00    -0.332 N 
ATOM      6  C   UNL     1      -0.982  -0.868  -0.155  0.00  0.00    +0.090 C 
ATOM      7  C   UNL     1      -1.679   1.318   0.612  0.00  0.00    +0.276 C 
ATOM      8  C   UNL     1      -2.239  -1.246  -0.394  0.00  0.00    +0.095 C 
ATOM      9  C   UNL     1      -3.296  -0.232  -0.095  0.00  0.00    +0.199 C 
ATOM     10  H   UNL     1      -5.319   0.130  -0.116  0.00  0.00    +0.145 HD
ATOM     11  H   UNL     1      -4.872  -1.421  -0.664  0.00  0.00    +0.145 HD
ENDROOT
BRANCH   3  16
ATOM     12  F   UNL     1       1.512   2.631  -0.577  0.00  0.00    -0.230 F 
ATOM     13  O   UNL     1       1.442  -0.448   0.971  0.00  0.00    -0.332 OA
ATOM     14  C   UNL     1       2.771   0.654  -0.614  0.00  0.00    +0.177 C 
ATOM     15  C   UNL     1       1.399   1.282  -0.666  0.00  0.00    +0.237 C 
ATOM     16  C   UNL     1       0.723   0.731   0.576  0.00  0.00    +0.242 C 
ATOM     17  C   UNL     1       2.461  -0.701  -0.008  0.00  0.00    +0.176 C 
BRANCH  14  18
ATOM     18  O   UNL     1       3.342   0.520  -1.899  0.00  0.00    -0.379 OA
ATOM     19  H   UNL     1       3.530   1.400  -2.263  0.00  0.00    +0.211 HD
ENDBRANCH  14  18
BRANCH  17  20
ATOM     20  C   UNL     1       3.660  -1.355   0.654  0.00  0.00    +0.169 C 
BRANCH  20  21
ATOM     21  O   UNL     1       3.260  -2.605   1.194  0.00  0.00    -0.379 OA
ATOM     22  H   UNL     1       4.020  -3.031   1.619  0.00  0.00    +0.211 HD
ENDBRANCH  20  21
ENDBRANCH  17  20
ENDBRANCH   3  16
TORSDOF 4
