13652714
  -OEChem-03292013303D

 62 64  0     1  0  0  0  0  0999 V2000
    3.5450    2.5533    1.8707 S   0  0  0  0  0  0  0  0  0  0  0  0
    0.6991   -1.4574   -2.0176 O   0  0  0  0  0  0  0  0  0  0  0  0
    0.1739    0.7457   -2.0062 O   0  0  0  0  0  0  0  0  0  0  0  0
    1.7181   -1.0149    2.1879 O   0  0  0  0  0  0  0  0  0  0  0  0
    4.8893   -3.7177   -0.0749 O   0  0  0  0  0  0  0  0  0  0  0  0
    2.8716   -2.8040   -0.5666 O   0  0  0  0  0  0  0  0  0  0  0  0
   -9.3270    0.3671    0.5962 N   0  0  0  0  0  0  0  0  0  0  0  0
    0.0946    0.6185    0.7958 N   0  0  0  0  0  0  0  0  0  0  0  0
    3.5766   -0.4845    0.8948 N   0  0  0  0  0  0  0  0  0  0  0  0
   -6.6226   -0.0094   -0.4829 C   0  0  0  0  0  0  0  0  0  0  0  0
   -5.1906    0.4891   -0.6562 C   0  0  0  0  0  0  0  0  0  0  0  0
   -6.9545   -0.2293    0.9983 C   0  0  0  0  0  0  0  0  0  0  0  0
   -7.6263    0.9704   -1.1041 C   0  0  0  0  0  0  0  0  0  0  0  0
   -4.1759   -0.5296   -0.1333 C   0  0  0  0  0  0  0  0  0  0  0  0
   -8.4201   -0.6215    1.1835 C   0  0  0  0  0  0  0  0  0  0  0  0
   -9.0656    0.5314   -0.8353 C   0  0  0  0  0  0  0  0  0  0  0  0
   -2.7431   -0.0369   -0.3346 C   0  0  0  0  0  0  0  0  0  0  0  0
   -1.6594   -1.0064    0.1623 C   0  0  0  0  0  0  0  0  0  0  0  0
   -0.1913   -0.5738    0.0161 C   0  0  1  0  0  0  0  0  0  0  0  0
    1.5294    0.9204    0.7686 C   0  0  1  0  0  0  0  0  0  0  0  0
    1.7896    2.2071    1.5399 C   0  0  0  0  0  0  0  0  0  0  0  0
    0.2422   -0.3262   -1.4180 C   0  0  0  0  0  0  0  0  0  0  0  0
    2.2720   -0.2706    1.3736 C   0  0  0  0  0  0  0  0  0  0  0  0
    4.3200    0.4717    0.1215 C   0  0  0  0  0  0  0  0  0  0  0  0
    4.3072    1.8551    0.4071 C   0  0  0  0  0  0  0  0  0  0  0  0
    4.2077   -1.7786    1.1532 C   0  0  0  0  0  0  0  0  0  0  0  0
    5.1197    0.0166   -0.9439 C   0  0  0  0  0  0  0  0  0  0  0  0
    5.0542    2.7394   -0.3897 C   0  0  0  0  0  0  0  0  0  0  0  0
    5.8487    0.9075   -1.7333 C   0  0  0  0  0  0  0  0  0  0  0  0
    5.8103    2.2687   -1.4610 C   0  0  0  0  0  0  0  0  0  0  0  0
    3.9069   -2.8014    0.0881 C   0  0  0  0  0  0  0  0  0  0  0  0
   -6.7239   -0.9711   -1.0049 H   0  0  0  0  0  0  0  0  0  0  0  0
   -5.0561    1.4455   -0.1353 H   0  0  0  0  0  0  0  0  0  0  0  0
   -4.9969    0.6773   -1.7197 H   0  0  0  0  0  0  0  0  0  0  0  0
   -6.7440    0.6822    1.5727 H   0  0  0  0  0  0  0  0  0  0  0  0
   -6.3439   -1.0307    1.4263 H   0  0  0  0  0  0  0  0  0  0  0  0
   -7.4708    1.9766   -0.6933 H   0  0  0  0  0  0  0  0  0  0  0  0
   -7.4625    1.0395   -2.1861 H   0  0  0  0  0  0  0  0  0  0  0  0
   -4.3156   -0.7086    0.9372 H   0  0  0  0  0  0  0  0  0  0  0  0
   -4.3098   -1.4886   -0.6477 H   0  0  0  0  0  0  0  0  0  0  0  0
   -8.6064   -1.6096    0.7448 H   0  0  0  0  0  0  0  0  0  0  0  0
   -8.6357   -0.7029    2.2546 H   0  0  0  0  0  0  0  0  0  0  0  0
   -9.7499    1.2890   -1.2329 H   0  0  0  0  0  0  0  0  0  0  0  0
   -9.2815   -0.4036   -1.3668 H   0  0  0  0  0  0  0  0  0  0  0  0
   -2.6245    0.9246    0.1799 H   0  0  0  0  0  0  0  0  0  0  0  0
   -2.5822    0.1571   -1.4021 H   0  0  0  0  0  0  0  0  0  0  0  0
  -10.2903    0.0606    0.7291 H   0  0  0  0  0  0  0  0  0  0  0  0
   -1.8549   -1.2355    1.2186 H   0  0  0  0  0  0  0  0  0  0  0  0
   -1.7896   -1.9525   -0.3805 H   0  0  0  0  0  0  0  0  0  0  0  0
    0.3828   -1.4370    0.3671 H   0  0  0  0  0  0  0  0  0  0  0  0
    1.8517    1.0833   -0.2628 H   0  0  0  0  0  0  0  0  0  0  0  0
   -0.2165    0.4912    1.7586 H   0  0  0  0  0  0  0  0  0  0  0  0
    1.2967    2.1808    2.5191 H   0  0  0  0  0  0  0  0  0  0  0  0
    1.3708    3.0609    0.9945 H   0  0  0  0  0  0  0  0  0  0  0  0
    5.2910   -1.6398    1.2490 H   0  0  0  0  0  0  0  0  0  0  0  0
    3.8460   -2.1848    2.1043 H   0  0  0  0  0  0  0  0  0  0  0  0
    5.1760   -1.0322   -1.2147 H   0  0  0  0  0  0  0  0  0  0  0  0
    0.9659   -1.2954   -2.9476 H   0  0  0  0  0  0  0  0  0  0  0  0
    5.0708    3.8060   -0.1744 H   0  0  0  0  0  0  0  0  0  0  0  0
    6.4451    0.5353   -2.5613 H   0  0  0  0  0  0  0  0  0  0  0  0
    6.3818    2.9628   -2.0700 H   0  0  0  0  0  0  0  0  0  0  0  0
    4.6698   -4.3709   -0.7731 H   0  0  0  0  0  0  0  0  0  0  0  0
  1 21  1  0  0  0  0
  1 25  1  0  0  0  0
  2 22  1  0  0  0  0
  2 58  1  0  0  0  0
  3 22  2  0  0  0  0
  4 23  2  0  0  0  0
  5 31  1  0  0  0  0
  5 62  1  0  0  0  0
  6 31  2  0  0  0  0
  7 15  1  0  0  0  0
  7 16  1  0  0  0  0
  7 47  1  0  0  0  0
  8 19  1  0  0  0  0
  8 20  1  0  0  0  0
  8 52  1  0  0  0  0
  9 23  1  0  0  0  0
  9 24  1  0  0  0  0
  9 26  1  0  0  0  0
 10 11  1  0  0  0  0
 10 12  1  0  0  0  0
 10 13  1  0  0  0  0
 10 32  1  0  0  0  0
 11 14  1  0  0  0  0
 11 33  1  0  0  0  0
 11 34  1  0  0  0  0
 12 15  1  0  0  0  0
 12 35  1  0  0  0  0
 12 36  1  0  0  0  0
 13 16  1  0  0  0  0
 13 37  1  0  0  0  0
 13 38  1  0  0  0  0
 14 17  1  0  0  0  0
 14 39  1  0  0  0  0
 14 40  1  0  0  0  0
 15 41  1  0  0  0  0
 15 42  1  0  0  0  0
 16 43  1  0  0  0  0
 16 44  1  0  0  0  0
 17 18  1  0  0  0  0
 17 45  1  0  0  0  0
 17 46  1  0  0  0  0
 18 19  1  0  0  0  0
 18 48  1  0  0  0  0
 18 49  1  0  0  0  0
 19 22  1  0  0  0  0
 19 50  1  0  0  0  0
 20 21  1  0  0  0  0
 20 23  1  0  0  0  0
 20 51  1  0  0  0  0
 21 53  1  0  0  0  0
 21 54  1  0  0  0  0
 24 25  1  0  0  0  0
 24 27  2  0  0  0  0
 25 28  2  0  0  0  0
 26 31  1  0  0  0  0
 26 55  1  0  0  0  0
 26 56  1  0  0  0  0
 27 29  1  0  0  0  0
 27 57  1  0  0  0  0
 28 30  1  0  0  0  0
 28 59  1  0  0  0  0
 29 30  2  0  0  0  0
 29 60  1  0  0  0  0
 30 61  1  0  0  0  0
M  END
> <PUBCHEM_COMPOUND_CID>
13652714

> <PUBCHEM_CONFORMER_RMSD>
1.2

> <PUBCHEM_CONFORMER_DIVERSEORDER>
1
3
71
26
42
102
105
119
74
75
29
35
72
19
24
118
25
23
17
60
47
111
34
65
88
79
109
15
93
69
54
41
66
76
11
62
110
51
103
28
32
56
8
53
49
100
27
6
59
67
115
48
58
68
84
7
82
5
61
43
108
70
77
21
80
101
45
52
16
37
63
104
50
39
46
20
112
87
31
36
40
18
13
14
38
107
106
90
92
12
81
22
33
98
96
117
4
78
114
9
2
55
97
85
91
30
116
73
64
57
99
95
83
89
10
86
94
44
113

> <PUBCHEM_MMFF94_PARTIAL_CHARGES>
32
1 -0.33
15 0.27
16 0.27
19 0.33
2 -0.65
20 0.33
21 0.23
22 0.66
23 0.57
24 0.12
25 0.1
26 0.36
27 -0.15
28 -0.15
29 -0.15
3 -0.57
30 -0.15
31 0.66
4 -0.57
47 0.36
5 -0.65
52 0.36
57 0.15
58 0.5
59 0.15
6 -0.57
60 0.15
61 0.15
62 0.5
7 -0.9
8 -0.9
9 -0.48

> <PUBCHEM_EFFECTIVE_ROTOR_COUNT>
12

> <PUBCHEM_PHARMACOPHORE_FEATURES>
15
1 2 acceptor
1 3 acceptor
1 4 acceptor
1 5 acceptor
1 6 acceptor
1 7 cation
1 7 donor
1 8 cation
1 8 donor
3 2 3 22 anion
3 5 6 31 anion
4 11 14 17 18 hydrophobe
6 24 25 27 28 29 30 rings
6 7 10 12 13 15 16 rings
7 1 9 20 21 23 24 25 rings

> <PUBCHEM_HEAVY_ATOM_COUNT>
31

> <PUBCHEM_ATOM_DEF_STEREO_COUNT>
0

> <PUBCHEM_ATOM_UDEF_STEREO_COUNT>
2

> <PUBCHEM_BOND_DEF_STEREO_COUNT>
0

> <PUBCHEM_BOND_UDEF_STEREO_COUNT>
0

> <PUBCHEM_ISOTOPIC_ATOM_COUNT>
0

> <PUBCHEM_COMPONENT_COUNT>
1

> <PUBCHEM_CACTVS_TAUTO_COUNT>
1

> <PUBCHEM_CONFORMER_ID>
00D052EA00000001

> <PUBCHEM_MMFF94_ENERGY>
77.7105

> <PUBCHEM_FEATURE_SELFOVERLAP>
76.249

> <PUBCHEM_SHAPE_FINGERPRINT>
10 15 17095519626386212881
10165383 225 18334580179206473236
11181472 205 18271815558594149297
11828532 37 12679171748237255071
11991303 11 17489297651295093303
13533116 47 18413103944438299211
13835254 42 17313094203604192741
14849402 71 15864359107608670205
15183329 4 17561366188883387945
15461852 350 18339636842141899247
1577012 14 18131625717270668039
15840311 113 17458348554255503237
20771845 171 18202012009972866190
21033648 29 18189891096809352121
21781051 124 16199868496597219791
22149856 69 13696138554355116837
24771293 8 17168987961823531020
255183 451 16914836738438214374
34797466 226 17676206870541048269
394071 54 17530684341841612325
4073 2 18187084005465215635
4093350 32 18260268542459005311
46194498 28 18187641354659528238
6086070 43 17203327879487405643
70251023 43 18117557332517375162

> <PUBCHEM_SHAPE_MULTIPOLES>
597.53
23.85
2.79
1.79
69.83
1.34
-0.03
-5.45
-2.56
-7.35
0.31
-1.31
-0.43
0.22

> <PUBCHEM_SHAPE_SELFOVERLAP>
1222.398

> <PUBCHEM_SHAPE_VOLUME>
342.4

> <PUBCHEM_COORDINATE_TYPE>
2
5
10

$$$$
