REMARK  Name = 1365597
REMARK  5 active torsions:
REMARK  status: ('A' for Active; 'I' for Inactive)
REMARK    1  A    between atoms: C_3  and  C_14
REMARK    2  A    between atoms: C_8  and  C_32
REMARK    3  A    between atoms: C_19  and  C_23
REMARK    4  A    between atoms: C_28  and  N_29
REMARK    5  A    between atoms: C_37  and  N_38
REMARK                            x       y       z     vdW  Elec       q    Type
REMARK                         _______ _______ _______ _____ _____    ______ ____
ROOT
ATOM      1  N   UNL     1       3.804   0.492   0.201  0.00  0.00    -0.315 N 
ATOM      2  N   UNL     1       4.854  -1.373  -0.398  0.00  0.00    -0.315 N 
ATOM      3  C   UNL     1       0.721  -1.566  -0.067  0.00  0.00    +0.001 C 
ATOM      4  C   UNL     1       2.818  -0.448   0.040  0.00  0.00    +0.059 C 
ATOM      5  C   UNL     1       3.499  -1.603  -0.334  0.00  0.00    +0.059 C 
ATOM      6  C   UNL     1       1.431  -0.388   0.184  0.00  0.00    +0.016 C 
ATOM      7  C   UNL     1       1.376  -2.741  -0.444  0.00  0.00    +0.001 C 
ATOM      8  C   UNL     1       5.001  -0.109  -0.071  0.00  0.00    +0.168 C 
ATOM      9  C   UNL     1       2.769  -2.777  -0.583  0.00  0.00    +0.016 C 
ATOM     10  H   UNL     1       3.673   1.431   0.466  0.00  0.00    +0.149 HD
ATOM     11  H   UNL     1       5.560  -2.016  -0.637  0.00  0.00    +0.149 HD
ENDROOT
BRANCH   3  14
ATOM     12  N   UNL     1      -3.804   0.492  -0.201  0.00  0.00    -0.315 N 
ATOM     13  N   UNL     1      -4.854  -1.373   0.398  0.00  0.00    -0.315 N 
ATOM     14  C   UNL     1      -0.721  -1.566   0.067  0.00  0.00    +0.001 C 
ATOM     15  C   UNL     1      -2.818  -0.448  -0.040  0.00  0.00    +0.059 C 
ATOM     16  C   UNL     1      -3.499  -1.603   0.335  0.00  0.00    +0.059 C 
ATOM     17  C   UNL     1      -1.432  -0.388  -0.184  0.00  0.00    +0.016 C 
ATOM     18  C   UNL     1      -1.376  -2.741   0.444  0.00  0.00    +0.001 C 
ATOM     19  C   UNL     1      -5.001  -0.109   0.071  0.00  0.00    +0.168 C 
ATOM     20  C   UNL     1      -2.769  -2.777   0.583  0.00  0.00    +0.016 C 
ATOM     21  H   UNL     1      -3.673   1.431  -0.466  0.00  0.00    +0.149 HD
ATOM     22  H   UNL     1      -5.560  -2.016   0.637  0.00  0.00    +0.149 HD
BRANCH  19  23
ATOM     23  C   UNL     1      -6.251   0.608  -0.006  0.00  0.00    +0.014 C 
ATOM     24  C   UNL     1      -7.316   0.245   0.817  0.00  0.00    +0.000 C 
ATOM     25  C   UNL     1      -6.393   1.666  -0.905  0.00  0.00    +0.000 C 
ATOM     26  C   UNL     1      -8.524   0.939   0.743  0.00  0.00    +0.014 C 
ATOM     27  C   UNL     1      -7.600   2.360  -0.979  0.00  0.00    +0.014 C 
ATOM     28  C   UNL     1      -8.666   1.997  -0.155  0.00  0.00    +0.042 C 
BRANCH  28  29
ATOM     29  N   UNL     1      -9.887   2.698  -0.231  0.00  0.00    -0.357 N 
ATOM     30  H   UNL     1     -10.639   2.442   0.350  0.00  0.00    +0.142 HD
ATOM     31  H   UNL     1      -9.987   3.445  -0.866  0.00  0.00    +0.142 HD
ENDBRANCH  28  29
ENDBRANCH  19  23
ENDBRANCH   3  14
BRANCH   8  32
ATOM     32  C   UNL     1       6.251   0.608   0.006  0.00  0.00    +0.014 C 
ATOM     33  C   UNL     1       7.316   0.245  -0.817  0.00  0.00    +0.000 C 
ATOM     34  C   UNL     1       6.393   1.666   0.905  0.00  0.00    +0.000 C 
ATOM     35  C   UNL     1       8.524   0.939  -0.743  0.00  0.00    +0.014 C 
ATOM     36  C   UNL     1       7.600   2.360   0.979  0.00  0.00    +0.014 C 
ATOM     37  C   UNL     1       8.666   1.997   0.155  0.00  0.00    +0.042 C 
BRANCH  37  38
ATOM     38  N   UNL     1       9.887   2.698   0.231  0.00  0.00    -0.357 N 
ATOM     39  H   UNL     1      10.639   2.442  -0.350  0.00  0.00    +0.142 HD
ATOM     40  H   UNL     1       9.987   3.444   0.866  0.00  0.00    +0.142 HD
ENDBRANCH  37  38
ENDBRANCH   8  32
TORSDOF 5
