REMARK  Name = 136591918
REMARK  4 active torsions:
REMARK  status: ('A' for Active; 'I' for Inactive)
REMARK    1  A    between atoms: C_10  and  N_17
REMARK    2  A    between atoms: N_17  and  N_18
REMARK    3  A    between atoms: N_18  and  C_19
REMARK    4  A    between atoms: C_20  and  N_27
REMARK                            x       y       z     vdW  Elec       q    Type
REMARK                         _______ _______ _______ _____ _____    ______ ____
ROOT
ATOM      1  O   UNL     1      -4.718  -2.615   0.000  0.00  0.00    -0.273 OA
ATOM      2  N   UNL     1      -2.032  -1.223  -0.001  0.00  0.00    -0.254 NA
ATOM      3  N   UNL     1      -5.602  -0.470   0.002  0.00  0.00    -0.246 N 
ATOM      4  N   UNL     1      -1.835   0.998  -0.002  0.00  0.00    -0.284 N 
ATOM      5  N   UNL     1      -4.257   1.518   0.001  0.00  0.00    -0.361 NA
ATOM      6  N   UNL     1      -6.594   1.651   0.004  0.00  0.00    -0.321 N 
ATOM      7  C   UNL     1      -3.303  -0.726  -0.001  0.00  0.00    +0.201 C 
ATOM      8  C   UNL     1      -3.157   0.641  -0.001  0.00  0.00    +0.185 C 
ATOM      9  C   UNL     1      -4.562  -1.399   0.001  0.00  0.00    +0.252 C 
ATOM     10  C   UNL     1      -1.184  -0.146  -0.002  0.00  0.00    +0.230 C 
ATOM     11  C   UNL     1      -5.430   0.926   0.002  0.00  0.00    +0.239 C 
ATOM     12  H   UNL     1      -1.774  -2.173  -0.001  0.00  0.00    +0.127 HD
ATOM     13  H   UNL     1      -6.524  -0.816   0.003  0.00  0.00    +0.159 HD
ATOM     14  H   UNL     1      -1.456   1.907  -0.003  0.00  0.00    +0.151 HD
ATOM     15  H   UNL     1      -7.463   1.187   0.005  0.00  0.00    +0.146 HD
ATOM     16  H   UNL     1      -6.561   2.635   0.004  0.00  0.00    +0.146 HD
ENDROOT
BRANCH  10  17
ATOM     17  N   UNL     1       0.149  -0.374  -0.003  0.00  0.00    -0.075 NA
BRANCH  17  18
ATOM     18  N   UNL     1       0.816   0.707  -0.003  0.00  0.00    -0.145 NA
BRANCH  18  19
ATOM     19  C   UNL     1       2.201   0.471  -0.004  0.00  0.00    +0.085 C 
ATOM     20  C   UNL     1       4.951   0.003   0.000  0.00  0.00    +0.143 C 
ATOM     21  C   UNL     1       2.686  -0.837  -0.003  0.00  0.00    +0.019 C 
ATOM     22  C   UNL     1       3.091   1.545  -0.003  0.00  0.00    +0.019 C 
ATOM     23  C   UNL     1       4.061  -1.071  -0.001  0.00  0.00    +0.025 C 
ATOM     24  C   UNL     1       4.466   1.311  -0.001  0.00  0.00    +0.025 C 
BRANCH  20  27
ATOM     25  O   UNL     1       6.766  -1.419   0.004  0.00  0.00    -0.126 OA
ATOM     26  O   UNL     1       7.135   0.745   0.004  0.00  0.00    -0.126 OA
ATOM     27  N   UNL     1       6.351  -0.235   0.003  0.00  0.00    +0.058 N 
ENDBRANCH  20  27
ENDBRANCH  18  19
ENDBRANCH  17  18
ENDBRANCH  10  17
TORSDOF 4
