REMARK  Name = 13652714
REMARK  12 active torsions:
REMARK  status: ('A' for Active; 'I' for Inactive)
REMARK    1  A    between atoms: N_1  and  C_7
REMARK    2  A    between atoms: N_1  and  CA_21
REMARK    3  A    between atoms: N_6  and  C_16
REMARK    4  A    between atoms: C_16  and  C_18
REMARK    5  A    between atoms: C_18  and  O_19
REMARK    6  A    between atoms: CA_21  and  C_23
REMARK    7  A    between atoms: CA_21  and  C_26
REMARK    8  A    between atoms: C_23  and  O_24
REMARK    9  A    between atoms: C_26  and  C_27
REMARK   10  A    between atoms: C_27  and  C_28
REMARK   11  A    between atoms: C_28  and  C_29
REMARK   12  A    between atoms: C_29  and  C_31
REMARK                            x       y       z     vdW  Elec       q    Type
REMARK                         _______ _______ _______ _____ _____    ______ ____
ROOT
ATOM      1  N   UNL     1       0.095   0.619   0.796  0.00  0.00    +0.400 N 
ATOM      2  H1  UNL     1      -0.198   0.466   1.761  0.00  0.00    -0.083 HD
ATOM      3  H2  UNL     1      -0.415   1.405   0.393  0.00  0.00    -0.083 HD
ENDROOT
BRANCH   1   7
ATOM      4  S   UNL     1       3.545   2.553   1.871  0.00  0.00    -0.114 S 
ATOM      5  O   UNL     1       1.718  -1.015   2.188  0.00  0.00    -0.277 OA
ATOM      6  N   UNL     1       3.577  -0.484   0.895  0.00  0.00    -0.249 N 
ATOM      7  C   UNL     1       1.529   0.920   0.769  0.00  0.00    +0.029 C 
ATOM      8  C   UNL     1       1.790   2.207   1.540  0.00  0.00    +0.050 C 
ATOM      9  C   UNL     1       2.272  -0.271   1.374  0.00  0.00    +0.211 C 
ATOM     10  C   UNL     1       4.320   0.472   0.121  0.00  0.00    +0.060 C 
ATOM     11  C   UNL     1       4.307   1.855   0.407  0.00  0.00    +0.039 C 
ATOM     12  C   UNL     1       5.120   0.017  -0.944  0.00  0.00    +0.015 C 
ATOM     13  C   UNL     1       5.054   2.739  -0.390  0.00  0.00    +0.007 C 
ATOM     14  C   UNL     1       5.849   0.907  -1.733  0.00  0.00    +0.001 C 
ATOM     15  C   UNL     1       5.810   2.269  -1.461  0.00  0.00    +0.001 C 
BRANCH   6  16
ATOM     16  C   UNL     1       4.208  -1.779   1.153  0.00  0.00    +0.208 C 
BRANCH  16  18
ATOM     17  O   UNL     1       2.872  -2.804  -0.567  0.00  0.00    -0.248 OA
ATOM     18  C   UNL     1       3.907  -2.801   0.088  0.00  0.00    +0.335 C 
BRANCH  18  19
ATOM     19  O   UNL     1       4.889  -3.718  -0.075  0.00  0.00    -0.479 OA
ATOM     20  H   UNL     1       5.663  -3.673   0.451  0.00  0.00    +0.295 HD
ENDBRANCH  18  19
ENDBRANCH  16  18
ENDBRANCH   6  16
ENDBRANCH   1   7
BRANCH   1  21
ATOM     21  CA  UNL     1      -0.191  -0.574   0.016  0.00  0.00    +0.040 C 
BRANCH  21  23
ATOM     22  OXT UNL     1       0.174   0.746  -2.006  0.00  0.00    -0.253 OA
ATOM     23  C   UNL     1       0.242  -0.326  -1.418  0.00  0.00    +0.293 C 
BRANCH  23  24
ATOM     24  O   UNL     1       0.699  -1.457  -2.018  0.00  0.00    -0.482 OA
ATOM     25  H   UNL     1       0.737  -2.260  -1.536  0.00  0.00    +0.295 HD
ENDBRANCH  23  24
ENDBRANCH  21  23
BRANCH  21  26
ATOM     26  C   UNL     1      -1.659  -1.006   0.162  0.00  0.00    -0.010 C 
BRANCH  26  27
ATOM     27  C   UNL     1      -2.743  -0.037  -0.335  0.00  0.00    -0.002 C 
BRANCH  27  28
ATOM     28  C   UNL     1      -4.176  -0.530  -0.133  0.00  0.00    -0.000 C 
BRANCH  28  29
ATOM     29  C   UNL     1      -5.191   0.489  -0.656  0.00  0.00    -0.000 C 
BRANCH  29  31
ATOM     30  N   UNL     1      -9.327   0.367   0.596  0.00  0.00    +0.384 N 
ATOM     31  C   UNL     1      -6.623  -0.009  -0.483  0.00  0.00    -0.004 C 
ATOM     32  C   UNL     1      -6.955  -0.229   0.998  0.00  0.00    -0.023 C 
ATOM     33  C   UNL     1      -7.626   0.970  -1.104  0.00  0.00    -0.023 C 
ATOM     34  C   UNL     1      -8.420  -0.622   1.183  0.00  0.00    -0.082 C 
ATOM     35  C   UNL     1      -9.066   0.531  -0.835  0.00  0.00    -0.082 C 
ATOM     36  H   UNL     1      -9.193   1.263   1.065  0.00  0.00    -0.085 HD
ATOM     37  H   UNL     1     -10.286   0.041   0.717  0.00  0.00    -0.085 HD
ENDBRANCH  29  31
ENDBRANCH  28  29
ENDBRANCH  27  28
ENDBRANCH  26  27
ENDBRANCH  21  26
ENDBRANCH   1  21
TORSDOF 12
