REMARK  Name = 136674916
REMARK  4 active torsions:
REMARK  status: ('A' for Active; 'I' for Inactive)
REMARK    1  A    between atoms: C_6  and  C_17
REMARK    2  A    between atoms: C_19  and  O_21
REMARK    3  A    between atoms: C_20  and  C_23
REMARK    4  A    between atoms: C_23  and  O_24
REMARK                            x       y       z     vdW  Elec       q    Type
REMARK                         _______ _______ _______ _____ _____    ______ ____
ROOT
ATOM      1  O   UNL     1       4.235  -1.918  -0.326  0.00  0.00    -0.272 OA
ATOM      2  N   UNL     1       1.230  -2.116  -0.224  0.00  0.00    -0.321 N 
ATOM      3  N   UNL     1       1.751   1.369   0.256  0.00  0.00    -0.376 NA
ATOM      4  N   UNL     1       3.913   0.354   0.015  0.00  0.00    -0.246 N 
ATOM      5  N   UNL     1       3.701   2.661   0.357  0.00  0.00    -0.321 N 
ATOM      6  C   UNL     1      -0.086  -0.334   0.090  0.00  0.00    +0.047 C 
ATOM      7  C   UNL     1       1.260   0.068   0.090  0.00  0.00    +0.138 C 
ATOM      8  C   UNL     1      -0.078  -1.701  -0.107  0.00  0.00    +0.059 C 
ATOM      9  C   UNL     1       2.056  -1.032  -0.103  0.00  0.00    +0.200 C 
ATOM     10  C   UNL     1       3.485  -0.964  -0.156  0.00  0.00    +0.254 C 
ATOM     11  C   UNL     1       3.061   1.457   0.211  0.00  0.00    +0.237 C 
ATOM     12  H   UNL     1       1.524  -3.044  -0.370  0.00  0.00    +0.148 HD
ATOM     13  H   UNL     1       4.882   0.524  -0.003  0.00  0.00    +0.159 HD
ATOM     14  H   UNL     1       3.178   3.483   0.499  0.00  0.00    +0.146 HD
ATOM     15  H   UNL     1       4.684   2.704   0.321  0.00  0.00    +0.146 HD
ENDROOT
BRANCH   6  17
ATOM     16  O   UNL     1      -2.376  -0.157   0.938  0.00  0.00    -0.349 OA
ATOM     17  C   UNL     1      -1.306   0.536   0.269  0.00  0.00    +0.143 C 
ATOM     18  C   UNL     1      -1.875   1.042  -1.052  0.00  0.00    +0.066 C 
ATOM     19  C   UNL     1      -3.333   1.259  -0.716  0.00  0.00    +0.143 C 
ATOM     20  C   UNL     1      -3.626   0.153   0.290  0.00  0.00    +0.171 C 
BRANCH  19  21
ATOM     21  O   UNL     1      -3.501   2.534  -0.101  0.00  0.00    -0.382 OA
ATOM     22  H   UNL     1      -3.313   3.232  -0.747  0.00  0.00    +0.210 HD
ENDBRANCH  19  21
BRANCH  20  23
ATOM     23  C   UNL     1      -4.139  -1.121  -0.369  0.00  0.00    +0.169 C 
BRANCH  23  24
ATOM     24  O   UNL     1      -4.372  -2.090   0.638  0.00  0.00    -0.379 OA
ATOM     25  H   UNL     1      -4.700  -2.907   0.231  0.00  0.00    +0.211 HD
ENDBRANCH  23  24
ENDBRANCH  20  23
ENDBRANCH   6  17
TORSDOF 4
