REMARK  Name = 136664108
REMARK  8 active torsions:
REMARK  status: ('A' for Active; 'I' for Inactive)
REMARK    1  A    between atoms: N_2  and  N_17
REMARK    2  A    between atoms: N_3  and  N_7
REMARK    3  A    between atoms: N_7  and  C_8
REMARK    4  A    between atoms: C_8  and  C_9
REMARK    5  A    between atoms: C_10  and  O_15
REMARK    6  A    between atoms: N_17  and  C_18
REMARK    7  A    between atoms: C_18  and  C_19
REMARK    8  A    between atoms: C_20  and  O_25
REMARK                            x       y       z     vdW  Elec       q    Type
REMARK                         _______ _______ _______ _____ _____    ______ ____
ROOT
ATOM      1  O   UNL     1       0.000   3.679  -0.001  0.00  0.00    -0.250 OA
ATOM      2  N   UNL     1      -1.140   1.666   0.119  0.00  0.00    -0.215 N 
ATOM      3  N   UNL     1       1.141   1.665  -0.116  0.00  0.00    -0.215 N 
ATOM      4  C   UNL     1       0.000   2.448   0.001  0.00  0.00    +0.330 C 
ATOM      5  H   UNL     1      -1.075   0.683   0.114  0.00  0.00    +0.172 HD
ATOM      6  H   UNL     1       1.075   0.683  -0.108  0.00  0.00    +0.172 HD
ENDROOT
BRANCH   3   7
ATOM      7  N   UNL     1       2.343   2.271  -0.242  0.00  0.00    -0.125 NA
BRANCH   7   8
ATOM      8  C   UNL     1       3.336   1.448  -0.344  0.00  0.00    +0.141 C 
BRANCH   8   9
ATOM      9  C   UNL     1       3.144  -0.012  -0.322  0.00  0.00    +0.031 C 
ATOM     10  C   UNL     1       3.175  -0.720   0.880  0.00  0.00    +0.131 C 
ATOM     11  C   UNL     1       2.931  -0.687  -1.524  0.00  0.00    +0.000 C 
ATOM     12  C   UNL     1       2.993  -2.103   0.879  0.00  0.00    +0.036 C 
ATOM     13  C   UNL     1       2.748  -2.070  -1.524  0.00  0.00    -0.000 C 
ATOM     14  C   UNL     1       2.779  -2.778  -0.323  0.00  0.00    +0.003 C 
BRANCH  10  15
ATOM     15  O   UNL     1       3.384  -0.079   2.064  0.00  0.00    -0.506 OA
ATOM     16  H   UNL     1       3.508   0.850   2.078  0.00  0.00    +0.292 HD
ENDBRANCH  10  15
ENDBRANCH   8   9
ENDBRANCH   7   8
ENDBRANCH   3   7
BRANCH   2  17
ATOM     17  N   UNL     1      -2.343   2.272   0.242  0.00  0.00    -0.125 NA
BRANCH  17  18
ATOM     18  C   UNL     1      -3.336   1.449   0.342  0.00  0.00    +0.141 C 
BRANCH  18  19
ATOM     19  C   UNL     1      -3.144  -0.012   0.321  0.00  0.00    +0.031 C 
ATOM     20  C   UNL     1      -3.175  -0.721  -0.880  0.00  0.00    +0.131 C 
ATOM     21  C   UNL     1      -2.932  -0.686   1.523  0.00  0.00    +0.000 C 
ATOM     22  C   UNL     1      -2.992  -2.104  -0.878  0.00  0.00    +0.036 C 
ATOM     23  C   UNL     1      -2.749  -2.069   1.525  0.00  0.00    -0.000 C 
ATOM     24  C   UNL     1      -2.780  -2.778   0.324  0.00  0.00    +0.003 C 
BRANCH  20  25
ATOM     25  O   UNL     1      -3.384  -0.081  -2.065  0.00  0.00    -0.506 OA
ATOM     26  H   UNL     1      -3.508   0.848  -2.081  0.00  0.00    +0.292 HD
ENDBRANCH  20  25
ENDBRANCH  18  19
ENDBRANCH  17  18
ENDBRANCH   2  17
TORSDOF 8
