REMARK  Name = 136662877
REMARK  4 active torsions:
REMARK  status: ('A' for Active; 'I' for Inactive)
REMARK    1  A    between atoms: C_7  and  C_14
REMARK    2  A    between atoms: N_13  and  C_14
REMARK    3  A    between atoms: N_13  and  N_16
REMARK    4  A    between atoms: C_17  and  O_19
REMARK                            x       y       z     vdW  Elec       q    Type
REMARK                         _______ _______ _______ _____ _____    ______ ____
ROOT
ATOM      1  O   UNL     1       0.227  -0.546  -2.296  0.00  0.00    -0.163 OA
ATOM      2  O   UNL     1       1.917   1.996   2.105  0.00  0.00    -0.163 OA
ATOM      3  N   UNL     1       0.654   0.042  -1.242  0.00  0.00    -0.130 N 
ATOM      4  N   UNL     1       1.544   1.364   1.058  0.00  0.00    -0.126 N 
ATOM      5  C   UNL     1       1.810  -0.391  -0.598  0.00  0.00    +0.121 C 
ATOM      6  C   UNL     1       2.260   0.277   0.565  0.00  0.00    +0.121 C 
ATOM      7  C   UNL     1      -0.037   1.120  -0.735  0.00  0.00    +0.120 C 
ATOM      8  C   UNL     1       2.530  -1.484  -1.095  0.00  0.00    +0.022 C 
ATOM      9  C   UNL     1       0.404   1.775   0.405  0.00  0.00    +0.139 C 
ATOM     10  C   UNL     1       3.422  -0.159   1.212  0.00  0.00    +0.022 C 
ATOM     11  C   UNL     1       3.687  -1.909  -0.441  0.00  0.00    +0.002 C 
ATOM     12  C   UNL     1       4.131  -1.250   0.707  0.00  0.00    +0.002 C 
ENDROOT
BRANCH   7  13
ATOM     13  C   UNL     1      -1.244   1.565  -1.413  0.00  0.00    +0.160 C 
BRANCH  13  14
ATOM     14  N   UNL     1      -2.427   1.103  -1.120  0.00  0.00    -0.122 NA
BRANCH  14  16
ATOM     15  O   UNL     1      -4.741  -0.097  -0.229  0.00  0.00    -0.225 OA
ATOM     16  N   UNL     1      -2.443   0.178  -0.135  0.00  0.00    -0.198 N 
ATOM     17  C   UNL     1      -3.645  -0.372   0.250  0.00  0.00    +0.416 C 
ATOM     18  H   UNL     1      -1.605  -0.099   0.302  0.00  0.00    +0.174 HD
BRANCH  17  19
ATOM     19  O   UNL     1      -3.439  -1.279   1.251  0.00  0.00    -0.430 OA
ATOM     20  C   UNL     1      -4.611  -1.933   1.750  0.00  0.00    +0.257 C 
ENDBRANCH  17  19
ENDBRANCH  14  16
ENDBRANCH  13  14
ENDBRANCH   7  13
TORSDOF 4
