REMARK  Name = 136663960
REMARK  5 active torsions:
REMARK  status: ('A' for Active; 'I' for Inactive)
REMARK    1  A    between atoms: N_2  and  C_17
REMARK    2  A    between atoms: C_16  and  O_20
REMARK    3  A    between atoms: C_18  and  O_22
REMARK    4  A    between atoms: C_19  and  C_24
REMARK    5  A    between atoms: C_24  and  N_25
REMARK                            x       y       z     vdW  Elec       q    Type
REMARK                         _______ _______ _______ _____ _____    ______ ____
ROOT
ATOM      1  O   UNL     1      -4.163   2.132  -0.374  0.00  0.00    -0.268 OA
ATOM      2  N   UNL     1      -0.109   0.241   0.264  0.00  0.00    -0.237 N 
ATOM      3  N   UNL     1      -1.206   2.156  -0.100  0.00  0.00    -0.240 NA
ATOM      4  N   UNL     1      -1.954  -1.325   0.305  0.00  0.00    -0.357 NA
ATOM      5  N   UNL     1      -4.027  -0.177  -0.046  0.00  0.00    -0.243 N 
ATOM      6  N   UNL     1      -3.984  -2.509   0.276  0.00  0.00    -0.321 N 
ATOM      7  C   UNL     1      -1.431  -0.085   0.185  0.00  0.00    +0.211 C 
ATOM      8  C   UNL     1      -0.024   1.601   0.087  0.00  0.00    +0.224 C 
ATOM      9  C   UNL     1      -2.075   1.108  -0.038  0.00  0.00    +0.176 C 
ATOM     10  C   UNL     1      -3.505   1.119  -0.174  0.00  0.00    +0.273 C 
ATOM     11  C   UNL     1      -3.264  -1.345   0.185  0.00  0.00    +0.239 C 
ATOM     12  H   UNL     1      -5.003  -0.281  -0.123  0.00  0.00    +0.159 HD
ATOM     13  H   UNL     1      -3.521  -3.363   0.435  0.00  0.00    +0.146 HD
ATOM     14  H   UNL     1      -4.963  -2.490   0.181  0.00  0.00    +0.146 HD
ENDROOT
BRANCH   2  17
ATOM     15  O   UNL     1       2.099  -0.048   1.249  0.00  0.00    -0.338 OA
ATOM     16  C   UNL     1       1.678  -1.212  -0.802  0.00  0.00    +0.187 C 
ATOM     17  C   UNL     1       1.053  -0.699   0.501  0.00  0.00    +0.225 C 
ATOM     18  C   UNL     1       3.004  -0.481  -0.886  0.00  0.00    +0.166 C 
ATOM     19  C   UNL     1       3.352  -0.266   0.581  0.00  0.00    +0.125 C 
BRANCH  16  20
ATOM     20  O   UNL     1       1.901  -2.617  -0.704  0.00  0.00    -0.378 OA
ATOM     21  H   UNL     1       1.049  -3.077  -0.651  0.00  0.00    +0.211 HD
ENDBRANCH  16  20
BRANCH  18  22
ATOM     22  O   UNL     1       2.819   0.766  -1.544  0.00  0.00    -0.380 OA
ATOM     23  H   UNL     1       2.599   0.611  -2.476  0.00  0.00    +0.211 HD
ENDBRANCH  18  22
BRANCH  19  24
ATOM     24  C   UNL     1       4.283   0.898   0.867  0.00  0.00    -0.053 C 
BRANCH  24  25
ATOM     25  N   UNL     1       5.553   0.744   0.168  0.00  0.00    +0.382 N 
ATOM     26  H   UNL     1       6.156   1.539   0.379  0.00  0.00    -0.089 HD
ATOM     27  H   UNL     1       5.385   0.701  -0.837  0.00  0.00    -0.089 HD
ATOM     28  H   UNL     1       6.006  -0.118   0.474  0.00  0.00    -0.089 HD
ENDBRANCH  24  25
ENDBRANCH  19  24
ENDBRANCH   2  17
TORSDOF 5
