REMARK  Name = 136670628
REMARK  8 active torsions:
REMARK  status: ('A' for Active; 'I' for Inactive)
REMARK    1  A    between atoms: N_2  and  C_5
REMARK    2  A    between atoms: C_3  and  C_14
REMARK    3  A    between atoms: C_10  and  N_13
REMARK    4  A    between atoms: C_14  and  C_15
REMARK    5  A    between atoms: C_15  and  C_16
REMARK    6  A    between atoms: C_16  and  C_17
REMARK    7  A    between atoms: C_17  and  C_18
REMARK    8  A    between atoms: C_18  and  N_19
REMARK                            x       y       z     vdW  Elec       q    Type
REMARK                         _______ _______ _______ _____ _____    ______ ____
ROOT
ATOM      1  O   UNL     1      -0.950   1.409   0.001  0.00  0.00    -0.275 OA
ATOM      2  N   UNL     1      -0.028  -0.747  -0.135  0.00  0.00    -0.284 N 
ATOM      3  C   UNL     1      -1.056   0.191  -0.095  0.00  0.00    +0.226 C 
ATOM      4  H   UNL     1      -0.301  -1.689  -0.216  0.00  0.00    +0.155 HD
ENDROOT
BRANCH   2   5
ATOM      5  C   UNL     1       1.365  -0.503  -0.074  0.00  0.00    +0.050 C 
ATOM      6  C   UNL     1       2.263  -1.570  -0.129  0.00  0.00    +0.016 C 
ATOM      7  C   UNL     1       1.840   0.803   0.039  0.00  0.00    +0.016 C 
ATOM      8  C   UNL     1       3.635  -1.330  -0.069  0.00  0.00    +0.025 C 
ATOM      9  C   UNL     1       3.213   1.043   0.099  0.00  0.00    +0.025 C 
ATOM     10  C   UNL     1       4.110  -0.023   0.045  0.00  0.00    +0.143 C 
BRANCH  10  13
ATOM     11  O   UNL     1       6.298  -0.752   0.054  0.00  0.00    -0.126 OA
ATOM     12  O   UNL     1       5.915   1.404   0.207  0.00  0.00    -0.126 OA
ATOM     13  N   UNL     1       5.508   0.221   0.105  0.00  0.00    +0.058 N 
ENDBRANCH  10  13
ENDBRANCH   2   5
BRANCH   3  14
ATOM     14  C   UNL     1      -2.410  -0.498  -0.189  0.00  0.00    +0.085 C 
BRANCH  14  15
ATOM     15  C   UNL     1      -3.575   0.489  -0.148  0.00  0.00    +0.009 C 
BRANCH  15  16
ATOM     16  C   UNL     1      -4.922  -0.235  -0.206  0.00  0.00    -0.002 C 
BRANCH  16  17
ATOM     17  C   UNL     1      -6.086   0.759  -0.205  0.00  0.00    -0.024 C 
BRANCH  17  18
ATOM     18  C   UNL     1      -7.455   0.091  -0.250  0.00  0.00    -0.086 C 
BRANCH  18  19
ATOM     19  N   UNL     1      -7.665  -0.752   0.951  0.00  0.00    +0.380 N 
ATOM     20  H   UNL     1      -8.585  -1.190   0.901  0.00  0.00    -0.089 HD
ATOM     21  H   UNL     1      -7.609  -0.172   1.788  0.00  0.00    -0.089 HD
ATOM     22  H   UNL     1      -6.947  -1.475   0.989  0.00  0.00    -0.089 HD
ENDBRANCH  18  19
ENDBRANCH  17  18
ENDBRANCH  16  17
ENDBRANCH  15  16
ENDBRANCH  14  15
ENDBRANCH   3  14
TORSDOF 8
