136647104
  -OEChem-03292013293D

 26 28  0     0  0  0  0  0  0999 V2000
    2.8753    2.3891   -0.0022 O   0  0  0  0  0  0  0  0  0  0  0  0
    3.0281   -2.2693   -0.0009 O   0  0  0  0  0  0  0  0  0  0  0  0
    2.7847    0.0401   -0.0017 N   0  0  0  0  0  0  0  0  0  0  0  0
   -3.3402   -1.4203   -0.0060 N   0  0  0  0  0  0  0  0  0  0  0  0
   -3.3721    1.3886    0.0006 N   0  0  0  0  0  0  0  0  0  0  0  0
    0.0380   -0.0122    0.0010 C   0  0  0  0  0  0  0  0  0  0  0  0
   -1.3183   -0.0265    0.0003 C   0  0  0  0  0  0  0  0  0  0  0  0
    0.8051   -1.2922    0.0013 C   0  0  0  0  0  0  0  0  0  0  0  0
    0.7576    1.2863    0.0007 C   0  0  0  0  0  0  0  0  0  0  0  0
    2.1631   -1.1929   -0.0003 C   0  0  0  0  0  0  0  0  0  0  0  0
    2.1105    1.2400   -0.0009 C   0  0  0  0  0  0  0  0  0  0  0  0
   -2.0453   -1.3516   -0.0014 C   0  0  0  0  0  0  0  0  0  0  0  0
   -2.0792    1.2861    0.0006 C   0  0  0  0  0  0  0  0  0  0  0  0
    0.0334    2.5373    0.0016 C   0  0  0  0  0  0  0  0  0  0  0  0
    0.0967   -2.5559    0.0036 C   0  0  0  0  0  0  0  0  0  0  0  0
   -1.3004    2.5525    0.0015 C   0  0  0  0  0  0  0  0  0  0  0  0
   -1.2370   -2.5992    0.0023 C   0  0  0  0  0  0  0  0  0  0  0  0
    0.6640   -3.4810    0.0061 H   0  0  0  0  0  0  0  0  0  0  0  0
    0.5758    3.4771    0.0021 H   0  0  0  0  0  0  0  0  0  0  0  0
    3.7966    0.0651   -0.0031 H   0  0  0  0  0  0  0  0  0  0  0  0
   -1.7584   -3.5502    0.0035 H   0  0  0  0  0  0  0  0  0  0  0  0
   -1.8372    3.4951    0.0020 H   0  0  0  0  0  0  0  0  0  0  0  0
    3.9286   -1.9033   -0.0022 H   0  0  0  0  0  0  0  0  0  0  0  0
    3.8038    2.1002   -0.0035 H   0  0  0  0  0  0  0  0  0  0  0  0
   -3.6585   -2.3949   -0.0065 H   0  0  0  0  0  0  0  0  0  0  0  0
   -3.6762    2.3674    0.0011 H   0  0  0  0  0  0  0  0  0  0  0  0
  1 11  1  0  0  0  0
  1 24  1  0  0  0  0
  2 10  1  0  0  0  0
  2 23  1  0  0  0  0
  3 10  1  0  0  0  0
  3 11  1  0  0  0  0
  3 20  1  0  0  0  0
  4 12  2  0  0  0  0
  4 25  1  0  0  0  0
  5 13  2  0  0  0  0
  5 26  1  0  0  0  0
  6  7  2  0  0  0  0
  6  8  1  0  0  0  0
  6  9  1  0  0  0  0
  7 12  1  0  0  0  0
  7 13  1  0  0  0  0
  8 10  2  0  0  0  0
  8 15  1  0  0  0  0
  9 11  2  0  0  0  0
  9 14  1  0  0  0  0
 12 17  1  0  0  0  0
 13 16  1  0  0  0  0
 14 16  2  0  0  0  0
 14 19  1  0  0  0  0
 15 17  2  0  0  0  0
 15 18  1  0  0  0  0
 16 22  1  0  0  0  0
 17 21  1  0  0  0  0
M  END
> <PUBCHEM_COMPOUND_CID>
136647104

> <PUBCHEM_CONFORMER_RMSD>
0.4

> <PUBCHEM_CONFORMER_DIVERSEORDER>
1

> <PUBCHEM_MMFF94_PARTIAL_CHARGES>
23
1 -0.53
10 0.18
11 0.18
12 0.42
13 0.42
14 -0.15
15 -0.15
16 -0.14
17 -0.14
18 0.15
19 0.15
2 -0.53
20 0.4
21 0.15
22 0.15
23 0.45
24 0.45
25 0.4
26 0.4
3 -0.6
4 -0.85
5 -0.85
7 0.03

> <PUBCHEM_EFFECTIVE_ROTOR_COUNT>
0

> <PUBCHEM_PHARMACOPHORE_FEATURES>
11
1 1 donor
1 2 donor
1 3 cation
1 3 donor
1 4 acceptor
1 4 donor
1 5 acceptor
1 5 donor
6 3 6 8 9 10 11 rings
6 6 7 8 12 15 17 rings
6 6 7 9 13 14 16 rings

> <PUBCHEM_HEAVY_ATOM_COUNT>
17

> <PUBCHEM_ATOM_DEF_STEREO_COUNT>
0

> <PUBCHEM_ATOM_UDEF_STEREO_COUNT>
0

> <PUBCHEM_BOND_DEF_STEREO_COUNT>
0

> <PUBCHEM_BOND_UDEF_STEREO_COUNT>
0

> <PUBCHEM_ISOTOPIC_ATOM_COUNT>
0

> <PUBCHEM_COMPONENT_COUNT>
1

> <PUBCHEM_CACTVS_TAUTO_COUNT>
-1

> <PUBCHEM_CONFORMER_ID>
082511C000000001

> <PUBCHEM_MMFF94_ENERGY>
54.7127

> <PUBCHEM_FEATURE_SELFOVERLAP>
55.98

> <PUBCHEM_SHAPE_FINGERPRINT>
10411042 1 18410856555562016039
10967382 1 18266460004045833953
11680986 33 18410011018039311744
13140716 1 18410858720219342969
14790565 3 17764048882242250224
16945 1 18122343480245744005
193761 8 18410575093458741824
19591789 44 17618791258023253127
20510252 161 18199472232354278017
20588541 1 18120937475446202147
20905425 154 18341336694442239822
21501502 16 18411138043216990821
2334 1 18410856598458019041
23419403 2 16393718907185171352
23463225 33 18409167696894623761
23559900 14 18343027654186422678
238 59 17467309411230072933
2748010 2 18410575089026618101
2897 32 17905891379176162669
335352 9 18122624951064566397
54173680 148 18337956658101701851
589210 1 18411699893827589408
8809292 202 18263087612920994203

> <PUBCHEM_SHAPE_MULTIPOLES>
323.17
4.36
3.57
0.59
0
0.01
0
-0.03
-0.01
0.04
0
-0.01
0
0

> <PUBCHEM_SHAPE_SELFOVERLAP>
723.324

> <PUBCHEM_SHAPE_VOLUME>
169.7

> <PUBCHEM_COORDINATE_TYPE>
2
5
10

$$$$
