REMARK  Name = 136647104
REMARK  3 active torsions:
REMARK  status: ('A' for Active; 'I' for Inactive)
REMARK    1  A    between atoms: N_3  and  C_11
REMARK    2  A    between atoms: C_8  and  O_21
REMARK    3  A    between atoms: C_9  and  O_19
REMARK                            x       y       z     vdW  Elec       q    Type
REMARK                         _______ _______ _______ _____ _____    ______ ____
ROOT
ATOM      1  N   UNL     1       2.785   0.040  -0.002  0.00  0.00    -0.280 N 
ATOM      2  N   UNL     1      -3.340  -1.420  -0.006  0.00  0.00    -0.298 NA
ATOM      3  C   UNL     1       0.038  -0.012   0.001  0.00  0.00    +0.007 C 
ATOM      4  C   UNL     1      -1.318  -0.026   0.000  0.00  0.00    +0.031 C 
ATOM      5  C   UNL     1       0.805  -1.292   0.001  0.00  0.00    +0.024 C 
ATOM      6  C   UNL     1       0.758   1.286   0.001  0.00  0.00    +0.048 C 
ATOM      7  C   UNL     1       2.163  -1.193   0.000  0.00  0.00    +0.212 C 
ATOM      8  C   UNL     1       2.111   1.240  -0.001  0.00  0.00    +0.188 C 
ATOM      9  C   UNL     1      -2.045  -1.352  -0.001  0.00  0.00    +0.073 C 
ATOM     10  C   UNL     1      -2.079   1.286   0.001  0.00  0.00    +0.062 C 
ATOM     11  C   UNL     1       0.033   2.537   0.002  0.00  0.00    +0.006 C 
ATOM     12  C   UNL     1       0.097  -2.556   0.004  0.00  0.00    +0.001 C 
ATOM     13  C   UNL     1      -1.300   2.553   0.002  0.00  0.00    +0.016 C 
ATOM     14  C   UNL     1      -1.237  -2.599   0.002  0.00  0.00    +0.018 C 
ATOM     15  H   UNL     1       3.769   0.062  -0.003  0.00  0.00    +0.152 HD
ATOM     16  H   UNL     1      -3.877  -0.595  -0.008  0.00  0.00    +0.187 HD
ENDROOT
BRANCH  10  17
ATOM     17  N   UNL     1      -3.372   1.389   0.001  0.00  0.00    -0.265 NA
ATOM     18  H   UNL     1      -3.930   0.578   0.000  0.00  0.00    +0.170 HD
ENDBRANCH  10  17
BRANCH   8  19
ATOM     19  O   UNL     1       2.875   2.389  -0.002  0.00  0.00    -0.495 OA
ATOM     20  H   UNL     1       3.810   2.330  -0.003  0.00  0.00    +0.293 HD
ENDBRANCH   8  19
BRANCH   7  21
ATOM     21  O   UNL     1       3.028  -2.269  -0.001  0.00  0.00    -0.364 OA
ATOM     22  H   UNL     1       3.954  -2.126  -0.002  0.00  0.00    +0.213 HD
ENDBRANCH   7  21
TORSDOF 3
