REMARK  Name = 136675100
REMARK  6 active torsions:
REMARK  status: ('A' for Active; 'I' for Inactive)
REMARK    1  A    between atoms: C_2  and  S_13
REMARK    2  A    between atoms: C_3  and  O_16
REMARK    3  A    between atoms: C_4  and  C_8
REMARK    4  A    between atoms: C_5  and  C_19
REMARK    5  A    between atoms: N_18  and  C_19
REMARK    6  A    between atoms: N_18  and  O_20
REMARK                            x       y       z     vdW  Elec       q    Type
REMARK                         _______ _______ _______ _____ _____    ______ ____
ROOT
ATOM      1  N   UNL     1      -0.262   1.024   0.429  0.00  0.00    -0.406 NA
ATOM      2  C   UNL     1       1.877  -0.094   0.293  0.00  0.00    +0.113 C 
ATOM      3  C   UNL     1       1.241  -1.289  -0.023  0.00  0.00    +0.133 C 
ATOM      4  C   UNL     1      -0.845  -0.157   0.120  0.00  0.00    +0.134 C 
ATOM      5  C   UNL     1       1.087   1.024   0.508  0.00  0.00    +0.139 C 
ATOM      6  C   UNL     1      -0.146  -1.330  -0.113  0.00  0.00    +0.125 C 
ENDROOT
BRANCH   4   8
ATOM      7  N   UNL     1      -2.902  -1.282   0.367  0.00  0.00    -0.242 NA
ATOM      8  C   UNL     1      -2.286  -0.122   0.043  0.00  0.00    +0.107 C 
ATOM      9  C   UNL     1      -2.954   1.030  -0.338  0.00  0.00    +0.021 C 
ATOM     10  C   UNL     1      -4.343   0.991  -0.391  0.00  0.00    +0.003 C 
ATOM     11  C   UNL     1      -4.253  -1.282   0.304  0.00  0.00    +0.099 C 
ATOM     12  C   UNL     1      -5.012  -0.183  -0.065  0.00  0.00    +0.021 C 
ENDBRANCH   4   8
BRANCH   2  13
ATOM     13  S   UNL     1       3.670  -0.017   0.415  0.00  0.00    +0.071 S 
ATOM     14  O   UNL     1       4.144  -1.426   0.630  0.00  0.00    -0.251 OA
ATOM     15  C   UNL     1       4.003   0.401  -1.316  0.00  0.00    +0.111 C 
ENDBRANCH   2  13
BRANCH   3  16
ATOM     16  O   UNL     1       1.946  -2.434  -0.250  0.00  0.00    -0.475 OA
ATOM     17  C   UNL     1       1.194  -3.604  -0.567  0.00  0.00    +0.252 C 
ENDBRANCH   3  16
BRANCH   5  18
ATOM     18  C   UNL     1       1.658   2.322   0.844  0.00  0.00    +0.180 C 
BRANCH  18  19
ATOM     19  N   UNL     1       1.485   3.380   0.107  0.00  0.00    -0.080 NA
BRANCH  19  20
ATOM     20  O   UNL     1       0.697   3.047  -0.998  0.00  0.00    -0.295 OA
ATOM     21  H   UNL     1       0.479   3.702  -1.632  0.00  0.00    +0.238 HD
ENDBRANCH  19  20
ENDBRANCH  18  19
ENDBRANCH   5  18
TORSDOF 6
