REMARK  Name = 136663942
REMARK  5 active torsions:
REMARK  status: ('A' for Active; 'I' for Inactive)
REMARK    1  A    between atoms: C2*_2  and  O2*_17
REMARK    2  A    between atoms: C3*_3  and  O3*_19
REMARK    3  A    between atoms: C1*_4  and  N_7
REMARK    4  A    between atoms: C4*_5  and  C5*_21
REMARK    5  A    between atoms: C5*_21  and  O5*_22
REMARK                            x       y       z     vdW  Elec       q    Type
REMARK                         _______ _______ _______ _____ _____    ______ ____
ROOT
ATOM      1  O4* UNL     1       2.019   0.173   0.993  0.00  0.00    -0.332 OA
ATOM      2  C2* UNL     1       1.541  -1.405  -0.746  0.00  0.00    +0.188 C 
ATOM      3  C3* UNL     1       2.799  -0.628  -1.085  0.00  0.00    +0.171 C 
ATOM      4  C1* UNL     1       0.974  -0.677   0.479  0.00  0.00    +0.243 C 
ATOM      5  C4* UNL     1       3.233  -0.101   0.276  0.00  0.00    +0.176 C 
ENDROOT
BRANCH   4   7
ATOM      6  O   UNL     1      -4.530   1.553  -0.468  0.00  0.00    -0.274 OA
ATOM      7  N   UNL     1      -0.270   0.126   0.163  0.00  0.00    -0.170 N 
ATOM      8  N   UNL     1      -0.147   1.397  -0.271  0.00  0.00    -0.177 NA
ATOM      9  N   UNL     1      -1.965  -1.514   0.672  0.00  0.00    -0.236 NA
ATOM     10  N   UNL     1      -4.162  -0.620   0.293  0.00  0.00    -0.283 N 
ATOM     11  C   UNL     1      -1.563  -0.288   0.263  0.00  0.00    +0.141 C 
ATOM     12  C   UNL     1      -2.332   0.783  -0.131  0.00  0.00    +0.174 C 
ATOM     13  C   UNL     1      -1.414   1.793  -0.449  0.00  0.00    +0.108 C 
ATOM     14  C   UNL     1      -3.768   0.655  -0.134  0.00  0.00    +0.236 C 
ATOM     15  C   UNL     1      -3.262  -1.621   0.667  0.00  0.00    +0.220 C 
ATOM     16  H   UNL     1      -5.125  -0.821   0.332  0.00  0.00    +0.151 HD
ENDBRANCH   4   7
BRANCH   2  17
ATOM     17  O2* UNL     1       1.875  -2.745  -0.392  0.00  0.00    -0.378 OA
ATOM     18  H2* UNL     1       2.234  -3.204  -1.168  0.00  0.00    +0.211 HD
ENDBRANCH   2  17
BRANCH   3  19
ATOM     19  O3* UNL     1       2.473   0.447  -1.957  0.00  0.00    -0.379 OA
ATOM     20  H3* UNL     1       2.199   0.093  -2.818  0.00  0.00    +0.211 HD
ENDBRANCH   3  19
BRANCH   5  21
ATOM     21  C5* UNL     1       4.092   1.150   0.247  0.00  0.00    +0.169 C 
BRANCH  21  22
ATOM     22  O5* UNL     1       4.406   1.522   1.579  0.00  0.00    -0.379 OA
ATOM     23  H5* UNL     1       4.955   2.322   1.571  0.00  0.00    +0.211 HD
ENDBRANCH  21  22
ENDBRANCH   5  21
TORSDOF 5
