REMARK  Name = 136643516
REMARK  5 active torsions:
REMARK  status: ('A' for Active; 'I' for Inactive)
REMARK    1  A    between atoms: C_2  and  O_23
REMARK    2  A    between atoms: C_3  and  O_25
REMARK    3  A    between atoms: C_5  and  C_27
REMARK    4  A    between atoms: C_6  and  N_10
REMARK    5  A    between atoms: C_27  and  O_28
REMARK                            x       y       z     vdW  Elec       q    Type
REMARK                         _______ _______ _______ _____ _____    ______ ____
ROOT
ATOM      1  O   UNL     1       1.809  -1.284  -1.066  0.00  0.00    -0.333 OA
ATOM      2  C   UNL     1       2.777   0.606  -0.047  0.00  0.00    +0.144 C 
ATOM      3  C   UNL     1       1.304   0.818  -0.128  0.00  0.00    +0.158 C 
ATOM      4  C   UNL     1       1.955   0.635   1.238  0.00  0.00    +0.056 C 
ATOM      5  C   UNL     1       3.062  -0.597  -0.893  0.00  0.00    +0.173 C 
ATOM      6  C   UNL     1       0.764  -0.289  -0.996  0.00  0.00    +0.223 C 
ATOM      7  C   UNL     1       2.074   1.851   2.135  0.00  0.00    +0.005 C 
ATOM      8  C   UNL     1       1.726  -0.624   2.035  0.00  0.00    +0.005 C 
ENDROOT
BRANCH   6  10
ATOM      9  O   UNL     1      -4.833  -1.473   0.805  0.00  0.00    -0.268 OA
ATOM     10  N   UNL     1      -0.554  -0.842  -0.502  0.00  0.00    -0.237 N 
ATOM     11  N   UNL     1      -2.037  -2.325   0.275  0.00  0.00    -0.240 NA
ATOM     12  N   UNL     1      -1.938   1.139  -0.640  0.00  0.00    -0.357 NA
ATOM     13  N   UNL     1      -4.168   0.646   0.084  0.00  0.00    -0.243 N 
ATOM     14  N   UNL     1      -3.586   2.814  -0.627  0.00  0.00    -0.321 N 
ATOM     15  C   UNL     1      -1.730  -0.167  -0.360  0.00  0.00    +0.211 C 
ATOM     16  C   UNL     1      -0.789  -2.136  -0.107  0.00  0.00    +0.224 C 
ATOM     17  C   UNL     1      -2.617  -1.101   0.117  0.00  0.00    +0.176 C 
ATOM     18  C   UNL     1      -3.974  -0.710   0.380  0.00  0.00    +0.273 C 
ATOM     19  C   UNL     1      -3.174   1.525  -0.407  0.00  0.00    +0.239 C 
ATOM     20  H   UNL     1      -5.068   1.017   0.230  0.00  0.00    +0.159 HD
ATOM     21  H   UNL     1      -2.949   3.483  -0.969  0.00  0.00    +0.146 HD
ATOM     22  H   UNL     1      -4.518   3.071  -0.443  0.00  0.00    +0.146 HD
ENDBRANCH   6  10
BRANCH   2  23
ATOM     23  O   UNL     1       3.636   1.726  -0.309  0.00  0.00    -0.382 OA
ATOM     24  H   UNL     1       3.393   2.463   0.273  0.00  0.00    +0.210 HD
ENDBRANCH   2  23
BRANCH   3  25
ATOM     25  O   UNL     1       0.856   2.135  -0.491  0.00  0.00    -0.380 OA
ATOM     26  H   UNL     1       1.246   2.787   0.112  0.00  0.00    +0.211 HD
ENDBRANCH   3  25
BRANCH   5  27
ATOM     27  C   UNL     1       4.108  -1.529  -0.316  0.00  0.00    +0.169 C 
BRANCH  27  28
ATOM     28  O   UNL     1       5.330  -0.821  -0.178  0.00  0.00    -0.379 OA
ATOM     29  H   UNL     1       6.006  -1.411   0.191  0.00  0.00    +0.211 HD
ENDBRANCH  27  28
ENDBRANCH   5  27
TORSDOF 5
