REMARK  Name = 136751773
REMARK  8 active torsions:
REMARK  status: ('A' for Active; 'I' for Inactive)
REMARK    1  A    between atoms: N_2  and  N_17
REMARK    2  A    between atoms: C_3  and  C_7
REMARK    3  A    between atoms: C_10  and  O_15
REMARK    4  A    between atoms: N_17  and  C_18
REMARK    5  A    between atoms: C_18  and  C_19
REMARK    6  A    between atoms: C_20  and  O_25
REMARK    7  A    between atoms: C_22  and  O_27
REMARK    8  A    between atoms: C_24  and  O_29
REMARK                            x       y       z     vdW  Elec       q    Type
REMARK                         _______ _______ _______ _____ _____    ______ ____
ROOT
ATOM      1  O   UNL     1       0.888  -3.562  -0.242  0.00  0.00    -0.269 OA
ATOM      2  N   UNL     1      -0.712  -1.893  -0.130  0.00  0.00    -0.228 N 
ATOM      3  C   UNL     1       0.604  -2.357  -0.126  0.00  0.00    +0.263 C 
ATOM      4  H   UNL     1      -0.898  -0.931  -0.035  0.00  0.00    +0.171 HD
ENDROOT
BRANCH   3   7
ATOM      5  C   UNL     1       2.425   0.916  -0.401  0.00  0.00    +0.000 C 
ATOM      6  C   UNL     1       3.656   0.601   0.223  0.00  0.00    +0.003 C 
ATOM      7  C   UNL     1       1.654  -1.357   0.000  0.00  0.00    +0.088 C 
ATOM      8  C   UNL     1       1.435  -0.075  -0.505  0.00  0.00    +0.008 C 
ATOM      9  C   UNL     1       3.860  -0.695   0.725  0.00  0.00    +0.037 C 
ATOM     10  C   UNL     1       2.865  -1.666   0.614  0.00  0.00    +0.138 C 
ATOM     11  C   UNL     1       2.221   2.211  -0.903  0.00  0.00    +0.000 C 
ATOM     12  C   UNL     1       4.646   1.591   0.327  0.00  0.00    +0.000 C 
ATOM     13  C   UNL     1       3.216   3.183  -0.791  0.00  0.00    +0.000 C 
ATOM     14  C   UNL     1       4.426   2.873  -0.177  0.00  0.00    +0.000 C 
BRANCH  10  15
ATOM     15  O   UNL     1       3.097  -2.913   1.113  0.00  0.00    -0.505 OA
ATOM     16  H   UNL     1       2.438  -3.575   1.045  0.00  0.00    +0.292 HD
ENDBRANCH  10  15
ENDBRANCH   3   7
BRANCH   2  17
ATOM     17  N   UNL     1      -1.732  -2.775  -0.263  0.00  0.00    -0.126 NA
BRANCH  17  18
ATOM     18  C   UNL     1      -2.904  -2.228  -0.252  0.00  0.00    +0.141 C 
BRANCH  18  19
ATOM     19  C   UNL     1      -3.084  -0.773  -0.105  0.00  0.00    +0.034 C 
ATOM     20  C   UNL     1      -3.125   0.059  -1.224  0.00  0.00    +0.134 C 
ATOM     21  C   UNL     1      -3.215  -0.230   1.173  0.00  0.00    +0.040 C 
ATOM     22  C   UNL     1      -3.388   1.145   1.333  0.00  0.00    +0.167 C 
ATOM     23  C   UNL     1      -3.297   1.435  -1.064  0.00  0.00    +0.076 C 
ATOM     24  C   UNL     1      -3.428   1.977   0.214  0.00  0.00    +0.171 C 
BRANCH  20  25
ATOM     25  O   UNL     1      -2.998  -0.451  -2.481  0.00  0.00    -0.506 OA
ATOM     26  H   UNL     1      -2.882  -1.373  -2.603  0.00  0.00    +0.292 HD
ENDBRANCH  20  25
BRANCH  22  27
ATOM     27  O   UNL     1      -3.514   1.663   2.586  0.00  0.00    -0.503 OA
ATOM     28  H   UNL     1      -3.485   1.097   3.332  0.00  0.00    +0.292 HD
ENDBRANCH  22  27
BRANCH  24  29
ATOM     29  O   UNL     1      -3.595   3.321   0.358  0.00  0.00    -0.503 OA
ATOM     30  H   UNL     1      -3.684   3.694   1.213  0.00  0.00    +0.292 HD
ENDBRANCH  24  29
ENDBRANCH  18  19
ENDBRANCH  17  18
ENDBRANCH   2  17
TORSDOF 8
