REMARK  Name = 136721408
REMARK  8 active torsions:
REMARK  status: ('A' for Active; 'I' for Inactive)
REMARK    1  A    between atoms: C_2  and  C_24
REMARK    2  A    between atoms: C_4  and  O_29
REMARK    3  A    between atoms: C_4  and  C_36
REMARK    4  A    between atoms: C_9  and  C_27
REMARK    5  A    between atoms: C_12  and  O_31
REMARK    6  A    between atoms: C_13  and  O_33
REMARK    7  A    between atoms: C_20  and  O_39
REMARK    8  A    between atoms: C_36  and  O_37
REMARK                            x       y       z     vdW  Elec       q    Type
REMARK                         _______ _______ _______ _____ _____    ______ ____
ROOT
ATOM      1  O   UNL     1      -4.695   1.767   0.838  0.00  0.00    -0.288 OA
ATOM      2  C   UNL     1       0.853  -1.575  -0.431  0.00  0.00    +0.115 C 
ATOM      3  C   UNL     1       0.106  -0.270  -0.381  0.00  0.00    -0.027 C 
ATOM      4  C   UNL     1       2.304  -1.500   0.135  0.00  0.00    +0.208 C 
ATOM      5  C   UNL     1       0.923   0.965  -0.321  0.00  0.00    +0.066 C 
ATOM      6  C   UNL     1      -1.207   0.057  -0.358  0.00  0.00    -0.008 C 
ATOM      7  C   UNL     1       3.065  -0.274  -0.357  0.00  0.00    +0.043 C 
ATOM      8  C   UNL     1       2.377   0.939  -0.577  0.00  0.00    -0.013 C 
ATOM      9  C   UNL     1       0.105   2.002  -0.040  0.00  0.00    +0.019 C 
ATOM     10  C   UNL     1      -1.251   1.477  -0.008  0.00  0.00    +0.011 C 
ATOM     11  C   UNL     1      -2.442  -0.715  -0.541  0.00  0.00    +0.005 C 
ATOM     12  C   UNL     1       4.459  -0.317  -0.549  0.00  0.00    +0.132 C 
ATOM     13  C   UNL     1      -2.398   2.070   0.356  0.00  0.00    +0.194 C 
ATOM     14  C   UNL     1       3.084   2.035  -1.094  0.00  0.00    -0.004 C 
ATOM     15  C   UNL     1      -3.648  -0.119  -0.131  0.00  0.00    +0.071 C 
ATOM     16  C   UNL     1      -3.663   1.272   0.397  0.00  0.00    +0.207 C 
ATOM     17  C   UNL     1       5.151   0.796  -1.020  0.00  0.00    +0.036 C 
ATOM     18  C   UNL     1       4.461   1.966  -1.308  0.00  0.00    +0.003 C 
ATOM     19  C   UNL     1      -2.501  -1.957  -1.184  0.00  0.00    +0.000 C 
ATOM     20  C   UNL     1      -4.866  -0.798  -0.269  0.00  0.00    +0.136 C 
ATOM     21  C   UNL     1      -3.716  -2.632  -1.326  0.00  0.00    +0.003 C 
ATOM     22  C   UNL     1      -4.894  -2.061  -0.855  0.00  0.00    +0.037 C 
ENDROOT
BRANCH   2  24
ATOM     23  O   UNL     1      -0.607  -2.359   1.297  0.00  0.00    -0.296 OA
ATOM     24  C   UNL     1       0.108  -2.639   0.337  0.00  0.00    +0.158 C 
ATOM     25  C   UNL     1       0.285  -4.059  -0.128  0.00  0.00    +0.073 C 
ENDBRANCH   2  24
BRANCH   9  27
ATOM     26  O   UNL     1       0.056   4.300  -0.507  0.00  0.00    -0.292 OA
ATOM     27  C   UNL     1       0.485   3.388   0.208  0.00  0.00    +0.170 C 
ATOM     28  C   UNL     1       1.409   3.679   1.368  0.00  0.00    +0.077 C 
ENDBRANCH   9  27
BRANCH   4  29
ATOM     29  O   UNL     1       2.944  -2.723  -0.252  0.00  0.00    -0.372 OA
ATOM     30  H   UNL     1       2.948  -2.794  -1.219  0.00  0.00    +0.211 HD
ENDBRANCH   4  29
BRANCH  12  31
ATOM     31  O   UNL     1       5.196  -1.444  -0.324  0.00  0.00    -0.506 OA
ATOM     32  H   UNL     1       4.778  -2.221  -0.007  0.00  0.00    +0.292 HD
ENDBRANCH  12  31
BRANCH  13  33
ATOM     33  O   UNL     1      -2.469   3.385   0.758  0.00  0.00    -0.373 OA
ATOM     34  H   UNL     1      -1.700   3.920   0.748  0.00  0.00    +0.211 HD
ENDBRANCH  13  33
BRANCH   4  36
ATOM     35  O   UNL     1       2.860  -2.429   2.306  0.00  0.00    -0.247 OA
ATOM     36  C   UNL     1       2.372  -1.527   1.642  0.00  0.00    +0.343 C 
BRANCH  36  37
ATOM     37  O   UNL     1       1.812  -0.410   2.166  0.00  0.00    -0.478 OA
ATOM     38  H   UNL     1       1.454   0.245   1.599  0.00  0.00    +0.295 HD
ENDBRANCH  36  37
ENDBRANCH   4  36
BRANCH  20  39
ATOM     39  O   UNL     1      -6.057  -0.288   0.154  0.00  0.00    -0.505 OA
ATOM     40  H   UNL     1      -6.088   0.558   0.555  0.00  0.00    +0.292 HD
ENDBRANCH  20  39
TORSDOF 8
