136734298
  -OEChem-03292013293D

 51 54  0     1  0  0  0  0  0999 V2000
   -1.6606   -0.5613    1.0420 S   0  0  0  0  0  0  0  0  0  0  0  0
    3.9861    2.0270   -0.4869 O   0  0  0  0  0  0  0  0  0  0  0  0
    2.3127    4.1911   -0.5115 O   0  0  0  0  0  0  0  0  0  0  0  0
    0.8568   -2.3767    0.6582 O   0  0  0  0  0  0  0  0  0  0  0  0
    2.8887   -3.9165    0.3311 O   0  0  0  0  0  0  0  0  0  0  0  0
   -4.1345   -3.3892    1.1579 O   0  0  0  0  0  0  0  0  0  0  0  0
   -2.4861   -3.9690   -0.2868 O   0  0  0  0  0  0  0  0  0  0  0  0
   -5.4991   -0.1369   -1.9456 O   0  0  0  0  0  0  0  0  0  0  0  0
   -4.7015   -1.1328    0.0022 N   0  0  0  0  0  0  0  0  0  0  0  0
    1.8051    1.1298    0.0509 C   0  0  0  0  0  0  0  0  0  0  0  0
    0.9745   -0.0301    0.3684 C   0  0  0  0  0  0  0  0  0  0  0  0
    0.9277    2.3118    0.1015 C   0  0  0  0  0  0  0  0  0  0  0  0
   -0.3478    1.8218    0.4606 C   0  0  0  0  0  0  0  0  0  0  0  0
   -0.2870    0.3591    0.6192 C   0  0  0  0  0  0  0  0  0  0  0  0
    3.1190    0.9972   -0.2116 C   0  0  0  0  0  0  0  0  0  0  0  0
    1.5409   -1.3989    0.3905 C   0  0  0  0  0  0  0  0  0  0  0  0
    3.7418   -0.3492   -0.2216 C   0  0  0  0  0  0  0  0  0  0  0  0
    2.9861   -1.5024    0.0678 C   0  0  0  0  0  0  0  0  0  0  0  0
    1.1192    3.6645   -0.1385 C   0  0  0  0  0  0  0  0  0  0  0  0
   -1.4269    2.6891    0.6006 C   0  0  0  0  0  0  0  0  0  0  0  0
   -1.2283    4.0510    0.3723 C   0  0  0  0  0  0  0  0  0  0  0  0
    0.0329    4.5333    0.0029 C   0  0  0  0  0  0  0  0  0  0  0  0
   -2.3197   -0.9421   -0.5998 C   0  0  0  0  0  0  0  0  0  0  0  0
    3.5799   -2.7729    0.0583 C   0  0  0  0  0  0  0  0  0  0  0  0
    5.1060   -0.5142   -0.5196 C   0  0  0  0  0  0  0  0  0  0  0  0
   -3.5728   -1.8205   -0.5731 C   0  0  1  0  0  0  0  0  0  0  0  0
   -2.3703    5.0010    0.5160 C   0  0  0  0  0  0  0  0  0  0  0  0
    4.9332   -2.9083   -0.2401 C   0  0  0  0  0  0  0  0  0  0  0  0
    5.6951   -1.7813   -0.5287 C   0  0  0  0  0  0  0  0  0  0  0  0
   -3.3241   -3.1618    0.0966 C   0  0  0  0  0  0  0  0  0  0  0  0
   -5.5714   -0.3465   -0.7376 C   0  0  0  0  0  0  0  0  0  0  0  0
   -6.6756    0.2342    0.1046 C   0  0  0  0  0  0  0  0  0  0  0  0
   -2.4098    2.3218    0.8796 H   0  0  0  0  0  0  0  0  0  0  0  0
    0.1644    5.5988   -0.1757 H   0  0  0  0  0  0  0  0  0  0  0  0
   -2.5376   -0.0012   -1.1182 H   0  0  0  0  0  0  0  0  0  0  0  0
   -1.5351   -1.4552   -1.1682 H   0  0  0  0  0  0  0  0  0  0  0  0
    5.7400    0.3386   -0.7515 H   0  0  0  0  0  0  0  0  0  0  0  0
   -3.8458   -2.0574   -1.6098 H   0  0  0  0  0  0  0  0  0  0  0  0
   -2.3808    5.4251    1.5249 H   0  0  0  0  0  0  0  0  0  0  0  0
   -2.2955    5.8181   -0.2096 H   0  0  0  0  0  0  0  0  0  0  0  0
   -3.3286    4.5014    0.3371 H   0  0  0  0  0  0  0  0  0  0  0  0
    5.4009   -3.8891   -0.2499 H   0  0  0  0  0  0  0  0  0  0  0  0
    6.7510   -1.8851   -0.7618 H   0  0  0  0  0  0  0  0  0  0  0  0
    3.5159    2.8686   -0.3992 H   0  0  0  0  0  0  0  0  0  0  0  0
    2.2227    5.1524   -0.6274 H   0  0  0  0  0  0  0  0  0  0  0  0
   -4.8531   -1.2233    1.0030 H   0  0  0  0  0  0  0  0  0  0  0  0
    1.9555   -3.7245    0.5049 H   0  0  0  0  0  0  0  0  0  0  0  0
   -6.2575    0.7260    0.9876 H   0  0  0  0  0  0  0  0  0  0  0  0
   -7.2335    0.9732   -0.4771 H   0  0  0  0  0  0  0  0  0  0  0  0
   -7.3543   -0.5637    0.4182 H   0  0  0  0  0  0  0  0  0  0  0  0
   -3.9620   -4.2621    1.5708 H   0  0  0  0  0  0  0  0  0  0  0  0
  1 14  1  0  0  0  0
  1 23  1  0  0  0  0
  2 15  1  0  0  0  0
  2 44  1  0  0  0  0
  3 19  1  0  0  0  0
  3 45  1  0  0  0  0
  4 16  2  0  0  0  0
  5 24  1  0  0  0  0
  5 47  1  0  0  0  0
  6 30  1  0  0  0  0
  6 51  1  0  0  0  0
  7 30  2  0  0  0  0
  8 31  2  0  0  0  0
  9 26  1  0  0  0  0
  9 31  1  0  0  0  0
  9 46  1  0  0  0  0
 10 11  1  0  0  0  0
 10 12  1  0  0  0  0
 10 15  2  0  0  0  0
 11 14  2  0  0  0  0
 11 16  1  0  0  0  0
 12 13  2  0  0  0  0
 12 19  1  0  0  0  0
 13 14  1  0  0  0  0
 13 20  1  0  0  0  0
 15 17  1  0  0  0  0
 16 18  1  0  0  0  0
 17 18  2  0  0  0  0
 17 25  1  0  0  0  0
 18 24  1  0  0  0  0
 19 22  2  0  0  0  0
 20 21  2  0  0  0  0
 20 33  1  0  0  0  0
 21 22  1  0  0  0  0
 21 27  1  0  0  0  0
 22 34  1  0  0  0  0
 23 26  1  0  0  0  0
 23 35  1  0  0  0  0
 23 36  1  0  0  0  0
 24 28  2  0  0  0  0
 25 29  2  0  0  0  0
 25 37  1  0  0  0  0
 26 30  1  0  0  0  0
 26 38  1  0  0  0  0
 27 39  1  0  0  0  0
 27 40  1  0  0  0  0
 27 41  1  0  0  0  0
 28 29  1  0  0  0  0
 28 42  1  0  0  0  0
 29 43  1  0  0  0  0
 31 32  1  0  0  0  0
 32 48  1  0  0  0  0
 32 49  1  0  0  0  0
 32 50  1  0  0  0  0
M  END
> <PUBCHEM_COMPOUND_CID>
136734298

> <PUBCHEM_CONFORMER_RMSD>
0.8

> <PUBCHEM_CONFORMER_DIVERSEORDER>
1
65
59
63
3
66
28
50
44
53
55
79
46
45
21
39
74
38
33
29
78
62
40
60
56
8
51
68
47
49
77
41
57
14
26
30
36
42
70
73
25
13
22
20
54
67
31
18
24
15
52
7
19
69
6
16
64
23
32
5
10
48
4
75
43
27
34
72
12
76
71
61
2
37
35
17
58
11
9

> <PUBCHEM_MMFF94_PARTIAL_CHARGES>
42
1 -0.33
10 -0.03
11 0.01
12 0.03
13 0.03
14 0.07
15 0.05
16 0.47
17 0.03
18 0.09
19 0.08
2 -0.53
20 -0.15
21 -0.14
22 -0.15
23 0.23
24 0.08
25 -0.15
26 0.36
27 0.14
28 -0.15
29 -0.15
3 -0.53
30 0.66
31 0.57
32 0.06
33 0.15
34 0.15
37 0.15
4 -0.57
42 0.15
43 0.15
44 0.45
45 0.45
46 0.37
47 0.45
5 -0.53
51 0.5
6 -0.65
7 -0.57
8 -0.57
9 -0.73

> <PUBCHEM_EFFECTIVE_ROTOR_COUNT>
6

> <PUBCHEM_PHARMACOPHORE_FEATURES>
13
1 2 donor
1 3 donor
1 4 acceptor
1 5 donor
1 6 acceptor
1 7 acceptor
1 8 acceptor
1 9 donor
3 6 7 30 anion
5 10 11 12 13 14 rings
6 10 11 15 16 17 18 rings
6 12 13 19 20 21 22 rings
6 17 18 24 25 28 29 rings

> <PUBCHEM_HEAVY_ATOM_COUNT>
32

> <PUBCHEM_ATOM_DEF_STEREO_COUNT>
1

> <PUBCHEM_ATOM_UDEF_STEREO_COUNT>
0

> <PUBCHEM_BOND_DEF_STEREO_COUNT>
0

> <PUBCHEM_BOND_UDEF_STEREO_COUNT>
0

> <PUBCHEM_ISOTOPIC_ATOM_COUNT>
0

> <PUBCHEM_COMPONENT_COUNT>
1

> <PUBCHEM_CACTVS_TAUTO_COUNT>
-1

> <PUBCHEM_CONFORMER_ID>
0826665A00000001

> <PUBCHEM_MMFF94_ENERGY>
105.0488

> <PUBCHEM_FEATURE_SELFOVERLAP>
66.22

> <PUBCHEM_SHAPE_FINGERPRINT>
10411042 1 18410862087796203186
10483366 6 18194672680238244741
10675989 125 18265052607857171812
11135609 187 18120098535823050676
11578080 2 13119155645644765934
12107183 9 18270137789707116747
12633046 712 18264202677205877863
12788726 201 18194953059560503579
13004483 165 18340196402015877850
138480 1 15239761259024686138
13911987 19 17684953666499085868
140371 6 18410295808799372682
14251757 5 18335980870556456591
14790565 3 17403181396325939272
14866123 147 18051975810084288787
15082195 135 17981300590484798055
15320467 1 18338800009680360887
15927050 60 17260748448055088271
16087824 20 18267024947766966257
16628084 112 17974851666740174411
20775438 99 17406220829128061511
21133410 171 17614791411000615154
21478907 32 18339360755914522344
21703447 108 18341320133681609232
22223350 30 17838883842477387368
23536364 44 18263913350780828685
23559900 14 18339636853639333155
3004659 81 18260544524304737886
3103668 31 18119245070081843085
4015057 19 18266729359406109535
46194498 28 17606114228737090511
463206 1 18336267932969731674
613672 6 18339345448883311562
6287921 2 17539406944305860463
6443956 14 18337110180361565468

> <PUBCHEM_SHAPE_MULTIPOLES>
616.33
11.67
6.69
0.91
5.24
5.45
0.1
-10.13
3.12
2.07
-0.58
0.75
-0.18
-0.58

> <PUBCHEM_SHAPE_SELFOVERLAP>
1353.027

> <PUBCHEM_SHAPE_VOLUME>
335

> <PUBCHEM_COORDINATE_TYPE>
2
5
10

$$$$
