REMARK  Name = 136747666
REMARK  2 active torsions:
REMARK  status: ('A' for Active; 'I' for Inactive)
REMARK    1  A    between atoms: C_7  and  N_34
REMARK    2  A    between atoms: C_16  and  O_35
REMARK                            x       y       z     vdW  Elec       q    Type
REMARK                         _______ _______ _______ _____ _____    ______ ____
ROOT
ATOM      1  O   UNL     1      -5.022  -1.412  -0.237  0.00  0.00    -0.482 OA
ATOM      2  O   UNL     1      -4.167   2.597  -0.497  0.00  0.00    -0.291 OA
ATOM      3  N   UNL     1       5.082  -0.554  -0.615  0.00  0.00    +0.390 N 
ATOM      4  N   UNL     1      -1.391   1.914  -0.338  0.00  0.00    -0.312 N 
ATOM      5  C   UNL     1       2.627   0.292   0.734  0.00  0.00    +0.022 C 
ATOM      6  C   UNL     1       1.188   0.218   1.309  0.00  0.00    +0.009 C 
ATOM      7  C   UNL     1       2.599  -0.477  -0.587  0.00  0.00    +0.125 C 
ATOM      8  C   UNL     1       0.340   0.355  -0.030  0.00  0.00    +0.065 C 
ATOM      9  C   UNL     1       1.263  -0.079  -1.217  0.00  0.00    +0.034 C 
ATOM     10  C   UNL     1       3.835  -0.094   1.580  0.00  0.00    -0.019 C 
ATOM     11  C   UNL     1       3.871  -0.183  -1.383  0.00  0.00    -0.049 C 
ATOM     12  C   UNL     1       5.134   0.007   0.755  0.00  0.00    -0.058 C 
ATOM     13  C   UNL     1      -1.021  -0.306  -0.064  0.00  0.00    -0.005 C 
ATOM     14  C   UNL     1       0.920  -1.073   2.114  0.00  0.00    +0.001 C 
ATOM     15  C   UNL     1       0.966   1.366   2.322  0.00  0.00    +0.001 C 
ATOM     16  C   UNL     1      -0.116   1.782  -0.281  0.00  0.00    +0.189 C 
ATOM     17  C   UNL     1       5.659   1.430   0.563  0.00  0.00    -0.023 C 
ATOM     18  C   UNL     1       6.296  -0.039  -1.263  0.00  0.00    -0.077 C 
ATOM     19  C   UNL     1       6.521   1.357  -0.693  0.00  0.00    -0.025 C 
ATOM     20  C   UNL     1      -2.008   0.677  -0.209  0.00  0.00    +0.048 C 
ATOM     21  C   UNL     1      -1.384  -1.641  -0.039  0.00  0.00    +0.000 C 
ATOM     22  C   UNL     1      -3.362   0.382  -0.277  0.00  0.00    +0.082 C 
ATOM     23  C   UNL     1      -2.743  -1.967  -0.101  0.00  0.00    +0.037 C 
ATOM     24  C   UNL     1      -3.727  -0.965  -0.199  0.00  0.00    +0.142 C 
ATOM     25  C   UNL     1      -4.416   1.398  -0.469  0.00  0.00    +0.181 C 
ATOM     26  C   UNL     1      -5.806   0.868  -0.700  0.00  0.00    +0.109 C 
ATOM     27  C   UNL     1      -6.033  -0.437   0.068  0.00  0.00    +0.141 C 
ATOM     28  C   UNL     1      -7.359  -1.058  -0.397  0.00  0.00    +0.044 C 
ATOM     29  C   UNL     1      -6.108  -0.220   1.589  0.00  0.00    +0.044 C 
ATOM     30  H   UNL     1       5.035  -1.572  -0.578  0.00  0.00    -0.080 HD
ATOM     31  H   UNL     1      -1.864   2.770  -0.455  0.00  0.00    +0.149 HD
ENDROOT
BRANCH   7  34
ATOM     32  O   UNL     1       1.543  -2.547  -0.719  0.00  0.00    -0.131 OA
ATOM     33  O   UNL     1       3.580  -2.465   0.116  0.00  0.00    -0.131 OA
ATOM     34  N   UNL     1       2.568  -1.953  -0.374  0.00  0.00    +0.028 N 
ENDBRANCH   7  34
BRANCH  16  35
ATOM     35  O   UNL     1       0.672   2.828  -0.462  0.00  0.00    -0.367 OA
ATOM     36  H   UNL     1       0.300   3.675  -0.612  0.00  0.00    +0.212 HD
ENDBRANCH  16  35
TORSDOF 2
