REMARK  Name = 136778458
REMARK  9 active torsions:
REMARK  status: ('A' for Active; 'I' for Inactive)
REMARK    1  A    between atoms: N_1  and  C_4
REMARK    2  A    between atoms: N_1  and  N_15
REMARK    3  A    between atoms: C_4  and  N_5
REMARK    4  A    between atoms: N_5  and  N_7
REMARK    5  A    between atoms: N_7  and  C_8
REMARK    6  A    between atoms: C_8  and  C_10
REMARK    7  A    between atoms: N_15  and  C_16
REMARK    8  A    between atoms: C_16  and  C_17
REMARK    9  A    between atoms: C_18  and  O_23
REMARK                            x       y       z     vdW  Elec       q    Type
REMARK                         _______ _______ _______ _____ _____    ______ ____
ROOT
ATOM      1  N   UNL     1       0.828   0.833   0.077  0.00  0.00    -0.243 N 
ATOM      2  H   UNL     1       1.785   1.064   0.094  0.00  0.00    +0.170 HD
ENDROOT
BRANCH   1   4
ATOM      3  S   UNL     1       0.396   3.436  -0.154  0.00  0.00    -0.016 S 
ATOM      4  C   UNL     1      -0.112   1.838  -0.041  0.00  0.00    +0.160 C 
BRANCH   4   5
ATOM      5  N   UNL     1      -1.428   1.412  -0.054  0.00  0.00    -0.243 N 
ATOM      6  H   UNL     1      -1.621   0.449   0.019  0.00  0.00    +0.170 HD
BRANCH   5   7
ATOM      7  N   UNL     1      -2.457   2.285  -0.165  0.00  0.00    -0.126 NA
BRANCH   7   8
ATOM      8  C   UNL     1      -3.624   1.726  -0.161  0.00  0.00    +0.157 C 
BRANCH   8  10
ATOM      9  N   UNL     1      -3.208  -0.467  -1.023  0.00  0.00    -0.247 NA
ATOM     10  C   UNL     1      -3.787   0.267  -0.046  0.00  0.00    +0.078 C 
ATOM     11  C   UNL     1      -4.497  -0.275   1.013  0.00  0.00    +0.016 C 
ATOM     12  C   UNL     1      -4.621  -1.658   1.074  0.00  0.00    +0.003 C 
ATOM     13  C   UNL     1      -4.040  -2.447   0.088  0.00  0.00    +0.021 C 
ATOM     14  C   UNL     1      -3.350  -1.809  -0.930  0.00  0.00    +0.099 C 
ENDBRANCH   8  10
ENDBRANCH   7   8
ENDBRANCH   5   7
ENDBRANCH   4   5
ENDBRANCH   1   4
BRANCH   1  15
ATOM     15  N   UNL     1       0.454  -0.466   0.171  0.00  0.00    -0.127 NA
BRANCH  15  16
ATOM     16  C   UNL     1       1.443  -1.292   0.278  0.00  0.00    +0.141 C 
BRANCH  16  17
ATOM     17  C   UNL     1       2.843  -0.832   0.292  0.00  0.00    +0.031 C 
ATOM     18  C   UNL     1       3.568  -0.708  -0.892  0.00  0.00    +0.131 C 
ATOM     19  C   UNL     1       3.442  -0.519   1.513  0.00  0.00    +0.000 C 
ATOM     20  C   UNL     1       4.893  -0.272  -0.857  0.00  0.00    +0.036 C 
ATOM     21  C   UNL     1       4.766  -0.084   1.548  0.00  0.00    -0.000 C 
ATOM     22  C   UNL     1       5.492   0.040   0.364  0.00  0.00    +0.003 C 
BRANCH  18  23
ATOM     23  O   UNL     1       3.001  -1.010  -2.095  0.00  0.00    -0.506 OA
ATOM     24  H   UNL     1       2.113  -1.304  -2.133  0.00  0.00    +0.292 HD
ENDBRANCH  18  23
ENDBRANCH  16  17
ENDBRANCH  15  16
ENDBRANCH   1  15
TORSDOF 9
