REMARK  Name = 136734298
REMARK  9 active torsions:
REMARK  status: ('A' for Active; 'I' for Inactive)
REMARK    1  A    between atoms: C_6  and  S_26
REMARK    2  A    between atoms: C_7  and  O_20
REMARK    3  A    between atoms: C_11  and  O_22
REMARK    4  A    between atoms: C_15  and  O_24
REMARK    5  A    between atoms: S_26  and  C_27
REMARK    6  A    between atoms: C_27  and  C_28
REMARK    7  A    between atoms: C_28  and  N_30
REMARK    8  A    between atoms: C_28  and  C_35
REMARK    9  A    between atoms: C_35  and  O_36
REMARK                            x       y       z     vdW  Elec       q    Type
REMARK                         _______ _______ _______ _____ _____    ______ ____
ROOT
ATOM      1  O   UNK A   1       0.857  -2.377   0.658  0.00  0.00    -0.291 OA
ATOM      2  C   UNK A   1       1.805   1.130   0.051  0.00  0.00    +0.001 C 
ATOM      3  C   UNK A   1       0.975  -0.030   0.368  0.00  0.00    +0.111 C 
ATOM      4  C   UNK A   1       0.928   2.312   0.102  0.00  0.00    +0.029 C 
ATOM      5  C   UNK A   1      -0.348   1.822   0.461  0.00  0.00    +0.004 C 
ATOM      6  C   UNK A   1      -0.287   0.359   0.619  0.00  0.00    +0.014 C 
ATOM      7  C   UNK A   1       3.119   0.997  -0.212  0.00  0.00    +0.152 C 
ATOM      8  C   UNK A   1       1.541  -1.399   0.391  0.00  0.00    +0.184 C 
ATOM      9  C   UNK A   1       3.742  -0.349  -0.222  0.00  0.00    +0.014 C 
ATOM     10  C   UNK A   1       2.986  -1.502   0.068  0.00  0.00    +0.068 C 
ATOM     11  C   UNK A   1       1.119   3.664  -0.139  0.00  0.00    +0.133 C 
ATOM     12  C   UNK A   1      -1.427   2.689   0.601  0.00  0.00    -0.004 C 
ATOM     13  C   UNK A   1      -1.228   4.051   0.372  0.00  0.00    -0.019 C 
ATOM     14  C   UNK A   1       0.033   4.533   0.003  0.00  0.00    +0.032 C 
ATOM     15  C   UNK A   1       3.580  -2.773   0.058  0.00  0.00    +0.136 C 
ATOM     16  C   UNK A   1       5.106  -0.514  -0.520  0.00  0.00    -0.001 C 
ATOM     17  C   UNK A   1      -2.370   5.001   0.516  0.00  0.00    +0.031 C 
ATOM     18  C   UNK A   1       4.933  -2.908  -0.240  0.00  0.00    +0.037 C 
ATOM     19  C   UNK A   1       5.695  -1.781  -0.529  0.00  0.00    +0.003 C 
ENDROOT
BRANCH   7  20
ATOM     20  O   UNK A   1       3.986   2.027  -0.487  0.00  0.00    -0.376 OA
ATOM     21  H   UNK A   1       3.675   2.911  -0.501  0.00  0.00    +0.211 HD
ENDBRANCH   7  20
BRANCH  11  22
ATOM     22  O   UNK A   1       2.313   4.191  -0.511  0.00  0.00    -0.506 OA
ATOM     23  H   UNK A   1       3.059   3.634  -0.614  0.00  0.00    +0.292 HD
ENDBRANCH  11  22
BRANCH  15  24
ATOM     24  O   UNK A   1       2.889  -3.917   0.331  0.00  0.00    -0.505 OA
ATOM     25  H   UNK A   1       1.976  -3.874   0.537  0.00  0.00    +0.292 HD
ENDBRANCH  15  24
BRANCH   6  26
ATOM     26  S   UNK A   1      -1.661  -0.561   1.042  0.00  0.00    -0.115 S 
BRANCH  26  27
ATOM     27  C   UNK A   1      -2.320  -0.942  -0.600  0.00  0.00    +0.093 C 
BRANCH  27  28
ATOM     28  C   UNK A   1      -3.573  -1.821  -0.573  0.00  0.00    +0.182 C 
BRANCH  28  30
ATOM     29  O   UNK A   0      -5.499  -0.137  -1.946  0.00  0.00    -0.275 OA
ATOM     30  N   UNK A   1      -4.702  -1.133   0.002  0.00  0.00    -0.296 N 
ATOM     31  C   UNK A   0      -5.571  -0.346  -0.738  0.00  0.00    +0.223 C 
ATOM     32  C   UNK A   0      -6.676   0.234   0.105  0.00  0.00    +0.095 C 
ATOM     33  H   UNK A   1      -4.863  -1.226   0.969  0.00  0.00    +0.150 HD
ENDBRANCH  28  30
BRANCH  28  35
ATOM     34  O   UNK A   1      -2.486  -3.969  -0.287  0.00  0.00    -0.248 OA
ATOM     35  C   UNK A   1      -3.324  -3.162   0.097  0.00  0.00    +0.333 C 
BRANCH  35  36
ATOM     36  O   UNK A   1      -4.135  -3.389   1.158  0.00  0.00    -0.479 OA
ATOM     37  H   UNK A   1      -4.762  -2.742   1.416  0.00  0.00    +0.295 HD
ENDBRANCH  35  36
ENDBRANCH  28  35
ENDBRANCH  27  28
ENDBRANCH  26  27
ENDBRANCH   6  26
TORSDOF 9
