REMARK  Name = 136746674
REMARK  4 active torsions:
REMARK  status: ('A' for Active; 'I' for Inactive)
REMARK    1  A    between atoms: N_2  and  C1*_13
REMARK    2  A    between atoms: C3*_14  and  O3*_17
REMARK    3  A    between atoms: C4*_16  and  C5*_19
REMARK    4  A    between atoms: C5*_19  and  O5*_20
REMARK                            x       y       z     vdW  Elec       q    Type
REMARK                         _______ _______ _______ _____ _____    ______ ____
ROOT
ATOM      1  O   UNL     1       4.094   2.111   0.338  0.00  0.00    -0.206 OA
ATOM      2  N   UNL     1       0.148  -0.442   0.058  0.00  0.00    -0.172 N 
ATOM      3  N   UNL     1      -0.096  -1.754  -0.159  0.00  0.00    -0.173 NA
ATOM      4  N   UNL     1       2.085   1.045   0.236  0.00  0.00    -0.227 N 
ATOM      5  N   UNL     1       4.182  -0.148  -0.057  0.00  0.00    -0.185 NA
ATOM      6  C   UNL     1       1.472  -0.158   0.053  0.00  0.00    +0.131 C 
ATOM      7  C   UNL     1       2.138  -1.321  -0.176  0.00  0.00    +0.053 C 
ATOM      8  C   UNL     1       1.129  -2.284  -0.301  0.00  0.00    +0.118 C 
ATOM      9  C   UNL     1       3.563  -1.279  -0.227  0.00  0.00    +0.170 C 
ATOM     10  C   UNL     1       3.489   1.048   0.178  0.00  0.00    +0.213 C 
ATOM     11  H   UNL     1       1.571   1.868   0.399  0.00  0.00    +0.167 HD
ENDROOT
BRANCH   2  13
ATOM     12  O4* UNL     1      -2.116  -0.127   0.924  0.00  0.00    -0.334 OA
ATOM     13  C1* UNL     1      -1.002   0.509   0.270  0.00  0.00    +0.216 C 
ATOM     14  C3* UNL     1      -2.966   1.435  -0.654  0.00  0.00    +0.144 C 
ATOM     15  C2* UNL     1      -1.544   1.091  -1.031  0.00  0.00    +0.084 C 
ATOM     16  C4* UNL     1      -3.343   0.320   0.313  0.00  0.00    +0.173 C 
BRANCH  14  17
ATOM     17  O3* UNL     1      -2.962   2.684   0.034  0.00  0.00    -0.382 OA
ATOM     18  H3* UNL     1      -2.722   3.392  -0.584  0.00  0.00    +0.210 HD
ENDBRANCH  14  17
BRANCH  16  19
ATOM     19  C5* UNL     1      -3.983  -0.873  -0.384  0.00  0.00    +0.169 C 
BRANCH  19  20
ATOM     20  O5* UNL     1      -4.287  -1.857   0.588  0.00  0.00    -0.379 OA
ATOM     21  H5* UNL     1      -4.696  -2.623   0.156  0.00  0.00    +0.211 HD
ENDBRANCH  19  20
ENDBRANCH  16  19
ENDBRANCH   2  13
TORSDOF 4
