136771248
  -OEChem-03292013293D

 58 61  0     1  0  0  0  0  0999 V2000
    0.9279   -4.2243    1.2992 S   0  0  0  0  0  0  0  0  0  0  0  0
    4.1332    1.3631    0.7549 S   0  0  0  0  0  0  0  0  0  0  0  0
   -3.5911   -2.9554   -0.0460 S   0  0  0  0  0  0  0  0  0  0  0  0
    4.2325   -2.3529   -1.1845 O   0  0  0  0  0  0  0  0  0  0  0  0
    1.1290    4.7527    1.3208 O   0  0  0  0  0  0  0  0  0  0  0  0
    0.5292    3.8474   -0.6833 O   0  0  0  0  0  0  0  0  0  0  0  0
   -1.9620    1.1105   -1.1375 O   0  0  0  0  0  0  0  0  0  0  0  0
    1.1705   -1.6265    0.7232 N   0  0  0  0  0  0  0  0  0  0  0  0
    1.6955    1.5354   -0.1775 N   0  0  0  0  0  0  0  0  0  0  0  0
   -1.6337   -1.2616    0.1878 N   0  0  0  0  0  0  0  0  0  0  0  0
    2.0990   -2.3659   -0.1526 C   0  0  1  0  0  0  0  0  0  0  0  0
    3.3279   -1.5162   -0.4578 C   0  0  2  0  0  0  0  0  0  0  0  0
    3.0363   -0.2140   -1.2508 C   0  0  0  0  0  0  0  0  0  0  0  0
    0.1568   -2.5816    1.1934 C   0  0  1  0  0  0  0  0  0  0  0  0
    2.4779   -3.6610    0.5626 C   0  0  0  0  0  0  0  0  0  0  0  0
   -1.0411   -2.6152    0.2504 C   0  0  1  0  0  0  0  0  0  0  0  0
    2.8104    0.8907   -0.2756 C   0  0  0  0  0  0  0  0  0  0  0  0
    1.7454   -0.3238   -2.0740 C   0  0  0  0  0  0  0  0  0  0  0  0
    4.1997    0.1965   -2.1648 C   0  0  0  0  0  0  0  0  0  0  0  0
    1.7837    2.5312    0.9134 C   0  0  2  0  0  0  0  0  0  0  0  0
   -2.0973   -3.6074    0.7181 C   0  0  0  0  0  0  0  0  0  0  0  0
    3.2477    2.8732    1.1956 C   0  0  0  0  0  0  0  0  0  0  0  0
    1.0443    1.9930    2.1388 C   0  0  0  0  0  0  0  0  0  0  0  0
   -2.9105   -1.3409   -0.0185 C   0  0  0  0  0  0  0  0  0  0  0  0
    1.0768    3.7547    0.4051 C   0  0  0  0  0  0  0  0  0  0  0  0
   -3.7714   -0.1470   -0.1893 C   0  0  0  0  0  0  0  0  0  0  0  0
   -3.2636    1.0288   -0.7415 C   0  0  0  0  0  0  0  0  0  0  0  0
   -5.1057   -0.2095    0.2121 C   0  0  0  0  0  0  0  0  0  0  0  0
   -4.0902    2.1422   -0.8923 C   0  0  0  0  0  0  0  0  0  0  0  0
   -5.9324    0.9039    0.0613 C   0  0  0  0  0  0  0  0  0  0  0  0
   -5.4247    2.0799   -0.4909 C   0  0  0  0  0  0  0  0  0  0  0  0
    1.5991   -2.6532   -1.0868 H   0  0  0  0  0  0  0  0  0  0  0  0
    3.8494   -1.3091    0.4819 H   0  0  0  0  0  0  0  0  0  0  0  0
   -0.1682   -2.2791    2.1958 H   0  0  0  0  0  0  0  0  0  0  0  0
    2.8680   -4.4178   -0.1240 H   0  0  0  0  0  0  0  0  0  0  0  0
    3.2063   -3.4964    1.3634 H   0  0  0  0  0  0  0  0  0  0  0  0
    1.6951   -1.2967    1.5345 H   0  0  0  0  0  0  0  0  0  0  0  0
   -0.7188   -2.8789   -0.7681 H   0  0  0  0  0  0  0  0  0  0  0  0
    4.2619   -0.4609   -3.0399 H   0  0  0  0  0  0  0  0  0  0  0  0
    4.0748    1.2199   -2.5393 H   0  0  0  0  0  0  0  0  0  0  0  0
    5.1697    0.1486   -1.6575 H   0  0  0  0  0  0  0  0  0  0  0  0
    1.8063   -1.1597   -2.7812 H   0  0  0  0  0  0  0  0  0  0  0  0
    1.6013    0.5767   -2.6867 H   0  0  0  0  0  0  0  0  0  0  0  0
    0.8257   -0.4387   -1.4941 H   0  0  0  0  0  0  0  0  0  0  0  0
   -1.9053   -4.6309    0.3858 H   0  0  0  0  0  0  0  0  0  0  0  0
   -2.2298   -3.5945    1.8049 H   0  0  0  0  0  0  0  0  0  0  0  0
    3.7995   -2.6069   -2.0176 H   0  0  0  0  0  0  0  0  0  0  0  0
    3.6156    3.6822    0.5549 H   0  0  0  0  0  0  0  0  0  0  0  0
    3.4322    3.1474    2.2386 H   0  0  0  0  0  0  0  0  0  0  0  0
    1.0694    2.7029    2.9729 H   0  0  0  0  0  0  0  0  0  0  0  0
   -0.0092    1.7963    1.9063 H   0  0  0  0  0  0  0  0  0  0  0  0
    1.4795    1.0511    2.4898 H   0  0  0  0  0  0  0  0  0  0  0  0
    0.6730    5.5624    1.0067 H   0  0  0  0  0  0  0  0  0  0  0  0
   -5.5361   -1.0963    0.6673 H   0  0  0  0  0  0  0  0  0  0  0  0
   -3.7077    3.0651   -1.3202 H   0  0  0  0  0  0  0  0  0  0  0  0
   -6.9701    0.8575    0.3786 H   0  0  0  0  0  0  0  0  0  0  0  0
   -6.0680    2.9472   -0.6070 H   0  0  0  0  0  0  0  0  0  0  0  0
   -1.7910    2.0017   -1.4875 H   0  0  0  0  0  0  0  0  0  0  0  0
  1 14  1  0  0  0  0
  1 15  1  0  0  0  0
  2 17  1  0  0  0  0
  2 22  1  0  0  0  0
  3 21  1  0  0  0  0
  3 24  1  0  0  0  0
  4 12  1  0  0  0  0
  4 47  1  0  0  0  0
  5 25  1  0  0  0  0
  5 53  1  0  0  0  0
  6 25  2  0  0  0  0
  7 27  1  0  0  0  0
  7 58  1  0  0  0  0
  8 11  1  0  0  0  0
  8 14  1  0  0  0  0
  8 37  1  0  0  0  0
  9 17  2  0  0  0  0
  9 20  1  0  0  0  0
 10 16  1  0  0  0  0
 10 24  2  0  0  0  0
 11 12  1  0  0  0  0
 11 15  1  0  0  0  0
 11 32  1  0  0  0  0
 12 13  1  0  0  0  0
 12 33  1  0  0  0  0
 13 17  1  0  0  0  0
 13 18  1  0  0  0  0
 13 19  1  0  0  0  0
 14 16  1  0  0  0  0
 14 34  1  0  0  0  0
 15 35  1  0  0  0  0
 15 36  1  0  0  0  0
 16 21  1  0  0  0  0
 16 38  1  0  0  0  0
 18 42  1  0  0  0  0
 18 43  1  0  0  0  0
 18 44  1  0  0  0  0
 19 39  1  0  0  0  0
 19 40  1  0  0  0  0
 19 41  1  0  0  0  0
 20 22  1  0  0  0  0
 20 23  1  0  0  0  0
 20 25  1  0  0  0  0
 21 45  1  0  0  0  0
 21 46  1  0  0  0  0
 22 48  1  0  0  0  0
 22 49  1  0  0  0  0
 23 50  1  0  0  0  0
 23 51  1  0  0  0  0
 23 52  1  0  0  0  0
 24 26  1  0  0  0  0
 26 27  1  0  0  0  0
 26 28  2  0  0  0  0
 27 29  2  0  0  0  0
 28 30  1  0  0  0  0
 28 54  1  0  0  0  0
 29 31  1  0  0  0  0
 29 55  1  0  0  0  0
 30 31  2  0  0  0  0
 30 56  1  0  0  0  0
 31 57  1  0  0  0  0
M  END
> <PUBCHEM_COMPOUND_CID>
136771248

> <PUBCHEM_CONFORMER_RMSD>
1.8

> <PUBCHEM_CONFORMER_DIVERSEORDER>
1
7
44
31
46
8
39
42
6
4
24
45
43
36
25
16
32
27
56
12
51
49
30
11
3
9
20
52
14
29
35
28
13
58
54
57
55
34
37
50
38
33
5
22
23
53
19
17
15
26
21
2
10
41
47
40
48
18

> <PUBCHEM_MMFF94_PARTIAL_CHARGES>
36
1 -0.46
10 -0.7
11 0.27
12 0.28
13 0.06
14 0.5
15 0.23
16 0.25
17 0.53
2 -0.37
20 0.31
21 0.23
22 0.23
24 0.5
25 0.66
26 0.09
27 0.08
28 -0.15
29 -0.15
3 -0.37
30 -0.15
31 -0.15
37 0.36
4 -0.68
47 0.4
5 -0.65
53 0.5
54 0.15
55 0.15
56 0.15
57 0.15
58 0.45
6 -0.57
7 -0.53
8 -0.9
9 -0.7

> <PUBCHEM_EFFECTIVE_ROTOR_COUNT>
8.2

> <PUBCHEM_PHARMACOPHORE_FEATURES>
15
1 10 acceptor
1 4 acceptor
1 4 donor
1 5 acceptor
1 6 acceptor
1 7 donor
1 8 cation
1 8 donor
1 9 acceptor
3 13 18 19 hydrophobe
3 5 6 25 anion
5 1 8 11 14 15 rings
5 2 9 17 20 22 rings
5 3 10 16 21 24 rings
6 26 27 28 29 30 31 rings

> <PUBCHEM_HEAVY_ATOM_COUNT>
31

> <PUBCHEM_ATOM_DEF_STEREO_COUNT>
0

> <PUBCHEM_ATOM_UDEF_STEREO_COUNT>
5

> <PUBCHEM_BOND_DEF_STEREO_COUNT>
0

> <PUBCHEM_BOND_UDEF_STEREO_COUNT>
0

> <PUBCHEM_ISOTOPIC_ATOM_COUNT>
0

> <PUBCHEM_COMPONENT_COUNT>
1

> <PUBCHEM_CACTVS_TAUTO_COUNT>
-1

> <PUBCHEM_CONFORMER_ID>
0826F6B000000001

> <PUBCHEM_MMFF94_ENERGY>
88.7049

> <PUBCHEM_FEATURE_SELFOVERLAP>
76.187

> <PUBCHEM_SHAPE_FINGERPRINT>
10165383 225 18187374207208258119
10190206 1 18050881869752101422
10439779 11 18265881618307460298
10675989 125 18336270020582118464
10764073 3 18265870567999633584
1100329 8 18264763268547078211
12633257 1 18191287454917375736
12788726 201 17981049604942734182
12925494 130 18192711147447712593
13402501 40 18410011035208897884
13617811 41 18113615716834571741
14114206 34 17766605353881668636
14114211 68 17970657136684718559
14251757 17 18342460378182790177
14251764 38 18051970617315762449
14347329 18 17969234497940692582
14466204 15 18337943610570753570
14725015 67 17977938317390069971
14931854 50 18338806593500774892
15210252 30 18041574597763735476
15322687 12 18337105662409105689
15351339 4 18120649137301923385
15961568 22 16609141062333985646
15975801 100 17458330945253956668
17093844 170 18411976988202032736
17921350 177 18131073739930579758
18608769 82 18117856592763864611
20764821 26 18336260257831077053
21344244 78 17611443260818140739
21860390 5 18272645762143356606
22122407 14 18053675685880411433
23536364 44 18123785069435195270
23559900 14 18341894146996082917
238918 7 17839734104310245928
3298306 158 18335697205257149293
5081480 168 17772223939787431310
508706 21 18265050421702285735
513532 50 18131060503152381686
5252454 2 18259703380887473399
5265222 85 18117287054499448924
5776283 40 18118984708752714412

> <PUBCHEM_SHAPE_MULTIPOLES>
611.09
10.04
6.13
1.56
11.51
0.06
-0.22
-3.34
-2.41
-1.96
2.64
-1.66
-0.36
1.86

> <PUBCHEM_SHAPE_SELFOVERLAP>
1270.796

> <PUBCHEM_SHAPE_VOLUME>
353

> <PUBCHEM_COORDINATE_TYPE>
2
5
10

$$$$
