REMARK  Name = 136771248
REMARK  9 active torsions:
REMARK  status: ('A' for Active; 'I' for Inactive)
REMARK    1  A    between atoms: C_3  and  C_21
REMARK    2  A    between atoms: C_4  and  C_10
REMARK    3  A    between atoms: C_12  and  C_13
REMARK    4  A    between atoms: C_14  and  O_19
REMARK    5  A    between atoms: C_21  and  C_22
REMARK    6  A    between atoms: C_21  and  O_35
REMARK    7  A    between atoms: C_22  and  C_27
REMARK    8  A    between atoms: C_28  and  C_32
REMARK    9  A    between atoms: C_32  and  O_33
REMARK                            x       y       z     vdW  Elec       q    Type
REMARK                         _______ _______ _______ _____ _____    ______ ____
ROOT
ATOM      1  S   UNL     1       0.928  -4.224   1.299  0.00  0.00    -0.163 S 
ATOM      2  N   UNL     1       1.171  -1.627   0.723  0.00  0.00    +0.396 N 
ATOM      3  C   UNL     1       2.099  -2.366  -0.153  0.00  0.00    -0.022 C 
ATOM      4  C   UNL     1       0.157  -2.582   1.193  0.00  0.00    +0.012 C 
ATOM      5  C   UNL     1       2.478  -3.661   0.563  0.00  0.00    +0.037 C 
ATOM      6  H   UNL     1       0.724  -0.873   0.201  0.00  0.00    -0.083 HD
ATOM      7  H   UNL     1       1.670  -1.213   1.511  0.00  0.00    -0.083 HD
ENDROOT
BRANCH   4  10
ATOM      8  S   UNL     1      -3.591  -2.955  -0.046  0.00  0.00    -0.093 S 
ATOM      9  N   UNL     1      -1.634  -1.262   0.188  0.00  0.00    -0.266 NA
ATOM     10  C   UNL     1      -1.041  -2.615   0.250  0.00  0.00    +0.105 C 
ATOM     11  C   UNL     1      -2.097  -3.607   0.718  0.00  0.00    +0.087 C 
ATOM     12  C   UNL     1      -2.910  -1.341  -0.018  0.00  0.00    +0.104 C 
BRANCH  12  13
ATOM     13  C   UNL     1      -3.771  -0.147  -0.189  0.00  0.00    +0.057 C 
ATOM     14  C   UNL     1      -3.264   1.029  -0.742  0.00  0.00    +0.136 C 
ATOM     15  C   UNL     1      -5.106  -0.209   0.212  0.00  0.00    +0.005 C 
ATOM     16  C   UNL     1      -4.090   2.142  -0.892  0.00  0.00    +0.037 C 
ATOM     17  C   UNL     1      -5.932   0.904   0.061  0.00  0.00    +0.000 C 
ATOM     18  C   UNL     1      -5.425   2.080  -0.491  0.00  0.00    +0.003 C 
BRANCH  14  19
ATOM     19  O   UNL     1      -1.962   1.111  -1.137  0.00  0.00    -0.505 OA
ATOM     20  H   UNL     1      -1.396   0.370  -1.042  0.00  0.00    +0.292 HD
ENDBRANCH  14  19
ENDBRANCH  12  13
ENDBRANCH   4  10
BRANCH   3  21
ATOM     21  C   UNL     1       3.328  -1.516  -0.458  0.00  0.00    +0.098 C 
BRANCH  21  22
ATOM     22  C   UNL     1       3.036  -0.214  -1.251  0.00  0.00    +0.063 C 
ATOM     23  C   UNL     1       1.745  -0.324  -2.074  0.00  0.00    +0.009 C 
ATOM     24  C   UNL     1       4.200   0.197  -2.165  0.00  0.00    +0.009 C 
BRANCH  22  27
ATOM     25  S   UNL     1       4.133   1.363   0.755  0.00  0.00    -0.097 S 
ATOM     26  N   UNL     1       1.696   1.535  -0.177  0.00  0.00    -0.261 NA
ATOM     27  C   UNL     1       2.810   0.891  -0.276  0.00  0.00    +0.081 C 
ATOM     28  C   UNL     1       1.784   2.531   0.913  0.00  0.00    +0.183 C 
ATOM     29  C   UNL     1       3.248   2.873   1.196  0.00  0.00    +0.097 C 
ATOM     30  C   UNL     1       1.044   1.993   2.139  0.00  0.00    +0.037 C 
BRANCH  28  32
ATOM     31  O   UNL     1       0.529   3.847  -0.683  0.00  0.00    -0.248 OA
ATOM     32  C   UNL     1       1.077   3.755   0.405  0.00  0.00    +0.335 C 
BRANCH  32  33
ATOM     33  O   UNL     1       1.129   4.753   1.321  0.00  0.00    -0.479 OA
ATOM     34  H   UNL     1       1.566   4.616   2.138  0.00  0.00    +0.295 HD
ENDBRANCH  32  33
ENDBRANCH  28  32
ENDBRANCH  22  27
ENDBRANCH  21  22
BRANCH  21  35
ATOM     35  O   UNL     1       4.232  -2.353  -1.185  0.00  0.00    -0.386 OA
ATOM     36  H   UNL     1       4.404  -3.161  -0.676  0.00  0.00    +0.210 HD
ENDBRANCH  21  35
ENDBRANCH   3  21
TORSDOF 9
