REMARK  Name = 136726174
REMARK  5 active torsions:
REMARK  status: ('A' for Active; 'I' for Inactive)
REMARK    1  A    between atoms: C_3  and  N_17
REMARK    2  A    between atoms: C_4  and  O_15
REMARK    3  A    between atoms: C_5  and  C_12
REMARK    4  A    between atoms: N_17  and  C_19
REMARK    5  A    between atoms: C_20  and  O_25
REMARK                            x       y       z     vdW  Elec       q    Type
REMARK                         _______ _______ _______ _____ _____    ______ ____
ROOT
ATOM      1  O   UNL     1       1.897  -3.178  -0.497  0.00  0.00    -0.285 OA
ATOM      2  N   UNL     1       3.917  -1.515   0.210  0.00  0.00    -0.295 NA
ATOM      3  C   UNL     1       0.083  -0.114  -0.581  0.00  0.00    +0.086 C 
ATOM      4  C   UNL     1       1.155   0.813  -0.200  0.00  0.00    +0.153 C 
ATOM      5  C   UNL     1       2.418   0.419   0.068  0.00  0.00    +0.108 C 
ATOM      6  C   UNL     1       0.314  -1.433  -0.682  0.00  0.00    +0.061 C 
ATOM      7  C   UNL     1       2.741  -1.031  -0.025  0.00  0.00    +0.118 C 
ATOM      8  C   UNL     1       1.649  -1.985  -0.414  0.00  0.00    +0.214 C 
ATOM      9  H   UNL     1       4.654  -0.915   0.467  0.00  0.00    +0.187 HD
ENDROOT
BRANCH   5  12
ATOM     10  O   UNL     1       4.492   1.506  -0.226  0.00  0.00    -0.270 OA
ATOM     11  N   UNL     1       3.184   2.079   1.589  0.00  0.00    -0.325 N 
ATOM     12  C   UNL     1       3.472   1.378   0.444  0.00  0.00    +0.247 C 
ATOM     13  H   UNL     1       3.822   2.747   1.931  0.00  0.00    +0.145 HD
ATOM     14  H   UNL     1       2.340   1.915   2.068  0.00  0.00    +0.145 HD
ENDBRANCH   5  12
BRANCH   4  15
ATOM     15  O   UNL     1       0.722   2.126  -0.148  0.00  0.00    -0.504 OA
ATOM     16  H   UNL     1      -0.170   2.333  -0.346  0.00  0.00    +0.292 HD
ENDBRANCH   4  15
BRANCH   3  17
ATOM     17  N   UNL     1      -1.163   0.404  -0.832  0.00  0.00    -0.308 N 
ATOM     18  H   UNL     1      -1.218   1.062  -1.562  0.00  0.00    +0.152 HD
BRANCH  17  19
ATOM     19  C   UNL     1      -2.361   0.114  -0.180  0.00  0.00    +0.083 C 
ATOM     20  C   UNL     1      -3.548   0.738  -0.566  0.00  0.00    +0.147 C 
ATOM     21  C   UNL     1      -2.365  -0.808   0.866  0.00  0.00    +0.018 C 
ATOM     22  C   UNL     1      -4.739   0.438   0.094  0.00  0.00    +0.038 C 
ATOM     23  C   UNL     1      -3.557  -1.108   1.526  0.00  0.00    +0.001 C 
ATOM     24  C   UNL     1      -4.744  -0.485   1.141  0.00  0.00    +0.003 C 
BRANCH  20  25
ATOM     25  O   UNL     1      -3.564   1.642  -1.586  0.00  0.00    -0.504 OA
ATOM     26  H   UNL     1      -2.771   1.853  -2.038  0.00  0.00    +0.292 HD
ENDBRANCH  20  25
ENDBRANCH  17  19
ENDBRANCH   3  17
TORSDOF 5
