REMARK  Name = 136785197
REMARK  4 active torsions:
REMARK  status: ('A' for Active; 'I' for Inactive)
REMARK    1  A    between atoms: C_7  and  C_18
REMARK    2  A    between atoms: C_18  and  O_19
REMARK    3  A    between atoms: C_18  and  C_21
REMARK    4  A    between atoms: C_21  and  O_23
REMARK                            x       y       z     vdW  Elec       q    Type
REMARK                         _______ _______ _______ _____ _____    ______ ____
ROOT
ATOM      1  O   UNL     1      -2.071  -2.469  -0.291  0.00  0.00    -0.273 OA
ATOM      2  N   UNL     1       0.256  -1.018   0.656  0.00  0.00    -0.256 NA
ATOM      3  N   UNL     1      -0.094   1.703   0.848  0.00  0.00    -0.309 N 
ATOM      4  N   UNL     1      -2.333   1.563   0.011  0.00  0.00    -0.361 NA
ATOM      5  N   UNL     1      -3.251  -0.529  -0.484  0.00  0.00    -0.246 N 
ATOM      6  N   UNL     1      -4.535   1.394  -0.770  0.00  0.00    -0.321 N 
ATOM      7  C   UNL     1       1.463  -0.178   0.838  0.00  0.00    +0.107 C 
ATOM      8  C   UNL     1       1.077   1.152   1.493  0.00  0.00    +0.107 C 
ATOM      9  C   UNL     1      -0.969  -0.413   0.311  0.00  0.00    +0.202 C 
ATOM     10  C   UNL     1      -1.157   0.935   0.377  0.00  0.00    +0.183 C 
ATOM     11  C   UNL     1       0.486  -2.458   0.723  0.00  0.00    +0.090 C 
ATOM     12  C   UNL     1      -2.119  -1.250  -0.169  0.00  0.00    +0.252 C 
ATOM     13  C   UNL     1      -3.336   0.845  -0.398  0.00  0.00    +0.239 C 
ATOM     14  H   UNL     1      -0.144   2.679   0.735  0.00  0.00    +0.149 HD
ATOM     15  H   UNL     1      -4.046  -1.024  -0.788  0.00  0.00    +0.159 HD
ATOM     16  H   UNL     1      -4.662   2.369  -0.733  0.00  0.00    +0.146 HD
ATOM     17  H   UNL     1      -5.268   0.813  -1.075  0.00  0.00    +0.146 HD
ENDROOT
BRANCH   7  18
ATOM     18  C   UNL     1       2.158   0.026  -0.511  0.00  0.00    +0.153 C 
BRANCH  18  19
ATOM     19  O   UNL     1       2.422  -1.253  -1.079  0.00  0.00    -0.381 OA
ATOM     20  H   UNL     1       1.591  -1.746  -1.165  0.00  0.00    +0.210 HD
ENDBRANCH  18  19
BRANCH  18  21
ATOM     21  C   UNL     1       3.468   0.810  -0.373  0.00  0.00    +0.139 C 
ATOM     22  C   UNL     1       4.181   0.995  -1.707  0.00  0.00    +0.034 C 
BRANCH  21  23
ATOM     23  O   UNL     1       4.355   0.145   0.524  0.00  0.00    -0.382 OA
ATOM     24  H   UNL     1       3.915   0.019   1.380  0.00  0.00    +0.210 HD
ENDBRANCH  21  23
ENDBRANCH  18  21
ENDBRANCH   7  18
TORSDOF 4
