136751773
  -OEChem-03292013293D

 39 41  0     0  0  0  0  0  0999 V2000
    3.0971   -2.9130    1.1131 O   0  0  0  0  0  0  0  0  0  0  0  0
    0.8884   -3.5621   -0.2424 O   0  0  0  0  0  0  0  0  0  0  0  0
   -2.9983   -0.4514   -2.4810 O   0  0  0  0  0  0  0  0  0  0  0  0
   -3.5137    1.6628    2.5862 O   0  0  0  0  0  0  0  0  0  0  0  0
   -3.5955    3.3214    0.3576 O   0  0  0  0  0  0  0  0  0  0  0  0
   -0.7121   -1.8934   -0.1295 N   0  0  0  0  0  0  0  0  0  0  0  0
   -1.7315   -2.7748   -0.2633 N   0  0  0  0  0  0  0  0  0  0  0  0
    2.4250    0.9156   -0.4011 C   0  0  0  0  0  0  0  0  0  0  0  0
    3.6556    0.6010    0.2232 C   0  0  0  0  0  0  0  0  0  0  0  0
    1.6544   -1.3569   -0.0003 C   0  0  0  0  0  0  0  0  0  0  0  0
    1.4347   -0.0748   -0.5047 C   0  0  0  0  0  0  0  0  0  0  0  0
    3.8597   -0.6946    0.7252 C   0  0  0  0  0  0  0  0  0  0  0  0
    2.8647   -1.6663    0.6135 C   0  0  0  0  0  0  0  0  0  0  0  0
    2.2208    2.2112   -0.9030 C   0  0  0  0  0  0  0  0  0  0  0  0
    4.6459    1.5915    0.3269 C   0  0  0  0  0  0  0  0  0  0  0  0
    3.2159    3.1829   -0.7911 C   0  0  0  0  0  0  0  0  0  0  0  0
    4.4260    2.8735   -0.1774 C   0  0  0  0  0  0  0  0  0  0  0  0
    0.6037   -2.3575   -0.1263 C   0  0  0  0  0  0  0  0  0  0  0  0
   -3.0840   -0.7729   -0.1053 C   0  0  0  0  0  0  0  0  0  0  0  0
   -3.1249    0.0595   -1.2239 C   0  0  0  0  0  0  0  0  0  0  0  0
   -3.2150   -0.2301    1.1730 C   0  0  0  0  0  0  0  0  0  0  0  0
   -3.3875    1.1448    1.3327 C   0  0  0  0  0  0  0  0  0  0  0  0
   -3.2971    1.4345   -1.0642 C   0  0  0  0  0  0  0  0  0  0  0  0
   -3.4284    1.9772    0.2140 C   0  0  0  0  0  0  0  0  0  0  0  0
   -2.9036   -2.2279   -0.2521 C   0  0  0  0  0  0  0  0  0  0  0  0
    0.5078    0.1773   -1.0161 H   0  0  0  0  0  0  0  0  0  0  0  0
    4.8037   -0.9441    1.2069 H   0  0  0  0  0  0  0  0  0  0  0  0
    1.2826    2.4760   -1.3862 H   0  0  0  0  0  0  0  0  0  0  0  0
    5.5995    1.3723    0.8027 H   0  0  0  0  0  0  0  0  0  0  0  0
    3.0453    4.1812   -1.1833 H   0  0  0  0  0  0  0  0  0  0  0  0
    5.2001    3.6304   -0.0906 H   0  0  0  0  0  0  0  0  0  0  0  0
   -3.1825   -0.8811    2.0437 H   0  0  0  0  0  0  0  0  0  0  0  0
   -0.9067   -0.9129    0.0207 H   0  0  0  0  0  0  0  0  0  0  0  0
   -3.3286    2.0838   -1.9359 H   0  0  0  0  0  0  0  0  0  0  0  0
   -3.8087   -2.8479   -0.3541 H   0  0  0  0  0  0  0  0  0  0  0  0
    3.9886   -2.9400    1.5009 H   0  0  0  0  0  0  0  0  0  0  0  0
   -3.0491    0.2745   -3.1263 H   0  0  0  0  0  0  0  0  0  0  0  0
   -3.4608    0.9401    3.2350 H   0  0  0  0  0  0  0  0  0  0  0  0
   -3.5985    3.7365   -0.5220 H   0  0  0  0  0  0  0  0  0  0  0  0
  1 13  1  0  0  0  0
  1 36  1  0  0  0  0
  2 18  2  0  0  0  0
  3 20  1  0  0  0  0
  3 37  1  0  0  0  0
  4 22  1  0  0  0  0
  4 38  1  0  0  0  0
  5 24  1  0  0  0  0
  5 39  1  0  0  0  0
  6  7  1  0  0  0  0
  6 18  1  0  0  0  0
  6 33  1  0  0  0  0
  7 25  2  0  0  0  0
  8  9  1  0  0  0  0
  8 11  1  0  0  0  0
  8 14  2  0  0  0  0
  9 12  1  0  0  0  0
  9 15  2  0  0  0  0
 10 11  2  0  0  0  0
 10 13  1  0  0  0  0
 10 18  1  0  0  0  0
 11 26  1  0  0  0  0
 12 13  2  0  0  0  0
 12 27  1  0  0  0  0
 14 16  1  0  0  0  0
 14 28  1  0  0  0  0
 15 17  1  0  0  0  0
 15 29  1  0  0  0  0
 16 17  2  0  0  0  0
 16 30  1  0  0  0  0
 17 31  1  0  0  0  0
 19 20  1  0  0  0  0
 19 21  2  0  0  0  0
 19 25  1  0  0  0  0
 20 23  2  0  0  0  0
 21 22  1  0  0  0  0
 21 32  1  0  0  0  0
 22 24  2  0  0  0  0
 23 24  1  0  0  0  0
 23 34  1  0  0  0  0
 25 35  1  0  0  0  0
M  END
> <PUBCHEM_COMPOUND_CID>
136751773

> <PUBCHEM_CONFORMER_RMSD>
0.8

> <PUBCHEM_CONFORMER_DIVERSEORDER>
1
17
33
8
18
19
36
20
4
10
31
29
21
6
24
12
13
30
34
3
15
7
26
11
16
14
35
5
32
9
22
2
25
23
27
28

> <PUBCHEM_MMFF94_PARTIAL_CHARGES>
37
1 -0.53
10 0.09
11 -0.15
12 -0.15
13 0.08
14 -0.15
15 -0.15
16 -0.15
17 -0.15
18 0.54
19 0.09
2 -0.57
20 0.08
21 -0.15
22 0.08
23 -0.15
24 0.08
25 0.3
26 0.15
27 0.15
28 0.15
29 0.15
3 -0.53
30 0.15
31 0.15
32 0.15
33 0.37
34 0.15
35 0.06
36 0.45
37 0.45
38 0.45
39 0.45
4 -0.53
5 -0.53
6 -0.37
7 -0.51

> <PUBCHEM_EFFECTIVE_ROTOR_COUNT>
4

> <PUBCHEM_PHARMACOPHORE_FEATURES>
10
1 1 donor
1 2 acceptor
1 3 donor
1 4 donor
1 5 donor
1 6 donor
1 7 acceptor
6 19 20 21 22 23 24 rings
6 8 9 10 11 12 13 rings
6 8 9 14 15 16 17 rings

> <PUBCHEM_HEAVY_ATOM_COUNT>
25

> <PUBCHEM_ATOM_DEF_STEREO_COUNT>
0

> <PUBCHEM_ATOM_UDEF_STEREO_COUNT>
0

> <PUBCHEM_BOND_DEF_STEREO_COUNT>
1

> <PUBCHEM_BOND_UDEF_STEREO_COUNT>
0

> <PUBCHEM_ISOTOPIC_ATOM_COUNT>
0

> <PUBCHEM_COMPONENT_COUNT>
1

> <PUBCHEM_CACTVS_TAUTO_COUNT>
-1

> <PUBCHEM_CONFORMER_ID>
0826AA9D00000001

> <PUBCHEM_MMFF94_ENERGY>
86.5351

> <PUBCHEM_FEATURE_SELFOVERLAP>
50.784

> <PUBCHEM_SHAPE_FINGERPRINT>
10670039 82 18193851555241962788
10708813 3 18335702788361544092
11640471 11 17916866794829371579
12390115 104 18047480199624051428
12422481 6 18190435226928044016
12539773 59 17989197132328666973
12633257 1 18190452766677863342
12788726 201 17916853755578050743
12978246 48 18336263564998261960
13122387 1 18409450327249776789
13583140 156 17458618986871432003
14790565 3 18116438236150238516
15119646 57 16486154922741892369
15475509 8 18270135517901544750
1601671 61 18336828598707153966
17974551 9 15217205018382985425
20715895 44 17978787909751642121
20739085 24 18264488387093889178
21095088 737 18198048373617974301
21864079 5 18412830157410635861
22749437 52 18412255147088885553
469060 322 17900554676606016707
474 4 18339356370974335735
5048184 11 18413114956703161321
5081480 168 17341839736547092342
633830 44 18273224083842687694
79837 15 17899697049205490458

> <PUBCHEM_SHAPE_MULTIPOLES>
475.18
9.72
4.22
1.42
1.93
0.52
-0.16
-6.14
-1.21
1.19
-0.1
-1.77
-0.48
-1.87

> <PUBCHEM_SHAPE_SELFOVERLAP>
1052.781

> <PUBCHEM_SHAPE_VOLUME>
253

> <PUBCHEM_COORDINATE_TYPE>
2
5
10

$$$$
