REMARK  Name = 136798817
REMARK  9 active torsions:
REMARK  status: ('A' for Active; 'I' for Inactive)
REMARK    1  A    between atoms: C_5  and  C_15
REMARK    2  A    between atoms: C_5  and  O_18
REMARK    3  A    between atoms: C_11  and  C_23
REMARK    4  A    between atoms: C_13  and  C_30
REMARK    5  A    between atoms: C_14  and  O_20
REMARK    6  A    between atoms: C_23  and  C_24
REMARK    7  A    between atoms: C_24  and  C_25
REMARK    8  A    between atoms: C_25  and  C_26
REMARK    9  A    between atoms: C_26  and  C_27
REMARK                            x       y       z     vdW  Elec       q    Type
REMARK                         _______ _______ _______ _____ _____    ______ ____
ROOT
ATOM      1  O   UNL     1       2.205   2.054   0.667  0.00  0.00    -0.446 OA
ATOM      2  O   UNL     1      -1.272  -1.259   0.980  0.00  0.00    -0.424 OA
ATOM      3  O   UNL     1       0.797   3.866   0.803  0.00  0.00    -0.245 OA
ATOM      4  C   UNL     1       2.056   0.648   0.892  0.00  0.00    +0.184 C 
ATOM      5  C   UNL     1       2.668  -0.235  -0.252  0.00  0.00    +0.147 C 
ATOM      6  C   UNL     1       0.568   0.463   0.928  0.00  0.00    +0.060 C 
ATOM      7  C   UNL     1       2.217  -1.733  -0.114  0.00  0.00    +0.065 C 
ATOM      8  C   UNL     1       0.764  -1.876   0.251  0.00  0.00    +0.024 A 
ATOM      9  C   UNL     1       0.002  -0.823   0.753  0.00  0.00    +0.145 A 
ATOM     10  C   UNL     1       2.673   0.354   2.271  0.00  0.00    +0.051 C 
ATOM     11  C   UNL     1      -0.068   1.633   0.928  0.00  0.00    +0.112 C 
ATOM     12  C   UNL     1       0.987   2.662   0.814  0.00  0.00    +0.344 C 
ATOM     13  C   UNL     1      -0.088  -3.002   0.184  0.00  0.00    +0.113 A 
ATOM     14  C   UNL     1      -1.313  -2.573   0.638  0.00  0.00    +0.296 A 
ENDROOT
BRANCH   5  15
ATOM     15  C   UNL     1       2.307   0.284  -1.621  0.00  0.00    -0.001 C 
ATOM     16  C   UNL     1       3.000   1.233  -2.267  0.00  0.00    -0.028 C 
ATOM     17  C   UNL     1       2.642   1.747  -3.622  0.00  0.00    +0.030 C 
ENDBRANCH   5  15
BRANCH   5  18
ATOM     18  O   UNL     1       4.097  -0.186  -0.186  0.00  0.00    -0.379 OA
ATOM     19  H   UNL     1       4.392  -0.511   0.679  0.00  0.00    +0.211 HD
ENDBRANCH   5  18
BRANCH  14  20
ATOM     20  O   UNL     1      -2.490  -3.154   0.805  0.00  0.00    -0.479 OA
ATOM     21  H   UNL     1      -3.213  -2.661   1.138  0.00  0.00    +0.295 HD
ENDBRANCH  14  20
BRANCH  11  23
ATOM     22  O   UNL     1      -2.233   1.480   1.809  0.00  0.00    -0.291 OA
ATOM     23  C   UNL     1      -1.500   1.897   0.904  0.00  0.00    +0.179 C 
BRANCH  23  24
ATOM     24  C   UNL     1      -2.036   2.703  -0.275  0.00  0.00    +0.069 C 
BRANCH  24  25
ATOM     25  C   UNL     1      -3.486   2.366  -0.615  0.00  0.00    +0.008 C 
BRANCH  25  26
ATOM     26  C   UNL     1      -3.651   0.882  -0.947  0.00  0.00    +0.000 C 
BRANCH  26  27
ATOM     27  C   UNL     1      -5.108   0.539  -1.255  0.00  0.00    +0.000 C 
ATOM     28  C   UNL     1      -5.281  -0.942  -1.552  0.00  0.00    +0.000 C 
ENDBRANCH  26  27
ENDBRANCH  25  26
ENDBRANCH  24  25
ENDBRANCH  23  24
ENDBRANCH  11  23
BRANCH  13  30
ATOM     29  O   UNL     1       1.332  -4.693  -0.666  0.00  0.00    -0.283 OA
ATOM     30  C   UNL     1       0.211  -4.332  -0.257  0.00  0.00    +0.240 C 
ENDBRANCH  13  30
TORSDOF 9
