REMARK  Name = 136748496
REMARK  2 active torsions:
REMARK  status: ('A' for Active; 'I' for Inactive)
REMARK    1  A    between atoms: N_2  and  C_15
REMARK    2  A    between atoms: C_17  and  O_20
REMARK                            x       y       z     vdW  Elec       q    Type
REMARK                         _______ _______ _______ _____ _____    ______ ____
ROOT
ATOM      1  O   UNL     1      -3.520   2.111  -0.049  0.00  0.00    -0.268 OA
ATOM      2  N   UNL     1       0.519   0.087  -0.072  0.00  0.00    -0.259 N 
ATOM      3  N   UNL     1      -0.552   2.049  -0.143  0.00  0.00    -0.240 NA
ATOM      4  N   UNL     1      -1.355  -1.437   0.071  0.00  0.00    -0.357 NA
ATOM      5  N   UNL     1      -3.418  -0.219   0.073  0.00  0.00    -0.243 N 
ATOM      6  N   UNL     1      -3.410  -2.570   0.199  0.00  0.00    -0.321 N 
ATOM      7  C   UNL     1      -0.812  -0.203  -0.013  0.00  0.00    +0.210 C 
ATOM      8  C   UNL     1       0.625   1.455  -0.150  0.00  0.00    +0.222 C 
ATOM      9  C   UNL     1      -1.440   1.018  -0.058  0.00  0.00    +0.176 C 
ATOM     10  C   UNL     1      -2.875   1.071  -0.014  0.00  0.00    +0.273 C 
ATOM     11  C   UNL     1      -2.670  -1.419   0.113  0.00  0.00    +0.239 C 
ATOM     12  H   UNL     1      -4.399  -0.295   0.109  0.00  0.00    +0.159 HD
ATOM     13  H   UNL     1      -2.958  -3.444   0.232  0.00  0.00    +0.146 HD
ATOM     14  H   UNL     1      -4.393  -2.522   0.229  0.00  0.00    +0.146 HD
ENDROOT
BRANCH   2  15
ATOM     15  C   UNL     1       1.672  -0.894  -0.058  0.00  0.00    +0.102 C 
ATOM     16  C   UNL     1       2.669  -0.694   1.106  0.00  0.00    +0.058 C 
ATOM     17  C   UNL     1       3.996  -0.242   0.483  0.00  0.00    +0.134 C 
ATOM     18  C   UNL     1       2.542  -0.799  -1.275  0.00  0.00    -0.009 C 
ATOM     19  C   UNL     1       3.795  -0.443  -0.980  0.00  0.00    -0.000 C 
BRANCH  17  20
ATOM     20  O   UNL     1       4.236   1.127   0.767  0.00  0.00    -0.380 OA
ATOM     21  H   UNL     1       4.365   1.241   1.721  0.00  0.00    +0.211 HD
ENDBRANCH  17  20
ENDBRANCH   2  15
TORSDOF 2
