136747666
  -OEChem-03292013293D

 65 70  0     1  0  0  0  0  0999 V2000
    0.6719    2.8279   -0.4624 O   0  0  0  0  0  0  0  0  0  0  0  0
    1.5427   -2.5471   -0.7192 O   0  5  0  0  0  0  0  0  0  0  0  0
    3.5801   -2.4646    0.1157 O   0  0  0  0  0  0  0  0  0  0  0  0
   -5.0217   -1.4119   -0.2368 O   0  0  0  0  0  0  0  0  0  0  0  0
   -4.1671    2.5973   -0.4968 O   0  0  0  0  0  0  0  0  0  0  0  0
    5.0815   -0.5539   -0.6146 N   0  0  2  0  0  0  0  0  0  0  0  0
    2.5684   -1.9526   -0.3736 N   0  3  0  0  0  0  0  0  0  0  0  0
   -1.3909    1.9143   -0.3377 N   0  3  0  0  0  0  0  0  0  0  0  0
    2.6270    0.2921    0.7344 C   0  0  2  0  0  0  0  0  0  0  0  0
    1.1882    0.2177    1.3086 C   0  0  0  0  0  0  0  0  0  0  0  0
    2.5992   -0.4768   -0.5868 C   0  0  2  0  0  0  0  0  0  0  0  0
    0.3399    0.3546   -0.0300 C   0  0  1  0  0  0  0  0  0  0  0  0
    1.2634   -0.0787   -1.2166 C   0  0  0  0  0  0  0  0  0  0  0  0
    3.8349   -0.0944    1.5803 C   0  0  0  0  0  0  0  0  0  0  0  0
    3.8707   -0.1832   -1.3834 C   0  0  0  0  0  0  0  0  0  0  0  0
    5.1341    0.0068    0.7554 C   0  0  2  0  0  0  0  0  0  0  0  0
   -1.0213   -0.3062   -0.0635 C   0  0  0  0  0  0  0  0  0  0  0  0
    0.9198   -1.0728    2.1135 C   0  0  0  0  0  0  0  0  0  0  0  0
    0.9658    1.3662    2.3217 C   0  0  0  0  0  0  0  0  0  0  0  0
   -0.1162    1.7819   -0.2813 C   0  0  0  0  0  0  0  0  0  0  0  0
    5.6593    1.4296    0.5633 C   0  0  0  0  0  0  0  0  0  0  0  0
    6.2958   -0.0388   -1.2631 C   0  0  0  0  0  0  0  0  0  0  0  0
    6.5205    1.3568   -0.6931 C   0  0  0  0  0  0  0  0  0  0  0  0
   -2.0078    0.6768   -0.2088 C   0  0  0  0  0  0  0  0  0  0  0  0
   -1.3842   -1.6415   -0.0392 C   0  0  0  0  0  0  0  0  0  0  0  0
   -3.3617    0.3815   -0.2772 C   0  0  0  0  0  0  0  0  0  0  0  0
   -2.7431   -1.9672   -0.1007 C   0  0  0  0  0  0  0  0  0  0  0  0
   -3.7270   -0.9652   -0.1988 C   0  0  0  0  0  0  0  0  0  0  0  0
   -4.4162    1.3982   -0.4694 C   0  0  0  0  0  0  0  0  0  0  0  0
   -5.8060    0.8679   -0.7001 C   0  0  0  0  0  0  0  0  0  0  0  0
   -6.0326   -0.4373    0.0680 C   0  0  0  0  0  0  0  0  0  0  0  0
   -7.3590   -1.0575   -0.3966 C   0  0  0  0  0  0  0  0  0  0  0  0
   -6.1083   -0.2200    1.5887 C   0  0  0  0  0  0  0  0  0  0  0  0
    2.7803    1.3511    0.4734 H   0  0  0  0  0  0  0  0  0  0  0  0
    0.8012   -0.8103   -1.8890 H   0  0  0  0  0  0  0  0  0  0  0  0
    1.4468    0.7871   -1.8689 H   0  0  0  0  0  0  0  0  0  0  0  0
    3.9052    0.5811    2.4421 H   0  0  0  0  0  0  0  0  0  0  0  0
    3.7344   -1.0957    2.0094 H   0  0  0  0  0  0  0  0  0  0  0  0
    3.8639   -0.7463   -2.3260 H   0  0  0  0  0  0  0  0  0  0  0  0
    3.8904    0.8811   -1.6540 H   0  0  0  0  0  0  0  0  0  0  0  0
    5.9013   -0.5540    1.3085 H   0  0  0  0  0  0  0  0  0  0  0  0
   -0.0885    1.4371    2.6114 H   0  0  0  0  0  0  0  0  0  0  0  0
    1.0168   -1.9995    1.5569 H   0  0  0  0  0  0  0  0  0  0  0  0
    1.5482    1.2022    3.2361 H   0  0  0  0  0  0  0  0  0  0  0  0
    1.6037   -1.1504    2.9669 H   0  0  0  0  0  0  0  0  0  0  0  0
   -0.0922   -1.0599    2.5363 H   0  0  0  0  0  0  0  0  0  0  0  0
    1.2783    2.3400    1.9337 H   0  0  0  0  0  0  0  0  0  0  0  0
    6.2437    1.7613    1.4281 H   0  0  0  0  0  0  0  0  0  0  0  0
    4.8543    2.1565    0.4124 H   0  0  0  0  0  0  0  0  0  0  0  0
    6.2430   -0.0415   -2.3575 H   0  0  0  0  0  0  0  0  0  0  0  0
    7.1385   -0.6849   -0.9874 H   0  0  0  0  0  0  0  0  0  0  0  0
    6.2079    2.1282   -1.4057 H   0  0  0  0  0  0  0  0  0  0  0  0
    7.5781    1.5209   -0.4618 H   0  0  0  0  0  0  0  0  0  0  0  0
   -1.9011    2.7805   -0.4988 H   0  0  0  0  0  0  0  0  0  0  0  0
   -0.6683   -2.4436    0.0547 H   0  0  0  0  0  0  0  0  0  0  0  0
    0.1992    3.6644   -0.6196 H   0  0  0  0  0  0  0  0  0  0  0  0
   -3.0376   -3.0136   -0.0598 H   0  0  0  0  0  0  0  0  0  0  0  0
   -6.5327    1.6275   -0.3903 H   0  0  0  0  0  0  0  0  0  0  0  0
   -5.9059    0.7124   -1.7814 H   0  0  0  0  0  0  0  0  0  0  0  0
   -6.2602   -1.1736    2.1077 H   0  0  0  0  0  0  0  0  0  0  0  0
   -6.9291    0.4541    1.8554 H   0  0  0  0  0  0  0  0  0  0  0  0
   -7.5444   -2.0106    0.1124 H   0  0  0  0  0  0  0  0  0  0  0  0
   -7.3298   -1.2830   -1.4690 H   0  0  0  0  0  0  0  0  0  0  0  0
   -8.2069   -0.3915   -0.2054 H   0  0  0  0  0  0  0  0  0  0  0  0
   -5.1814    0.2014    1.9913 H   0  0  0  0  0  0  0  0  0  0  0  0
  1 20  1  0  0  0  0
  1 56  1  0  0  0  0
  2  7  1  0  0  0  0
  3  7  2  0  0  0  0
  4 28  1  0  0  0  0
  4 31  1  0  0  0  0
  5 29  2  0  0  0  0
  6 15  1  0  0  0  0
  6 16  1  0  0  0  0
  6 22  1  0  0  0  0
  7 11  1  0  0  0  0
  8 20  2  0  0  0  0
  8 24  1  0  0  0  0
  8 54  1  0  0  0  0
  9 10  1  0  0  0  0
  9 11  1  0  0  0  0
  9 14  1  0  0  0  0
  9 34  1  0  0  0  0
 10 12  1  0  0  0  0
 10 18  1  0  0  0  0
 10 19  1  0  0  0  0
 11 13  1  0  0  0  0
 11 15  1  0  0  0  0
 12 13  1  0  0  0  0
 12 17  1  0  0  0  0
 12 20  1  0  0  0  0
 13 35  1  0  0  0  0
 13 36  1  0  0  0  0
 14 16  1  0  0  0  0
 14 37  1  0  0  0  0
 14 38  1  0  0  0  0
 15 39  1  0  0  0  0
 15 40  1  0  0  0  0
 16 21  1  0  0  0  0
 16 41  1  0  0  0  0
 17 24  2  0  0  0  0
 17 25  1  0  0  0  0
 18 43  1  0  0  0  0
 18 45  1  0  0  0  0
 18 46  1  0  0  0  0
 19 42  1  0  0  0  0
 19 44  1  0  0  0  0
 19 47  1  0  0  0  0
 21 23  1  0  0  0  0
 21 48  1  0  0  0  0
 21 49  1  0  0  0  0
 22 23  1  0  0  0  0
 22 50  1  0  0  0  0
 22 51  1  0  0  0  0
 23 52  1  0  0  0  0
 23 53  1  0  0  0  0
 24 26  1  0  0  0  0
 25 27  2  0  0  0  0
 25 55  1  0  0  0  0
 26 28  2  0  0  0  0
 26 29  1  0  0  0  0
 27 28  1  0  0  0  0
 27 57  1  0  0  0  0
 29 30  1  0  0  0  0
 30 31  1  0  0  0  0
 30 58  1  0  0  0  0
 30 59  1  0  0  0  0
 31 32  1  0  0  0  0
 31 33  1  0  0  0  0
 32 62  1  0  0  0  0
 32 63  1  0  0  0  0
 32 64  1  0  0  0  0
 33 60  1  0  0  0  0
 33 61  1  0  0  0  0
 33 65  1  0  0  0  0
M  CHG  3   2  -1   7   1   8   1
M  END
> <PUBCHEM_COMPOUND_CID>
136747666

> <PUBCHEM_CONFORMER_RMSD>
0.8

> <PUBCHEM_CONFORMER_DIVERSEORDER>
1

> <PUBCHEM_MMFF94_PARTIAL_CHARGES>
27
1 -0.6
11 0.24
12 0.2
15 0.27
16 0.27
17 -0.14
2 -0.52
20 0.49
22 0.27
24 0.3
25 -0.15
26 0.09
27 -0.15
28 0.08
29 0.42
3 -0.52
30 0.06
31 0.28
4 -0.36
5 -0.57
54 0.4
55 0.15
56 0.45
57 0.15
6 -0.81
7 0.8
8 -0.1

> <PUBCHEM_EFFECTIVE_ROTOR_COUNT>
3

> <PUBCHEM_PHARMACOPHORE_FEATURES>
15
1 2 acceptor
1 2 anion
1 3 acceptor
1 4 acceptor
1 5 acceptor
1 6 cation
1 8 donor
3 10 18 19 hydrophobe
3 31 32 33 hydrophobe
5 6 16 21 22 23 rings
5 8 12 17 20 24 rings
5 9 10 11 12 13 rings
6 17 24 25 26 27 28 rings
6 4 26 28 29 30 31 rings
6 6 9 11 14 15 16 rings

> <PUBCHEM_HEAVY_ATOM_COUNT>
33

> <PUBCHEM_ATOM_DEF_STEREO_COUNT>
4

> <PUBCHEM_ATOM_UDEF_STEREO_COUNT>
0

> <PUBCHEM_BOND_DEF_STEREO_COUNT>
0

> <PUBCHEM_BOND_UDEF_STEREO_COUNT>
0

> <PUBCHEM_ISOTOPIC_ATOM_COUNT>
0

> <PUBCHEM_COMPONENT_COUNT>
1

> <PUBCHEM_CACTVS_TAUTO_COUNT>
-1

> <PUBCHEM_CONFORMER_ID>
08269A9200000001

> <PUBCHEM_MMFF94_ENERGY>
151.4497

> <PUBCHEM_FEATURE_SELFOVERLAP>
76.577

> <PUBCHEM_SHAPE_FINGERPRINT>
10076449 9 17988652895521042428
10906281 52 18261971716114010786
10940486 97 18191869135566027767
11421498 54 16950553346931819521
11578080 2 13828757231454728497
11963148 33 18335695078790668618
12011746 2 17847061090445851790
12166972 35 13542457692031447323
12236239 1 17458340823256295353
12516196 113 18202563994732315965
12788726 201 18261954055024361049
13402501 40 18343018895730280023
13726171 33 18262238794361345657
13782708 43 17775559849376332183
14617045 38 18343022194275842719
14790565 3 17763467214552464017
14840074 17 17989765605219277341
14856354 85 18260833739160506831
15082195 135 18261691337092738588
15131766 46 14619077556452244936
15183329 4 18410855464734430451
15927050 60 17621880216347323444
1601671 61 18411697686050888506
1813 80 17530685377139259477
18608769 82 18338520854355456723
19319366 153 17167849868452242715
20511986 3 17603852408289819620
21033648 29 17631996582284134417
21033650 10 17097505189023349060
21267235 1 18335986458899687223
21521721 280 18130510829153661256
21774942 28 12468897785840465879
21792961 116 18059863840220894406
23516275 137 17202511972771569295
23522609 53 17986981650347369881
23559900 14 18342450491490256529
23569914 152 16049293342131668412
23569917 315 16588025697637357322
23569943 247 17843696464928728607
24771750 20 17753626924543459301
3004659 81 18113901571701718044
3178227 256 18041292036439340953
335352 9 18408881859433790893
3411729 13 18194956581502797280
34797466 226 18202570605093277252
34934 24 18408317770211768526
350125 39 18413108360260771729
4073 2 18186806906395586643
4093350 32 15482670208804415376
4325135 7 18040715887729756268
4340502 62 18343017792393111926
4461854 278 17986123030988765823
5104073 3 18264770965370663411
5265222 85 18269559506161045206
58260988 393 17240758458693520820
59755656 215 18412544309999313175
6328613 192 18131074869691412585
9962374 69 18264486368870872663

> <PUBCHEM_SHAPE_MULTIPOLES>
634.83
16.07
2.2
1.44
7.22
0.14
-0.76
0.25
2.32
0.34
0.28
-1.01
0.08
0.47

> <PUBCHEM_SHAPE_SELFOVERLAP>
1421.361

> <PUBCHEM_SHAPE_VOLUME>
338.8

> <PUBCHEM_COORDINATE_TYPE>
2
5
10

$$$$
