REMARK  Name = 136744537
REMARK  5 active torsions:
REMARK  status: ('A' for Active; 'I' for Inactive)
REMARK    1  A    between atoms: C_13  and  O_28
REMARK    2  A    between atoms: C_14  and  O_30
REMARK    3  A    between atoms: C_16  and  O_32
REMARK    4  A    between atoms: C_20  and  C_26
REMARK    5  A    between atoms: C_26  and  O_34
REMARK                            x       y       z     vdW  Elec       q    Type
REMARK                         _______ _______ _______ _____ _____    ______ ____
ROOT
ATOM      1  O   UNL     1      -0.633  -1.999  -1.591  0.00  0.00    -0.286 OA
ATOM      2  O   UNL     1       5.484  -0.596   0.639  0.00  0.00    -0.286 OA
ATOM      3  C   UNL     1       0.565   0.989  -0.232  0.00  0.00    +0.008 A 
ATOM      4  C   UNL     1      -0.738   1.746  -0.294  0.00  0.00    -0.003 C 
ATOM      5  C   UNL     1       0.638  -0.353  -0.414  0.00  0.00    +0.036 A 
ATOM      6  C   UNL     1       1.827   1.722   0.125  0.00  0.00    +0.068 A 
ATOM      7  C   UNL     1      -1.903   1.049  -0.152  0.00  0.00    +0.006 C 
ATOM      8  C   UNL     1       1.901  -1.094  -0.200  0.00  0.00    -0.009 A 
ATOM      9  C   UNL     1      -1.865  -0.418  -0.311  0.00  0.00    +0.072 C 
ATOM     10  C   UNL     1       3.127  -0.365   0.175  0.00  0.00    +0.069 A 
ATOM     11  C   UNL     1      -0.620  -1.038  -0.830  0.00  0.00    +0.198 C 
ATOM     12  C   UNL     1      -0.626   3.219  -0.431  0.00  0.00    -0.019 C 
ATOM     13  C   UNL     1       3.083   0.974   0.353  0.00  0.00    +0.139 A 
ATOM     14  C   UNL     1       1.753   3.076   0.199  0.00  0.00    +0.136 C 
ATOM     15  C   UNL     1       0.556   3.808  -0.169  0.00  0.00    +0.032 C 
ATOM     16  C   UNL     1      -2.960  -1.186  -0.115  0.00  0.00    +0.135 C 
ATOM     17  C   UNL     1       1.967  -2.441  -0.263  0.00  0.00    +0.049 C 
ATOM     18  C   UNL     1      -3.207   1.655   0.155  0.00  0.00    +0.000 C 
ATOM     19  C   UNL     1       4.408  -1.126   0.383  0.00  0.00    +0.198 C 
ATOM     20  C   UNL     1      -4.227  -0.559   0.303  0.00  0.00    +0.038 C 
ATOM     21  C   UNL     1      -1.705   4.067  -1.052  0.00  0.00    +0.031 C 
ATOM     22  C   UNL     1       3.180  -3.203  -0.039  0.00  0.00    -0.036 C 
ATOM     23  C   UNL     1      -4.298   0.900   0.368  0.00  0.00    +0.001 C 
ATOM     24  C   UNL     1       4.337  -2.600   0.263  0.00  0.00    +0.034 C 
ATOM     25  C   UNL     1       3.071  -4.694  -0.166  0.00  0.00    +0.027 C 
ENDROOT
BRANCH  20  26
ATOM     26  C   UNL     1      -5.324  -1.256   0.652  0.00  0.00    +0.136 C 
ATOM     27  C   UNL     1      -5.391  -2.745   0.633  0.00  0.00    +0.037 C 
BRANCH  26  28
ATOM     28  O   UNL     1      -6.462  -0.590   1.052  0.00  0.00    -0.380 OA
ATOM     29  H   UNL     1      -6.470   0.347   1.081  0.00  0.00    +0.211 HD
ENDBRANCH  26  28
ENDBRANCH  20  26
BRANCH  13  30
ATOM     30  O   UNL     1       4.166   1.736   0.741  0.00  0.00    -0.505 OA
ATOM     31  H   UNL     1       4.072   2.663   0.847  0.00  0.00    +0.292 HD
ENDBRANCH  13  30
BRANCH  14  32
ATOM     32  O   UNL     1       2.830   3.875   0.530  0.00  0.00    -0.505 OA
ATOM     33  H   UNL     1       3.645   3.484   0.780  0.00  0.00    +0.292 HD
ENDBRANCH  14  32
BRANCH  16  34
ATOM     34  O   UNL     1      -2.934  -2.554  -0.313  0.00  0.00    -0.506 OA
ATOM     35  H   UNL     1      -2.140  -2.973  -0.580  0.00  0.00    +0.292 HD
ENDBRANCH  16  34
TORSDOF 5
