REMARK  Name = 136798818
REMARK  11 active torsions:
REMARK  status: ('A' for Active; 'I' for Inactive)
REMARK    1  A    between atoms: C_5  and  C_15
REMARK    2  A    between atoms: C_5  and  O_18
REMARK    3  A    between atoms: C_11  and  C_23
REMARK    4  A    between atoms: C_13  and  C_32
REMARK    5  A    between atoms: C_14  and  O_20
REMARK    6  A    between atoms: C_23  and  C_24
REMARK    7  A    between atoms: C_24  and  C_25
REMARK    8  A    between atoms: C_25  and  C_26
REMARK    9  A    between atoms: C_26  and  C_27
REMARK   10  A    between atoms: C_27  and  C_28
REMARK   11  A    between atoms: C_28  and  C_29
REMARK                            x       y       z     vdW  Elec       q    Type
REMARK                         _______ _______ _______ _____ _____    ______ ____
ROOT
ATOM      1  O   UNL     1       3.168   1.554   0.284  0.00  0.00    -0.446 OA
ATOM      2  O   UNL     1      -0.849  -0.863   1.373  0.00  0.00    -0.424 OA
ATOM      3  O   UNL     1       2.245   3.644   0.542  0.00  0.00    -0.245 OA
ATOM      4  C   UNL     1       2.751   0.225   0.617  0.00  0.00    +0.184 C 
ATOM      5  C   UNL     1       2.941  -0.800  -0.557  0.00  0.00    +0.147 C 
ATOM      6  C   UNL     1       1.289   0.388   0.910  0.00  0.00    +0.060 C 
ATOM      7  C   UNL     1       2.199  -2.150  -0.255  0.00  0.00    +0.065 C 
ATOM      8  C   UNL     1       0.838  -1.947   0.355  0.00  0.00    +0.024 A 
ATOM      9  C   UNL     1       0.429  -0.737   0.911  0.00  0.00    +0.145 A 
ATOM     10  C   UNL     1       3.520  -0.173   1.889  0.00  0.00    +0.051 C 
ATOM     11  C   UNL     1       0.941   1.672   0.944  0.00  0.00    +0.112 C 
ATOM     12  C   UNL     1       2.161   2.429   0.594  0.00  0.00    +0.344 C 
ATOM     13  C   UNL     1      -0.242  -2.849   0.499  0.00  0.00    +0.113 A 
ATOM     14  C   UNL     1      -1.242  -2.140   1.123  0.00  0.00    +0.296 A 
ENDROOT
BRANCH   5  15
ATOM     15  C   UNL     1       2.469  -0.240  -1.876  0.00  0.00    -0.001 C 
ATOM     16  C   UNL     1       3.232   0.509  -2.685  0.00  0.00    -0.028 C 
ATOM     17  C   UNL     1       2.766   1.062  -3.990  0.00  0.00    +0.030 C 
ENDBRANCH   5  15
BRANCH   5  18
ATOM     18  O   UNL     1       4.334  -1.079  -0.733  0.00  0.00    -0.379 OA
ATOM     19  H   UNL     1       4.696  -1.444   0.090  0.00  0.00    +0.211 HD
ENDBRANCH   5  18
BRANCH  14  20
ATOM     20  O   UNL     1      -2.470  -2.431   1.518  0.00  0.00    -0.479 OA
ATOM     21  H   UNL     1      -2.995  -1.777   1.936  0.00  0.00    +0.295 HD
ENDBRANCH  14  20
BRANCH  11  23
ATOM     22  O   UNL     1      -1.027   2.015   2.168  0.00  0.00    -0.291 OA
ATOM     23  C   UNL     1      -0.378   2.259   1.143  0.00  0.00    +0.179 C 
BRANCH  23  24
ATOM     24  C   UNL     1      -0.924   3.142   0.025  0.00  0.00    +0.069 C 
BRANCH  24  25
ATOM     25  C   UNL     1      -2.443   3.075  -0.134  0.00  0.00    +0.008 C 
BRANCH  25  26
ATOM     26  C   UNL     1      -2.935   1.661  -0.462  0.00  0.00    +0.000 C 
BRANCH  26  27
ATOM     27  C   UNL     1      -4.455   1.633  -0.641  0.00  0.00    +0.000 C 
BRANCH  27  28
ATOM     28  C   UNL     1      -5.012   0.230  -0.901  0.00  0.00    +0.000 C 
BRANCH  28  29
ATOM     29  C   UNL     1      -6.537   0.191  -1.008  0.00  0.00    +0.000 C 
ATOM     30  C   UNL     1      -7.038  -1.219  -1.279  0.00  0.00    +0.000 C 
ENDBRANCH  28  29
ENDBRANCH  27  28
ENDBRANCH  26  27
ENDBRANCH  25  26
ENDBRANCH  24  25
ENDBRANCH  23  24
ENDBRANCH  11  23
BRANCH  13  32
ATOM     31  O   UNL     1       0.594  -4.839  -0.470  0.00  0.00    -0.283 OA
ATOM     32  C   UNL     1      -0.328  -4.221   0.096  0.00  0.00    +0.240 C 
ENDBRANCH  13  32
TORSDOF 11
