REMARK  Name = 136824619
REMARK  5 active torsions:
REMARK  status: ('A' for Active; 'I' for Inactive)
REMARK    1  A    between atoms: C_7  and  O_24
REMARK    2  A    between atoms: C_10  and  O_26
REMARK    3  A    between atoms: C_17  and  C_19
REMARK    4  A    between atoms: C_18  and  O_28
REMARK    5  A    between atoms: C_21  and  O_30
REMARK                            x       y       z     vdW  Elec       q    Type
REMARK                         _______ _______ _______ _____ _____    ______ ____
ROOT
ATOM      1  O   UNL     1      -2.474   1.171   2.049  0.00  0.00    -0.296 OA
ATOM      2  N   UNL     1      -0.041  -1.980  -0.490  0.00  0.00    -0.128 NA
ATOM      3  N   UNL     1       0.198   2.963   0.047  0.00  0.00    -0.249 NA
ATOM      4  N   UNL     1       4.142   0.084   0.289  0.00  0.00    -0.250 NA
ATOM      5  C   UNL     1      -1.585   0.613  -0.212  0.00  0.00    +0.087 C 
ATOM      6  C   UNL     1      -1.442  -1.713  -0.152  0.00  0.00    +0.146 C 
ATOM      7  C   UNL     1      -1.986  -0.584  -1.060  0.00  0.00    +0.137 C 
ATOM      8  C   UNL     1      -0.048   0.499  -0.079  0.00  0.00    +0.044 C 
ATOM      9  C   UNL     1       0.640  -0.671  -0.235  0.00  0.00    +0.025 C 
ATOM     10  C   UNL     1      -2.553  -2.336   0.637  0.00  0.00    +0.138 C 
ATOM     11  C   UNL     1      -1.920   1.958  -0.845  0.00  0.00    +0.065 C 
ATOM     12  C   UNL     1      -2.438   0.349   1.132  0.00  0.00    +0.155 C 
ATOM     13  C   UNL     1      -3.259  -1.045   1.270  0.00  0.00    +0.095 C 
ATOM     14  C   UNL     1       2.046  -0.674  -0.086  0.00  0.00    +0.055 C 
ATOM     15  C   UNL     1       0.736   1.790   0.070  0.00  0.00    +0.066 C 
ATOM     16  C   UNL     1      -1.254   3.123  -0.100  0.00  0.00    +0.216 C 
ATOM     17  C   UNL     1       2.764  -1.788  -0.049  0.00  0.00    -0.020 C 
ATOM     18  C   UNL     1       2.836   0.484   0.143  0.00  0.00    +0.072 C 
ATOM     19  C   UNL     1       2.251   1.686   0.225  0.00  0.00    +0.182 C 
ATOM     20  C   UNL     1       4.088  -1.219   0.190  0.00  0.00    +0.090 C 
ENDROOT
BRANCH  17  22
ATOM     21  C   UNL     1       0.671  -3.102   0.259  0.00  0.00    +0.005 C 
ATOM     22  C   UNL     1       2.182  -3.145  -0.101  0.00  0.00    +0.024 C 
ENDBRANCH  17  22
BRANCH   7  23
ATOM     23  O   UNL     1      -1.414  -0.607  -2.361  0.00  0.00    -0.382 OA
ATOM     24  H   UNL     1      -1.785   0.117  -2.890  0.00  0.00    +0.210 HD
ENDBRANCH   7  23
BRANCH  10  25
ATOM     25  O   UNL     1      -3.465  -3.009  -0.214  0.00  0.00    -0.382 OA
ATOM     26  H   UNL     1      -3.035  -3.790  -0.596  0.00  0.00    +0.210 HD
ENDBRANCH  10  25
BRANCH  16  27
ATOM     27  O   UNL     1      -1.651   4.317  -0.784  0.00  0.00    -0.364 OA
ATOM     28  H   UNL     1      -1.253   5.087  -0.348  0.00  0.00    +0.212 HD
ENDBRANCH  16  27
BRANCH  19  29
ATOM     29  O   UNL     1       2.977   2.833   0.456  0.00  0.00    -0.374 OA
ATOM     30  H   UNL     1       2.541   3.661   0.508  0.00  0.00    +0.211 HD
ENDBRANCH  19  29
TORSDOF 5
