REMARK  Name = 136815187
REMARK  5 active torsions:
REMARK  status: ('A' for Active; 'I' for Inactive)
REMARK    1  A    between atoms: N_2  and  C1*_16
REMARK    2  A    between atoms: C_9  and  C_25
REMARK    3  A    between atoms: C3*_18  and  O3*_20
REMARK    4  A    between atoms: C4*_19  and  C5*_22
REMARK    5  A    between atoms: C5*_22  and  O5*_23
REMARK                            x       y       z     vdW  Elec       q    Type
REMARK                         _______ _______ _______ _____ _____    ______ ____
ROOT
ATOM      1  O   UNL     1       4.281   1.095   0.163  0.00  0.00    -0.274 OA
ATOM      2  N   UNL     1      -0.152  -0.003  -0.127  0.00  0.00    -0.242 N 
ATOM      3  N   UNL     1       1.379  -1.848  -0.201  0.00  0.00    -0.362 NA
ATOM      4  N   UNL     1       3.654  -1.137  -0.040  0.00  0.00    -0.247 N 
ATOM      5  N   UNL     1       3.126  -3.418  -0.242  0.00  0.00    -0.321 N 
ATOM      6  C   UNL     1       1.113  -0.523  -0.110  0.00  0.00    +0.181 C 
ATOM      7  C   UNL     1      -0.080   1.365  -0.018  0.00  0.00    +0.066 C 
ATOM      8  C   UNL     1       1.998   0.527   0.013  0.00  0.00    +0.167 C 
ATOM      9  C   UNL     1       1.251   1.723   0.071  0.00  0.00    +0.009 C 
ATOM     10  C   UNL     1       3.410   0.238   0.056  0.00  0.00    +0.241 C 
ATOM     11  C   UNL     1       2.661  -2.131  -0.163  0.00  0.00    +0.239 C 
ATOM     12  H   UNL     1       4.593  -1.433  -0.020  0.00  0.00    +0.158 HD
ATOM     13  H   UNL     1       2.491  -4.166  -0.329  0.00  0.00    +0.146 HD
ATOM     14  H   UNL     1       4.094  -3.595  -0.211  0.00  0.00    +0.146 HD
ENDROOT
BRANCH   2  16
ATOM     15  O4* UNL     1      -2.455  -0.051  -0.947  0.00  0.00    -0.335 OA
ATOM     16  C1* UNL     1      -1.434  -0.787  -0.247  0.00  0.00    +0.200 C 
ATOM     17  C2* UNL     1      -2.030  -1.168   1.104  0.00  0.00    +0.083 C 
ATOM     18  C3* UNL     1      -3.494  -1.329   0.768  0.00  0.00    +0.144 C 
ATOM     19  C4* UNL     1      -3.722  -0.258  -0.291  0.00  0.00    +0.173 C 
BRANCH  18  20
ATOM     20  O3* UNL     1      -3.687  -2.619   0.193  0.00  0.00    -0.382 OA
ATOM     21  H3* UNL     1      -3.542  -3.300   0.869  0.00  0.00    +0.210 HD
ENDBRANCH  18  20
BRANCH  19  22
ATOM     22  C5* UNL     1      -4.166   1.072   0.303  0.00  0.00    +0.169 C 
BRANCH  22  23
ATOM     23  O5* UNL     1      -4.341   2.003  -0.750  0.00  0.00    -0.379 OA
ATOM     24  H5* UNL     1      -4.624   2.856  -0.384  0.00  0.00    +0.211 HD
ENDBRANCH  22  23
ENDBRANCH  19  22
ENDBRANCH   2  16
BRANCH   9  25
ATOM     25  C   UNL     1       1.717   3.049   0.195  0.00  0.00    -0.002 C 
ATOM     26  C   UNL     1       0.971   4.201   0.270  0.00  0.00    -0.000 C 
ENDBRANCH   9  25
TORSDOF 5
