REMARK  Name = 136801274
REMARK  4 active torsions:
REMARK  status: ('A' for Active; 'I' for Inactive)
REMARK    1  A    between atoms: C_2  and  C_12
REMARK    2  A    between atoms: C_5  and  O_26
REMARK    3  A    between atoms: C_8  and  N_25
REMARK    4  A    between atoms: C_15  and  N_22
REMARK                            x       y       z     vdW  Elec       q    Type
REMARK                         _______ _______ _______ _____ _____    ______ ____
ROOT
ATOM      1  N   UNL     1       0.422   1.067  -0.972  0.00  0.00    -0.351 N 
ATOM      2  C   UNL     1      -0.337   0.343  -0.092  0.00  0.00    +0.094 A 
ATOM      3  C   UNL     1       1.841  -0.175   0.220  0.00  0.00    +0.052 A 
ATOM      4  C   UNL     1       1.756   0.770  -0.805  0.00  0.00    +0.060 A 
ATOM      5  C   UNL     1       0.513  -0.435   0.660  0.00  0.00    +0.151 A 
ATOM      6  C   UNL     1       3.112  -0.655   0.596  0.00  0.00    +0.029 C 
ATOM      7  C   UNL     1       2.882   1.261  -1.475  0.00  0.00    +0.019 C 
ATOM      8  C   UNL     1       4.247  -0.172  -0.066  0.00  0.00    +0.143 C 
ATOM      9  C   UNL     1       4.131   0.771  -1.085  0.00  0.00    +0.026 C 
ATOM     10  H   UNL     1       0.065   1.706  -1.630  0.00  0.00    +0.166 HD
ENDROOT
BRANCH   2  12
ATOM     11  N   UNL     1      -3.859   1.205   0.294  0.00  0.00    -0.337 N 
ATOM     12  C   UNL     1      -1.806   0.411   0.005  0.00  0.00    +0.056 A 
ATOM     13  C   UNL     1      -2.726  -0.658  -0.182  0.00  0.00    +0.020 A 
ATOM     14  C   UNL     1      -4.007  -0.133   0.005  0.00  0.00    +0.058 A 
ATOM     15  C   UNL     1      -2.532   1.543   0.297  0.00  0.00    +0.171 A 
ATOM     16  C   UNL     1      -2.592  -2.025  -0.494  0.00  0.00    +0.002 C 
ATOM     17  C   UNL     1      -5.165  -0.911  -0.105  0.00  0.00    +0.017 C 
ATOM     18  C   UNL     1      -3.742  -2.816  -0.607  0.00  0.00    +0.000 C 
ATOM     19  C   UNL     1      -5.008  -2.265  -0.415  0.00  0.00    +0.001 C 
ATOM     20  H   UNL     1      -4.599   1.828   0.474  0.00  0.00    +0.167 HD
BRANCH  15  22
ATOM     21  O   UNL     1      -2.930   3.639   0.784  0.00  0.00    -0.059 OA
ATOM     22  N   UNL     1      -2.018   2.876   0.564  0.00  0.00    -0.079 NA
ENDBRANCH  15  22
ENDBRANCH   2  12
BRANCH   8  25
ATOM     23  O   UNL     1       6.541  -0.212  -0.292  0.00  0.00    -0.126 OA
ATOM     24  O   UNL     1       5.619  -1.500   1.227  0.00  0.00    -0.126 OA
ATOM     25  N   UNL     1       5.531  -0.651   0.308  0.00  0.00    +0.058 N 
ENDBRANCH   8  25
BRANCH   5  26
ATOM     26  O   UNL     1       0.128  -1.279   1.630  0.00  0.00    -0.504 OA
ATOM     27  H   UNL     1      -0.782  -1.371   1.837  0.00  0.00    +0.292 HD
ENDBRANCH   5  26
TORSDOF 4
