REMARK  Name = 136808002
REMARK  9 active torsions:
REMARK  status: ('A' for Active; 'I' for Inactive)
REMARK    1  A    between atoms: C_1  and  S_23
REMARK    2  A    between atoms: C_3  and  C_14
REMARK    3  A    between atoms: C_5  and  O_34
REMARK    4  A    between atoms: N_8  and  C_18
REMARK    5  A    between atoms: C_15  and  C_20
REMARK    6  A    between atoms: C_20  and  C_21
REMARK    7  A    between atoms: S_23  and  N_26
REMARK    8  A    between atoms: O_34  and  C_35
REMARK    9  A    between atoms: C_35  and  C_36
REMARK                            x       y       z     vdW  Elec       q    Type
REMARK                         _______ _______ _______ _____ _____    ______ ____
ROOT
ATOM      1  C   UNL     1      -2.866   0.613  -1.189  0.00  0.00    +0.123 C 
ATOM      2  C   UNL     1      -1.648  -0.052  -1.047  0.00  0.00    +0.027 C 
ATOM      3  C   UNL     1      -0.543   0.620  -0.522  0.00  0.00    +0.079 C 
ATOM      4  C   UNL     1      -2.979   1.950  -0.807  0.00  0.00    +0.023 C 
ATOM      5  C   UNL     1      -0.657   1.956  -0.140  0.00  0.00    +0.142 C 
ATOM      6  C   UNL     1      -1.875   2.621  -0.282  0.00  0.00    +0.038 C 
ENDROOT
BRANCH   3  14
ATOM      7  O   UNL     1       1.813  -3.031   1.454  0.00  0.00    -0.272 OA
ATOM      8  N   UNL     1       4.253  -2.013  -0.044  0.00  0.00    -0.219 N 
ATOM      9  N   UNL     1       0.718  -1.238   0.464  0.00  0.00    -0.258 N 
ATOM     10  N   UNL     1       1.805   0.329  -1.012  0.00  0.00    -0.388 NA
ATOM     11  N   UNL     1       5.051  -1.262  -0.836  0.00  0.00    -0.183 NA
ATOM     12  C   UNL     1       2.941  -0.452  -0.786  0.00  0.00    +0.154 C 
ATOM     13  C   UNL     1       2.969  -1.560   0.015  0.00  0.00    +0.220 C 
ATOM     14  C   UNL     1       0.746  -0.108  -0.380  0.00  0.00    +0.188 C 
ATOM     15  C   UNL     1       4.234  -0.301  -1.289  0.00  0.00    +0.104 C 
ATOM     16  C   UNL     1       1.828  -2.048   0.722  0.00  0.00    +0.254 C 
ATOM     17  H   UNL     1      -0.134  -1.471   0.897  0.00  0.00    +0.157 HD
BRANCH   8  18
ATOM     18  C   UNL     1       4.808  -3.161   0.632  0.00  0.00    +0.112 C 
ATOM     19  C   UNL     1       5.072  -2.878   2.103  0.00  0.00    +0.025 C 
ENDBRANCH   8  18
BRANCH  15  20
ATOM     20  C   UNL     1       4.750   0.733  -2.201  0.00  0.00    +0.050 C 
BRANCH  20  21
ATOM     21  C   UNL     1       5.575   1.816  -1.476  0.00  0.00    +0.006 C 
ATOM     22  C   UNL     1       4.759   2.581  -0.446  0.00  0.00    +0.000 C 
ENDBRANCH  20  21
ENDBRANCH  15  20
ENDBRANCH   3  14
BRANCH   1  23
ATOM     23  S   UNL     1      -4.263  -0.236  -1.854  0.00  0.00    +0.063 S 
ATOM     24  O   UNL     1      -5.160   0.754  -2.410  0.00  0.00    -0.153 OA
ATOM     25  O   UNL     1      -3.775  -1.335  -2.659  0.00  0.00    -0.153 OA
BRANCH  23  26
ATOM     26  N   UNL     1      -4.946  -0.862  -0.413  0.00  0.00    -0.160 NA
ATOM     27  N   UNL     1      -5.526  -1.472   2.334  0.00  0.00    +0.386 N 
ATOM     28  C   UNL     1      -4.066  -1.778   0.369  0.00  0.00    +0.072 C 
ATOM     29  C   UNL     1      -5.612   0.140   0.469  0.00  0.00    +0.072 C 
ATOM     30  C   UNL     1      -6.395  -0.584   1.561  0.00  0.00    -0.062 C 
ATOM     31  C   UNL     1      -4.883  -2.458   1.463  0.00  0.00    -0.062 C 
ATOM     32  H   UNL     1      -6.085  -1.959   3.035  0.00  0.00    -0.084 HD
ATOM     33  H   UNL     1      -4.802  -0.912   2.785  0.00  0.00    -0.084 HD
ENDBRANCH  23  26
ENDBRANCH   1  23
BRANCH   5  34
ATOM     34  O   UNL     1       0.410   2.630   0.376  0.00  0.00    -0.475 OA
BRANCH  34  35
ATOM     35  C   UNL     1       0.268   3.155   1.694  0.00  0.00    +0.205 C 
BRANCH  35  36
ATOM     36  C   UNL     1       1.636   3.198   2.357  0.00  0.00    +0.047 C 
ATOM     37  C   UNL     1       1.560   3.735   3.775  0.00  0.00    +0.004 C 
ENDBRANCH  35  36
ENDBRANCH  34  35
ENDBRANCH   5  34
TORSDOF 9
