REMARK  Name = 136825048
REMARK  6 active torsions:
REMARK  status: ('A' for Active; 'I' for Inactive)
REMARK    1  A    between atoms: C_6  and  O_26
REMARK    2  A    between atoms: C_7  and  O_28
REMARK    3  A    between atoms: C_9  and  O_30
REMARK    4  A    between atoms: C_15  and  O_32
REMARK    5  A    between atoms: C_22  and  C_34
REMARK    6  A    between atoms: C_34  and  C_35
REMARK                            x       y       z     vdW  Elec       q    Type
REMARK                         _______ _______ _______ _____ _____    ______ ____
ROOT
ATOM      1  O   UNL     1      -3.635  -1.124  -1.563  0.00  0.00    -0.318 OA
ATOM      2  O   UNL     1      -2.394  -2.190   0.082  0.00  0.00    -0.447 OA
ATOM      3  O   UNL     1      -2.111   1.873   2.228  0.00  0.00    -0.287 OA
ATOM      4  O   UNL     1       2.571   2.487   0.418  0.00  0.00    -0.287 OA
ATOM      5  N   UNL     1       5.135  -1.002  -0.169  0.00  0.00    -0.414 NA
ATOM      6  C   UNL     1      -3.596  -0.265   0.795  0.00  0.00    +0.205 C 
ATOM      7  C   UNL     1      -4.573   0.822   0.309  0.00  0.00    +0.174 C 
ATOM      8  C   UNL     1      -3.618  -1.470  -0.173  0.00  0.00    +0.320 C 
ATOM      9  C   UNL     1      -4.479   1.105  -1.186  0.00  0.00    +0.167 C 
ATOM     10  C   UNL     1      -2.107  -0.052   0.868  0.00  0.00    +0.086 C 
ATOM     11  C   UNL     1      -4.659  -0.209  -1.944  0.00  0.00    +0.148 C 
ATOM     12  C   UNL     1      -1.503  -1.170   0.452  0.00  0.00    +0.176 C 
ATOM     13  C   UNL     1      -1.493   1.161   1.439  0.00  0.00    +0.197 C 
ATOM     14  C   UNL     1      -4.561  -0.021  -3.453  0.00  0.00    +0.035 C 
ATOM     15  C   UNL     1      -0.104  -1.536   0.381  0.00  0.00    +0.167 C 
ATOM     16  C   UNL     1       0.930  -0.679   0.436  0.00  0.00    +0.037 C 
ATOM     17  C   UNL     1       0.854   0.763   0.626  0.00  0.00    +0.045 C 
ATOM     18  C   UNL     1      -0.124   1.565   1.048  0.00  0.00    +0.045 C 
ATOM     19  C   UNL     1       2.358  -1.024   0.227  0.00  0.00    -0.007 C 
ATOM     20  C   UNL     1       3.095   0.164   0.191  0.00  0.00    +0.061 C 
ATOM     21  C   UNL     1       2.224   1.325   0.407  0.00  0.00    +0.198 C 
ATOM     22  C   UNL     1       4.457   0.153  -0.006  0.00  0.00    +0.111 C 
ATOM     23  C   UNL     1       3.031  -2.223   0.068  0.00  0.00    +0.081 C 
ATOM     24  C   UNL     1       4.408  -2.152  -0.126  0.00  0.00    +0.091 C 
ATOM     25  C   UNL     1       5.176  -3.421  -0.304  0.00  0.00    +0.062 C 
ENDROOT
BRANCH   6  26
ATOM     26  O   UNL     1      -4.030  -0.716   2.084  0.00  0.00    -0.375 OA
ATOM     27  H   UNL     1      -4.989  -0.863   2.069  0.00  0.00    +0.211 HD
ENDBRANCH   6  26
BRANCH   7  28
ATOM     28  O   UNL     1      -4.451   2.045   1.021  0.00  0.00    -0.379 OA
ATOM     29  H   UNL     1      -4.510   1.872   1.974  0.00  0.00    +0.211 HD
ENDBRANCH   7  28
BRANCH   9  30
ATOM     30  O   UNL     1      -3.214   1.678  -1.505  0.00  0.00    -0.379 OA
ATOM     31  H   UNL     1      -3.105   2.512  -1.021  0.00  0.00    +0.211 HD
ENDBRANCH   9  30
BRANCH  15  32
ATOM     32  O   UNL     1       0.120  -2.889   0.169  0.00  0.00    -0.503 OA
ATOM     33  H   UNL     1      -0.603  -3.483   0.131  0.00  0.00    +0.292 HD
ENDBRANCH  15  32
BRANCH  22  34
ATOM     34  C   UNL     1       5.261   1.405  -0.043  0.00  0.00    +0.059 C 
BRANCH  34  35
ATOM     35  C   UNL     1       5.119   2.150  -1.379  0.00  0.00    +0.007 C 
ATOM     36  C   UNL     1       5.915   3.445  -1.398  0.00  0.00    +0.000 C 
ENDBRANCH  34  35
ENDBRANCH  22  34
TORSDOF 6
