136824729
  -OEChem-03292013293D

 39 44  0     1  0  0  0  0  0999 V2000
    3.7929    2.5703    1.6071 Br  0  0  0  0  0  0  0  0  0  0  0  0
    1.8914   -2.7830   -1.2913 S   0  0  0  0  0  0  0  0  0  0  0  0
   -3.0603   -2.7554   -0.0126 O   0  0  0  0  0  0  0  0  0  0  0  0
    2.9198    2.0844   -1.5387 O   0  0  0  0  0  0  0  0  0  0  0  0
   -0.3457   -2.9622    0.2424 N   0  0  0  0  0  0  0  0  0  0  0  0
    0.0091    1.8973    0.0234 N   0  0  0  0  0  0  0  0  0  0  0  0
   -4.2294    0.0359   -0.1842 N   0  0  0  0  0  0  0  0  0  0  0  0
    1.4479   -0.7983    0.5197 C   0  0  2  0  0  0  0  0  0  0  0  0
    1.6640   -2.1381    1.2732 C   0  0  0  0  0  0  0  0  0  0  0  0
    1.0856   -3.1938    0.3211 C   0  0  2  0  0  0  0  0  0  0  0  0
   -0.0746   -0.5889    0.2917 C   0  0  0  0  0  0  0  0  0  0  0  0
    2.1380   -1.1191   -0.7992 C   0  0  0  0  0  0  0  0  0  0  0  0
   -0.8954   -1.6853    0.1969 C   0  0  0  0  0  0  0  0  0  0  0  0
    2.1156    0.3323    1.2641 C   0  0  0  0  0  0  0  0  0  0  0  0
   -0.6595    0.7973    0.0967 C   0  0  0  0  0  0  0  0  0  0  0  0
    3.0138   -0.3001   -1.3965 C   0  0  0  0  0  0  0  0  0  0  0  0
   -2.1103    0.7796   -0.0319 C   0  0  0  0  0  0  0  0  0  0  0  0
   -2.3518   -1.5760    0.0126 C   0  0  0  0  0  0  0  0  0  0  0  0
    3.4365    1.0033   -0.7679 C   0  0  2  0  0  0  0  0  0  0  0  0
    2.9988    1.1569    0.6720 C   0  0  0  0  0  0  0  0  0  0  0  0
   -2.9223   -0.3732   -0.0813 C   0  0  0  0  0  0  0  0  0  0  0  0
   -2.8078    1.8991   -0.0285 C   0  0  0  0  0  0  0  0  0  0  0  0
   -2.1955    3.2239    0.0802 C   0  0  0  0  0  0  0  0  0  0  0  0
   -0.7080    3.1514   -0.3229 C   0  0  0  0  0  0  0  0  0  0  0  0
   -4.1528    1.3419   -0.1461 C   0  0  0  0  0  0  0  0  0  0  0  0
    1.1465   -2.1467    2.2424 H   0  0  0  0  0  0  0  0  0  0  0  0
    2.7272   -2.3314    1.4785 H   0  0  0  0  0  0  0  0  0  0  0  0
    1.3114   -4.2173    0.6317 H   0  0  0  0  0  0  0  0  0  0  0  0
    1.8305    0.4872    2.3023 H   0  0  0  0  0  0  0  0  0  0  0  0
   -0.9667   -3.7490    0.0858 H   0  0  0  0  0  0  0  0  0  0  0  0
    3.5185   -0.5954   -2.3127 H   0  0  0  0  0  0  0  0  0  0  0  0
    4.5320    1.0502   -0.8111 H   0  0  0  0  0  0  0  0  0  0  0  0
   -2.7120    3.9546   -0.5508 H   0  0  0  0  0  0  0  0  0  0  0  0
   -2.2772    3.5707    1.1170 H   0  0  0  0  0  0  0  0  0  0  0  0
   -0.6187    3.2914   -1.4077 H   0  0  0  0  0  0  0  0  0  0  0  0
   -0.1754    3.9890    0.1418 H   0  0  0  0  0  0  0  0  0  0  0  0
   -5.0207    2.0142   -0.1995 H   0  0  0  0  0  0  0  0  0  0  0  0
   -4.0011   -2.5335   -0.1250 H   0  0  0  0  0  0  0  0  0  0  0  0
    3.2509    1.9866   -2.4480 H   0  0  0  0  0  0  0  0  0  0  0  0
  1 20  1  0  0  0  0
  2 10  1  0  0  0  0
  2 12  1  0  0  0  0
  3 18  1  0  0  0  0
  3 38  1  0  0  0  0
  4 19  1  0  0  0  0
  4 39  1  0  0  0  0
  5 10  1  0  0  0  0
  5 13  1  0  0  0  0
  5 30  1  0  0  0  0
  6 15  2  0  0  0  0
  6 24  1  0  0  0  0
  7 21  1  0  0  0  0
  7 25  2  0  0  0  0
  8  9  1  0  0  0  0
  8 11  1  0  0  0  0
  8 12  1  0  0  0  0
  8 14  1  0  0  0  0
  9 10  1  0  0  0  0
  9 26  1  0  0  0  0
  9 27  1  0  0  0  0
 10 28  1  0  0  0  0
 11 13  2  0  0  0  0
 11 15  1  0  0  0  0
 12 16  2  0  0  0  0
 13 18  1  0  0  0  0
 14 20  2  0  0  0  0
 14 29  1  0  0  0  0
 15 17  1  0  0  0  0
 16 19  1  0  0  0  0
 16 31  1  0  0  0  0
 17 21  1  0  0  0  0
 17 22  2  0  0  0  0
 18 21  2  0  0  0  0
 19 20  1  0  0  0  0
 19 32  1  0  0  0  0
 22 23  1  0  0  0  0
 22 25  1  0  0  0  0
 23 24  1  0  0  0  0
 23 33  1  0  0  0  0
 23 34  1  0  0  0  0
 24 35  1  0  0  0  0
 24 36  1  0  0  0  0
 25 37  1  0  0  0  0
M  END
> <PUBCHEM_COMPOUND_CID>
136824729

> <PUBCHEM_CONFORMER_RMSD>
0.6

> <PUBCHEM_CONFORMER_DIVERSEORDER>
1

> <PUBCHEM_MMFF94_PARTIAL_CHARGES>
30
1 -0.11
10 0.6
11 -0.12
12 -0.04
13 0.1
14 -0.29
15 0.42
16 -0.29
17 0.01
18 0.08
19 0.56
2 -0.33
20 -0.03
21 0.17
22 -0.12
23 0.14
24 0.25
25 0.38
29 0.15
3 -0.53
30 0.4
31 0.15
37 0.06
38 0.45
39 0.4
4 -0.68
5 -0.87
6 -0.7
7 -0.62
8 0.41

> <PUBCHEM_EFFECTIVE_ROTOR_COUNT>
1.2

> <PUBCHEM_PHARMACOPHORE_FEATURES>
13
1 1 hydrophobe
1 3 donor
1 4 acceptor
1 4 donor
1 5 cation
1 5 donor
1 6 acceptor
1 7 acceptor
5 7 17 21 22 25 rings
6 11 13 15 17 18 21 rings
6 6 15 17 22 23 24 rings
6 8 12 14 16 19 20 rings
8 2 5 8 9 10 11 12 13 rings

> <PUBCHEM_HEAVY_ATOM_COUNT>
25

> <PUBCHEM_ATOM_DEF_STEREO_COUNT>
2

> <PUBCHEM_ATOM_UDEF_STEREO_COUNT>
1

> <PUBCHEM_BOND_DEF_STEREO_COUNT>
0

> <PUBCHEM_BOND_UDEF_STEREO_COUNT>
0

> <PUBCHEM_ISOTOPIC_ATOM_COUNT>
0

> <PUBCHEM_COMPONENT_COUNT>
1

> <PUBCHEM_CACTVS_TAUTO_COUNT>
-1

> <PUBCHEM_CONFORMER_ID>
0827C79900000001

> <PUBCHEM_MMFF94_ENERGY>
74.6837

> <PUBCHEM_FEATURE_SELFOVERLAP>
66.222

> <PUBCHEM_SHAPE_FINGERPRINT>
10411042 1 17040911539263162538
10498660 4 18409728491090973701
10616163 171 18409731763798102315
10967382 1 18410008819422218561
1100329 8 17471843079659893747
11640471 11 16807864406199920660
11725454 13 17201330088334027872
12173636 292 18410851079572886501
12403259 226 17904759973442863463
12553582 1 18337672018393048251
13140716 1 18409441458374283115
13224815 77 18342451492059205469
13965767 371 17969765428697079184
14178342 30 18409441509771361673
14223421 5 18339357466159178873
14790565 3 18120111712756256401
16945 1 18122340186206535027
17492 54 17755869966817860156
17980427 23 17910355491233312842
18981168 100 17898558792007330365
19591789 44 18048325736565097235
20510252 161 18198341947311849233
20691752 17 17460327550742334333
20715895 44 17609471862555670957
20739085 24 17976848405721283465
20905425 154 18341616975349509406
22149856 69 18338529565112901929
2334 1 18410011069800705739
23557571 272 18125444356972230744
23559900 14 18198337355896766519
238 59 18263941942108838938
2748010 2 18411142462896938363
34934 24 18339913901000562077
350125 39 17977105660960244961
469060 322 18119263989132421355
474 4 17967541176639684620
484985 159 13992478790555088784
5262128 65 17486788371838145798
7097593 13 17827334610667139522
7364860 26 18269270154240830034
9709674 26 18269835328855597879
9981440 41 18261673778723100474

> <PUBCHEM_SHAPE_MULTIPOLES>
497.6
6.58
4.23
1.2
2.7
0.29
-0.07
-3.09
-0.25
-0.53
0.21
-1.49
-0.14
0.82

> <PUBCHEM_SHAPE_SELFOVERLAP>
1119.186

> <PUBCHEM_SHAPE_VOLUME>
269

> <PUBCHEM_COORDINATE_TYPE>
2
5
10

$$$$
