REMARK  Name = 136880511
REMARK  5 active torsions:
REMARK  status: ('A' for Active; 'I' for Inactive)
REMARK    1  A    between atoms: N_1  and  C_9
REMARK    2  A    between atoms: C_4  and  C_18
REMARK    3  A    between atoms: C_5  and  C_16
REMARK    4  A    between atoms: C_17  and  C_21
REMARK    5  A    between atoms: C_18  and  C_30
REMARK                            x       y       z     vdW  Elec       q    Type
REMARK                         _______ _______ _______ _____ _____    ______ ____
ROOT
ATOM      1  N   UNL     1      -1.992  -0.904  -0.223  0.00  0.00    -0.227 N 
ATOM      2  N   UNL     1      -2.100  -2.130  -0.763  0.00  0.00    -0.150 NA
ATOM      3  N   UNL     1      -0.605  -3.997  -0.716  0.00  0.00    -0.341 N 
ATOM      4  C   UNL     1      -0.830  -0.705   0.463  0.00  0.00    +0.105 A 
ATOM      5  C   UNL     1      -0.130  -1.883   0.365  0.00  0.00    +0.119 A 
ATOM      6  C   UNL     1      -0.960  -2.723  -0.401  0.00  0.00    +0.157 A 
ATOM      7  H   UNL     1      -1.209  -4.558  -1.254  0.00  0.00    +0.144 HD
ATOM      8  H   UNL     1       0.258  -4.358  -0.408  0.00  0.00    +0.144 HD
ENDROOT
BRANCH   1   9
ATOM      9  C   UNL     1      -3.032   0.011  -0.407  0.00  0.00    +0.083 C 
ATOM     10  C   UNL     1      -2.789   1.223  -1.054  0.00  0.00    +0.019 C 
ATOM     11  C   UNL     1      -4.314  -0.288   0.053  0.00  0.00    +0.019 C 
ATOM     12  C   UNL     1      -3.828   2.136  -1.239  0.00  0.00    +0.002 C 
ATOM     13  C   UNL     1      -5.353   0.624  -0.132  0.00  0.00    +0.002 C 
ATOM     14  C   UNL     1      -5.109   1.836  -0.778  0.00  0.00    +0.000 C 
ENDBRANCH   1   9
BRANCH   5  16
ATOM     15  N   UNL     1       2.193  -2.370   1.388  0.00  0.00    -0.191 NA
ATOM     16  C   UNL     1       1.150  -2.151   0.929  0.00  0.00    +0.105 C 
ENDBRANCH   5  16
BRANCH   4  18
ATOM     17  C   UNL     1       0.541   1.353   0.761  0.00  0.00    +0.013 C 
ATOM     18  C   UNL     1      -0.557   0.590   1.115  0.00  0.00    +0.087 C 
BRANCH  17  21
ATOM     19  N   UNL     1       2.509   0.576  -2.129  0.00  0.00    -0.312 N 
ATOM     20  C   UNL     1       2.946   0.932   0.030  0.00  0.00    +0.015 C 
ATOM     21  C   UNL     1       1.545   1.056  -0.188  0.00  0.00    +0.017 C 
ATOM     22  C   UNL     1       3.527   0.631  -1.204  0.00  0.00    +0.048 C 
ATOM     23  C   UNL     1       1.307   0.831  -1.524  0.00  0.00    +0.062 C 
ATOM     24  C   UNL     1       3.777   1.048   1.161  0.00  0.00    +0.001 C 
ATOM     25  C   UNL     1       4.904   0.439  -1.363  0.00  0.00    +0.015 C 
ATOM     26  C   UNL     1       5.156   0.858   1.017  0.00  0.00    +0.000 C 
ATOM     27  C   UNL     1       5.709   0.558  -0.226  0.00  0.00    +0.001 C 
ATOM     28  H   UNL     1       2.628   0.381  -3.086  0.00  0.00    +0.152 HD
ENDBRANCH  17  21
BRANCH  18  30
ATOM     29  N   UNL     1      -2.202   1.408   2.941  0.00  0.00    -0.191 NA
ATOM     30  C   UNL     1      -1.464   1.043   2.123  0.00  0.00    +0.102 C 
ENDBRANCH  18  30
ENDBRANCH   4  18
TORSDOF 5
