136824619
  -OEChem-03292013293D

 44 49  0     1  0  0  0  0  0999 V2000
   -1.4138   -0.6066   -2.3613 O   0  0  0  0  0  0  0  0  0  0  0  0
   -3.4652   -3.0086   -0.2138 O   0  0  0  0  0  0  0  0  0  0  0  0
   -2.4737    1.1710    2.0493 O   0  0  0  0  0  0  0  0  0  0  0  0
   -1.6508    4.3174   -0.7838 O   0  0  0  0  0  0  0  0  0  0  0  0
    2.9771    2.8332    0.4556 O   0  0  0  0  0  0  0  0  0  0  0  0
   -0.0412   -1.9804   -0.4904 N   0  3  1  0  0  0  0  0  0  0  0  0
    0.1975    2.9629    0.0469 N   0  0  0  0  0  0  0  0  0  0  0  0
    4.1422    0.0842    0.2891 N   0  0  0  0  0  0  0  0  0  0  0  0
   -1.5852    0.6125   -0.2120 C   0  0  1  0  0  0  0  0  0  0  0  0
   -1.4419   -1.7130   -0.1516 C   0  0  3  0  0  0  0  0  0  0  0  0
   -1.9856   -0.5840   -1.0601 C   0  0  2  0  0  0  0  0  0  0  0  0
   -0.0478    0.4995   -0.0788 C   0  0  0  0  0  0  0  0  0  0  0  0
    0.6401   -0.6707   -0.2348 C   0  0  0  0  0  0  0  0  0  0  0  0
   -2.5534   -2.3355    0.6373 C   0  0  1  0  0  0  0  0  0  0  0  0
   -1.9199    1.9581   -0.8447 C   0  0  0  0  0  0  0  0  0  0  0  0
   -2.4378    0.3490    1.1323 C   0  0  0  0  0  0  0  0  0  0  0  0
    0.6707   -3.1021    0.2589 C   0  0  0  0  0  0  0  0  0  0  0  0
   -3.2588   -1.0449    1.2705 C   0  0  0  0  0  0  0  0  0  0  0  0
    2.0459   -0.6736   -0.0855 C   0  0  0  0  0  0  0  0  0  0  0  0
    0.7358    1.7905    0.0699 C   0  0  0  0  0  0  0  0  0  0  0  0
    2.1815   -3.1450   -0.1012 C   0  0  0  0  0  0  0  0  0  0  0  0
   -1.2541    3.1226   -0.1001 C   0  0  2  0  0  0  0  0  0  0  0  0
    2.7638   -1.7876   -0.0490 C   0  0  0  0  0  0  0  0  0  0  0  0
    2.8355    0.4838    0.1427 C   0  0  0  0  0  0  0  0  0  0  0  0
    2.2510    1.6862    0.2251 C   0  0  0  0  0  0  0  0  0  0  0  0
    4.0882   -1.2186    0.1896 C   0  0  0  0  0  0  0  0  0  0  0  0
   -1.1186   -1.3353    0.8320 H   0  0  0  0  0  0  0  0  0  0  0  0
    0.0274   -2.1883   -1.4971 H   0  0  0  0  0  0  0  0  0  0  0  0
   -3.0708   -0.6243   -1.2103 H   0  0  0  0  0  0  0  0  0  0  0  0
   -2.2109   -3.0274    1.4152 H   0  0  0  0  0  0  0  0  0  0  0  0
   -3.0071    2.1106   -0.8652 H   0  0  0  0  0  0  0  0  0  0  0  0
   -1.5999    1.9848   -1.8956 H   0  0  0  0  0  0  0  0  0  0  0  0
    0.1756   -4.0366   -0.0242 H   0  0  0  0  0  0  0  0  0  0  0  0
    0.5262   -2.9285    1.3326 H   0  0  0  0  0  0  0  0  0  0  0  0
   -3.3933   -1.2255    2.3436 H   0  0  0  0  0  0  0  0  0  0  0  0
   -4.2500   -0.8843    0.8312 H   0  0  0  0  0  0  0  0  0  0  0  0
    2.3095   -3.5574   -1.1085 H   0  0  0  0  0  0  0  0  0  0  0  0
    2.6961   -3.8122    0.5982 H   0  0  0  0  0  0  0  0  0  0  0  0
   -1.6708    3.2162    0.9076 H   0  0  0  0  0  0  0  0  0  0  0  0
   -1.6852   -1.4408   -2.7812 H   0  0  0  0  0  0  0  0  0  0  0  0
   -4.2183   -3.2900    0.3331 H   0  0  0  0  0  0  0  0  0  0  0  0
    4.9609   -1.8819    0.2712 H   0  0  0  0  0  0  0  0  0  0  0  0
   -2.6206    4.3750   -0.7392 H   0  0  0  0  0  0  0  0  0  0  0  0
    3.9147    2.5835    0.5310 H   0  0  0  0  0  0  0  0  0  0  0  0
  1 11  1  0  0  0  0
  1 40  1  0  0  0  0
  2 14  1  0  0  0  0
  2 41  1  0  0  0  0
  3 16  2  0  0  0  0
  4 22  1  0  0  0  0
  4 43  1  0  0  0  0
  5 25  1  0  0  0  0
  5 44  1  0  0  0  0
  6 10  1  0  0  0  0
  6 13  1  0  0  0  0
  6 17  1  0  0  0  0
  6 28  1  0  0  0  0
  7 20  2  0  0  0  0
  7 22  1  0  0  0  0
  8 24  1  0  0  0  0
  8 26  2  0  0  0  0
  9 11  1  0  0  0  0
  9 12  1  0  0  0  0
  9 15  1  0  0  0  0
  9 16  1  0  0  0  0
 10 11  1  0  0  0  0
 10 14  1  0  0  0  0
 10 27  1  0  0  0  0
 11 29  1  0  0  0  0
 12 13  2  0  0  0  0
 12 20  1  0  0  0  0
 13 19  1  0  0  0  0
 14 18  1  0  0  0  0
 14 30  1  0  0  0  0
 15 22  1  0  0  0  0
 15 31  1  0  0  0  0
 15 32  1  0  0  0  0
 16 18  1  0  0  0  0
 17 21  1  0  0  0  0
 17 33  1  0  0  0  0
 17 34  1  0  0  0  0
 18 35  1  0  0  0  0
 18 36  1  0  0  0  0
 19 23  2  0  0  0  0
 19 24  1  0  0  0  0
 20 25  1  0  0  0  0
 21 23  1  0  0  0  0
 21 37  1  0  0  0  0
 21 38  1  0  0  0  0
 22 39  1  0  0  0  0
 23 26  1  0  0  0  0
 24 25  2  0  0  0  0
 26 42  1  0  0  0  0
M  CHG  1   6   1
M  END
> <PUBCHEM_COMPOUND_CID>
136824619

> <PUBCHEM_CONFORMER_RMSD>
0.6

> <PUBCHEM_CONFORMER_DIVERSEORDER>
1

> <PUBCHEM_MMFF94_PARTIAL_CHARGES>
30
1 -0.68
10 0.5
11 0.28
12 -0.12
13 0.36
14 0.28
16 0.45
17 0.5
18 0.06
2 -0.68
20 0.42
21 0.14
22 0.53
23 -0.12
24 0.17
25 0.09
26 0.38
28 0.45
3 -0.57
4 -0.68
40 0.4
41 0.4
42 0.06
43 0.4
44 0.45
5 -0.53
6 -0.81
7 -0.7
8 -0.62
9 0.2

> <PUBCHEM_EFFECTIVE_ROTOR_COUNT>
1.4

> <PUBCHEM_PHARMACOPHORE_FEATURES>
18
1 1 acceptor
1 1 donor
1 2 acceptor
1 2 donor
1 3 acceptor
1 4 acceptor
1 4 donor
1 5 donor
1 6 cation
1 6 donor
1 7 acceptor
1 8 acceptor
5 8 19 23 24 26 rings
6 12 13 19 20 24 25 rings
6 6 13 17 19 21 23 rings
6 6 9 10 11 12 13 rings
6 7 9 12 15 20 22 rings
6 9 10 11 14 16 18 rings

> <PUBCHEM_HEAVY_ATOM_COUNT>
26

> <PUBCHEM_ATOM_DEF_STEREO_COUNT>
4

> <PUBCHEM_ATOM_UDEF_STEREO_COUNT>
1

> <PUBCHEM_BOND_DEF_STEREO_COUNT>
0

> <PUBCHEM_BOND_UDEF_STEREO_COUNT>
0

> <PUBCHEM_ISOTOPIC_ATOM_COUNT>
0

> <PUBCHEM_COMPONENT_COUNT>
1

> <PUBCHEM_CACTVS_TAUTO_COUNT>
-1

> <PUBCHEM_CONFORMER_ID>
0827C72B00000001

> <PUBCHEM_MMFF94_ENERGY>
175.101

> <PUBCHEM_FEATURE_SELFOVERLAP>
92.47

> <PUBCHEM_SHAPE_FINGERPRINT>
10411042 1 18337951315447546982
10863032 1 18341337802775897739
10948715 1 17688305690482578925
10967382 1 17906168808599583558
1100329 8 17255675300956143315
11578080 2 17749658675419754212
12553582 1 18337117859726115314
13140716 1 18412825802435416096
138480 1 15672100247372454429
13965767 371 17625017887224139811
14178342 30 18342171151006531106
14223421 5 18410858741699733138
14790565 3 17615702059925566821
16945 1 18338239245622161046
19591789 44 18266749150377460764
19930381 70 18193552496067729171
20739085 24 18120114989335664545
21197605 99 18053389791234867473
2334 1 18267583696587419332
23559900 14 17982444898885435710
2748010 2 18338786922809131836
3084891 72 17257084870783950722
3380486 145 18261964045861901329
34934 24 17906722606262488210
350125 39 18339365274731450456
484989 97 17975133141859030653
5845 1 17968386731457406285
6443956 14 18263644146678448615
70251023 43 18130488808355889727
9709674 26 18196367022849996862

> <PUBCHEM_SHAPE_MULTIPOLES>
490.78
5.65
4.43
1.15
3.44
1.62
-0.1
-1.25
1.09
-1.39
-0.22
-1.07
-0.04
0.54

> <PUBCHEM_SHAPE_SELFOVERLAP>
1122.634

> <PUBCHEM_SHAPE_VOLUME>
248.6

> <PUBCHEM_COORDINATE_TYPE>
2
5
10

$$$$
