REMARK  Name = 136881500
REMARK  4 active torsions:
REMARK  status: ('A' for Active; 'I' for Inactive)
REMARK    1  A    between atoms: N_1  and  C_21
REMARK    2  A    between atoms: C_2  and  C_11
REMARK    3  A    between atoms: C_12  and  C_17
REMARK    4  A    between atoms: C_21  and  C_25
REMARK                            x       y       z     vdW  Elec       q    Type
REMARK                         _______ _______ _______ _____ _____    ______ ____
ROOT
ATOM      1  N   UNL     1      -0.504   2.321   0.806  0.00  0.00    +0.390 N 
ATOM      2  C   UNL     1      -2.459   1.851  -0.677  0.00  0.00    +0.046 C 
ATOM      3  C   UNL     1      -3.408   2.321   0.425  0.00  0.00    +0.004 C 
ATOM      4  C   UNL     1      -1.065   2.476  -0.545  0.00  0.00    -0.068 C 
ATOM      5  C   UNL     1      -2.759   2.241   1.805  0.00  0.00    -0.022 C 
ATOM      6  C   UNL     1      -1.386   2.912   1.819  0.00  0.00    -0.077 C 
ATOM      7  H   UNL     1      -0.427   1.322   1.001  0.00  0.00    -0.079 HD
ENDROOT
BRANCH   2  11
ATOM      8  O   UNL     1      -4.213  -2.289  -2.210  0.00  0.00    -0.274 OA
ATOM      9  N   UNL     1      -3.338  -0.291  -1.442  0.00  0.00    -0.263 N 
ATOM     10  N   UNL     1      -1.455  -0.259  -0.016  0.00  0.00    -0.395 NA
ATOM     11  C   UNL     1      -2.381   0.350  -0.687  0.00  0.00    +0.160 C 
ATOM     12  C   UNL     1      -1.451  -1.637  -0.074  0.00  0.00    +0.125 C 
ATOM     13  C   UNL     1      -3.388  -1.666  -1.551  0.00  0.00    +0.235 C 
ATOM     14  C   UNL     1      -2.330  -2.366  -0.786  0.00  0.00    +0.145 C 
ATOM     15  H   UNL     1      -4.009   0.249  -1.919  0.00  0.00    +0.157 HD
BRANCH  12  17
ATOM     16  S   UNL     1      -0.298  -2.142   2.381  0.00  0.00    -0.084 S 
ATOM     17  C   UNL     1      -0.386  -2.335   0.682  0.00  0.00    +0.055 C 
ATOM     18  C   UNL     1       0.605  -3.164   0.203  0.00  0.00    +0.009 C 
ATOM     19  C   UNL     1       1.447  -3.647   1.246  0.00  0.00    +0.008 C 
ATOM     20  C   UNL     1       1.068  -3.170   2.481  0.00  0.00    +0.036 C 
ENDBRANCH  12  17
ENDBRANCH   2  11
BRANCH   1  21
ATOM     21  C   UNL     1       0.831   2.915   0.878  0.00  0.00    -0.051 C 
BRANCH  21  25
ATOM     22  N   UNL     1       3.293   0.102   0.279  0.00  0.00    -0.181 NA
ATOM     23  N   UNL     1       3.322   1.566  -1.634  0.00  0.00    -0.203 NA
ATOM     24  N   UNL     1       4.696  -0.334  -1.551  0.00  0.00    -0.276 N 
ATOM     25  C   UNL     1       1.870   2.042   0.226  0.00  0.00    -0.020 C 
ATOM     26  C   UNL     1       2.363   0.906   0.834  0.00  0.00    +0.102 C 
ATOM     27  C   UNL     1       2.391   2.326  -1.020  0.00  0.00    +0.159 C 
ATOM     28  C   UNL     1       3.722   0.485  -0.938  0.00  0.00    +0.087 C 
ATOM     29  C   UNL     1       5.216  -1.513  -0.933  0.00  0.00    +0.119 C 
ATOM     30  H   UNL     1       5.031  -0.081  -2.441  0.00  0.00    +0.158 HD
ENDBRANCH  21  25
ENDBRANCH   1  21
TORSDOF 4
