REMARK  Name = 136803946
REMARK  7 active torsions:
REMARK  status: ('A' for Active; 'I' for Inactive)
REMARK    1  A    between atoms: N_2  and  C1*_16
REMARK    2  A    between atoms: C_8  and  C_25
REMARK    3  A    between atoms: C3*_17  and  O3*_20
REMARK    4  A    between atoms: C4*_19  and  C5*_22
REMARK    5  A    between atoms: C5*_22  and  O5*_23
REMARK    6  A    between atoms: C_26  and  C_27
REMARK    7  A    between atoms: C_32  and  C_34
REMARK                            x       y       z     vdW  Elec       q    Type
REMARK                         _______ _______ _______ _____ _____    ______ ____
ROOT
ATOM      1  O   UNL     1      -3.182  -4.329  -0.338  0.00  0.00    -0.267 OA
ATOM      2  N   UNL     1      -1.510  -0.144  -0.014  0.00  0.00    -0.212 N 
ATOM      3  N   UNL     1      -1.006  -2.309  -0.257  0.00  0.00    -0.378 NA
ATOM      4  N   UNL     1      -3.925  -0.262   0.107  0.00  0.00    -0.355 NA
ATOM      5  N   UNL     1      -4.655  -2.536  -0.078  0.00  0.00    -0.242 N 
ATOM      6  N   UNL     1      -6.213  -0.791   0.181  0.00  0.00    -0.321 N 
ATOM      7  C   UNL     1      -2.698  -0.815  -0.015  0.00  0.00    +0.228 C 
ATOM      8  C   UNL     1      -0.522  -1.086  -0.162  0.00  0.00    +0.191 C 
ATOM      9  C   UNL     1      -2.355  -2.136  -0.165  0.00  0.00    +0.230 C 
ATOM     10  C   UNL     1      -3.392  -3.130  -0.207  0.00  0.00    +0.286 C 
ATOM     11  C   UNL     1      -4.895  -1.150   0.072  0.00  0.00    +0.240 C 
ATOM     12  H   UNL     1      -5.439  -3.132  -0.094  0.00  0.00    +0.159 HD
ATOM     13  H   UNL     1      -6.459   0.157   0.288  0.00  0.00    +0.146 HD
ATOM     14  H   UNL     1      -6.915  -1.480   0.151  0.00  0.00    +0.146 HD
ENDROOT
BRANCH   2  16
ATOM     15  O4* UNL     1      -2.368   1.933   0.949  0.00  0.00    -0.335 OA
ATOM     16  C1* UNL     1      -1.343   1.348   0.124  0.00  0.00    +0.202 C 
ATOM     17  C3* UNL     1      -1.846   3.463  -0.794  0.00  0.00    +0.144 C 
ATOM     18  C2* UNL     1      -1.398   2.082  -1.212  0.00  0.00    +0.083 C 
ATOM     19  C4* UNL     1      -2.795   3.179   0.363  0.00  0.00    +0.173 C 
BRANCH  17  20
ATOM     20  O3* UNL     1      -0.711   4.182  -0.318  0.00  0.00    -0.382 OA
ATOM     21  H3* UNL     1      -0.109   4.361  -1.057  0.00  0.00    +0.210 HD
ENDBRANCH  17  20
BRANCH  19  22
ATOM     22  C5* UNL     1      -4.240   3.017  -0.086  0.00  0.00    +0.169 C 
BRANCH  22  23
ATOM     23  O5* UNL     1      -5.041   2.747   1.051  0.00  0.00    -0.379 OA
ATOM     24  H5* UNL     1      -5.966   2.641   0.777  0.00  0.00    +0.211 HD
ENDBRANCH  22  23
ENDBRANCH  19  22
ENDBRANCH   2  16
BRANCH   8  25
ATOM     25  C   UNL     1       0.819  -0.654  -0.194  0.00  0.00    +0.048 C 
ATOM     26  C   UNL     1       1.925  -1.363   0.231  0.00  0.00    +0.004 C 
BRANCH  26  27
ATOM     27  C   UNL     1       3.329  -0.918   0.182  0.00  0.00    +0.000 C 
ATOM     28  C   UNL     1       3.627   0.441   0.072  0.00  0.00    +0.000 C 
ATOM     29  C   UNL     1       4.361  -1.854   0.246  0.00  0.00    +0.000 C 
ATOM     30  C   UNL     1       4.955   0.863   0.025  0.00  0.00    +0.003 C 
ATOM     31  C   UNL     1       5.690  -1.433   0.200  0.00  0.00    +0.003 C 
ATOM     32  C   UNL     1       5.987  -0.074   0.089  0.00  0.00    +0.035 C 
BRANCH  32  34
ATOM     33  O   UNL     1       8.277  -0.270   0.621  0.00  0.00    -0.291 OA
ATOM     34  C   UNL     1       7.372   0.366   0.045  0.00  0.00    +0.173 C 
ATOM     35  C   UNL     1       7.752   1.632  -0.717  0.00  0.00    +0.077 C 
ENDBRANCH  32  34
ENDBRANCH  26  27
ENDBRANCH   8  25
TORSDOF 7
