136801274
  -OEChem-03292013293D

 34 37  0     0  0  0  0  0  0999 V2000
    0.1276   -1.2789    1.6303 O   0  0  0  0  0  0  0  0  0  0  0  0
   -2.9304    3.6393    0.7841 O   0  0  0  0  0  0  0  0  0  0  0  0
    6.5412   -0.2118   -0.2924 O   0  5  0  0  0  0  0  0  0  0  0  0
    5.6189   -1.5004    1.2268 O   0  0  0  0  0  0  0  0  0  0  0  0
    0.4217    1.0667   -0.9723 N   0  0  0  0  0  0  0  0  0  0  0  0
   -3.8586    1.2047    0.2943 N   0  0  0  0  0  0  0  0  0  0  0  0
   -2.0179    2.8764    0.5636 N   0  0  0  0  0  0  0  0  0  0  0  0
    5.5312   -0.6515    0.3077 N   0  3  0  0  0  0  0  0  0  0  0  0
   -0.3370    0.3433   -0.0916 C   0  0  0  0  0  0  0  0  0  0  0  0
   -1.8058    0.4113    0.0052 C   0  0  0  0  0  0  0  0  0  0  0  0
   -2.7263   -0.6576   -0.1823 C   0  0  0  0  0  0  0  0  0  0  0  0
    1.8411   -0.1751    0.2197 C   0  0  0  0  0  0  0  0  0  0  0  0
    1.7557    0.7702   -0.8046 C   0  0  0  0  0  0  0  0  0  0  0  0
    0.5131   -0.4350    0.6600 C   0  0  0  0  0  0  0  0  0  0  0  0
   -4.0069   -0.1330    0.0048 C   0  0  0  0  0  0  0  0  0  0  0  0
   -2.5319    1.5428    0.2969 C   0  0  0  0  0  0  0  0  0  0  0  0
    3.1116   -0.6549    0.5957 C   0  0  0  0  0  0  0  0  0  0  0  0
    2.8817    1.2614   -1.4746 C   0  0  0  0  0  0  0  0  0  0  0  0
   -2.5924   -2.0252   -0.4942 C   0  0  0  0  0  0  0  0  0  0  0  0
   -5.1650   -0.9110   -0.1047 C   0  0  0  0  0  0  0  0  0  0  0  0
    4.2468   -0.1723   -0.0659 C   0  0  0  0  0  0  0  0  0  0  0  0
    4.1311    0.7709   -1.0848 C   0  0  0  0  0  0  0  0  0  0  0  0
   -3.7421   -2.8155   -0.6070 C   0  0  0  0  0  0  0  0  0  0  0  0
   -5.0075   -2.2648   -0.4147 C   0  0  0  0  0  0  0  0  0  0  0  0
    0.0591    1.7232   -1.6500 H   0  0  0  0  0  0  0  0  0  0  0  0
   -4.6218    1.8417    0.4777 H   0  0  0  0  0  0  0  0  0  0  0  0
    3.1788   -1.3902    1.3925 H   0  0  0  0  0  0  0  0  0  0  0  0
    2.7923    1.9960   -2.2680 H   0  0  0  0  0  0  0  0  0  0  0  0
   -1.6148   -2.4723   -0.6502 H   0  0  0  0  0  0  0  0  0  0  0  0
   -6.1507   -0.4832    0.0447 H   0  0  0  0  0  0  0  0  0  0  0  0
    5.0032    1.1561   -1.6090 H   0  0  0  0  0  0  0  0  0  0  0  0
   -3.6450   -3.8708   -0.8479 H   0  0  0  0  0  0  0  0  0  0  0  0
   -5.8871   -2.8969   -0.5072 H   0  0  0  0  0  0  0  0  0  0  0  0
    0.9007   -1.7211    2.0218 H   0  0  0  0  0  0  0  0  0  0  0  0
  1 14  1  0  0  0  0
  1 34  1  0  0  0  0
  2  7  2  0  0  0  0
  3  8  1  0  0  0  0
  4  8  2  0  0  0  0
  5  9  1  0  0  0  0
  5 13  1  0  0  0  0
  5 25  1  0  0  0  0
  6 15  1  0  0  0  0
  6 16  1  0  0  0  0
  6 26  1  0  0  0  0
  7 16  1  0  0  0  0
  8 21  1  0  0  0  0
  9 10  1  0  0  0  0
  9 14  2  0  0  0  0
 10 11  1  0  0  0  0
 10 16  2  0  0  0  0
 11 15  1  0  0  0  0
 11 19  2  0  0  0  0
 12 13  2  0  0  0  0
 12 14  1  0  0  0  0
 12 17  1  0  0  0  0
 13 18  1  0  0  0  0
 15 20  2  0  0  0  0
 17 21  2  0  0  0  0
 17 27  1  0  0  0  0
 18 22  2  0  0  0  0
 18 28  1  0  0  0  0
 19 23  1  0  0  0  0
 19 29  1  0  0  0  0
 20 24  1  0  0  0  0
 20 30  1  0  0  0  0
 21 22  1  0  0  0  0
 22 31  1  0  0  0  0
 23 24  2  0  0  0  0
 23 32  1  0  0  0  0
 24 33  1  0  0  0  0
M  CHG  2   3  -1   8   1
M  END
> <PUBCHEM_COMPOUND_CID>
136801274

> <PUBCHEM_CONFORMER_RMSD>
0.6

> <PUBCHEM_CONFORMER_DIVERSEORDER>
1
2
5
3
4

> <PUBCHEM_MMFF94_PARTIAL_CHARGES>
31
1 -0.51
13 -0.15
14 0.06
15 -0.15
16 0.1
17 -0.15
18 -0.15
19 -0.15
2 -0.16
20 -0.15
21 0.13
22 -0.15
23 -0.15
24 -0.15
25 0.27
26 0.27
27 0.15
28 0.15
29 0.15
3 -0.52
30 0.15
31 0.15
32 0.15
33 0.15
34 0.45
4 -0.52
5 0.03
6 0.03
7 -0.09
8 0.91
9 -0.15

> <PUBCHEM_EFFECTIVE_ROTOR_COUNT>
3

> <PUBCHEM_PHARMACOPHORE_FEATURES>
12
1 1 donor
1 3 acceptor
1 3 anion
1 4 acceptor
1 5 cation
1 5 donor
1 6 cation
1 6 donor
5 5 9 12 13 14 rings
5 6 10 11 15 16 rings
6 11 15 19 20 23 24 rings
6 12 13 17 18 21 22 rings

> <PUBCHEM_HEAVY_ATOM_COUNT>
24

> <PUBCHEM_ATOM_DEF_STEREO_COUNT>
0

> <PUBCHEM_ATOM_UDEF_STEREO_COUNT>
0

> <PUBCHEM_BOND_DEF_STEREO_COUNT>
0

> <PUBCHEM_BOND_UDEF_STEREO_COUNT>
0

> <PUBCHEM_ISOTOPIC_ATOM_COUNT>
0

> <PUBCHEM_COMPONENT_COUNT>
1

> <PUBCHEM_CACTVS_TAUTO_COUNT>
-1

> <PUBCHEM_CONFORMER_ID>
08276BFA00000001

> <PUBCHEM_MMFF94_ENERGY>
52.8423

> <PUBCHEM_FEATURE_SELFOVERLAP>
61.16

> <PUBCHEM_SHAPE_FINGERPRINT>
10319926 262 18129646527320573194
10369192 42 16698056209862138032
10411042 1 18197776812154003775
10595046 47 18409450310781563900
11045515 52 18114460162896830509
11315181 36 18408323297908563820
11578080 2 17899383602450264197
12107183 9 17760645867762219738
12166972 35 17822293530120840077
12236239 1 18259985998251462527
12403260 363 18408044026503562964
12553582 1 18269269231281914199
12616971 3 18040724666210431525
12741549 16 16487253279466239667
12788726 201 18339936999076178073
12839892 36 18343579625254545142
13167823 11 18408040719304723078
13288520 33 18342176687066504815
13583140 156 17489294262143739910
13862211 1 17676480623894807874
14910302 57 17916604058531067647
15420108 30 17830168009118954033
17349148 13 18040715883297593394
17844677 252 18343588443233528952
17857418 61 18335417984832599678
17862501 102 18334857216748633068
1813 80 17458916933585832230
18681886 176 18337104674608890514
18785283 64 15983965124453666634
18927931 339 18343587356364047751
200 152 18187927317539342263
20612939 158 17313390071405993838
20645477 70 15502643876620118394
20775438 99 16755478333567430519
21033648 29 16414903159252711130
21033650 10 18124344673587915516
21267235 1 18335425707463515523
21709351 56 17676482843574969325
21728266 224 18412821391282333350
21792934 111 18342171207421523489
2297311 6 18201445791359135317
23402539 116 18410008849318171807
23557571 272 17917714565259634224
23559900 14 18269263724606320241
25147074 1 18187660106228572116
266924 1 18187636965070979003
3004659 81 18115016515405658975
32027 91 17696760961097937342
3286 77 18411133671389072820
335352 9 18412822513344788935
34797466 226 17703518787374330108
397830 11 17631153338760230682
4214541 1 18410855447280378197
5104073 3 18200600314404823921
559249 180 18334571322345851775
573450 72 18410011009660510072
67856867 119 18336547243588783100
7471813 234 18337952410405420324
7495541 125 17774720973744107768
7970288 3 18125715936266027967

> <PUBCHEM_SHAPE_MULTIPOLES>
450.51
12.58
2.64
1.06
10.96
1.44
-0.01
-5.71
-0.36
-3.89
0.37
0.74
0.01
-2.01

> <PUBCHEM_SHAPE_SELFOVERLAP>
1024.314

> <PUBCHEM_SHAPE_VOLUME>
235.6

> <PUBCHEM_COORDINATE_TYPE>
2
5
10

$$$$
