136825048
  -OEChem-03292013293D

 55 59  0     1  0  0  0  0  0999 V2000
   -3.6345   -1.1239   -1.5626 O   0  0  0  0  0  0  0  0  0  0  0  0
   -2.3938   -2.1900    0.0818 O   0  0  0  0  0  0  0  0  0  0  0  0
   -4.0300   -0.7164    2.0841 O   0  0  0  0  0  0  0  0  0  0  0  0
   -4.4507    2.0451    1.0212 O   0  0  0  0  0  0  0  0  0  0  0  0
   -3.2136    1.6783   -1.5046 O   0  0  0  0  0  0  0  0  0  0  0  0
    0.1198   -2.8886    0.1688 O   0  0  0  0  0  0  0  0  0  0  0  0
   -2.1105    1.8729    2.2283 O   0  0  0  0  0  0  0  0  0  0  0  0
    2.5712    2.4873    0.4179 O   0  0  0  0  0  0  0  0  0  0  0  0
    5.1346   -1.0020   -0.1694 N   0  0  0  0  0  0  0  0  0  0  0  0
   -3.5960   -0.2651    0.7952 C   0  0  2  0  0  0  0  0  0  0  0  0
   -4.5733    0.8218    0.3091 C   0  0  2  0  0  0  0  0  0  0  0  0
   -3.6184   -1.4701   -0.1733 C   0  0  1  0  0  0  0  0  0  0  0  0
   -4.4794    1.1046   -1.1856 C   0  0  2  0  0  0  0  0  0  0  0  0
   -2.1074   -0.0518    0.8678 C   0  0  0  0  0  0  0  0  0  0  0  0
   -4.6586   -0.2094   -1.9437 C   0  0  1  0  0  0  0  0  0  0  0  0
   -1.5033   -1.1700    0.4521 C   0  0  0  0  0  0  0  0  0  0  0  0
   -1.4926    1.1613    1.4393 C   0  0  0  0  0  0  0  0  0  0  0  0
   -4.5610   -0.0211   -3.4529 C   0  0  0  0  0  0  0  0  0  0  0  0
   -0.1043   -1.5359    0.3811 C   0  0  0  0  0  0  0  0  0  0  0  0
    0.9303   -0.6789    0.4356 C   0  0  0  0  0  0  0  0  0  0  0  0
    0.8535    0.7635    0.6256 C   0  0  0  0  0  0  0  0  0  0  0  0
   -0.1244    1.5654    1.0484 C   0  0  0  0  0  0  0  0  0  0  0  0
    2.3581   -1.0243    0.2265 C   0  0  0  0  0  0  0  0  0  0  0  0
    3.0951    0.1640    0.1908 C   0  0  0  0  0  0  0  0  0  0  0  0
    2.2238    1.3251    0.4070 C   0  0  0  0  0  0  0  0  0  0  0  0
    4.4565    0.1528   -0.0057 C   0  0  0  0  0  0  0  0  0  0  0  0
    3.0306   -2.2225    0.0677 C   0  0  0  0  0  0  0  0  0  0  0  0
    5.2608    1.4054   -0.0433 C   0  0  0  0  0  0  0  0  0  0  0  0
    4.4078   -2.1518   -0.1261 C   0  0  0  0  0  0  0  0  0  0  0  0
    5.1189    2.1498   -1.3793 C   0  0  0  0  0  0  0  0  0  0  0  0
    5.1758   -3.4208   -0.3037 C   0  0  0  0  0  0  0  0  0  0  0  0
    5.9149    3.4452   -1.3982 C   0  0  0  0  0  0  0  0  0  0  0  0
   -5.5923    0.4689    0.5200 H   0  0  0  0  0  0  0  0  0  0  0  0
   -4.4521   -2.1526    0.0299 H   0  0  0  0  0  0  0  0  0  0  0  0
   -5.2468    1.8325   -1.4745 H   0  0  0  0  0  0  0  0  0  0  0  0
   -5.6339   -0.6547   -1.7097 H   0  0  0  0  0  0  0  0  0  0  0  0
   -4.9290   -1.0756    1.9930 H   0  0  0  0  0  0  0  0  0  0  0  0
   -3.5542    0.2804   -3.7609 H   0  0  0  0  0  0  0  0  0  0  0  0
   -5.2818    0.7205   -3.8099 H   0  0  0  0  0  0  0  0  0  0  0  0
   -4.7625   -0.9706   -3.9616 H   0  0  0  0  0  0  0  0  0  0  0  0
   -5.1346    2.6526    0.6915 H   0  0  0  0  0  0  0  0  0  0  0  0
   -3.2676    2.0348   -2.4071 H   0  0  0  0  0  0  0  0  0  0  0  0
    0.0800    2.6227    1.2066 H   0  0  0  0  0  0  0  0  0  0  0  0
    2.5468   -3.1887    0.1115 H   0  0  0  0  0  0  0  0  0  0  0  0
    0.6812   -2.9664   -0.6210 H   0  0  0  0  0  0  0  0  0  0  0  0
    4.9982    2.0545    0.8000 H   0  0  0  0  0  0  0  0  0  0  0  0
    6.3195    1.1544    0.1062 H   0  0  0  0  0  0  0  0  0  0  0  0
    5.4726    1.5046   -2.1935 H   0  0  0  0  0  0  0  0  0  0  0  0
    4.0713    2.3755   -1.6034 H   0  0  0  0  0  0  0  0  0  0  0  0
    4.8131   -3.9654   -1.1813 H   0  0  0  0  0  0  0  0  0  0  0  0
    6.2420   -3.2184   -0.4492 H   0  0  0  0  0  0  0  0  0  0  0  0
    5.0707   -4.0562    0.5814 H   0  0  0  0  0  0  0  0  0  0  0  0
    6.9796    3.2535   -1.2310 H   0  0  0  0  0  0  0  0  0  0  0  0
    5.8073    3.9430   -2.3670 H   0  0  0  0  0  0  0  0  0  0  0  0
    5.5623    4.1314   -0.6217 H   0  0  0  0  0  0  0  0  0  0  0  0
  1 12  1  0  0  0  0
  1 15  1  0  0  0  0
  2 12  1  0  0  0  0
  2 16  1  0  0  0  0
  3 10  1  0  0  0  0
  3 37  1  0  0  0  0
  4 11  1  0  0  0  0
  4 41  1  0  0  0  0
  5 13  1  0  0  0  0
  5 42  1  0  0  0  0
  6 19  1  0  0  0  0
  6 45  1  0  0  0  0
  7 17  2  0  0  0  0
  8 25  2  0  0  0  0
  9 26  2  0  0  0  0
  9 29  1  0  0  0  0
 10 11  1  0  0  0  0
 10 12  1  0  0  0  0
 10 14  1  0  0  0  0
 11 13  1  0  0  0  0
 11 33  1  0  0  0  0
 12 34  1  0  0  0  0
 13 15  1  0  0  0  0
 13 35  1  0  0  0  0
 14 16  2  0  0  0  0
 14 17  1  0  0  0  0
 15 18  1  0  0  0  0
 15 36  1  0  0  0  0
 16 19  1  0  0  0  0
 17 22  1  0  0  0  0
 18 38  1  0  0  0  0
 18 39  1  0  0  0  0
 18 40  1  0  0  0  0
 19 20  2  0  0  0  0
 20 21  1  0  0  0  0
 20 23  1  0  0  0  0
 21 22  2  0  0  0  0
 21 25  1  0  0  0  0
 22 43  1  0  0  0  0
 23 24  2  0  0  0  0
 23 27  1  0  0  0  0
 24 25  1  0  0  0  0
 24 26  1  0  0  0  0
 26 28  1  0  0  0  0
 27 29  2  0  0  0  0
 27 44  1  0  0  0  0
 28 30  1  0  0  0  0
 28 46  1  0  0  0  0
 28 47  1  0  0  0  0
 29 31  1  0  0  0  0
 30 32  1  0  0  0  0
 30 48  1  0  0  0  0
 30 49  1  0  0  0  0
 31 50  1  0  0  0  0
 31 51  1  0  0  0  0
 31 52  1  0  0  0  0
 32 53  1  0  0  0  0
 32 54  1  0  0  0  0
 32 55  1  0  0  0  0
M  END
> <PUBCHEM_COMPOUND_CID>
136825048

> <PUBCHEM_CONFORMER_RMSD>
0.8

> <PUBCHEM_CONFORMER_DIVERSEORDER>
1
5
4
3
2

> <PUBCHEM_MMFF94_PARTIAL_CHARGES>
35
1 -0.56
10 0.42
11 0.28
12 0.56
13 0.28
14 -0.12
15 0.28
16 0.08
17 0.54
19 0.08
2 -0.36
20 -0.03
21 0.01
22 -0.14
23 0.03
24 0.09
25 0.47
26 0.17
27 -0.15
28 0.14
29 0.17
3 -0.68
31 0.14
37 0.4
4 -0.68
41 0.4
42 0.4
43 0.15
44 0.15
45 0.45
5 -0.68
6 -0.53
7 -0.57
8 -0.57
9 -0.62

> <PUBCHEM_EFFECTIVE_ROTOR_COUNT>
3

> <PUBCHEM_PHARMACOPHORE_FEATURES>
18
1 1 acceptor
1 2 acceptor
1 3 acceptor
1 3 donor
1 32 hydrophobe
1 4 acceptor
1 4 donor
1 5 acceptor
1 5 donor
1 6 donor
1 7 acceptor
1 8 acceptor
1 9 acceptor
5 2 10 12 14 16 rings
5 20 21 23 24 25 rings
6 1 10 11 12 13 15 rings
6 9 23 24 26 27 29 rings
7 14 16 17 19 20 21 22 rings

> <PUBCHEM_HEAVY_ATOM_COUNT>
32

> <PUBCHEM_ATOM_DEF_STEREO_COUNT>
5

> <PUBCHEM_ATOM_UDEF_STEREO_COUNT>
0

> <PUBCHEM_BOND_DEF_STEREO_COUNT>
0

> <PUBCHEM_BOND_UDEF_STEREO_COUNT>
0

> <PUBCHEM_ISOTOPIC_ATOM_COUNT>
0

> <PUBCHEM_COMPONENT_COUNT>
1

> <PUBCHEM_CACTVS_TAUTO_COUNT>
445

> <PUBCHEM_CONFORMER_ID>
0827C8D800000001

> <PUBCHEM_MMFF94_ENERGY>
119.841

> <PUBCHEM_FEATURE_SELFOVERLAP>
91.774

> <PUBCHEM_SHAPE_FINGERPRINT>
10622 236 17773851182632482319
11135926 11 18410862100970755204
11796584 16 14332865772053728364
12788726 201 17559971942865877632
13383661 66 14691444151696044958
13540713 5 18201452320179092984
13782708 43 17748835102751555779
14790565 3 18267598930604693368
15183329 4 18408317766164818510
15196674 1 18412832365024144682
15274700 147 15226844948395312756
15420108 30 16904973960080413256
17349148 13 17988639657951976642
200 152 18060412508806669803
20775438 99 16334357554903843391
21033648 144 18259988192842821734
21033648 29 16877943823688986111
21033650 10 15840732715313492650
22393880 68 18186790366650440395
23402539 116 17988357062073340603
23559900 14 18342737391279733202
23569914 2 16663977851717895676
2838139 119 17314489483959664085
3004659 81 18410013200716407898
335352 9 18269560429331132691
350125 39 18266185100854701563
3610482 184 18059871557671074365
4015057 19 18411976966389092536
4058900 60 17968948621197392666
4098825 35 18334853927220480829
46194498 28 17749956690320633549
508706 21 17968370131176919861
57724786 102 18261118452041301324
9849439 229 14710552277213734727

> <PUBCHEM_SHAPE_MULTIPOLES>
606.61
13.43
3.26
1.87
6.19
0.3
1.13
-3.27
6.01
5.33
0.46
-3.44
-0.78
-1.1

> <PUBCHEM_SHAPE_SELFOVERLAP>
1354.622

> <PUBCHEM_SHAPE_VOLUME>
319.6

> <PUBCHEM_COORDINATE_TYPE>
2
5
10

$$$$
