REMARK  Name = 136824729
REMARK  2 active torsions:
REMARK  status: ('A' for Active; 'I' for Inactive)
REMARK    1  A    between atoms: C_16  and  O_25
REMARK    2  A    between atoms: C_17  and  O_27
REMARK                            x       y       z     vdW  Elec       q    Type
REMARK                         _______ _______ _______ _____ _____    ______ ____
ROOT
ATOM      1 BR   UNL     1       3.793   2.570   1.607  0.00  0.00    -0.051 Br
ATOM      2  S   UNL     1       1.891  -2.783  -1.291  0.00  0.00    -0.099 S 
ATOM      3  N   UNL     1      -0.346  -2.962   0.242  0.00  0.00    -0.326 N 
ATOM      4  N   UNL     1       0.009   1.897   0.023  0.00  0.00    -0.278 NA
ATOM      5  N   UNL     1      -4.229   0.036  -0.184  0.00  0.00    -0.245 NA
ATOM      6  C   UNL     1       1.448  -0.798   0.520  0.00  0.00    +0.055 C 
ATOM      7  C   UNL     1       1.664  -2.138   1.273  0.00  0.00    +0.040 C 
ATOM      8  C   UNL     1       1.086  -3.194   0.321  0.00  0.00    +0.122 C 
ATOM      9  C   UNL     1      -0.075  -0.589   0.292  0.00  0.00    +0.083 C 
ATOM     10  C   UNL     1       2.138  -1.119  -0.799  0.00  0.00    +0.007 C 
ATOM     11  C   UNL     1      -0.895  -1.685   0.197  0.00  0.00    +0.063 C 
ATOM     12  C   UNL     1       2.116   0.332   1.264  0.00  0.00    -0.016 C 
ATOM     13  C   UNL     1      -0.659   0.797   0.097  0.00  0.00    +0.046 C 
ATOM     14  C   UNL     1       3.014  -0.300  -1.397  0.00  0.00    +0.010 C 
ATOM     15  C   UNL     1      -2.110   0.780  -0.032  0.00  0.00    +0.099 C 
ATOM     16  C   UNL     1      -2.352  -1.576   0.013  0.00  0.00    +0.157 C 
ATOM     17  C   UNL     1       3.437   1.003  -0.768  0.00  0.00    +0.161 C 
ATOM     18  C   UNL     1       2.999   1.157   0.672  0.00  0.00    +0.039 C 
ATOM     19  C   UNL     1      -2.922  -0.373  -0.081  0.00  0.00    +0.102 C 
ATOM     20  C   UNL     1      -2.808   1.899  -0.029  0.00  0.00    -0.013 C 
ATOM     21  C   UNL     1      -2.196   3.224   0.080  0.00  0.00    +0.051 C 
ATOM     22  C   UNL     1      -0.708   3.151  -0.323  0.00  0.00    +0.129 C 
ATOM     23  C   UNL     1      -4.153   1.342  -0.146  0.00  0.00    +0.091 C 
ATOM     24  H   UNL     1      -0.950  -3.739   0.220  0.00  0.00    +0.147 HD
ENDROOT
BRANCH  16  25
ATOM     25  O   UNL     1      -3.060  -2.755  -0.013  0.00  0.00    -0.503 OA
ATOM     26  H   UNL     1      -2.610  -3.574   0.057  0.00  0.00    +0.292 HD
ENDBRANCH  16  25
BRANCH  17  27
ATOM     27  O   UNL     1       2.920   2.084  -1.539  0.00  0.00    -0.375 OA
ATOM     28  H   UNL     1       3.200   1.986  -2.462  0.00  0.00    +0.211 HD
ENDBRANCH  17  27
TORSDOF 2
