136808002
  -OEChem-03292013293D

 66 69  0     0  0  0  0  0  0999 V2000
   -4.2633   -0.2359   -1.8536 S   0  0  0  0  0  0  0  0  0  0  0  0
   -5.1599    0.7545   -2.4096 O   0  0  0  0  0  0  0  0  0  0  0  0
   -3.7751   -1.3351   -2.6585 O   0  0  0  0  0  0  0  0  0  0  0  0
    0.4098    2.6296    0.3763 O   0  0  0  0  0  0  0  0  0  0  0  0
    1.8128   -3.0312    1.4540 O   0  0  0  0  0  0  0  0  0  0  0  0
   -4.9461   -0.8619   -0.4130 N   0  0  0  0  0  0  0  0  0  0  0  0
   -5.5261   -1.4724    2.3345 N   0  0  0  0  0  0  0  0  0  0  0  0
    4.2526   -2.0133   -0.0444 N   0  0  0  0  0  0  0  0  0  0  0  0
    0.7184   -1.2379    0.4635 N   0  0  0  0  0  0  0  0  0  0  0  0
    1.8050    0.3287   -1.0115 N   0  0  0  0  0  0  0  0  0  0  0  0
    5.0505   -1.2619   -0.8358 N   0  0  0  0  0  0  0  0  0  0  0  0
   -4.0659   -1.7778    0.3690 C   0  0  0  0  0  0  0  0  0  0  0  0
   -5.6125    0.1398    0.4687 C   0  0  0  0  0  0  0  0  0  0  0  0
   -6.3948   -0.5842    1.5606 C   0  0  0  0  0  0  0  0  0  0  0  0
   -4.8835   -2.4577    1.4634 C   0  0  0  0  0  0  0  0  0  0  0  0
   -2.8656    0.6130   -1.1889 C   0  0  0  0  0  0  0  0  0  0  0  0
   -1.6477   -0.0520   -1.0466 C   0  0  0  0  0  0  0  0  0  0  0  0
   -0.5433    0.6196   -0.5220 C   0  0  0  0  0  0  0  0  0  0  0  0
   -2.9791    1.9497   -0.8067 C   0  0  0  0  0  0  0  0  0  0  0  0
    2.9410   -0.4520   -0.7856 C   0  0  0  0  0  0  0  0  0  0  0  0
    2.9694   -1.5601    0.0147 C   0  0  0  0  0  0  0  0  0  0  0  0
    0.7458   -0.1076   -0.3795 C   0  0  0  0  0  0  0  0  0  0  0  0
    4.2336   -0.3010   -1.2890 C   0  0  0  0  0  0  0  0  0  0  0  0
   -0.6570    1.9563   -0.1397 C   0  0  0  0  0  0  0  0  0  0  0  0
   -1.8749    2.6212   -0.2818 C   0  0  0  0  0  0  0  0  0  0  0  0
    4.7497    0.7326   -2.2007 C   0  0  0  0  0  0  0  0  0  0  0  0
    1.8282   -2.0481    0.7215 C   0  0  0  0  0  0  0  0  0  0  0  0
    4.8081   -3.1612    0.6321 C   0  0  0  0  0  0  0  0  0  0  0  0
    5.5748    1.8157   -1.4755 C   0  0  0  0  0  0  0  0  0  0  0  0
    5.0720   -2.8784    2.1031 C   0  0  0  0  0  0  0  0  0  0  0  0
    0.2675    3.1549    1.6945 C   0  0  0  0  0  0  0  0  0  0  0  0
    4.7593    2.5811   -0.4455 C   0  0  0  0  0  0  0  0  0  0  0  0
    1.6359    3.1981    2.3570 C   0  0  0  0  0  0  0  0  0  0  0  0
    1.5602    3.7350    3.7750 C   0  0  0  0  0  0  0  0  0  0  0  0
   -6.3119    0.7481   -0.1135 H   0  0  0  0  0  0  0  0  0  0  0  0
   -3.2465   -1.2225    0.8365 H   0  0  0  0  0  0  0  0  0  0  0  0
   -3.6462   -2.5473   -0.2869 H   0  0  0  0  0  0  0  0  0  0  0  0
   -4.8698    0.8005    0.9278 H   0  0  0  0  0  0  0  0  0  0  0  0
   -5.6431   -3.1130    1.0190 H   0  0  0  0  0  0  0  0  0  0  0  0
   -4.2243   -3.0905    2.0673 H   0  0  0  0  0  0  0  0  0  0  0  0
   -6.8412    0.1539    2.2358 H   0  0  0  0  0  0  0  0  0  0  0  0
   -7.2184   -1.1601    1.1205 H   0  0  0  0  0  0  0  0  0  0  0  0
   -6.0812   -1.9568    3.0394 H   0  0  0  0  0  0  0  0  0  0  0  0
   -1.5497   -1.0926   -1.3455 H   0  0  0  0  0  0  0  0  0  0  0  0
   -3.9175    2.4875   -0.9080 H   0  0  0  0  0  0  0  0  0  0  0  0
   -1.9772    3.6645    0.0041 H   0  0  0  0  0  0  0  0  0  0  0  0
    5.3820    0.2655   -2.9664 H   0  0  0  0  0  0  0  0  0  0  0  0
    3.9234    1.2114   -2.7406 H   0  0  0  0  0  0  0  0  0  0  0  0
   -0.1556   -1.4884    0.9181 H   0  0  0  0  0  0  0  0  0  0  0  0
    4.1090   -3.9952    0.5122 H   0  0  0  0  0  0  0  0  0  0  0  0
    5.7398   -3.4394    0.1267 H   0  0  0  0  0  0  0  0  0  0  0  0
    6.4450    1.3638   -0.9846 H   0  0  0  0  0  0  0  0  0  0  0  0
    5.9577    2.5207   -2.2227 H   0  0  0  0  0  0  0  0  0  0  0  0
    5.7814   -2.0519    2.2200 H   0  0  0  0  0  0  0  0  0  0  0  0
    5.4981   -3.7630    2.5865 H   0  0  0  0  0  0  0  0  0  0  0  0
    4.1578   -2.6070    2.6392 H   0  0  0  0  0  0  0  0  0  0  0  0
   -0.4100    2.5297    2.2905 H   0  0  0  0  0  0  0  0  0  0  0  0
   -0.1531    4.1648    1.6289 H   0  0  0  0  0  0  0  0  0  0  0  0
    3.8573    3.0093   -0.8944 H   0  0  0  0  0  0  0  0  0  0  0  0
    4.4607    1.9433    0.3919 H   0  0  0  0  0  0  0  0  0  0  0  0
    5.3537    3.4037   -0.0347 H   0  0  0  0  0  0  0  0  0  0  0  0
    2.0732    2.1922    2.3626 H   0  0  0  0  0  0  0  0  0  0  0  0
    2.3150    3.8175    1.7589 H   0  0  0  0  0  0  0  0  0  0  0  0
    2.5572    3.7566    4.2259 H   0  0  0  0  0  0  0  0  0  0  0  0
    0.9189    3.1049    4.3995 H   0  0  0  0  0  0  0  0  0  0  0  0
    1.1593    4.7535    3.7879 H   0  0  0  0  0  0  0  0  0  0  0  0
  1  2  2  0  0  0  0
  1  3  2  0  0  0  0
  1  6  1  0  0  0  0
  1 16  1  0  0  0  0
  4 24  1  0  0  0  0
  4 31  1  0  0  0  0
  5 27  2  0  0  0  0
  6 12  1  0  0  0  0
  6 13  1  0  0  0  0
  7 14  1  0  0  0  0
  7 15  1  0  0  0  0
  7 43  1  0  0  0  0
  8 11  1  0  0  0  0
  8 21  1  0  0  0  0
  8 28  1  0  0  0  0
  9 22  1  0  0  0  0
  9 27  1  0  0  0  0
  9 49  1  0  0  0  0
 10 20  1  0  0  0  0
 10 22  2  0  0  0  0
 11 23  2  0  0  0  0
 12 15  1  0  0  0  0
 12 36  1  0  0  0  0
 12 37  1  0  0  0  0
 13 14  1  0  0  0  0
 13 35  1  0  0  0  0
 13 38  1  0  0  0  0
 14 41  1  0  0  0  0
 14 42  1  0  0  0  0
 15 39  1  0  0  0  0
 15 40  1  0  0  0  0
 16 17  2  0  0  0  0
 16 19  1  0  0  0  0
 17 18  1  0  0  0  0
 17 44  1  0  0  0  0
 18 22  1  0  0  0  0
 18 24  2  0  0  0  0
 19 25  2  0  0  0  0
 19 45  1  0  0  0  0
 20 21  2  0  0  0  0
 20 23  1  0  0  0  0
 21 27  1  0  0  0  0
 23 26  1  0  0  0  0
 24 25  1  0  0  0  0
 25 46  1  0  0  0  0
 26 29  1  0  0  0  0
 26 47  1  0  0  0  0
 26 48  1  0  0  0  0
 28 30  1  0  0  0  0
 28 50  1  0  0  0  0
 28 51  1  0  0  0  0
 29 32  1  0  0  0  0
 29 52  1  0  0  0  0
 29 53  1  0  0  0  0
 30 54  1  0  0  0  0
 30 55  1  0  0  0  0
 30 56  1  0  0  0  0
 31 33  1  0  0  0  0
 31 57  1  0  0  0  0
 31 58  1  0  0  0  0
 32 59  1  0  0  0  0
 32 60  1  0  0  0  0
 32 61  1  0  0  0  0
 33 34  1  0  0  0  0
 33 62  1  0  0  0  0
 33 63  1  0  0  0  0
 34 64  1  0  0  0  0
 34 65  1  0  0  0  0
 34 66  1  0  0  0  0
M  END
> <PUBCHEM_COMPOUND_CID>
136808002

> <PUBCHEM_CONFORMER_RMSD>
1

> <PUBCHEM_CONFORMER_DIVERSEORDER>
1
66
56
70
9
60
58
17
57
52
50
54
34
72
32
20
62
55
36
51
61
40
46
74
13
48
5
73
59
43
42
68
4
7
71
64
31
27
45
25
15
30
29
38
35
69
67
22
39
26
49
37
24
12
65
18
6
33
28
41
19
16
23
2
11
44
14
21
8
63
53
47
10
3

> <PUBCHEM_MMFF94_PARTIAL_CHARGES>
34
1 1.45
10 -0.57
11 -0.71
12 0.36
13 0.36
14 0.27
15 0.27
16 -0.01
17 -0.15
18 0.09
19 -0.15
2 -0.65
20 0.12
21 -0.24
22 0.42
23 0.11
24 0.08
25 -0.15
26 0.18
27 0.71
28 0.26
3 -0.65
31 0.28
4 -0.36
43 0.36
44 0.15
45 0.15
46 0.15
49 0.37
5 -0.57
6 -0.85
7 -0.9
8 0.31
9 -0.49

> <PUBCHEM_EFFECTIVE_ROTOR_COUNT>
10.2

> <PUBCHEM_PHARMACOPHORE_FEATURES>
14
1 11 acceptor
1 2 acceptor
1 3 acceptor
1 32 hydrophobe
1 34 hydrophobe
1 4 acceptor
1 5 acceptor
1 7 cation
1 7 donor
1 9 donor
5 8 11 20 21 23 rings
6 16 17 18 19 24 25 rings
6 6 7 12 13 14 15 rings
6 9 10 20 21 22 27 rings

> <PUBCHEM_HEAVY_ATOM_COUNT>
34

> <PUBCHEM_ATOM_DEF_STEREO_COUNT>
0

> <PUBCHEM_ATOM_UDEF_STEREO_COUNT>
0

> <PUBCHEM_BOND_DEF_STEREO_COUNT>
0

> <PUBCHEM_BOND_UDEF_STEREO_COUNT>
0

> <PUBCHEM_ISOTOPIC_ATOM_COUNT>
0

> <PUBCHEM_COMPONENT_COUNT>
1

> <PUBCHEM_CACTVS_TAUTO_COUNT>
-1

> <PUBCHEM_CONFORMER_ID>
0827864200000001

> <PUBCHEM_MMFF94_ENERGY>
58.827

> <PUBCHEM_FEATURE_SELFOVERLAP>
71.18

> <PUBCHEM_SHAPE_FINGERPRINT>
12553582 1 18343294847737653527
12788726 201 18128540370671676700
13009979 54 18125438601874160046
14955137 171 17774744007559030349
15537594 2 18412829113955422015
1813 80 17275096219813976628
19319366 153 18335696174428692462
21796203 349 18200891633093512483
22393880 68 16660919976684101063
23559900 14 18186791496580144021
329604 57 18259990353021571303
437795 51 18269005356321559872
484989 97 18115040675018925930
5104073 3 18334858268899810104
6086070 43 17346593089388511329
6371380 46 18265326223945434153

> <PUBCHEM_SHAPE_MULTIPOLES>
650.19
14.43
4.25
2.7
7.29
1.69
-1.33
-7.55
1.06
-4.49
-3.97
0.31
1.39
0.11

> <PUBCHEM_SHAPE_SELFOVERLAP>
1363.328

> <PUBCHEM_SHAPE_VOLUME>
369

> <PUBCHEM_COORDINATE_TYPE>
2
5
10

$$$$
