REMARK  Name = 136901335
REMARK  5 active torsions:
REMARK  status: ('A' for Active; 'I' for Inactive)
REMARK    1  A    between atoms: C_6  and  C_24
REMARK    2  A    between atoms: C_7  and  C_13
REMARK    3  A    between atoms: C_14  and  O_17
REMARK    4  A    between atoms: C_15  and  C_19
REMARK    5  A    between atoms: C_19  and  O_20
REMARK                            x       y       z     vdW  Elec       q    Type
REMARK                         _______ _______ _______ _____ _____    ______ ____
ROOT
ATOM      1  O   UNL     1      -0.063  -1.174   0.108  0.00  0.00    -0.424 OA
ATOM      2  N   UNL     1       0.727   0.947   0.000  0.00  0.00    -0.366 NA
ATOM      3  C   UNL     1       1.300  -1.234   0.070  0.00  0.00    +0.170 C 
ATOM      4  C   UNL     1       1.780   0.066   0.003  0.00  0.00    +0.159 C 
ATOM      5  C   UNL     1       2.097  -2.372   0.091  0.00  0.00    +0.015 C 
ATOM      6  C   UNL     1       3.166   0.275  -0.047  0.00  0.00    +0.153 C 
ATOM      7  C   UNL     1      -0.326   0.162   0.063  0.00  0.00    +0.317 C 
ATOM      8  C   UNL     1       3.477  -2.146   0.040  0.00  0.00    -0.005 C 
ATOM      9  C   UNL     1       4.003  -0.850  -0.028  0.00  0.00    -0.010 C 
ATOM     10  C   UNL     1       1.554  -3.756   0.162  0.00  0.00    +0.034 C 
ENDROOT
BRANCH   7  13
ATOM     11  N   UNL     1      -2.550  -0.551   0.159  0.00  0.00    -0.343 NA
ATOM     12  N   UNL     1      -4.407   0.985   0.155  0.00  0.00    -0.181 NA
ATOM     13  C   UNL     1      -1.720   0.510   0.091  0.00  0.00    +0.243 C 
ATOM     14  C   UNL     1      -2.151   1.820   0.052  0.00  0.00    +0.190 C 
ATOM     15  C   UNL     1      -3.862  -0.246   0.187  0.00  0.00    +0.095 C 
ATOM     16  C   UNL     1      -3.519   1.999   0.087  0.00  0.00    +0.150 C 
BRANCH  14  17
ATOM     17  O   UNL     1      -1.309   2.877  -0.016  0.00  0.00    -0.502 OA
ATOM     18  H   UNL     1      -0.383   2.737  -0.039  0.00  0.00    +0.292 HD
ENDBRANCH  14  17
BRANCH  15  19
ATOM     19  C   UNL     1      -4.811  -1.393   0.261  0.00  0.00    +0.251 C 
BRANCH  19  20
ATOM     20  O   UNL     1      -4.885  -2.028  -1.010  0.00  0.00    -0.368 OA
ATOM     21  H   UNL     1      -5.503  -2.775  -0.962  0.00  0.00    +0.212 HD
ENDBRANCH  19  20
ENDBRANCH  15  19
ENDBRANCH   7  13
BRANCH   6  24
ATOM     22  O   UNL     1       4.948   1.808  -0.179  0.00  0.00    -0.275 OA
ATOM     23  N   UNL     1       2.830   2.687  -0.133  0.00  0.00    -0.328 N 
ATOM     24  C   UNL     1       3.720   1.614  -0.117  0.00  0.00    +0.230 C 
ATOM     25  H   UNL     1       3.172   3.609  -0.180  0.00  0.00    +0.145 HD
ATOM     26  H   UNL     1       1.860   2.522  -0.097  0.00  0.00    +0.145 HD
ENDBRANCH   6  24
TORSDOF 5
