REMARK  Name = 136901942
REMARK  9 active torsions:
REMARK  status: ('A' for Active; 'I' for Inactive)
REMARK    1  A    between atoms: C_3  and  C_17
REMARK    2  A    between atoms: C_4  and  C_30
REMARK    3  A    between atoms: C_5  and  N_9
REMARK    4  A    between atoms: C_17  and  C_18
REMARK    5  A    between atoms: C_21  and  O_24
REMARK    6  A    between atoms: C_22  and  O_26
REMARK    7  A    between atoms: C_23  and  O_28
REMARK    8  A    between atoms: C_30  and  C_31
REMARK    9  A    between atoms: C_36  and  O_37
REMARK                            x       y       z     vdW  Elec       q    Type
REMARK                         _______ _______ _______ _____ _____    ______ ____
ROOT
ATOM      1  N   UNL     1       1.719   1.418  -1.802  0.00  0.00    -0.262 N 
ATOM      2  N   UNL     1       1.698  -0.752  -2.274  0.00  0.00    -0.376 NA
ATOM      3  C   UNL     1       0.417   1.107  -2.078  0.00  0.00    +0.129 C 
ATOM      4  C   UNL     1       0.429  -0.237  -2.367  0.00  0.00    +0.113 C 
ATOM      5  C   UNL     1       2.450   0.270  -1.933  0.00  0.00    +0.274 C 
ATOM      6  C   UNL     1       2.222   2.724  -1.439  0.00  0.00    +0.116 C 
ENDROOT
BRANCH   5   9
ATOM      7  O   UNL     1       2.087  -0.256   0.514  0.00  0.00    -0.266 OA
ATOM      8  O   UNL     1       6.432  -0.353   2.075  0.00  0.00    -0.252 OA
ATOM      9  N   UNL     1       3.840   0.296  -1.704  0.00  0.00    -0.183 NA
ATOM     10  N   UNL     1       5.479   0.030  -0.008  0.00  0.00    -0.249 N 
ATOM     11  N   UNL     1       4.113  -0.400   1.716  0.00  0.00    -0.206 N 
ATOM     12  C   UNL     1       4.216   0.066  -0.499  0.00  0.00    +0.194 C 
ATOM     13  C   UNL     1       3.292  -0.220   0.641  0.00  0.00    +0.288 C 
ATOM     14  C   UNL     1       5.450  -0.254   1.349  0.00  0.00    +0.315 C 
ATOM     15  C   UNL     1       3.658  -0.703   3.057  0.00  0.00    +0.125 C 
ATOM     16  H   UNL     1       6.295   0.182  -0.536  0.00  0.00    +0.158 HD
ENDBRANCH   5   9
BRANCH   3  17
ATOM     17  C   UNL     1      -0.677   2.094  -2.041  0.00  0.00    +0.053 C 
BRANCH  17  18
ATOM     18  C   UNL     1      -1.545   2.029  -0.791  0.00  0.00    -0.014 C 
ATOM     19  C   UNL     1      -0.959   2.128   0.471  0.00  0.00    +0.036 C 
ATOM     20  C   UNL     1      -2.926   1.870  -0.909  0.00  0.00    +0.036 C 
ATOM     21  C   UNL     1      -3.721   1.810   0.236  0.00  0.00    +0.175 C 
ATOM     22  C   UNL     1      -1.754   2.068   1.615  0.00  0.00    +0.175 C 
ATOM     23  C   UNL     1      -3.135   1.909   1.498  0.00  0.00    +0.202 C 
BRANCH  21  24
ATOM     24  O   UNL     1      -5.069   1.656   0.107  0.00  0.00    -0.468 OA
ATOM     25  C   UNL     1      -5.586   1.563  -1.218  0.00  0.00    +0.253 C 
ENDBRANCH  21  24
BRANCH  22  26
ATOM     26  O   UNL     1      -1.170   2.165   2.842  0.00  0.00    -0.468 OA
ATOM     27  C   UNL     1       0.247   2.326   2.873  0.00  0.00    +0.253 C 
ENDBRANCH  22  26
BRANCH  23  28
ATOM     28  O   UNL     1      -3.912   1.851   2.617  0.00  0.00    -0.501 OA
ATOM     29  H   UNL     1      -4.840   1.745   2.538  0.00  0.00    +0.292 HD
ENDBRANCH  23  28
ENDBRANCH  17  18
ENDBRANCH   3  17
BRANCH   4  30
ATOM     30  C   UNL     1      -0.701  -1.104  -2.735  0.00  0.00    +0.082 C 
BRANCH  30  31
ATOM     31  C   UNL     1      -1.219  -1.986  -1.606  0.00  0.00    -0.015 C 
ATOM     32  C   UNL     1      -2.364  -1.616  -0.901  0.00  0.00    -0.001 C 
ATOM     33  C   UNL     1      -0.548  -3.165  -1.278  0.00  0.00    -0.001 C 
ATOM     34  C   UNL     1      -2.838  -2.423   0.133  0.00  0.00    +0.037 C 
ATOM     35  C   UNL     1      -1.022  -3.972  -0.244  0.00  0.00    +0.037 C 
ATOM     36  C   UNL     1      -2.167  -3.601   0.462  0.00  0.00    +0.139 C 
BRANCH  36  37
ATOM     37  O   UNL     1      -2.629  -4.389   1.471  0.00  0.00    -0.471 OA
ATOM     38  C   UNL     1      -3.805  -3.950   2.150  0.00  0.00    +0.252 C 
ENDBRANCH  36  37
ENDBRANCH  30  31
ENDBRANCH   4  30
TORSDOF 9
