136901942
  -OEChem-03292013293D

 63 66  0     0  0  0  0  0  0999 V2000
   -5.0685    1.6562    0.1073 O   0  0  0  0  0  0  0  0  0  0  0  0
   -1.1696    2.1653    2.8419 O   0  0  0  0  0  0  0  0  0  0  0  0
   -3.9122    1.8514    2.6167 O   0  0  0  0  0  0  0  0  0  0  0  0
   -2.6293   -4.3886    1.4709 O   0  0  0  0  0  0  0  0  0  0  0  0
    2.0871   -0.2558    0.5140 O   0  0  0  0  0  0  0  0  0  0  0  0
    6.4317   -0.3534    2.0746 O   0  0  0  0  0  0  0  0  0  0  0  0
    1.7188    1.4176   -1.8022 N   0  0  0  0  0  0  0  0  0  0  0  0
    1.6977   -0.7522   -2.2743 N   0  0  0  0  0  0  0  0  0  0  0  0
    3.8399    0.2960   -1.7039 N   0  0  0  0  0  0  0  0  0  0  0  0
    5.4785    0.0298   -0.0079 N   0  0  0  0  0  0  0  0  0  0  0  0
    4.1134   -0.4002    1.7164 N   0  0  0  0  0  0  0  0  0  0  0  0
    0.4170    1.1075   -2.0781 C   0  0  0  0  0  0  0  0  0  0  0  0
    0.4289   -0.2369   -2.3667 C   0  0  0  0  0  0  0  0  0  0  0  0
   -0.6770    2.0944   -2.0406 C   0  0  0  0  0  0  0  0  0  0  0  0
   -0.7013   -1.1040   -2.7353 C   0  0  0  0  0  0  0  0  0  0  0  0
   -1.5451    2.0290   -0.7913 C   0  0  0  0  0  0  0  0  0  0  0  0
    2.4503    0.2699   -1.9326 C   0  0  0  0  0  0  0  0  0  0  0  0
   -1.2189   -1.9864   -1.6063 C   0  0  0  0  0  0  0  0  0  0  0  0
    2.2220    2.7239   -1.4393 C   0  0  0  0  0  0  0  0  0  0  0  0
   -0.9594    2.1278    0.4709 C   0  0  0  0  0  0  0  0  0  0  0  0
   -2.9258    1.8700   -0.9088 C   0  0  0  0  0  0  0  0  0  0  0  0
   -3.7208    1.8099    0.2358 C   0  0  0  0  0  0  0  0  0  0  0  0
   -1.7544    2.0678    1.6154 C   0  0  0  0  0  0  0  0  0  0  0  0
   -2.3635   -1.6156   -0.9006 C   0  0  0  0  0  0  0  0  0  0  0  0
   -0.5483   -3.1647   -1.2778 C   0  0  0  0  0  0  0  0  0  0  0  0
   -3.1351    1.9089    1.4978 C   0  0  0  0  0  0  0  0  0  0  0  0
    4.2161    0.0658   -0.4990 C   0  0  0  0  0  0  0  0  0  0  0  0
   -2.8378   -2.4230    0.1333 C   0  0  0  0  0  0  0  0  0  0  0  0
   -1.0224   -3.9721   -0.2439 C   0  0  0  0  0  0  0  0  0  0  0  0
   -2.1672   -3.6012    0.4615 C   0  0  0  0  0  0  0  0  0  0  0  0
    3.2918   -0.2196    0.6406 C   0  0  0  0  0  0  0  0  0  0  0  0
    5.4497   -0.2540    1.3491 C   0  0  0  0  0  0  0  0  0  0  0  0
    3.6576   -0.7028    3.0574 C   0  0  0  0  0  0  0  0  0  0  0  0
   -5.5863    1.5631   -1.2185 C   0  0  0  0  0  0  0  0  0  0  0  0
    0.2473    2.3260    2.8730 C   0  0  0  0  0  0  0  0  0  0  0  0
   -3.8048   -3.9498    2.1504 C   0  0  0  0  0  0  0  0  0  0  0  0
   -1.3057    1.9370   -2.9274 H   0  0  0  0  0  0  0  0  0  0  0  0
   -0.3238    3.1262   -2.1382 H   0  0  0  0  0  0  0  0  0  0  0  0
   -0.4014   -1.7549   -3.5678 H   0  0  0  0  0  0  0  0  0  0  0  0
   -1.5317   -0.5084   -3.1351 H   0  0  0  0  0  0  0  0  0  0  0  0
    1.9916    2.9146   -0.3905 H   0  0  0  0  0  0  0  0  0  0  0  0
    1.7767    3.4816   -2.0868 H   0  0  0  0  0  0  0  0  0  0  0  0
    3.3045    2.7592   -1.5837 H   0  0  0  0  0  0  0  0  0  0  0  0
    0.1127    2.2539    0.5146 H   0  0  0  0  0  0  0  0  0  0  0  0
   -3.3268    1.8009   -1.9141 H   0  0  0  0  0  0  0  0  0  0  0  0
   -2.9210   -0.7312   -1.1765 H   0  0  0  0  0  0  0  0  0  0  0  0
    0.3441   -3.4647   -1.8205 H   0  0  0  0  0  0  0  0  0  0  0  0
   -3.7376   -2.0802    0.6327 H   0  0  0  0  0  0  0  0  0  0  0  0
   -0.4958   -4.8887    0.0075 H   0  0  0  0  0  0  0  0  0  0  0  0
    6.3212    0.1863   -0.5484 H   0  0  0  0  0  0  0  0  0  0  0  0
    4.1133   -1.6441    3.3775 H   0  0  0  0  0  0  0  0  0  0  0  0
    2.5681   -0.7795    3.0896 H   0  0  0  0  0  0  0  0  0  0  0  0
    4.0000    0.0899    3.7288 H   0  0  0  0  0  0  0  0  0  0  0  0
   -3.3352    1.9360    3.3956 H   0  0  0  0  0  0  0  0  0  0  0  0
   -5.4133    2.4841   -1.7856 H   0  0  0  0  0  0  0  0  0  0  0  0
   -5.2103    0.6750   -1.7379 H   0  0  0  0  0  0  0  0  0  0  0  0
   -6.6714    1.4434   -1.1322 H   0  0  0  0  0  0  0  0  0  0  0  0
    0.5590    3.2649    2.4026 H   0  0  0  0  0  0  0  0  0  0  0  0
    0.5407    2.3875    3.9263 H   0  0  0  0  0  0  0  0  0  0  0  0
    0.7620    1.4557    2.4525 H   0  0  0  0  0  0  0  0  0  0  0  0
   -4.0283   -4.6932    2.9226 H   0  0  0  0  0  0  0  0  0  0  0  0
   -4.6691   -3.9169    1.4785 H   0  0  0  0  0  0  0  0  0  0  0  0
   -3.6409   -2.9957    2.6629 H   0  0  0  0  0  0  0  0  0  0  0  0
  1 22  1  0  0  0  0
  1 34  1  0  0  0  0
  2 23  1  0  0  0  0
  2 35  1  0  0  0  0
  3 26  1  0  0  0  0
  3 54  1  0  0  0  0
  4 30  1  0  0  0  0
  4 36  1  0  0  0  0
  5 31  2  0  0  0  0
  6 32  2  0  0  0  0
  7 12  1  0  0  0  0
  7 17  1  0  0  0  0
  7 19  1  0  0  0  0
  8 13  1  0  0  0  0
  8 17  2  0  0  0  0
  9 17  1  0  0  0  0
  9 27  2  3  0  0  0
 10 27  1  0  0  0  0
 10 32  1  0  0  0  0
 10 50  1  0  0  0  0
 11 31  1  0  0  0  0
 11 32  1  0  0  0  0
 11 33  1  0  0  0  0
 12 13  2  0  0  0  0
 12 14  1  0  0  0  0
 13 15  1  0  0  0  0
 14 16  1  0  0  0  0
 14 37  1  0  0  0  0
 14 38  1  0  0  0  0
 15 18  1  0  0  0  0
 15 39  1  0  0  0  0
 15 40  1  0  0  0  0
 16 20  2  0  0  0  0
 16 21  1  0  0  0  0
 18 24  2  0  0  0  0
 18 25  1  0  0  0  0
 19 41  1  0  0  0  0
 19 42  1  0  0  0  0
 19 43  1  0  0  0  0
 20 23  1  0  0  0  0
 20 44  1  0  0  0  0
 21 22  2  0  0  0  0
 21 45  1  0  0  0  0
 22 26  1  0  0  0  0
 23 26  2  0  0  0  0
 24 28  1  0  0  0  0
 24 46  1  0  0  0  0
 25 29  2  0  0  0  0
 25 47  1  0  0  0  0
 27 31  1  0  0  0  0
 28 30  2  0  0  0  0
 28 48  1  0  0  0  0
 29 30  1  0  0  0  0
 29 49  1  0  0  0  0
 33 51  1  0  0  0  0
 33 52  1  0  0  0  0
 33 53  1  0  0  0  0
 34 55  1  0  0  0  0
 34 56  1  0  0  0  0
 34 57  1  0  0  0  0
 35 58  1  0  0  0  0
 35 59  1  0  0  0  0
 35 60  1  0  0  0  0
 36 61  1  0  0  0  0
 36 62  1  0  0  0  0
 36 63  1  0  0  0  0
M  END
> <PUBCHEM_COMPOUND_CID>
136901942

> <PUBCHEM_CONFORMER_RMSD>
1

> <PUBCHEM_CONFORMER_DIVERSEORDER>
1
152
98
118
132
22
57
150
84
108
35
95
59
119
130
82
148
23
137
77
75
66
105
36
88
28
72
74
67
128
31
100
21
139
112
30
55
113
78
49
126
32
154
71
114
47
86
58
79
109
124
41
97
136
107
92
8
116
104
43
144
90
62
101
120
34
51
73
6
87
153
117
149
69
63
42
123
94
131
24
16
83
61
96
89
33
127
64
68
39
14
146
52
141
65
110
143
53
145
115
26
46
111
54
121
125
7
76
81
135
80
38
27
19
56
25
5
50
91
37
29
48
93
3
129
12
20
122
138
13
133
147
151
18
102
40
106
4
9
2
85
142
103
134
45
70
17
60
140
11
44
99
10
15

> <PUBCHEM_MMFF94_PARTIAL_CHARGES>
44
1 -0.36
10 -0.49
11 -0.42
12 -0.33
13 0.05
14 0.32
15 0.32
16 -0.14
17 0.31
18 -0.14
19 0.26
2 -0.36
20 -0.15
21 -0.15
22 0.08
23 0.08
24 -0.15
25 -0.15
26 0.08
27 0.51
28 -0.15
29 -0.15
3 -0.53
30 0.08
31 0.63
32 0.69
33 0.3
34 0.28
35 0.28
36 0.28
4 -0.36
44 0.15
45 0.15
46 0.15
47 0.15
48 0.15
49 0.15
5 -0.57
50 0.37
54 0.45
6 -0.57
7 0.05
8 -0.57
9 -0.58

> <PUBCHEM_EFFECTIVE_ROTOR_COUNT>
8.4

> <PUBCHEM_PHARMACOPHORE_FEATURES>
12
1 1 acceptor
1 10 donor
1 2 acceptor
1 3 donor
1 4 acceptor
1 5 acceptor
1 6 acceptor
4 7 8 9 17 cation
5 10 11 27 31 32 rings
5 7 8 12 13 17 rings
6 16 20 21 22 23 26 rings
6 18 24 25 28 29 30 rings

> <PUBCHEM_HEAVY_ATOM_COUNT>
36

> <PUBCHEM_ATOM_DEF_STEREO_COUNT>
0

> <PUBCHEM_ATOM_UDEF_STEREO_COUNT>
0

> <PUBCHEM_BOND_DEF_STEREO_COUNT>
0

> <PUBCHEM_BOND_UDEF_STEREO_COUNT>
1

> <PUBCHEM_ISOTOPIC_ATOM_COUNT>
0

> <PUBCHEM_COMPONENT_COUNT>
1

> <PUBCHEM_CACTVS_TAUTO_COUNT>
-1

> <PUBCHEM_CONFORMER_ID>
0828F53600000001

> <PUBCHEM_MMFF94_ENERGY>
118.3646

> <PUBCHEM_FEATURE_SELFOVERLAP>
60.899

> <PUBCHEM_SHAPE_FINGERPRINT>
11387372 6 18194117414050361974
12156800 1 18267610020110083227
12633257 1 18410573972573030956
12788726 201 18049746283607302679
13402501 40 16702007665594480272
13583140 156 17387154102863726525
13726171 33 17910146759843777545
14020679 6 17916847089224161737
14114207 22 16661754463518697435
14400156 162 17980475664579524058
14675020 138 18192161391438210385
14705955 166 17846213384292860922
14787075 74 17846489301856469821
16067690 210 16912800503212054090
18603816 31 17604973838022113170
19315092 285 17464256406347048114
19734167 9 18056790687271193027
20764821 26 17488190481392720917
22121540 332 15264295113205392280
25265897 201 16666843978215475593
345986 75 18046917257432454223
35225 105 18128794392280650502
392239 28 17489866029617813693
469060 322 17241028977699035626
4742675 86 14836401432883112050
484985 159 17677871509961451494
9981440 41 17489301945428997238

> <PUBCHEM_SHAPE_MULTIPOLES>
680.74
9.91
4.72
3.36
9.34
5.12
-1.17
-0.57
-5.15
-7
-1.56
1
-0.68
-0.38

> <PUBCHEM_SHAPE_SELFOVERLAP>
1482.835

> <PUBCHEM_SHAPE_VOLUME>
371.8

> <PUBCHEM_COORDINATE_TYPE>
2
5
10

$$$$
