137014983
  -OEChem-03292013293D

 32 33  0     1  0  0  0  0  0999 V2000
    1.5175    0.5012    1.4424 S   0  0  0  0  0  0  0  0  0  0  0  0
   -0.9314    0.9782    0.4871 O   0  0  0  0  0  0  0  0  0  0  0  0
   -2.3331   -2.3456    0.8220 O   0  0  0  0  0  0  0  0  0  0  0  0
   -1.4658   -0.2933   -2.0345 O   0  0  0  0  0  0  0  0  0  0  0  0
   -2.9504    2.8502    0.3415 O   0  0  0  0  0  0  0  0  0  0  0  0
    0.9649   -1.2621   -0.3612 N   0  0  0  0  0  0  0  0  0  0  0  0
    3.1240   -0.2241   -0.5489 N   0  0  0  0  0  0  0  0  0  0  0  0
   -0.1533   -1.3713    0.5642 C   0  0  2  0  0  0  0  0  0  0  0  0
   -1.4384   -1.7960   -0.1487 C   0  0  2  0  0  0  0  0  0  0  0  0
   -2.1564   -0.6341   -0.8345 C   0  0  1  0  0  0  0  0  0  0  0  0
   -0.2453   -0.0010    1.2642 C   0  0  1  0  0  0  0  0  0  0  0  0
   -2.2447    0.5810    0.0955 C   0  0  2  0  0  0  0  0  0  0  0  0
   -2.8977    1.7793   -0.5838 C   0  0  0  0  0  0  0  0  0  0  0  0
    1.9749   -0.4117    0.0018 C   0  0  0  0  0  0  0  0  0  0  0  0
    3.9570    0.7711    0.1133 C   0  0  0  0  0  0  0  0  0  0  0  0
    5.2780    0.8783   -0.6205 C   0  0  0  0  0  0  0  0  0  0  0  0
    0.1150   -2.1285    1.3139 H   0  0  0  0  0  0  0  0  0  0  0  0
   -1.2251   -2.5879   -0.8769 H   0  0  0  0  0  0  0  0  0  0  0  0
   -3.1731   -0.9356   -1.1148 H   0  0  0  0  0  0  0  0  0  0  0  0
   -0.7170   -0.0760    2.2496 H   0  0  0  0  0  0  0  0  0  0  0  0
   -2.8111    0.3390    1.0042 H   0  0  0  0  0  0  0  0  0  0  0  0
    1.0592   -1.9119   -1.1344 H   0  0  0  0  0  0  0  0  0  0  0  0
   -3.9151    1.5412   -0.9092 H   0  0  0  0  0  0  0  0  0  0  0  0
   -2.3115    2.1189   -1.4438 H   0  0  0  0  0  0  0  0  0  0  0  0
   -1.9038   -3.1285    1.2071 H   0  0  0  0  0  0  0  0  0  0  0  0
   -1.4619   -1.0807   -2.6050 H   0  0  0  0  0  0  0  0  0  0  0  0
   -3.3728    3.6001   -0.1111 H   0  0  0  0  0  0  0  0  0  0  0  0
    3.5011    1.7687    0.0877 H   0  0  0  0  0  0  0  0  0  0  0  0
    4.1977    0.4855    1.1450 H   0  0  0  0  0  0  0  0  0  0  0  0
    5.8029   -0.0829   -0.6245 H   0  0  0  0  0  0  0  0  0  0  0  0
    5.1236    1.1765   -1.6630 H   0  0  0  0  0  0  0  0  0  0  0  0
    5.9253    1.6208   -0.1436 H   0  0  0  0  0  0  0  0  0  0  0  0
  1 11  1  0  0  0  0
  1 14  1  0  0  0  0
  2 11  1  0  0  0  0
  2 12  1  0  0  0  0
  3  9  1  0  0  0  0
  3 25  1  0  0  0  0
  4 10  1  0  0  0  0
  4 26  1  0  0  0  0
  5 13  1  0  0  0  0
  5 27  1  0  0  0  0
  6  8  1  0  0  0  0
  6 14  1  0  0  0  0
  6 22  1  0  0  0  0
  7 14  2  0  0  0  0
  7 15  1  0  0  0  0
  8  9  1  0  0  0  0
  8 11  1  0  0  0  0
  8 17  1  0  0  0  0
  9 10  1  0  0  0  0
  9 18  1  0  0  0  0
 10 12  1  0  0  0  0
 10 19  1  0  0  0  0
 11 20  1  0  0  0  0
 12 13  1  0  0  0  0
 12 21  1  0  0  0  0
 13 23  1  0  0  0  0
 13 24  1  0  0  0  0
 15 16  1  0  0  0  0
 15 28  1  0  0  0  0
 15 29  1  0  0  0  0
 16 30  1  0  0  0  0
 16 31  1  0  0  0  0
 16 32  1  0  0  0  0
M  END
> <PUBCHEM_COMPOUND_CID>
137014983

> <PUBCHEM_CONFORMER_RMSD>
0.6

> <PUBCHEM_CONFORMER_DIVERSEORDER>
1
8
35
15
29
41
7
18
11
34
25
37
40
17
39
22
26
30
10
4
42
21
13
32
20
3
2
28
9
31
36
27
24
5
33
12
16
23
19
14
6
38

> <PUBCHEM_MMFF94_PARTIAL_CHARGES>
19
1 -0.37
10 0.28
11 0.51
12 0.28
13 0.28
14 0.64
15 0.25
2 -0.56
22 0.4
25 0.4
26 0.4
27 0.4
3 -0.68
4 -0.68
5 -0.68
6 -0.82
7 -0.7
8 0.37
9 0.28

> <PUBCHEM_EFFECTIVE_ROTOR_COUNT>
3.2

> <PUBCHEM_PHARMACOPHORE_FEATURES>
11
1 2 acceptor
1 3 acceptor
1 3 donor
1 4 acceptor
1 4 donor
1 5 acceptor
1 5 donor
1 6 donor
3 6 7 14 cation
5 1 6 8 11 14 rings
6 2 8 9 10 11 12 rings

> <PUBCHEM_HEAVY_ATOM_COUNT>
16

> <PUBCHEM_ATOM_DEF_STEREO_COUNT>
2

> <PUBCHEM_ATOM_UDEF_STEREO_COUNT>
3

> <PUBCHEM_BOND_DEF_STEREO_COUNT>
0

> <PUBCHEM_BOND_UDEF_STEREO_COUNT>
0

> <PUBCHEM_ISOTOPIC_ATOM_COUNT>
0

> <PUBCHEM_COMPONENT_COUNT>
1

> <PUBCHEM_CACTVS_TAUTO_COUNT>
-1

> <PUBCHEM_CONFORMER_ID>
082AAEC700000001

> <PUBCHEM_MMFF94_ENERGY>
43.3902

> <PUBCHEM_FEATURE_SELFOVERLAP>
55.987

> <PUBCHEM_SHAPE_FINGERPRINT>
11127187 94 16917063373610756140
11206711 2 18201992270039220734
11769659 78 11023819574670179528
12138202 97 18272086076117231590
12173636 292 18408884031484689863
12186901 62 18412550941723996370
12491281 212 18187364328983923872
12932764 1 17632572794917327626
13024252 1 12973877139464014995
13764800 53 18334293167352233971
14123255 52 18191022313648680565
14123260 362 18186809084312919916
14142880 1 17967812756101546173
14577589 140 11455627498959968646
15534591 1 18410570643862151693
15775835 57 17168412818431335142
16945 1 18268130102226895195
1741750 31 18338515244478691656
17844478 74 18269278039468606275
19765921 60 18340201869472036963
19837323 101 18410852144767090555
19930381 70 17256532348990674828
200 152 14201674329344622499
20361792 2 13830127312831035464
20645464 45 11747201459943860618
20645476 183 18337668616298843475
20645477 56 18409173203269758472
20671657 53 14836110040552484648
20871999 31 18273207599747922141
21339142 149 17458349688221847018
21524375 3 18123736574753395767
22094290 60 18339364187962442610
22802520 49 18201996655163848458
22926399 65 18413106139404068136
23227448 37 18408891762505424709
23402539 116 17896316002961704762
23419403 2 15795696925403718585
23493267 7 18409444791421716674
23557571 272 18262805201752247734
23559900 14 18201719497710938626
25 1 18127970815174566337
2748010 2 17916003841019928456
4175511 318 17917713504444708852
430814 3 18043526119085687739
9999458 23 17687472265295813029

> <PUBCHEM_SHAPE_MULTIPOLES>
299.68
6.81
2.14
1.26
9.76
0.48
-0.09
3.29
-1.86
-2.62
0.22
-0.15
-0.03
0.06

> <PUBCHEM_SHAPE_SELFOVERLAP>
600.414

> <PUBCHEM_SHAPE_VOLUME>
178.3

> <PUBCHEM_COORDINATE_TYPE>
2
5
10

$$$$
