REMARK  Name = 13706
REMARK  6 active torsions:
REMARK  status: ('A' for Active; 'I' for Inactive)
REMARK    1  A    between atoms: C_1  and  C_2
REMARK    2  A    between atoms: C_1  and  CA_11
REMARK    3  A    between atoms: C_7  and  N_10
REMARK    4  A    between atoms: CA_11  and  N_12
REMARK    5  A    between atoms: CA_11  and  C_17
REMARK    6  A    between atoms: C_17  and  O_18
REMARK                            x       y       z     vdW  Elec       q    Type
REMARK                         _______ _______ _______ _____ _____    ______ ____
ROOT
ATOM      1  C   UNL     1      -1.802   0.988   0.801  0.00  0.00    +0.015 C 
ENDROOT
BRANCH   1   2
ATOM      2  C   UNL     1      -0.354   0.648   0.537  0.00  0.00    -0.024 C 
ATOM      3  C   UNL     1       0.130  -0.594   0.911  0.00  0.00    -0.003 C 
ATOM      4  C   UNL     1       0.462   1.587  -0.073  0.00  0.00    -0.003 C 
ATOM      5  C   UNL     1       1.467  -0.908   0.667  0.00  0.00    +0.024 C 
ATOM      6  C   UNL     1       1.799   1.274  -0.318  0.00  0.00    +0.024 C 
ATOM      7  C   UNL     1       2.301   0.026   0.053  0.00  0.00    +0.143 C 
BRANCH   7  10
ATOM      8  O   UNL     1       4.094  -1.421   0.144  0.00  0.00    -0.126 OA
ATOM      9  O   UNL     1       4.396   0.560  -0.751  0.00  0.00    -0.126 OA
ATOM     10  N   UNL     1       3.662  -0.294  -0.197  0.00  0.00    +0.058 N 
ENDBRANCH   7  10
ENDBRANCH   1   2
BRANCH   1  11
ATOM     11  CA  UNL     1      -2.728   0.603  -0.364  0.00  0.00    +0.040 C 
BRANCH  11  12
ATOM     12  N   UNL     1      -3.975   1.359  -0.276  0.00  0.00    +0.389 N 
ATOM     13  H1  UNL     1      -3.769   2.358  -0.295  0.00  0.00    -0.088 HD
ATOM     14  H2  UNL     1      -4.452   1.128   0.596  0.00  0.00    -0.088 HD
ATOM     15  H3  UNL     1      -4.574   1.120  -1.065  0.00  0.00    -0.088 HD
ENDBRANCH  11  12
BRANCH  11  17
ATOM     16  OXT UNL     1      -4.069  -1.327   0.275  0.00  0.00    -0.253 OA
ATOM     17  C   UNL     1      -3.108  -0.867  -0.329  0.00  0.00    +0.293 C 
BRANCH  17  18
ATOM     18  O   UNL     1      -2.276  -1.634  -1.081  0.00  0.00    -0.482 OA
ATOM     19  H   UNL     1      -1.552  -1.241  -1.527  0.00  0.00    +0.295 HD
ENDBRANCH  17  18
ENDBRANCH  11  17
ENDBRANCH   1  11
TORSDOF 6
