REMARK  Name = 137028602
REMARK  9 active torsions:
REMARK  status: ('A' for Active; 'I' for Inactive)
REMARK    1  A    between atoms: N_2  and  C_5
REMARK    2  A    between atoms: N_2  and  N_24
REMARK    3  A    between atoms: C_3  and  C_12
REMARK    4  A    between atoms: C_8  and  O_22
REMARK    5  A    between atoms: C_10  and  O_32
REMARK    6  A    between atoms: C_17  and  O_18
REMARK    7  A    between atoms: O_18  and  C_20
REMARK    8  A    between atoms: N_24  and  C_26
REMARK    9  A    between atoms: O_32  and  C_34
REMARK                            x       y       z     vdW  Elec       q    Type
REMARK                         _______ _______ _______ _____ _____    ______ ____
ROOT
ATOM      1  O   UNL     1      -0.642  -1.660   0.270  0.00  0.00    -0.475 OA
ATOM      2  C   UNL     1       0.327  -0.663  -0.086  0.00  0.00    +0.190 C 
ATOM      3  C   UNL     1       0.304   0.492   0.909  0.00  0.00    +0.072 C 
ATOM      4  C   UNL     1      -1.069   1.115   0.880  0.00  0.00    +0.126 C 
ATOM      5  C   UNL     1      -2.202   0.181   0.684  0.00  0.00    +0.063 C 
ATOM      6  C   UNL     1      -1.913  -1.163   0.407  0.00  0.00    +0.142 C 
ATOM      7  C   UNL     1      -3.533   0.591   0.807  0.00  0.00    +0.137 C 
ATOM      8  C   UNL     1      -2.949  -2.091   0.284  0.00  0.00    +0.074 C 
ATOM      9  C   UNL     1      -4.274  -1.678   0.407  0.00  0.00    +0.154 C 
ATOM     10  C   UNL     1      -4.565  -0.340   0.664  0.00  0.00    +0.074 C 
ENDROOT
BRANCH   2  11
ATOM     11  C   UNL     1       1.692  -1.317  -0.133  0.00  0.00    +0.017 C 
ATOM     12  C   UNL     1       2.243  -1.864   1.026  0.00  0.00    +0.002 C 
ATOM     13  C   UNL     1       2.398  -1.373  -1.335  0.00  0.00    +0.002 C 
ATOM     14  C   UNL     1       3.500  -2.467   0.983  0.00  0.00    +0.037 C 
ATOM     15  C   UNL     1       3.655  -1.976  -1.377  0.00  0.00    +0.037 C 
ATOM     16  C   UNL     1       4.206  -2.523  -0.218  0.00  0.00    +0.148 C 
BRANCH  16  17
ATOM     17  O   UNL     1       5.433  -3.110  -0.260  0.00  0.00    -0.424 OA
BRANCH  17  19
ATOM     18  O   UNL     1       6.399  -1.035   0.232  0.00  0.00    -0.250 OA
ATOM     19  C   UNL     1       6.499  -2.232  -0.006  0.00  0.00    +0.322 C 
ATOM     20  C   UNL     1       7.802  -2.971  -0.075  0.00  0.00    +0.122 C 
ENDBRANCH  17  19
ENDBRANCH  16  17
ENDBRANCH   2  11
BRANCH   7  21
ATOM     21  O   UNL     1      -3.880   1.881   1.078  0.00  0.00    -0.506 OA
ATOM     22  H   UNL     1      -3.215   2.533   1.180  0.00  0.00    +0.292 HD
ENDBRANCH   7  21
BRANCH   4  23
ATOM     23  N   UNL     1      -1.173   2.392   1.049  0.00  0.00    -0.130 NA
BRANCH  23  24
ATOM     24  N   UNL     1       0.015   3.006   1.200  0.00  0.00    -0.261 N 
ATOM     25  H   UNL     1       0.604   2.752   1.947  0.00  0.00    +0.168 HD
BRANCH  24  26
ATOM     26  C   UNL     1       0.423   4.006   0.303  0.00  0.00    +0.060 C 
ATOM     27  C   UNL     1       1.658   4.633   0.470  0.00  0.00    +0.016 C 
ATOM     28  C   UNL     1      -0.407   4.373  -0.756  0.00  0.00    +0.016 C 
ATOM     29  C   UNL     1       2.063   5.626  -0.421  0.00  0.00    +0.001 C 
ATOM     30  C   UNL     1      -0.003   5.366  -1.648  0.00  0.00    +0.001 C 
ATOM     31  C   UNL     1       1.232   5.993  -1.480  0.00  0.00    +0.000 C 
ENDBRANCH  24  26
ENDBRANCH  23  24
ENDBRANCH   4  23
BRANCH   9  32
ATOM     32  O   UNL     1      -5.284  -2.582   0.277  0.00  0.00    -0.424 OA
BRANCH  32  34
ATOM     33  O   UNL     1      -5.339  -2.130  -2.019  0.00  0.00    -0.250 OA
ATOM     34  C   UNL     1      -5.755  -2.732  -1.038  0.00  0.00    +0.322 C 
ATOM     35  C   UNL     1      -6.860  -3.745  -1.075  0.00  0.00    +0.122 C 
ENDBRANCH  32  34
ENDBRANCH   9  32
TORSDOF 9
