13706
  -OEChem-03292013323D

 25 25  0     1  0  0  0  0  0999 V2000
   -2.2759   -1.6341   -1.0810 O   0  0  0  0  0  0  0  0  0  0  0  0
   -4.0685   -1.3275    0.2749 O   0  0  0  0  0  0  0  0  0  0  0  0
    4.0942   -1.4215    0.1436 O   0  5  0  0  0  0  0  0  0  0  0  0
    4.3959    0.5605   -0.7506 O   0  0  0  0  0  0  0  0  0  0  0  0
   -3.9747    1.3593   -0.2755 N   0  0  0  0  0  0  0  0  0  0  0  0
    3.6623   -0.2936   -0.1966 N   0  3  0  0  0  0  0  0  0  0  0  0
   -1.8025    0.9883    0.8010 C   0  0  0  0  0  0  0  0  0  0  0  0
   -2.7276    0.6030   -0.3638 C   0  0  1  0  0  0  0  0  0  0  0  0
   -0.3536    0.6485    0.5374 C   0  0  0  0  0  0  0  0  0  0  0  0
    0.1297   -0.5943    0.9110 C   0  0  0  0  0  0  0  0  0  0  0  0
    0.4616    1.5870   -0.0733 C   0  0  0  0  0  0  0  0  0  0  0  0
    1.4669   -0.9078    0.6670 C   0  0  0  0  0  0  0  0  0  0  0  0
    1.7988    1.2735   -0.3175 C   0  0  0  0  0  0  0  0  0  0  0  0
   -3.1079   -0.8673   -0.3292 C   0  0  0  0  0  0  0  0  0  0  0  0
    2.3014    0.0260    0.0527 C   0  0  0  0  0  0  0  0  0  0  0  0
   -2.1274    0.5050    1.7327 H   0  0  0  0  0  0  0  0  0  0  0  0
   -1.8636    2.0681    0.9967 H   0  0  0  0  0  0  0  0  0  0  0  0
   -2.2743    0.8271   -1.3363 H   0  0  0  0  0  0  0  0  0  0  0  0
   -0.5113   -1.3274    1.3921 H   0  0  0  0  0  0  0  0  0  0  0  0
    0.0781    2.5597   -0.3674 H   0  0  0  0  0  0  0  0  0  0  0  0
    1.8238   -1.8890    0.9693 H   0  0  0  0  0  0  0  0  0  0  0  0
    2.4192    2.0254   -0.7987 H   0  0  0  0  0  0  0  0  0  0  0  0
   -3.7741    2.3568   -0.3416 H   0  0  0  0  0  0  0  0  0  0  0  0
   -4.3987    1.2221    0.6419 H   0  0  0  0  0  0  0  0  0  0  0  0
   -2.5353   -2.5799   -1.0638 H   0  0  0  0  0  0  0  0  0  0  0  0
  1 14  1  0  0  0  0
  1 25  1  0  0  0  0
  2 14  2  0  0  0  0
  3  6  1  0  0  0  0
  4  6  2  0  0  0  0
  5  8  1  0  0  0  0
  5 23  1  0  0  0  0
  5 24  1  0  0  0  0
  6 15  1  0  0  0  0
  7  8  1  0  0  0  0
  7  9  1  0  0  0  0
  7 16  1  0  0  0  0
  7 17  1  0  0  0  0
  8 14  1  0  0  0  0
  8 18  1  0  0  0  0
  9 10  2  0  0  0  0
  9 11  1  0  0  0  0
 10 12  1  0  0  0  0
 10 19  1  0  0  0  0
 11 13  2  0  0  0  0
 11 20  1  0  0  0  0
 12 15  2  0  0  0  0
 12 21  1  0  0  0  0
 13 15  1  0  0  0  0
 13 22  1  0  0  0  0
M  CHG  2   3  -1   6   1
M  END
> <PUBCHEM_COMPOUND_CID>
13706

> <PUBCHEM_CONFORMER_RMSD>
0.6

> <PUBCHEM_CONFORMER_DIVERSEORDER>
1
8
4
9
7
3
2
6
5

> <PUBCHEM_MMFF94_PARTIAL_CHARGES>
22
1 -0.65
10 -0.15
11 -0.15
12 -0.15
13 -0.15
14 0.66
15 0.13
19 0.15
2 -0.57
20 0.15
21 0.15
22 0.15
23 0.36
24 0.36
25 0.5
3 -0.52
4 -0.52
5 -0.99
6 0.91
7 0.14
8 0.33
9 -0.14

> <PUBCHEM_EFFECTIVE_ROTOR_COUNT>
4

> <PUBCHEM_PHARMACOPHORE_FEATURES>
9
1 1 acceptor
1 2 acceptor
1 3 acceptor
1 3 anion
1 4 acceptor
1 5 cation
1 5 donor
3 1 2 14 anion
6 9 10 11 12 13 15 rings

> <PUBCHEM_HEAVY_ATOM_COUNT>
15

> <PUBCHEM_ATOM_DEF_STEREO_COUNT>
1

> <PUBCHEM_ATOM_UDEF_STEREO_COUNT>
0

> <PUBCHEM_BOND_DEF_STEREO_COUNT>
0

> <PUBCHEM_BOND_UDEF_STEREO_COUNT>
0

> <PUBCHEM_ISOTOPIC_ATOM_COUNT>
0

> <PUBCHEM_COMPONENT_COUNT>
1

> <PUBCHEM_CACTVS_TAUTO_COUNT>
1

> <PUBCHEM_CONFORMER_ID>
0000358A00000001

> <PUBCHEM_MMFF94_ENERGY>
34.7785

> <PUBCHEM_FEATURE_SELFOVERLAP>
45.812

> <PUBCHEM_SHAPE_FINGERPRINT>
10062212 137 18335693914711119242
11401426 45 18334289851690371768
11769659 78 18273208720517770646
11806522 49 18410293652958028560
12251169 10 11095884882474691289
13296908 3 18201430411160577505
13296909 8 8502651498228306091
13705890 14 18411980269514283392
14576447 43 18337950202960865910
14993402 34 18413109446402084116
15775835 57 18186801344639154709
18186145 218 16732702740259613682
19422 9 18410015463662837405
200 152 18413107260010483944
20279233 1 15985102998803429605
20281407 28 16056878022426316876
20645476 183 18408879616923220535
20871999 31 18409442592519494349
21119208 17 18410008810684707821
21634736 98 18339643472363362204
221490 88 18190467257966001035
22485316 2 18412823569136681448
23402539 116 18260544498935178684
23402655 69 18261674783471257468
23559900 14 18059568080045742472
25 1 17676483896137453017
2748010 2 16463064345482535648
2871803 45 18115859858368029147
305870 269 9223241749127859921
3312278 4 18412262813948465409
465052 167 18055639666982247471
58051976 100 18408321086454093685
633830 44 17240770549274112032
7364860 26 18057318603118858968

> <PUBCHEM_SHAPE_MULTIPOLES>
275.25
7.67
1.63
0.87
1.39
0.05
-0.03
1.57
1.58
-0.54
0.12
-0.11
0.08
-0.45

> <PUBCHEM_SHAPE_SELFOVERLAP>
571.872

> <PUBCHEM_SHAPE_VOLUME>
156.7

> <PUBCHEM_COORDINATE_TYPE>
2
5
10

$$$$
