REMARK  Name = 137007049
REMARK  5 active torsions:
REMARK  status: ('A' for Active; 'I' for Inactive)
REMARK    1  A    between atoms: C_6  and  O_23
REMARK    2  A    between atoms: C_7  and  O_25
REMARK    3  A    between atoms: C_13  and  O_27
REMARK    4  A    between atoms: C_14  and  O_29
REMARK    5  A    between atoms: C_19  and  O_31
REMARK                            x       y       z     vdW  Elec       q    Type
REMARK                         _______ _______ _______ _____ _____    ______ ____
ROOT
ATOM      1 CL   UNL     1      -4.095   2.652  -0.631  0.00  0.00    -0.109 Cl
ATOM      2  O   UNL     1       4.779   2.279  -0.316  0.00  0.00    -0.287 OA
ATOM      3  C   UNL     1      -1.550   0.155   0.153  0.00  0.00    +0.007 C 
ATOM      4  C   UNL     1      -0.095  -0.074   0.080  0.00  0.00    -0.005 C 
ATOM      5  C   UNL     1      -2.420  -1.031  -0.147  0.00  0.00    +0.039 C 
ATOM      6  C   UNL     1      -3.891  -0.760  -0.369  0.00  0.00    +0.163 C 
ATOM      7  C   UNL     1      -4.401   0.228   0.681  0.00  0.00    +0.159 C 
ATOM      8  C   UNL     1       0.399  -1.468   0.168  0.00  0.00    -0.001 C 
ATOM      9  C   UNL     1       0.981   0.728  -0.105  0.00  0.00    -0.014 C 
ATOM     10  C   UNL     1      -3.607   1.539   0.692  0.00  0.00    +0.140 C 
ATOM     11  C   UNL     1       2.166  -0.129   0.012  0.00  0.00    +0.073 C 
ATOM     12  C   UNL     1       1.849  -1.468   0.202  0.00  0.00    -0.014 C 
ATOM     13  C   UNL     1      -2.116   1.309   0.584  0.00  0.00    +0.150 C 
ATOM     14  C   UNL     1      -1.869  -2.275  -0.142  0.00  0.00    +0.132 C 
ATOM     15  C   UNL     1      -0.446  -2.503   0.085  0.00  0.00    +0.036 C 
ATOM     16  C   UNL     1       3.465   0.335  -0.052  0.00  0.00    +0.058 C 
ATOM     17  C   UNL     1       1.184   2.125  -0.392  0.00  0.00    -0.000 C 
ATOM     18  C   UNL     1       2.852  -2.405   0.339  0.00  0.00    -0.001 C 
ATOM     19  C   UNL     1       4.494  -0.591   0.089  0.00  0.00    +0.133 C 
ATOM     20  C   UNL     1       3.659   1.786  -0.277  0.00  0.00    +0.195 C 
ATOM     21  C   UNL     1       2.429   2.630  -0.470  0.00  0.00    +0.042 C 
ATOM     22  C   UNL     1       4.182  -1.954   0.285  0.00  0.00    +0.036 C 
ENDROOT
BRANCH   6  23
ATOM     23  O   UNL     1      -4.055  -0.252  -1.691  0.00  0.00    -0.377 OA
ATOM     24  H   UNL     1      -3.723  -0.901  -2.331  0.00  0.00    +0.211 HD
ENDBRANCH   6  23
BRANCH   7  25
ATOM     25  O   UNL     1      -5.793   0.458   0.494  0.00  0.00    -0.380 OA
ATOM     26  H   UNL     1      -6.263  -0.390   0.492  0.00  0.00    +0.211 HD
ENDBRANCH   7  25
BRANCH  13  27
ATOM     27  O   UNL     1      -1.355   2.357   1.068  0.00  0.00    -0.379 OA
ATOM     28  H   UNL     1      -0.420   2.307   1.044  0.00  0.00    +0.211 HD
ENDBRANCH  13  27
BRANCH  14  29
ATOM     29  O   UNL     1      -2.552  -3.446  -0.381  0.00  0.00    -0.506 OA
ATOM     30  H   UNL     1      -3.475  -3.426  -0.542  0.00  0.00    +0.292 HD
ENDBRANCH  14  29
BRANCH  19  31
ATOM     31  O   UNL     1       5.805  -0.225   0.040  0.00  0.00    -0.506 OA
ATOM     32  H   UNL     1       6.036   0.674  -0.089  0.00  0.00    +0.292 HD
ENDBRANCH  19  31
TORSDOF 5
