REMARK  Name = 13709
REMARK  6 active torsions:
REMARK  status: ('A' for Active; 'I' for Inactive)
REMARK    1  A    between atoms: N_3  and  C_9
REMARK    2  A    between atoms: C_6  and  O_7
REMARK    3  A    between atoms: C_9  and  S_10
REMARK    4  A    between atoms: S_10  and  P_12
REMARK    5  A    between atoms: P_12  and  O_13
REMARK    6  A    between atoms: P_12  and  O_15
REMARK                            x       y       z     vdW  Elec       q    Type
REMARK                         _______ _______ _______ _____ _____    ______ ____
ROOT
ATOM      1  S   UNL     1       3.571  -1.398  -0.356  0.00  0.00    +0.032 S 
ATOM      2  O   UNL     1       1.352  -2.777  -0.060  0.00  0.00    -0.258 OA
ATOM      3  N   UNL     1       1.268  -0.450   0.257  0.00  0.00    -0.196 N 
ATOM      4  N   UNL     1       2.088   0.654   0.224  0.00  0.00    -0.121 NA
ATOM      5  C   UNL     1       1.867  -1.671  -0.028  0.00  0.00    +0.313 A 
ATOM      6  C   UNL     1       3.291   0.295  -0.079  0.00  0.00    +0.279 A 
ENDROOT
BRANCH   6   7
ATOM      7  O   UNL     1       4.303   1.183  -0.181  0.00  0.00    -0.451 OA
ATOM      8  C   UNL     1       3.870   2.515   0.081  0.00  0.00    +0.255 C 
ENDBRANCH   6   7
BRANCH   3   9
ATOM      9  C   UNL     1      -0.116  -0.268   0.575  0.00  0.00    +0.197 C 
BRANCH   9  10
ATOM     10  S   UNL     1      -1.081   0.024  -0.919  0.00  0.00    -0.037 S 
BRANCH  10  12
ATOM     11  S   UNL     1      -4.516   0.372  -1.595  0.00  0.00    +0.003 S 
ATOM     12  P   UNL     1      -3.087   0.269  -0.254  0.00  0.00    +0.233 P 
BRANCH  12  13
ATOM     13  O   UNL     1      -3.097   1.550   0.761  0.00  0.00    -0.307 OA
ATOM     14  C   UNL     1      -2.888   2.861   0.263  0.00  0.00    +0.182 C 
ENDBRANCH  12  13
BRANCH  12  15
ATOM     15  O   UNL     1      -3.369  -0.900   0.855  0.00  0.00    -0.307 OA
ATOM     16  C   UNL     1      -3.456  -2.259   0.458  0.00  0.00    +0.182 C 
ENDBRANCH  12  15
ENDBRANCH  10  12
ENDBRANCH   9  10
ENDBRANCH   3   9
TORSDOF 6
