REMARK  Name = 137092986
REMARK  3 active torsions:
REMARK  status: ('A' for Active; 'I' for Inactive)
REMARK    1  A    between atoms: C_10  and  O_21
REMARK    2  A    between atoms: C_12  and  C_23
REMARK    3  A    between atoms: C_23  and  O_24
REMARK                            x       y       z     vdW  Elec       q    Type
REMARK                         _______ _______ _______ _____ _____    ______ ____
ROOT
ATOM      1  O   UNL     1      -1.924   1.074  -0.219  0.00  0.00    -0.335 OA
ATOM      2  O   UNL     1       4.340  -1.431   0.675  0.00  0.00    -0.267 OA
ATOM      3  N   UNL     1       0.069  -0.396  -0.198  0.00  0.00    -0.216 N 
ATOM      4  N   UNL     1       1.449  -2.048   0.393  0.00  0.00    -0.382 NA
ATOM      5  N   UNL     1       1.575   1.468  -0.461  0.00  0.00    -0.355 NA
ATOM      6  N   UNL     1       3.806   0.753   0.046  0.00  0.00    -0.242 N 
ATOM      7  N   UNL     1       3.371   2.978  -0.588  0.00  0.00    -0.321 N 
ATOM      8  C   UNL     1      -2.005  -1.161   0.289  0.00  0.00    +0.085 C 
ATOM      9  C   UNL     1      -1.292  -0.133  -0.590  0.00  0.00    +0.202 C 
ATOM     10  C   UNL     1      -3.420  -0.860  -0.107  0.00  0.00    +0.145 C 
ATOM     11  C   UNL     1      -1.138  -2.416   0.109  0.00  0.00    +0.082 C 
ATOM     12  C   UNL     1      -3.350   0.702  -0.153  0.00  0.00    +0.173 C 
ATOM     13  C   UNL     1       0.205  -1.737   0.120  0.00  0.00    +0.168 C 
ATOM     14  C   UNL     1       1.273   0.184  -0.174  0.00  0.00    +0.228 C 
ATOM     15  C   UNL     1       2.111  -0.852   0.206  0.00  0.00    +0.230 C 
ATOM     16  C   UNL     1       3.518  -0.587   0.344  0.00  0.00    +0.286 C 
ATOM     17  C   UNL     1       2.858   1.730  -0.342  0.00  0.00    +0.240 C 
ATOM     18  H   UNL     1       4.746   1.038   0.112  0.00  0.00    +0.159 HD
ATOM     19  H   UNL     1       2.773   3.710  -0.862  0.00  0.00    +0.146 HD
ATOM     20  H   UNL     1       4.337   3.141  -0.490  0.00  0.00    +0.146 HD
ENDROOT
BRANCH  10  21
ATOM     21  O   UNL     1      -3.699  -1.390  -1.395  0.00  0.00    -0.382 OA
ATOM     22  H   UNL     1      -3.739  -2.357  -1.345  0.00  0.00    +0.210 HD
ENDBRANCH  10  21
BRANCH  12  23
ATOM     23  C   UNL     1      -3.932   1.357   1.088  0.00  0.00    +0.169 C 
BRANCH  23  24
ATOM     24  O   UNL     1      -3.814   2.764   0.960  0.00  0.00    -0.379 OA
ATOM     25  H   UNL     1      -4.183   3.193   1.748  0.00  0.00    +0.211 HD
ENDBRANCH  23  24
ENDBRANCH  12  23
TORSDOF 3
