REMARK  Name = 137014983
REMARK  6 active torsions:
REMARK  status: ('A' for Active; 'I' for Inactive)
REMARK    1  A    between atoms: N_4  and  C_10
REMARK    2  A    between atoms: N_4  and  C_16
REMARK    3  A    between atoms: C_6  and  O_12
REMARK    4  A    between atoms: C_7  and  O_14
REMARK    5  A    between atoms: C_9  and  C_18
REMARK    6  A    between atoms: C_18  and  O_19
REMARK                            x       y       z     vdW  Elec       q    Type
REMARK                         _______ _______ _______ _____ _____    ______ ____
ROOT
ATOM      1  S   UNL     1       1.518   0.501   1.442  0.00  0.00    -0.078 S 
ATOM      2  O   UNL     1      -0.931   0.978   0.487  0.00  0.00    -0.341 OA
ATOM      3  N   UNL     1       0.965  -1.262  -0.361  0.00  0.00    -0.272 NA
ATOM      4  C   UNL     1      -0.153  -1.371   0.564  0.00  0.00    +0.123 C 
ATOM      5  C   UNL     1      -1.438  -1.796  -0.149  0.00  0.00    +0.157 C 
ATOM      6  C   UNL     1      -2.156  -0.634  -0.835  0.00  0.00    +0.168 C 
ATOM      7  C   UNL     1      -0.245  -0.001   1.264  0.00  0.00    +0.182 C 
ATOM      8  C   UNL     1      -2.245   0.581   0.096  0.00  0.00    +0.175 C 
ATOM      9  C   UNL     1       1.975  -0.412   0.002  0.00  0.00    +0.181 C 
ATOM     10  H   UNL     1       0.994  -1.772  -1.203  0.00  0.00    +0.125 HD
ENDROOT
BRANCH   5  11
ATOM     11  O   UNL     1      -2.333  -2.346   0.822  0.00  0.00    -0.380 OA
ATOM     12  H   UNL     1      -1.903  -3.088   1.275  0.00  0.00    +0.211 HD
ENDBRANCH   5  11
BRANCH   6  13
ATOM     13  O   UNL     1      -1.466  -0.293  -2.034  0.00  0.00    -0.379 OA
ATOM     14  H   UNL     1      -1.418  -1.071  -2.612  0.00  0.00    +0.211 HD
ENDBRANCH   6  13
BRANCH   9  15
ATOM     15  N   UNL     1       3.124  -0.224  -0.549  0.00  0.00    -0.194 NA
BRANCH  15  16
ATOM     16  C   UNL     1       3.957   0.771   0.113  0.00  0.00    +0.091 C 
ATOM     17  C   UNL     1       5.278   0.878  -0.621  0.00  0.00    +0.020 C 
ENDBRANCH  15  16
ENDBRANCH   9  15
BRANCH   8  18
ATOM     18  C   UNL     1      -2.898   1.779  -0.584  0.00  0.00    +0.169 C 
BRANCH  18  19
ATOM     19  O   UNL     1      -2.950   2.850   0.342  0.00  0.00    -0.379 OA
ATOM     20  H   UNL     1      -3.364   3.620  -0.079  0.00  0.00    +0.211 HD
ENDBRANCH  18  19
ENDBRANCH   8  18
TORSDOF 6
