137007049
  -OEChem-03292013293D

 40 44  0     1  0  0  0  0  0999 V2000
   -4.0946    2.6522   -0.6306 Cl  0  0  0  0  0  0  0  0  0  0  0  0
   -4.0553   -0.2521   -1.6912 O   0  0  0  0  0  0  0  0  0  0  0  0
   -5.7930    0.4582    0.4941 O   0  0  0  0  0  0  0  0  0  0  0  0
   -1.3549    2.3572    1.0680 O   0  0  0  0  0  0  0  0  0  0  0  0
   -2.5524   -3.4464   -0.3812 O   0  0  0  0  0  0  0  0  0  0  0  0
    5.8046   -0.2253    0.0401 O   0  0  0  0  0  0  0  0  0  0  0  0
    4.7788    2.2786   -0.3158 O   0  0  0  0  0  0  0  0  0  0  0  0
   -1.5497    0.1554    0.1533 C   0  0  0  0  0  0  0  0  0  0  0  0
   -0.0946   -0.0738    0.0801 C   0  0  0  0  0  0  0  0  0  0  0  0
   -2.4201   -1.0312   -0.1467 C   0  0  0  0  0  0  0  0  0  0  0  0
   -3.8909   -0.7604   -0.3692 C   0  0  1  0  0  0  0  0  0  0  0  0
   -4.4006    0.2284    0.6806 C   0  0  1  0  0  0  0  0  0  0  0  0
    0.3990   -1.4679    0.1683 C   0  0  0  0  0  0  0  0  0  0  0  0
    0.9808    0.7281   -0.1055 C   0  0  0  0  0  0  0  0  0  0  0  0
   -3.6065    1.5393    0.6923 C   0  0  1  0  0  0  0  0  0  0  0  0
    2.1664   -0.1285    0.0120 C   0  0  0  0  0  0  0  0  0  0  0  0
    1.8494   -1.4685    0.2022 C   0  0  0  0  0  0  0  0  0  0  0  0
   -2.1159    1.3094    0.5839 C   0  0  0  0  0  0  0  0  0  0  0  0
   -1.8689   -2.2749   -0.1424 C   0  0  0  0  0  0  0  0  0  0  0  0
   -0.4464   -2.5032    0.0851 C   0  0  0  0  0  0  0  0  0  0  0  0
    3.4645    0.3351   -0.0522 C   0  0  0  0  0  0  0  0  0  0  0  0
    1.1842    2.1246   -0.3917 C   0  0  0  0  0  0  0  0  0  0  0  0
    2.8519   -2.4053    0.3393 C   0  0  0  0  0  0  0  0  0  0  0  0
    4.4943   -0.5909    0.0894 C   0  0  0  0  0  0  0  0  0  0  0  0
    3.6588    1.7859   -0.2770 C   0  0  0  0  0  0  0  0  0  0  0  0
    2.4290    2.6303   -0.4702 C   0  0  0  0  0  0  0  0  0  0  0  0
    4.1823   -1.9542    0.2851 C   0  0  0  0  0  0  0  0  0  0  0  0
   -4.4847   -1.6800   -0.3123 H   0  0  0  0  0  0  0  0  0  0  0  0
   -4.2942   -0.2360    1.6711 H   0  0  0  0  0  0  0  0  0  0  0  0
   -3.8469    2.0714    1.6199 H   0  0  0  0  0  0  0  0  0  0  0  0
   -0.0696   -3.5211    0.1049 H   0  0  0  0  0  0  0  0  0  0  0  0
    0.3375    2.7712   -0.5817 H   0  0  0  0  0  0  0  0  0  0  0  0
    2.6334   -3.4576    0.4825 H   0  0  0  0  0  0  0  0  0  0  0  0
   -3.7388   -0.9313   -2.3115 H   0  0  0  0  0  0  0  0  0  0  0  0
    2.5877    3.6802   -0.6928 H   0  0  0  0  0  0  0  0  0  0  0  0
    4.9872   -2.6785    0.3925 H   0  0  0  0  0  0  0  0  0  0  0  0
   -6.2423   -0.4032    0.5333 H   0  0  0  0  0  0  0  0  0  0  0  0
   -1.9530    3.0896    1.2942 H   0  0  0  0  0  0  0  0  0  0  0  0
   -1.9445   -4.2034   -0.3434 H   0  0  0  0  0  0  0  0  0  0  0  0
    5.8739    0.7330   -0.0983 H   0  0  0  0  0  0  0  0  0  0  0  0
  1 15  1  0  0  0  0
  2 11  1  0  0  0  0
  2 34  1  0  0  0  0
  3 12  1  0  0  0  0
  3 37  1  0  0  0  0
  4 18  1  0  0  0  0
  4 38  1  0  0  0  0
  5 19  1  0  0  0  0
  5 39  1  0  0  0  0
  6 24  1  0  0  0  0
  6 40  1  0  0  0  0
  7 25  2  0  0  0  0
  8  9  1  0  0  0  0
  8 10  1  0  0  0  0
  8 18  2  0  0  0  0
  9 13  1  0  0  0  0
  9 14  2  0  0  0  0
 10 11  1  0  0  0  0
 10 19  2  0  0  0  0
 11 12  1  0  0  0  0
 11 28  1  0  0  0  0
 12 15  1  0  0  0  0
 12 29  1  0  0  0  0
 13 17  1  0  0  0  0
 13 20  2  0  0  0  0
 14 16  1  0  0  0  0
 14 22  1  0  0  0  0
 15 18  1  0  0  0  0
 15 30  1  0  0  0  0
 16 17  2  0  0  0  0
 16 21  1  0  0  0  0
 17 23  1  0  0  0  0
 19 20  1  0  0  0  0
 20 31  1  0  0  0  0
 21 24  2  0  0  0  0
 21 25  1  0  0  0  0
 22 26  2  0  0  0  0
 22 32  1  0  0  0  0
 23 27  2  0  0  0  0
 23 33  1  0  0  0  0
 24 27  1  0  0  0  0
 25 26  1  0  0  0  0
 26 35  1  0  0  0  0
 27 36  1  0  0  0  0
M  END
> <PUBCHEM_COMPOUND_CID>
137007049

> <PUBCHEM_CONFORMER_RMSD>
0.6

> <PUBCHEM_CONFORMER_DIVERSEORDER>
1
4
3
2

> <PUBCHEM_MMFF94_PARTIAL_CHARGES>
35
1 -0.29
10 -0.14
11 0.42
12 0.28
13 -0.03
14 -0.03
15 0.43
16 0.03
17 0.03
18 -0.06
19 0.08
2 -0.68
20 -0.15
21 0.09
22 -0.15
23 -0.15
24 0.08
25 0.47
26 -0.14
27 -0.15
3 -0.68
31 0.15
32 0.15
33 0.15
34 0.4
35 0.15
36 0.15
37 0.4
38 0.45
39 0.45
4 -0.53
40 0.45
5 -0.53
6 -0.53
7 -0.57

> <PUBCHEM_EFFECTIVE_ROTOR_COUNT>
0.6

> <PUBCHEM_PHARMACOPHORE_FEATURES>
13
1 2 acceptor
1 2 donor
1 3 acceptor
1 3 donor
1 4 donor
1 5 donor
1 6 donor
1 7 acceptor
5 9 13 14 16 17 rings
6 14 16 21 22 25 26 rings
6 16 17 21 23 24 27 rings
6 8 10 11 12 15 18 rings
6 8 9 10 13 19 20 rings

> <PUBCHEM_HEAVY_ATOM_COUNT>
27

> <PUBCHEM_ATOM_DEF_STEREO_COUNT>
3

> <PUBCHEM_ATOM_UDEF_STEREO_COUNT>
0

> <PUBCHEM_BOND_DEF_STEREO_COUNT>
0

> <PUBCHEM_BOND_UDEF_STEREO_COUNT>
0

> <PUBCHEM_ISOTOPIC_ATOM_COUNT>
0

> <PUBCHEM_COMPONENT_COUNT>
1

> <PUBCHEM_CACTVS_TAUTO_COUNT>
-1

> <PUBCHEM_CONFORMER_ID>
082A8FC900000001

> <PUBCHEM_MMFF94_ENERGY>
107.2309

> <PUBCHEM_FEATURE_SELFOVERLAP>
66.297

> <PUBCHEM_SHAPE_FINGERPRINT>
10411042 1 17688591559185362626
10616163 171 18268996547364812790
10967382 1 18410013226032270978
1100329 8 18410576210124047258
11578080 2 17344898831472689586
12107183 9 17763467214319557168
12236239 1 18202565068753500465
12553582 1 18191298283073494626
12633257 1 18334286557550779922
12788726 201 17703524215722635809
13140716 1 18338238287728617594
13583140 156 17312814966468472683
14117953 113 17762047744681341596
14790565 3 18339648828340840369
15196674 1 18338518646061258290
15420108 30 17046836248968093000
15442244 35 18410575063657916306
1601671 61 18410011005766371990
17349148 13 18201434753187689430
17492 89 18338518654915729522
1813 80 17240770545279780108
18681886 176 18272927237631874018
19591789 44 17906175053587845282
20691752 17 17531236318765222602
20715895 44 17977943489164001865
20775438 99 16475665736949151527
21033648 144 18337100271734805548
21033648 29 17167853158654991077
21033650 10 16629148514362504232
21267235 1 18411146809324688154
21421861 104 17823407203073338738
21857420 4 12848845766663617501
22393880 68 18269283516142486204
23227448 37 18411983572222957895
23402539 116 18272363140167589703
23558518 356 18043256949053500618
23559900 14 18271240625359829032
335352 9 18410013230490957326
3380486 145 16889223988399361834
338550 245 18334019414632042316
34934 24 18339923817747804058
350125 39 18410295779193810329
3633792 109 18337095801507306701
469060 322 17686638139581187043
474 4 18041282187705005140
5104073 3 18263640822241938818
543358 83 18409731772773269214
6034566 193 16955372721503559900
9709674 26 18271813401734635222
9981440 41 17543630189790588528

> <PUBCHEM_SHAPE_MULTIPOLES>
522.3
10.54
3.39
0.83
0.34
0.27
0.08
-2.25
0.1
0.2
0.27
-0.64
-0.13
-0.83

> <PUBCHEM_SHAPE_SELFOVERLAP>
1190.954

> <PUBCHEM_SHAPE_VOLUME>
271.7

> <PUBCHEM_COORDINATE_TYPE>
2
5
10

$$$$
