REMARK  Name = 137031865
REMARK  6 active torsions:
REMARK  status: ('A' for Active; 'I' for Inactive)
REMARK    1  A    between atoms: N_2  and  N_20
REMARK    2  A    between atoms: C_3  and  C_8
REMARK    3  A    between atoms: C_5  and  S_11
REMARK    4  A    between atoms: S_11  and  N_15
REMARK    5  A    between atoms: C_21  and  C_24
REMARK    6  A    between atoms: C_25  and  O_30
REMARK                            x       y       z     vdW  Elec       q    Type
REMARK                         _______ _______ _______ _____ _____    ______ ____
ROOT
ATOM      1  O   UNL     1       0.858   3.115  -0.331  0.00  0.00    -0.268 OA
ATOM      2  N   UNL     1       0.857   0.830   0.046  0.00  0.00    -0.203 N 
ATOM      3  C   UNL     1       0.224   2.060  -0.145  0.00  0.00    +0.265 C 
ATOM      4  H   UNL     1       0.324   0.014   0.190  0.00  0.00    +0.178 HD
ENDROOT
BRANCH   3   8
ATOM      5  C   UNL     1      -3.320   1.084   0.579  0.00  0.00    +0.122 C 
ATOM      6  C   UNL     1      -1.925   1.083   0.573  0.00  0.00    +0.024 C 
ATOM      7  C   UNL     1      -4.020   2.062  -0.127  0.00  0.00    +0.020 C 
ATOM      8  C   UNL     1      -1.230   2.061  -0.139  0.00  0.00    +0.056 C 
ATOM      9  C   UNL     1      -3.325   3.039  -0.840  0.00  0.00    +0.002 C 
ATOM     10  C   UNL     1      -1.931   3.039  -0.846  0.00  0.00    +0.005 C 
BRANCH   5  11
ATOM     11  S   UNL     1      -4.199  -0.152   1.483  0.00  0.00    +0.063 S 
ATOM     12  O   UNL     1      -3.324  -0.644   2.526  0.00  0.00    -0.153 OA
ATOM     13  O   UNL     1      -5.510   0.374   1.797  0.00  0.00    -0.153 OA
BRANCH  11  15
ATOM     14  O   UNL     1      -4.138  -2.816  -2.143  0.00  0.00    -0.351 OA
ATOM     15  N   UNL     1      -4.356  -1.353   0.273  0.00  0.00    -0.150 NA
ATOM     16  C   UNL     1      -3.101  -2.077  -0.081  0.00  0.00    +0.128 C 
ATOM     17  C   UNL     1      -5.098  -0.936  -0.954  0.00  0.00    +0.128 C 
ATOM     18  C   UNL     1      -5.366  -2.169  -1.805  0.00  0.00    +0.161 C 
ATOM     19  C   UNL     1      -3.453  -3.262  -0.970  0.00  0.00    +0.161 C 
ENDBRANCH  11  15
ENDBRANCH   5  11
ENDBRANCH   3   8
BRANCH   2  20
ATOM     20  N   UNL     1       2.207   0.768   0.031  0.00  0.00    -0.183 NA
ATOM     21  C   UNL     1       2.769  -0.391   0.212  0.00  0.00    +0.080 C 
ATOM     22  C   UNL     1       2.015  -1.680   0.475  0.00  0.00    +0.054 C 
BRANCH  21  24
ATOM     23 CL   UNL     1       7.110   0.339  -2.531  0.00  0.00    -0.082 Cl
ATOM     24  C   UNL     1       4.255  -0.460   0.156  0.00  0.00    +0.050 C 
ATOM     25  C   UNL     1       4.993  -0.899   1.255  0.00  0.00    +0.135 C 
ATOM     26  C   UNL     1       4.910  -0.076  -1.015  0.00  0.00    +0.016 C 
ATOM     27  C   UNL     1       6.385  -0.956   1.184  0.00  0.00    +0.038 C 
ATOM     28  C   UNL     1       6.302  -0.133  -1.087  0.00  0.00    +0.058 C 
ATOM     29  C   UNL     1       7.039  -0.573   0.013  0.00  0.00    +0.014 C 
BRANCH  25  30
ATOM     30  O   UNL     1       4.373  -1.278   2.408  0.00  0.00    -0.505 OA
ATOM     31  H   UNL     1       3.438  -1.245   2.470  0.00  0.00    +0.292 HD
ENDBRANCH  25  30
ENDBRANCH  21  24
ENDBRANCH   2  20
TORSDOF 6
