REMARK  Name = 137196784
REMARK  4 active torsions:
REMARK  status: ('A' for Active; 'I' for Inactive)
REMARK    1  A    between atoms: N_3  and  C1*_17
REMARK    2  A    between atoms: C3*_18  and  O3*_21
REMARK    3  A    between atoms: C4*_20  and  C5*_23
REMARK    4  A    between atoms: C5*_23  and  O5*_24
REMARK                            x       y       z     vdW  Elec       q    Type
REMARK                         _______ _______ _______ _____ _____    ______ ____
ROOT
ATOM      1  I   UNL     1       0.028   4.223   0.330  0.00  0.00    +0.012 I 
ATOM      2  O   UNL     1       4.488   0.321  -0.194  0.00  0.00    -0.267 OA
ATOM      3  N   UNL     1       0.059   1.130   0.176  0.00  0.00    -0.208 N 
ATOM      4  N   UNL     1       2.092   2.056   0.070  0.00  0.00    -0.372 NA
ATOM      5  N   UNL     1       0.630  -1.217   0.018  0.00  0.00    -0.355 NA
ATOM      6  N   UNL     1       3.004  -1.482  -0.172  0.00  0.00    -0.242 N 
ATOM      7  N   UNL     1       1.581  -3.358  -0.158  0.00  0.00    -0.321 N 
ATOM      8  C   UNL     1       0.942   0.098   0.059  0.00  0.00    +0.228 C 
ATOM      9  C   UNL     1       0.798   2.288   0.178  0.00  0.00    +0.220 C 
ATOM     10  C   UNL     1       2.177   0.697  -0.004  0.00  0.00    +0.231 C 
ATOM     11  C   UNL     1       3.349  -0.124  -0.131  0.00  0.00    +0.286 C 
ATOM     12  C   UNL     1       1.686  -1.992  -0.099  0.00  0.00    +0.240 C 
ATOM     13  H   UNL     1       3.737  -2.133  -0.259  0.00  0.00    +0.159 HD
ATOM     14  H   UNL     1       0.696  -3.786  -0.113  0.00  0.00    +0.146 HD
ATOM     15  H   UNL     1       2.392  -3.910  -0.246  0.00  0.00    +0.146 HD
ENDROOT
BRANCH   3  17
ATOM     16  O4* UNL     1      -1.836  -0.199   0.963  0.00  0.00    -0.335 OA
ATOM     17  C1* UNL     1      -1.440   1.007   0.282  0.00  0.00    +0.203 C 
ATOM     18  C3* UNL     1      -3.416   0.244  -0.759  0.00  0.00    +0.144 C 
ATOM     19  C2* UNL     1      -2.136   0.981  -1.075  0.00  0.00    +0.083 C 
ATOM     20  C4* UNL     1      -2.977  -0.770   0.290  0.00  0.00    +0.173 C 
BRANCH  18  21
ATOM     21  O3* UNL     1      -4.337   1.164  -0.179  0.00  0.00    -0.382 OA
ATOM     22  H3* UNL     1      -4.615   1.809  -0.848  0.00  0.00    +0.210 HD
ENDBRANCH  18  21
BRANCH  20  23
ATOM     23  C5* UNL     1      -2.546  -2.098  -0.319  0.00  0.00    +0.169 C 
BRANCH  23  24
ATOM     24  O5* UNL     1      -2.147  -2.968   0.726  0.00  0.00    -0.379 OA
ATOM     25  H5* UNL     1      -1.870  -3.818   0.350  0.00  0.00    +0.211 HD
ENDBRANCH  23  24
ENDBRANCH  20  23
ENDBRANCH   3  17
TORSDOF 4
