REMARK  Name = 13711
REMARK  4 active torsions:
REMARK  status: ('A' for Active; 'I' for Inactive)
REMARK    1  A    between atoms: N1_2  and  C1*_15
REMARK    2  A    between atoms: C3*_12  and  O3*_16
REMARK    3  A    between atoms: C4*_14  and  C5*_18
REMARK    4  A    between atoms: C5*_18  and  O5*_19
REMARK                            x       y       z     vdW  Elec       q    Type
REMARK                         _______ _______ _______ _____ _____    ______ ____
ROOT
ATOM      1  O2  C   A   1      -1.597   2.430  -0.439  0.00  0.00    -0.193 OA
ATOM      2  N1  C   A   1      -0.648   0.344  -0.172  0.00  0.00    -0.180 N 
ATOM      3  N3  C   A   1      -3.029   0.710  -0.061  0.00  0.00    -0.306 NA
ATOM      4  N4  C   A   1      -4.490  -1.056   0.328  0.00  0.00    -0.332 N 
ATOM      5  C6  C   A   1      -0.864  -1.004   0.061  0.00  0.00    +0.083 C 
ATOM      6  C2  C   A   1      -1.755   1.226  -0.235  0.00  0.00    +0.275 C 
ATOM      7  C5  C   A   1      -2.080  -1.519   0.232  0.00  0.00    +0.065 C 
ATOM      8  C4  C   A   1      -3.217  -0.565   0.158  0.00  0.00    +0.193 C 
ATOM      9  H41 C   A   1      -5.263  -0.447   0.285  0.00  0.00    +0.145 HD
ATOM     10  H42 C   A   1      -4.629  -2.017   0.494  0.00  0.00    +0.145 HD
ENDROOT
BRANCH   2  15
ATOM     11  O4* C   A   1       1.474  -0.221  -0.978  0.00  0.00    -0.334 OA
ATOM     12  C3* C   A   1       2.821   0.777   0.698  0.00  0.00    +0.144 C 
ATOM     13  C2* C   A   1       1.379   1.136   0.976  0.00  0.00    +0.084 C 
ATOM     14  C4* C   A   1       2.705  -0.406  -0.253  0.00  0.00    +0.173 C 
ATOM     15  C1* C   A   1       0.699   0.805  -0.342  0.00  0.00    +0.209 C 
BRANCH  12  16
ATOM     16  O3* C   A   1       3.469   1.865   0.042  0.00  0.00    -0.382 OA
ATOM     17  H3* C   A   1       3.540   2.615   0.653  0.00  0.00    +0.210 HD
ENDBRANCH  12  16
BRANCH  14  18
ATOM     18  C5* C   A   1       2.625  -1.743   0.473  0.00  0.00    +0.169 C 
BRANCH  18  19
ATOM     19  O5* C   A   1       2.508  -2.779  -0.489  0.00  0.00    -0.379 OA
ATOM     20  H5* C   A   1       2.456  -3.636  -0.036  0.00  0.00    +0.211 HD
ENDBRANCH  18  19
ENDBRANCH  14  18
ENDBRANCH   2  15
TORSDOF 4
