137199655
  -OEChem-03292013293D

 46 49  0     1  0  0  0  0  0999 V2000
   -3.7077    0.8829    1.0717 O   0  0  0  0  0  0  0  0  0  0  0  0
   -1.5298    1.9224   -1.6032 O   0  0  0  0  0  0  0  0  0  0  0  0
   -2.9139    3.6250    0.0575 O   0  0  0  0  0  0  0  0  0  0  0  0
   -6.4956    0.6435    0.9248 O   0  0  0  0  0  0  0  0  0  0  0  0
    0.0377   -4.6546   -0.3572 O   0  0  0  0  0  0  0  0  0  0  0  0
   -2.1053   -0.7089    0.1465 N   0  0  0  0  0  0  0  0  0  0  0  0
   -2.3582   -2.9167   -0.1055 N   0  0  0  0  0  0  0  0  0  0  0  0
    0.3086   -0.5323    0.1178 N   0  0  0  0  0  0  0  0  0  0  0  0
    1.2964   -2.6980   -0.1547 N   0  0  0  0  0  0  0  0  0  0  0  0
    2.6441   -0.7774    0.0412 N   0  0  0  0  0  0  0  0  0  0  0  0
   -2.7226    1.4610   -1.0011 C   0  0  1  0  0  0  0  0  0  0  0  0
   -2.4827    0.7428    0.3229 C   0  0  1  0  0  0  0  0  0  0  0  0
   -3.6500    2.5854   -0.5853 C   0  0  1  0  0  0  0  0  0  0  0  0
   -4.5232    1.9098    0.4643 C   0  0  1  0  0  0  0  0  0  0  0  0
   -5.7615    1.2485   -0.1251 C   0  0  0  0  0  0  0  0  0  0  0  0
   -0.8478   -1.2293    0.0602 C   0  0  0  0  0  0  0  0  0  0  0  0
   -2.9797   -1.7630    0.0415 C   0  0  0  0  0  0  0  0  0  0  0  0
   -1.0365   -2.5815   -0.0934 C   0  0  0  0  0  0  0  0  0  0  0  0
    0.1088   -3.4403   -0.2170 C   0  0  0  0  0  0  0  0  0  0  0  0
    1.3750   -1.2945    0.0072 C   0  0  0  0  0  0  0  0  0  0  0  0
    2.8943    0.6216    0.1988 C   0  0  0  0  0  0  0  0  0  0  0  0
    4.3713    0.9003    0.1640 C   0  0  0  0  0  0  0  0  0  0  0  0
    5.1124    0.8848    1.3457 C   0  0  0  0  0  0  0  0  0  0  0  0
    5.0006    1.1744   -1.0502 C   0  0  0  0  0  0  0  0  0  0  0  0
    6.4827    1.1434    1.3130 C   0  0  0  0  0  0  0  0  0  0  0  0
    6.3708    1.4330   -1.0830 C   0  0  0  0  0  0  0  0  0  0  0  0
    7.1119    1.4176    0.0987 C   0  0  0  0  0  0  0  0  0  0  0  0
   -3.2310    0.7969   -1.7107 H   0  0  0  0  0  0  0  0  0  0  0  0
   -1.6677    1.1883    0.9059 H   0  0  0  0  0  0  0  0  0  0  0  0
   -4.1975    3.0290   -1.4218 H   0  0  0  0  0  0  0  0  0  0  0  0
   -4.8159    2.5937    1.2690 H   0  0  0  0  0  0  0  0  0  0  0  0
   -5.4970    0.4627   -0.8395 H   0  0  0  0  0  0  0  0  0  0  0  0
   -6.3998    1.9868   -0.6203 H   0  0  0  0  0  0  0  0  0  0  0  0
   -1.7813    2.4574   -2.3752 H   0  0  0  0  0  0  0  0  0  0  0  0
   -3.5523    4.3034    0.3368 H   0  0  0  0  0  0  0  0  0  0  0  0
   -4.0525   -1.6313    0.0755 H   0  0  0  0  0  0  0  0  0  0  0  0
   -7.2808    0.2317    0.5256 H   0  0  0  0  0  0  0  0  0  0  0  0
    2.1704   -3.2101   -0.2324 H   0  0  0  0  0  0  0  0  0  0  0  0
    3.4358   -1.4086   -0.0451 H   0  0  0  0  0  0  0  0  0  0  0  0
    2.4768    0.9819    1.1476 H   0  0  0  0  0  0  0  0  0  0  0  0
    2.3978    1.1941   -0.5950 H   0  0  0  0  0  0  0  0  0  0  0  0
    4.6340    0.6707    2.2977 H   0  0  0  0  0  0  0  0  0  0  0  0
    4.4345    1.1875   -1.9779 H   0  0  0  0  0  0  0  0  0  0  0  0
    7.0599    1.1309    2.2329 H   0  0  0  0  0  0  0  0  0  0  0  0
    6.8610    1.6460   -2.0285 H   0  0  0  0  0  0  0  0  0  0  0  0
    8.1789    1.6188    0.0732 H   0  0  0  0  0  0  0  0  0  0  0  0
  1 12  1  0  0  0  0
  1 14  1  0  0  0  0
  2 11  1  0  0  0  0
  2 34  1  0  0  0  0
  3 13  1  0  0  0  0
  3 35  1  0  0  0  0
  4 15  1  0  0  0  0
  4 37  1  0  0  0  0
  5 19  2  0  0  0  0
  6 12  1  0  0  0  0
  6 16  1  0  0  0  0
  6 17  1  0  0  0  0
  7 17  2  0  0  0  0
  7 18  1  0  0  0  0
  8 16  1  0  0  0  0
  8 20  2  0  0  0  0
  9 19  1  0  0  0  0
  9 20  1  0  0  0  0
  9 38  1  0  0  0  0
 10 20  1  0  0  0  0
 10 21  1  0  0  0  0
 10 39  1  0  0  0  0
 11 12  1  0  0  0  0
 11 13  1  0  0  0  0
 11 28  1  0  0  0  0
 12 29  1  0  0  0  0
 13 14  1  0  0  0  0
 13 30  1  0  0  0  0
 14 15  1  0  0  0  0
 14 31  1  0  0  0  0
 15 32  1  0  0  0  0
 15 33  1  0  0  0  0
 16 18  2  0  0  0  0
 17 36  1  0  0  0  0
 18 19  1  0  0  0  0
 21 22  1  0  0  0  0
 21 40  1  0  0  0  0
 21 41  1  0  0  0  0
 22 23  2  0  0  0  0
 22 24  1  0  0  0  0
 23 25  1  0  0  0  0
 23 42  1  0  0  0  0
 24 26  2  0  0  0  0
 24 43  1  0  0  0  0
 25 27  2  0  0  0  0
 25 44  1  0  0  0  0
 26 27  1  0  0  0  0
 26 45  1  0  0  0  0
 27 46  1  0  0  0  0
M  END
> <PUBCHEM_COMPOUND_CID>
137199655

> <PUBCHEM_CONFORMER_RMSD>
0.8

> <PUBCHEM_CONFORMER_DIVERSEORDER>
1
112
59
90
67
124
96
92
111
107
36
126
123
72
20
66
81
110
130
133
62
80
4
138
129
79
143
39
95
86
46
70
83
122
50
89
144
6
115
52
114
139
5
108
137
38
30
128
101
125
16
56
103
91
61
12
135
98
51
69
9
73
105
3
148
54
74
99
25
117
65
64
120
14
82
87
127
68
94
116
121
142
78
88
57
84
131
134
11
97
76
147
31
104
106
49
15
8
58
136
93
33
53
55
63
7
119
145
60
21
22
109
100
26
113
18
146
10
44
118
2
40
45
132
34
140
75
102
71
141
43
13
35
24
47
48
17
77
28
19
29
27
23
42
32
37
85
41

> <PUBCHEM_MMFF94_PARTIAL_CHARGES>
38
1 -0.56
10 -0.82
11 0.28
12 0.54
13 0.28
14 0.28
15 0.28
16 -0.03
17 0.04
18 0.14
19 0.72
2 -0.68
20 0.56
21 0.51
22 -0.14
23 -0.15
24 -0.15
25 -0.15
26 -0.15
27 -0.15
3 -0.68
34 0.4
35 0.4
36 0.15
37 0.4
38 0.37
39 0.4
4 -0.68
42 0.15
43 0.15
44 0.15
45 0.15
46 0.15
5 -0.57
6 0.05
7 -0.57
8 -0.58
9 -0.49

> <PUBCHEM_EFFECTIVE_ROTOR_COUNT>
6

> <PUBCHEM_PHARMACOPHORE_FEATURES>
15
1 1 acceptor
1 10 donor
1 2 acceptor
1 2 donor
1 3 acceptor
1 3 donor
1 4 acceptor
1 4 donor
1 5 acceptor
1 9 donor
3 6 7 17 cation
5 1 11 12 13 14 rings
5 6 7 16 17 18 rings
6 22 23 24 25 26 27 rings
6 8 9 16 18 19 20 rings

> <PUBCHEM_HEAVY_ATOM_COUNT>
27

> <PUBCHEM_ATOM_DEF_STEREO_COUNT>
4

> <PUBCHEM_ATOM_UDEF_STEREO_COUNT>
0

> <PUBCHEM_BOND_DEF_STEREO_COUNT>
0

> <PUBCHEM_BOND_UDEF_STEREO_COUNT>
0

> <PUBCHEM_ISOTOPIC_ATOM_COUNT>
0

> <PUBCHEM_COMPONENT_COUNT>
1

> <PUBCHEM_CACTVS_TAUTO_COUNT>
-1

> <PUBCHEM_CONFORMER_ID>
082D802700000001

> <PUBCHEM_MMFF94_ENERGY>
65.5464

> <PUBCHEM_FEATURE_SELFOVERLAP>
76.317

> <PUBCHEM_SHAPE_FINGERPRINT>
10 15 18113622300259748272
10074138 170 18115581694289040579
10165383 225 18342179959974119977
10411042 1 17690561214081376343
10493431 412 18410857646583241021
105312 117 18413669132523128534
10670039 82 18337390543474223660
11049842 53 18117302336172456358
12107183 9 18262786369196400626
12390115 104 18343029899373078490
12422481 6 17531525374353923572
12596602 18 16660647383800037776
14257110 125 18409731754954882184
14508225 48 17694770122953785895
1454969 45 18410009962447950295
15021287 119 17167849890965886116
15230672 131 18409168771977125022
16126227 98 18341055202249249896
18785283 64 18119806907116299730
21033648 29 17845640578080429296
21236236 1 18339639044072705894
21279426 13 18201447956930208830
21302155 148 18334294258295344196
21756936 100 18342449374819495014
23198884 109 16343707621017728945
23559900 14 17688868636668566547
24771750 20 18269007414223448774
25019877 29 18272655666412002823
283562 15 18339073904214283171
350125 39 18338799017447534913
50009960 94 16955386972827125451
508706 21 18127397055120803080
5219985 13 18411980252271370766
5385378 56 18340493253239051226
6327066 14 18335697217778496229
6700243 42 17478090436484214430
7288768 16 18186522085802551379
7808743 9 18409728473884789336
9981440 41 18408323272154890211

> <PUBCHEM_SHAPE_MULTIPOLES>
501.4
15.62
4.25
1.03
18.29
4.12
0.02
-14.87
-2.34
-3.79
0.72
0.72
-0.53
0.05

> <PUBCHEM_SHAPE_SELFOVERLAP>
1091.713

> <PUBCHEM_SHAPE_VOLUME>
271.5

> <PUBCHEM_COORDINATE_TYPE>
2
5
10

$$$$
