REMARK  Name = 137199655
REMARK  7 active torsions:
REMARK  status: ('A' for Active; 'I' for Inactive)
REMARK    1  A    between atoms: N_2  and  C1*_16
REMARK    2  A    between atoms: N_6  and  C_26
REMARK    3  A    between atoms: C2*_15  and  O2*_19
REMARK    4  A    between atoms: C3*_17  and  O3*_21
REMARK    5  A    between atoms: C4*_18  and  C5*_23
REMARK    6  A    between atoms: C5*_23  and  O5*_24
REMARK    7  A    between atoms: C_26  and  C_27
REMARK                            x       y       z     vdW  Elec       q    Type
REMARK                         _______ _______ _______ _____ _____    ______ ____
ROOT
ATOM      1  O   UNL     1       0.038  -4.655  -0.357  0.00  0.00    -0.268 OA
ATOM      2  N   UNL     1      -2.105  -0.709   0.146  0.00  0.00    -0.237 N 
ATOM      3  N   UNL     1      -2.358  -2.917  -0.105  0.00  0.00    -0.240 NA
ATOM      4  N   UNL     1       0.309  -0.532   0.118  0.00  0.00    -0.356 NA
ATOM      5  N   UNL     1       1.296  -2.698  -0.155  0.00  0.00    -0.242 N 
ATOM      6  N   UNL     1       2.644  -0.777   0.041  0.00  0.00    -0.292 N 
ATOM      7  C   UNL     1      -0.848  -1.229   0.060  0.00  0.00    +0.211 C 
ATOM      8  C   UNL     1      -2.980  -1.763   0.042  0.00  0.00    +0.224 C 
ATOM      9  C   UNL     1      -1.036  -2.582  -0.093  0.00  0.00    +0.176 C 
ATOM     10  C   UNL     1       0.109  -3.440  -0.217  0.00  0.00    +0.273 C 
ATOM     11  C   UNL     1       1.375  -1.294   0.007  0.00  0.00    +0.243 C 
ATOM     12  H   UNL     1       2.144  -3.193  -0.230  0.00  0.00    +0.159 HD
ATOM     13  H   UNL     1       3.410  -1.390  -0.046  0.00  0.00    +0.151 HD
ENDROOT
BRANCH   2  16
ATOM     14  O4* UNL     1      -3.708   0.883   1.072  0.00  0.00    -0.333 OA
ATOM     15  C2* UNL     1      -2.723   1.461  -1.001  0.00  0.00    +0.187 C 
ATOM     16  C1* UNL     1      -2.483   0.743   0.323  0.00  0.00    +0.226 C 
ATOM     17  C3* UNL     1      -3.650   2.585  -0.585  0.00  0.00    +0.171 C 
ATOM     18  C4* UNL     1      -4.523   1.910   0.464  0.00  0.00    +0.175 C 
BRANCH  15  19
ATOM     19  O2* UNL     1      -1.530   1.922  -1.603  0.00  0.00    -0.378 OA
ATOM     20  H2* UNL     1      -0.977   1.164  -1.848  0.00  0.00    +0.211 HD
ENDBRANCH  15  19
BRANCH  17  21
ATOM     21  O3* UNL     1      -2.914   3.625   0.058  0.00  0.00    -0.379 OA
ATOM     22  H3* UNL     1      -2.349   4.071  -0.593  0.00  0.00    +0.211 HD
ENDBRANCH  17  21
BRANCH  18  23
ATOM     23  C5* UNL     1      -5.761   1.248  -0.125  0.00  0.00    +0.169 C 
BRANCH  23  24
ATOM     24  O5* UNL     1      -6.496   0.643   0.925  0.00  0.00    -0.379 OA
ATOM     25  H5* UNL     1      -7.288   0.218   0.562  0.00  0.00    +0.211 HD
ENDBRANCH  23  24
ENDBRANCH  18  23
ENDBRANCH   2  16
BRANCH   6  26
ATOM     26  C   UNL     1       2.894   0.622   0.199  0.00  0.00    +0.117 C 
BRANCH  26  27
ATOM     27  C   UNL     1       4.371   0.900   0.164  0.00  0.00    -0.003 C 
ATOM     28  C   UNL     1       5.112   0.885   1.346  0.00  0.00    -0.003 C 
ATOM     29  C   UNL     1       5.001   1.174  -1.050  0.00  0.00    -0.003 C 
ATOM     30  C   UNL     1       6.483   1.143   1.313  0.00  0.00    -0.000 C 
ATOM     31  C   UNL     1       6.371   1.433  -1.083  0.00  0.00    -0.000 C 
ATOM     32  C   UNL     1       7.112   1.418   0.099  0.00  0.00    -0.000 C 
ENDBRANCH  26  27
ENDBRANCH   6  26
TORSDOF 7
