REMARK  Name = 137138799
REMARK  6 active torsions:
REMARK  status: ('A' for Active; 'I' for Inactive)
REMARK    1  A    between atoms: N_4  and  C_10
REMARK    2  A    between atoms: N_4  and  C_16
REMARK    3  A    between atoms: C_6  and  O_12
REMARK    4  A    between atoms: C_7  and  O_14
REMARK    5  A    between atoms: C_9  and  C_18
REMARK    6  A    between atoms: C_18  and  O_19
REMARK                            x       y       z     vdW  Elec       q    Type
REMARK                         _______ _______ _______ _____ _____    ______ ____
ROOT
ATOM      1  S   UNL     1       1.529   0.521  -1.448  0.00  0.00    -0.078 S 
ATOM      2  O   UNL     1      -0.917   0.982  -0.478  0.00  0.00    -0.341 OA
ATOM      3  N   UNL     1       0.999  -1.250   0.354  0.00  0.00    -0.272 NA
ATOM      4  C   UNL     1      -0.125  -1.363  -0.564  0.00  0.00    +0.123 C 
ATOM      5  C   UNL     1      -1.403  -1.797   0.154  0.00  0.00    +0.157 C 
ATOM      6  C   UNL     1      -2.116  -0.641   0.857  0.00  0.00    +0.168 C 
ATOM      7  C   UNL     1      -0.229   0.008  -1.260  0.00  0.00    +0.182 C 
ATOM      8  C   UNL     1      -2.223   0.574  -0.072  0.00  0.00    +0.175 C 
ATOM      9  C   UNL     1       2.001  -0.392  -0.012  0.00  0.00    +0.181 C 
ATOM     10  H   UNL     1       1.036  -1.763   1.194  0.00  0.00    +0.125 HD
ENDROOT
BRANCH   5  11
ATOM     11  O   UNL     1      -2.306  -2.340  -0.812  0.00  0.00    -0.380 OA
ATOM     12  H   UNL     1      -1.879  -3.078  -1.275  0.00  0.00    +0.211 HD
ENDBRANCH   5  11
BRANCH   6  13
ATOM     13  O   UNL     1      -1.395  -0.280   2.033  0.00  0.00    -0.379 OA
ATOM     14  H   UNL     1      -1.329  -1.049   2.620  0.00  0.00    +0.211 HD
ENDBRANCH   6  13
BRANCH   9  15
ATOM     15  N   UNL     1       3.152  -0.198   0.532  0.00  0.00    -0.194 NA
BRANCH  15  16
ATOM     16  C   UNL     1       3.975   0.804  -0.132  0.00  0.00    +0.091 C 
ATOM     17  C   UNL     1       5.284   0.945   0.616  0.00  0.00    +0.020 C 
ENDBRANCH  15  16
ENDBRANCH   9  15
BRANCH   8  18
ATOM     18  C   UNL     1      -2.878   1.768   0.614  0.00  0.00    +0.169 C 
BRANCH  18  19
ATOM     19  O   UNL     1      -3.348   2.659  -0.382  0.00  0.00    -0.379 OA
ATOM     20  H   UNL     1      -3.767   3.424   0.042  0.00  0.00    +0.211 HD
ENDBRANCH  18  19
ENDBRANCH   8  18
TORSDOF 6
