REMARK  Name = 137182739
REMARK  1 active torsions:
REMARK  status: ('A' for Active; 'I' for Inactive)
REMARK    1  A    between atoms: C_12  and  N_17
REMARK                            x       y       z     vdW  Elec       q    Type
REMARK                         _______ _______ _______ _____ _____    ______ ____
ROOT
ATOM      1  O   UNL     1      -0.009  -2.829   0.000  0.00  0.00    -0.081 OA
ATOM      2  O   UNL     1      -1.488   2.786   0.000  0.00  0.00    -0.062 OA
ATOM      3  O   UNL     1      -4.267  -0.667   0.000  0.00  0.00    -0.045 OA
ATOM      4  N   UNL     1       0.204  -1.568   0.000  0.00  0.00    -0.162 N 
ATOM      5  N   UNL     1       0.684   1.189   0.000  0.00  0.00    -0.355 NA
ATOM      6  N   UNL     1      -1.630   1.528   0.000  0.00  0.00    -0.072 N 
ATOM      7  N   UNL     1      -2.101  -1.171   0.000  0.00  0.00    -0.103 NA
ATOM      8  N   UNL     1      -3.076  -0.247   0.000  0.00  0.00    -0.016 N 
ATOM      9  N   UNL     1      -2.898   1.087   0.000  0.00  0.00    +0.062 NA
ATOM     10  C   UNL     1      -0.855  -0.683   0.000  0.00  0.00    +0.240 C 
ATOM     11  C   UNL     1      -0.562   0.676   0.000  0.00  0.00    +0.275 C 
ATOM     12  C   UNL     1       1.490  -1.075   0.000  0.00  0.00    +0.244 C 
ATOM     13  C   UNL     1       1.689   0.293   0.000  0.00  0.00    +0.289 C 
ATOM     14  O   UNL     1       3.607   0.954   1.098  0.00  0.00    -0.124 OA
ATOM     15  O   UNL     1       3.607   0.954  -1.098  0.00  0.00    -0.124 OA
ATOM     16  N   UNL     1       3.044   0.760   0.000  0.00  0.00    +0.087 N 
ENDROOT
BRANCH  12  17
ATOM     17  N   UNL     1       2.563  -1.986   0.000  0.00  0.00    -0.296 NA
ATOM     18  H   UNL     1       2.387  -2.955   0.000  0.00  0.00    +0.121 HD
ATOM     19  H   UNL     1       3.490  -1.655   0.000  0.00  0.00    +0.121 HD
ENDBRANCH  12  17
TORSDOF 1
