137196784
  -OEChem-03292013293D

 32 34  0     1  0  0  0  0  0999 V2000
    0.0280    4.2232    0.3297 I   0  0  0  0  0  0  0  0  0  0  0  0
   -1.8363   -0.1989    0.9627 O   0  0  0  0  0  0  0  0  0  0  0  0
   -4.3369    1.1642   -0.1786 O   0  0  0  0  0  0  0  0  0  0  0  0
   -2.1471   -2.9676    0.7258 O   0  0  0  0  0  0  0  0  0  0  0  0
    4.4884    0.3206   -0.1940 O   0  0  0  0  0  0  0  0  0  0  0  0
    0.0587    1.1301    0.1759 N   0  0  0  0  0  0  0  0  0  0  0  0
    2.0919    2.0557    0.0698 N   0  0  0  0  0  0  0  0  0  0  0  0
    0.6304   -1.2166    0.0176 N   0  0  0  0  0  0  0  0  0  0  0  0
    3.0039   -1.4821   -0.1725 N   0  0  0  0  0  0  0  0  0  0  0  0
    1.5815   -3.3579   -0.1584 N   0  0  0  0  0  0  0  0  0  0  0  0
   -1.4404    1.0066    0.2819 C   0  0  1  0  0  0  0  0  0  0  0  0
   -3.4160    0.2436   -0.7589 C   0  0  1  0  0  0  0  0  0  0  0  0
   -2.1358    0.9814   -1.0747 C   0  0  0  0  0  0  0  0  0  0  0  0
   -2.9766   -0.7702    0.2897 C   0  0  1  0  0  0  0  0  0  0  0  0
   -2.5463   -2.0980   -0.3189 C   0  0  0  0  0  0  0  0  0  0  0  0
    0.9420    0.0977    0.0591 C   0  0  0  0  0  0  0  0  0  0  0  0
    0.7983    2.2877    0.1778 C   0  0  0  0  0  0  0  0  0  0  0  0
    2.1769    0.6968   -0.0035 C   0  0  0  0  0  0  0  0  0  0  0  0
    3.3492   -0.1239   -0.1312 C   0  0  0  0  0  0  0  0  0  0  0  0
    1.6862   -1.9924   -0.0994 C   0  0  0  0  0  0  0  0  0  0  0  0
   -1.7817    1.8393    0.9042 H   0  0  0  0  0  0  0  0  0  0  0  0
   -1.5451    0.4140   -1.8036 H   0  0  0  0  0  0  0  0  0  0  0  0
   -2.2918    1.9907   -1.4674 H   0  0  0  0  0  0  0  0  0  0  0  0
   -3.8894   -0.1979   -1.6404 H   0  0  0  0  0  0  0  0  0  0  0  0
   -3.7433   -0.9397    1.0540 H   0  0  0  0  0  0  0  0  0  0  0  0
   -1.7046   -1.9798   -1.0067 H   0  0  0  0  0  0  0  0  0  0  0  0
   -3.3790   -2.5622   -0.8570 H   0  0  0  0  0  0  0  0  0  0  0  0
   -5.1343    0.6629    0.0636 H   0  0  0  0  0  0  0  0  0  0  0  0
   -1.8809   -3.8073    0.3140 H   0  0  0  0  0  0  0  0  0  0  0  0
    3.7613   -2.1533   -0.2619 H   0  0  0  0  0  0  0  0  0  0  0  0
    0.6783   -3.8171   -0.1140 H   0  0  0  0  0  0  0  0  0  0  0  0
    2.4012   -3.9481   -0.2484 H   0  0  0  0  0  0  0  0  0  0  0  0
  1 17  1  0  0  0  0
  2 11  1  0  0  0  0
  2 14  1  0  0  0  0
  3 12  1  0  0  0  0
  3 28  1  0  0  0  0
  4 15  1  0  0  0  0
  4 29  1  0  0  0  0
  5 19  2  0  0  0  0
  6 11  1  0  0  0  0
  6 16  1  0  0  0  0
  6 17  1  0  0  0  0
  7 17  2  0  0  0  0
  7 18  1  0  0  0  0
  8 16  1  0  0  0  0
  8 20  2  0  0  0  0
  9 19  1  0  0  0  0
  9 20  1  0  0  0  0
  9 30  1  0  0  0  0
 10 20  1  0  0  0  0
 10 31  1  0  0  0  0
 10 32  1  0  0  0  0
 11 13  1  0  0  0  0
 11 21  1  0  0  0  0
 12 13  1  0  0  0  0
 12 14  1  0  0  0  0
 12 24  1  0  0  0  0
 13 22  1  0  0  0  0
 13 23  1  0  0  0  0
 14 15  1  0  0  0  0
 14 25  1  0  0  0  0
 15 26  1  0  0  0  0
 15 27  1  0  0  0  0
 16 18  2  0  0  0  0
 18 19  1  0  0  0  0
M  END
> <PUBCHEM_COMPOUND_CID>
137196784

> <PUBCHEM_CONFORMER_RMSD>
0.6

> <PUBCHEM_CONFORMER_DIVERSEORDER>
1
11
6
10
12
2
9
4
5
8
3
7

> <PUBCHEM_MMFF94_PARTIAL_CHARGES>
24
1 -0.03
10 -0.85
11 0.54
12 0.28
14 0.28
15 0.28
16 -0.03
17 0.21
18 0.14
19 0.72
2 -0.56
20 0.56
28 0.4
29 0.4
3 -0.68
30 0.37
31 0.4
32 0.4
4 -0.68
5 -0.57
6 0.05
7 -0.57
8 -0.58
9 -0.49

> <PUBCHEM_EFFECTIVE_ROTOR_COUNT>
3

> <PUBCHEM_PHARMACOPHORE_FEATURES>
13
1 1 hydrophobe
1 10 donor
1 2 acceptor
1 3 acceptor
1 3 donor
1 4 acceptor
1 4 donor
1 5 acceptor
1 9 donor
3 6 7 17 cation
5 2 11 12 13 14 rings
5 6 7 16 17 18 rings
6 8 9 16 18 19 20 rings

> <PUBCHEM_HEAVY_ATOM_COUNT>
20

> <PUBCHEM_ATOM_DEF_STEREO_COUNT>
3

> <PUBCHEM_ATOM_UDEF_STEREO_COUNT>
0

> <PUBCHEM_BOND_DEF_STEREO_COUNT>
0

> <PUBCHEM_BOND_UDEF_STEREO_COUNT>
0

> <PUBCHEM_ISOTOPIC_ATOM_COUNT>
0

> <PUBCHEM_COMPONENT_COUNT>
1

> <PUBCHEM_CACTVS_TAUTO_COUNT>
-1

> <PUBCHEM_CONFORMER_ID>
082D74F000000001

> <PUBCHEM_MMFF94_ENERGY>
44.0385

> <PUBCHEM_FEATURE_SELFOVERLAP>
66.154

> <PUBCHEM_SHAPE_FINGERPRINT>
10616163 171 18338237166884792311
10967382 1 18411136896460722786
116883 192 18052819139539381844
12553582 1 18339928121157341680
12788726 201 18123463886852953416
13140716 1 18339354262314179336
14178342 30 18342169024834410193
1420 336 17617378381307543378
14223421 5 17977101593594222929
14790565 3 18339370776601433120
15196674 1 18410573998311010470
16945 1 18339084791665539656
19107657 46 18410575093305995022
193761 8 17475233982468331976
19591789 44 17617383217699441340
200 152 18059850679876610005
21160774 45 16897072337036719429
221490 88 18192717975453124282
2334 1 18194965381562861832
23558518 356 17761494686148567248
23559900 14 18411416207675996416
238 59 17979887700303671327
2748010 2 18267020750813057136
2838139 119 16226622917494371780
34934 24 18411694361793732626
350125 39 18050011296074399385
458136 41 17473280141426118105
7364860 26 18195807594469305009
81228 2 18119251653680995600
8809292 202 18334013929784621467
9709674 26 18410856603012079487

> <PUBCHEM_SHAPE_MULTIPOLES>
375.14
6.07
4.27
0.78
0.46
2.14
0.03
-1.68
0.77
-0.52
-0.54
0.38
0.08
0.45

> <PUBCHEM_SHAPE_SELFOVERLAP>
790.406

> <PUBCHEM_SHAPE_VOLUME>
216.1

> <PUBCHEM_COORDINATE_TYPE>
2
5
10

$$$$
