REMARK  Name = 137185509
REMARK  9 active torsions:
REMARK  status: ('A' for Active; 'I' for Inactive)
REMARK    1  A    between atoms: N_1  and  N_3
REMARK    2  A    between atoms: N_1  and  C_15
REMARK    3  A    between atoms: N_3  and  C_4
REMARK    4  A    between atoms: C_4  and  C_5
REMARK    5  A    between atoms: C_6  and  O_13
REMARK    6  A    between atoms: C_7  and  O_11
REMARK    7  A    between atoms: C_15  and  C_16
REMARK    8  A    between atoms: C_17  and  O_25
REMARK    9  A    between atoms: C_20  and  N_22
REMARK                            x       y       z     vdW  Elec       q    Type
REMARK                         _______ _______ _______ _____ _____    ______ ____
ROOT
ATOM      1  N   UNL     1      -0.900  -0.235   0.093  0.00  0.00    -0.223 NA
ATOM      2  H   UNL     1      -1.249  -1.117   0.359  0.00  0.00    +0.143 HD
ENDROOT
BRANCH   1   3
ATOM      3  N   UNL     1       0.411  -0.024  -0.147  0.00  0.00    -0.145 NA
BRANCH   3   4
ATOM      4  C   UNL     1       1.198  -0.885   0.435  0.00  0.00    +0.137 C 
BRANCH   4   5
ATOM      5  C   UNL     1       2.647  -0.838   0.300  0.00  0.00    +0.034 C 
ATOM      6  C   UNL     1       3.311   0.373   0.101  0.00  0.00    +0.165 C 
ATOM      7  C   UNL     1       4.699   0.394  -0.026  0.00  0.00    +0.172 C 
ATOM      8  C   UNL     1       3.373  -2.027   0.374  0.00  0.00    +0.000 C 
ATOM      9  C   UNL     1       5.425  -0.794   0.048  0.00  0.00    +0.040 C 
ATOM     10  C   UNL     1       4.762  -2.005   0.247  0.00  0.00    +0.003 C 
BRANCH   7  11
ATOM     11  O   UNL     1       5.361   1.570  -0.221  0.00  0.00    -0.468 OA
ATOM     12  C   UNL     1       6.780   1.502  -0.340  0.00  0.00    +0.253 C 
ENDBRANCH   7  11
BRANCH   6  13
ATOM     13  O   UNL     1       2.607   1.539   0.028  0.00  0.00    -0.503 OA
ATOM     14  H   UNL     1       1.674   1.530   0.113  0.00  0.00    +0.292 HD
ENDBRANCH   6  13
ENDBRANCH   4   5
ENDBRANCH   3   4
ENDBRANCH   1   3
BRANCH   1  15
ATOM     15  C   UNL     1      -1.764   0.922  -0.066  0.00  0.00    +0.115 C 
BRANCH  15  16
ATOM     16  C   UNL     1      -3.220   0.555   0.042  0.00  0.00    +0.029 C 
ATOM     17  C   UNL     1      -3.876  -0.075  -1.015  0.00  0.00    +0.132 C 
ATOM     18  C   UNL     1      -3.913   0.852   1.216  0.00  0.00    +0.001 C 
ATOM     19  C   UNL     1      -5.226  -0.408  -0.899  0.00  0.00    +0.050 C 
ATOM     20  C   UNL     1      -5.919  -0.111   0.274  0.00  0.00    +0.045 C 
ATOM     21  C   UNL     1      -5.262   0.519   1.332  0.00  0.00    +0.014 C 
BRANCH  20  22
ATOM     22  N   UNL     1      -7.283  -0.449   0.392  0.00  0.00    -0.357 N 
ATOM     23  H   UNL     1      -7.746  -0.894  -0.354  0.00  0.00    +0.142 HD
ATOM     24  H   UNL     1      -7.772  -0.240   1.221  0.00  0.00    +0.142 HD
ENDBRANCH  20  22
BRANCH  17  25
ATOM     25  O   UNL     1      -3.213  -0.373  -2.168  0.00  0.00    -0.506 OA
ATOM     26  H   UNL     1      -2.307  -0.154  -2.257  0.00  0.00    +0.292 HD
ENDBRANCH  17  25
ENDBRANCH  15  16
ENDBRANCH   1  15
TORSDOF 9
