13714985
  -OEChem-03292013303D

 58 60  0     1  0  0  0  0  0999 V2000
    0.2602   -1.9507    0.0604 O   0  0  0  0  0  0  0  0  0  0  0  0
    1.7875   -0.4488    3.0389 O   0  0  0  0  0  0  0  0  0  0  0  0
    3.8656   -2.1511    2.3191 O   0  0  0  0  0  0  0  0  0  0  0  0
    4.6958   -0.8777   -0.0286 O   0  0  0  0  0  0  0  0  0  0  0  0
   -5.3856   -0.9322   -2.4229 O   0  0  0  0  0  0  0  0  0  0  0  0
   -3.4661   -4.4590   -0.1871 O   0  0  0  0  0  0  0  0  0  0  0  0
    4.9278    1.2696   -0.8400 O   0  0  0  0  0  0  0  0  0  0  0  0
   -1.8364   -0.1986    0.7762 N   0  0  0  0  0  0  0  0  0  0  0  0
   -3.7320    0.7440   -1.1065 N   0  0  0  0  0  0  0  0  0  0  0  0
   -2.6665   -2.3818    0.2876 N   0  0  0  0  0  0  0  0  0  0  0  0
   -4.4269   -2.7320   -1.3012 N   0  0  0  0  0  0  0  0  0  0  0  0
    0.4839   -0.9488    1.0533 C   0  0  2  0  0  0  0  0  0  0  0  0
    1.5725   -1.4352    2.0306 C   0  0  1  0  0  0  0  0  0  0  0  0
   -0.8470   -0.6497    1.7535 C   0  0  0  0  0  0  0  0  0  0  0  0
    2.9158   -1.7321    1.3372 C   0  0  1  0  0  0  0  0  0  0  0  0
   -1.9276    1.1854    0.5108 C   0  0  0  0  0  0  0  0  0  0  0  0
   -2.6713   -1.0926    0.1161 C   0  0  0  0  0  0  0  0  0  0  0  0
   -2.8789    1.6300   -0.4299 C   0  0  0  0  0  0  0  0  0  0  0  0
    3.4770   -0.5108    0.6104 C   0  0  0  0  0  0  0  0  0  0  0  0
   -1.1183    2.1527    1.1359 C   0  0  0  0  0  0  0  0  0  0  0  0
   -3.6549   -0.5253   -0.8703 C   0  0  0  0  0  0  0  0  0  0  0  0
   -1.2480    3.5119    0.8390 C   0  0  0  0  0  0  0  0  0  0  0  0
   -3.0011    2.9974   -0.7208 C   0  0  0  0  0  0  0  0  0  0  0  0
   -2.1896    3.9348   -0.0895 C   0  0  0  0  0  0  0  0  0  0  0  0
   -4.5938   -1.4069   -1.6268 C   0  0  0  0  0  0  0  0  0  0  0  0
   -0.3610    4.4931    1.5339 C   0  0  0  0  0  0  0  0  0  0  0  0
   -2.3479    5.3806   -0.4263 C   0  0  0  0  0  0  0  0  0  0  0  0
   -3.5089   -3.2423   -0.3829 C   0  0  0  0  0  0  0  0  0  0  0  0
    5.3248    0.1181   -0.7270 C   0  0  0  0  0  0  0  0  0  0  0  0
    6.5924   -0.4315   -1.3405 C   0  0  0  0  0  0  0  0  0  0  0  0
    7.3348    0.6221   -2.1588 C   0  0  0  0  0  0  0  0  0  0  0  0
    8.6236    0.0674   -2.7436 C   0  0  0  0  0  0  0  0  0  0  0  0
    0.8140   -0.0356    0.5483 H   0  0  0  0  0  0  0  0  0  0  0  0
    1.2351   -2.3475    2.5381 H   0  0  0  0  0  0  0  0  0  0  0  0
   -0.7394    0.0329    2.6021 H   0  0  0  0  0  0  0  0  0  0  0  0
   -1.2096   -1.5799    2.2123 H   0  0  0  0  0  0  0  0  0  0  0  0
    2.8022   -2.5641    0.6328 H   0  0  0  0  0  0  0  0  0  0  0  0
    3.6891    0.2947    1.3232 H   0  0  0  0  0  0  0  0  0  0  0  0
    2.7879   -0.1523   -0.1591 H   0  0  0  0  0  0  0  0  0  0  0  0
   -0.3547    1.8710    1.8545 H   0  0  0  0  0  0  0  0  0  0  0  0
   -0.2517   -1.5409   -0.6571 H   0  0  0  0  0  0  0  0  0  0  0  0
   -3.7417    3.3198   -1.4504 H   0  0  0  0  0  0  0  0  0  0  0  0
    2.4776   -0.7865    3.6351 H   0  0  0  0  0  0  0  0  0  0  0  0
    4.7051   -2.3207    1.8582 H   0  0  0  0  0  0  0  0  0  0  0  0
    0.3223    4.0014    2.2350 H   0  0  0  0  0  0  0  0  0  0  0  0
    0.2560    5.0347    0.8096 H   0  0  0  0  0  0  0  0  0  0  0  0
   -0.9555    5.2078    2.1123 H   0  0  0  0  0  0  0  0  0  0  0  0
   -1.4192    5.7838   -0.8429 H   0  0  0  0  0  0  0  0  0  0  0  0
   -2.6283    5.9555    0.4622 H   0  0  0  0  0  0  0  0  0  0  0  0
   -3.1327    5.5399   -1.1742 H   0  0  0  0  0  0  0  0  0  0  0  0
   -5.0271   -3.4035   -1.7717 H   0  0  0  0  0  0  0  0  0  0  0  0
    7.2346   -0.7908   -0.5286 H   0  0  0  0  0  0  0  0  0  0  0  0
    6.3233   -1.2767   -1.9840 H   0  0  0  0  0  0  0  0  0  0  0  0
    6.6935    0.9846   -2.9711 H   0  0  0  0  0  0  0  0  0  0  0  0
    7.5685    1.4892   -1.5294 H   0  0  0  0  0  0  0  0  0  0  0  0
    8.4207   -0.7803   -3.4058 H   0  0  0  0  0  0  0  0  0  0  0  0
    9.3009   -0.2686   -1.9521 H   0  0  0  0  0  0  0  0  0  0  0  0
    9.1380    0.8380   -3.3263 H   0  0  0  0  0  0  0  0  0  0  0  0
  1 12  1  0  0  0  0
  1 41  1  0  0  0  0
  2 13  1  0  0  0  0
  2 43  1  0  0  0  0
  3 15  1  0  0  0  0
  3 44  1  0  0  0  0
  4 19  1  0  0  0  0
  4 29  1  0  0  0  0
  5 25  2  0  0  0  0
  6 28  2  0  0  0  0
  7 29  2  0  0  0  0
  8 14  1  0  0  0  0
  8 16  1  0  0  0  0
  8 17  1  0  0  0  0
  9 18  1  0  0  0  0
  9 21  2  0  0  0  0
 10 17  2  0  0  0  0
 10 28  1  0  0  0  0
 11 25  1  0  0  0  0
 11 28  1  0  0  0  0
 11 51  1  0  0  0  0
 12 13  1  0  0  0  0
 12 14  1  0  0  0  0
 12 33  1  0  0  0  0
 13 15  1  0  0  0  0
 13 34  1  0  0  0  0
 14 35  1  0  0  0  0
 14 36  1  0  0  0  0
 15 19  1  0  0  0  0
 15 37  1  0  0  0  0
 16 18  2  0  0  0  0
 16 20  1  0  0  0  0
 17 21  1  0  0  0  0
 18 23  1  0  0  0  0
 19 38  1  0  0  0  0
 19 39  1  0  0  0  0
 20 22  2  0  0  0  0
 20 40  1  0  0  0  0
 21 25  1  0  0  0  0
 22 24  1  0  0  0  0
 22 26  1  0  0  0  0
 23 24  2  0  0  0  0
 23 42  1  0  0  0  0
 24 27  1  0  0  0  0
 26 45  1  0  0  0  0
 26 46  1  0  0  0  0
 26 47  1  0  0  0  0
 27 48  1  0  0  0  0
 27 49  1  0  0  0  0
 27 50  1  0  0  0  0
 29 30  1  0  0  0  0
 30 31  1  0  0  0  0
 30 52  1  0  0  0  0
 30 53  1  0  0  0  0
 31 32  1  0  0  0  0
 31 54  1  0  0  0  0
 31 55  1  0  0  0  0
 32 56  1  0  0  0  0
 32 57  1  0  0  0  0
 32 58  1  0  0  0  0
M  END
> <PUBCHEM_COMPOUND_CID>
13714985

> <PUBCHEM_CONFORMER_RMSD>
1

> <PUBCHEM_CONFORMER_DIVERSEORDER>
1
25
60
17
67
207
57
221
140
168
14
222
66
165
176
224
104
82
141
109
157
145
187
53
55
83
225
156
199
101
228
159
4
216
61
59
183
233
129
167
193
152
179
29
112
122
16
162
171
69
45
15
204
40
5
213
194
212
206
173
215
160
19
166
103
229
201
7
211
10
218
107
81
38
190
155
146
164
91
9
149
72
184
97
88
172
121
154
185
76
180
34
120
214
106
116
208
44
8
136
79
111
113
108
178
189
11
142
54
188
232
131
74
20
35
235
68
227
134
65
150
196
56
231
117
223
85
139
12
22
220
195
147
133
42
191
203
78
170
93
105
96
63
123
163
98
6
217
205
119
94
52
226
49
86
202
174
127
234
36
151
143
13
130
169
2
137
148
26
209
95
200
126
24
135
181
80
23
50
51
132
30
70
219
158
31
144
177
46
128
33
230
100
124
84
153
192
48
3
43
114
89
21
175
138
186
198
87
27
62
18
58
92
41
102
197
64
37
182
71
115
77
28
32
210
118
47
110
161
99
39
75
90
73
125

> <PUBCHEM_MMFF94_PARTIAL_CHARGES>
36
1 -0.68
10 -0.66
11 -0.49
12 0.28
13 0.28
14 0.37
15 0.28
16 0.1
17 0.5
18 0.18
19 0.28
2 -0.68
20 -0.15
21 0.45
22 -0.14
23 -0.15
24 -0.14
25 0.63
26 0.14
27 0.14
28 0.84
29 0.66
3 -0.68
30 0.06
4 -0.43
40 0.15
41 0.4
42 0.15
43 0.4
44 0.4
5 -0.57
51 0.37
6 -0.57
7 -0.57
8 -0.52
9 -0.63

> <PUBCHEM_EFFECTIVE_ROTOR_COUNT>
9

> <PUBCHEM_PHARMACOPHORE_FEATURES>
16
1 1 acceptor
1 1 donor
1 10 donor
1 11 donor
1 2 acceptor
1 2 donor
1 3 acceptor
1 3 donor
1 32 hydrophobe
1 5 acceptor
1 6 acceptor
1 7 acceptor
1 9 acceptor
6 10 11 17 21 25 28 rings
6 16 18 20 22 23 24 rings
6 8 9 16 17 18 21 rings

> <PUBCHEM_HEAVY_ATOM_COUNT>
32

> <PUBCHEM_ATOM_DEF_STEREO_COUNT>
3

> <PUBCHEM_ATOM_UDEF_STEREO_COUNT>
0

> <PUBCHEM_BOND_DEF_STEREO_COUNT>
0

> <PUBCHEM_BOND_UDEF_STEREO_COUNT>
0

> <PUBCHEM_ISOTOPIC_ATOM_COUNT>
0

> <PUBCHEM_COMPONENT_COUNT>
1

> <PUBCHEM_CACTVS_TAUTO_COUNT>
3

> <PUBCHEM_CONFORMER_ID>
00D1462900000001

> <PUBCHEM_MMFF94_ENERGY>
81.1048

> <PUBCHEM_FEATURE_SELFOVERLAP>
81.315

> <PUBCHEM_SHAPE_FINGERPRINT>
10319926 262 7853570249505189034
10670039 82 18411142429212011148
10794284 68 18338532841920494545
10928967 22 13110966380094074836
10940486 97 17689980255461699042
11049842 53 17693078683275617970
11477941 20 18341055202776621396
12788726 201 18336535041544217899
13103583 49 10231750077207562026
13757389 114 18272939280867994857
13782708 43 17132120143740014718
14251757 5 18410846643040506963
14790565 3 17910656680643227409
15705408 1 17833245881973282085
15950262 2 15504888955068689221
16991981 162 18198069083977305728
16994733 274 15358240621146349575
20642791 239 18113889499092065033
22907989 373 18339630145201155307
249057 25 18041551452669988026
255183 451 17838610408001831423
2838139 119 18260840259379395204
312425 83 18195537982719637478
3610482 184 18190481388972978940
42767 28 18334292102348291140
437795 83 18262819466261849972
46194498 28 17631720678180771504
484985 159 16128660721731119647
6034566 193 17977675207831238561
6058803 2 17970333829032701650
6608658 132 18259987063651518996
6669772 16 17260744569414854605
6700243 42 18060706087096283558
9981440 41 17618763779602631417

> <PUBCHEM_SHAPE_MULTIPOLES>
597.54
15.1
5.69
2.37
40.84
5.75
0.27
-3.72
-15.91
-9.86
0.44
2.64
-0.68
-2.86

> <PUBCHEM_SHAPE_SELFOVERLAP>
1262.806

> <PUBCHEM_SHAPE_VOLUME>
330.9

> <PUBCHEM_COORDINATE_TYPE>
2
5
10

$$$$
