REMARK  Name = 137191345
REMARK  15 active torsions:
REMARK  status: ('A' for Active; 'I' for Inactive)
REMARK    1  A    between atoms: C_1  and  C_27
REMARK    2  A    between atoms: C_2  and  C_12
REMARK    3  A    between atoms: C_3  and  O_7
REMARK    4  A    between atoms: C_5  and  O_9
REMARK    5  A    between atoms: N_11  and  C_14
REMARK    6  A    between atoms: C_14  and  C_15
REMARK    7  A    between atoms: C_15  and  C_17
REMARK    8  A    between atoms: C_15  and  C_24
REMARK    9  A    between atoms: C_15  and  C_26
REMARK   10  A    between atoms: C_17  and  C_18
REMARK   11  A    between atoms: C_18  and  C_20
REMARK   12  A    between atoms: C_18  and  C_22
REMARK   13  A    between atoms: C_27  and  C_28
REMARK   14  A    between atoms: C_28  and  C_29
REMARK   15  A    between atoms: C_29  and  C_30
REMARK                            x       y       z     vdW  Elec       q    Type
REMARK                         _______ _______ _______ _____ _____    ______ ____
ROOT
ATOM      1  C   UNL     1      -2.864  -0.798  -0.178  0.00  0.00    +0.016 C 
ATOM      2  C   UNL     1      -1.869  -1.529   0.471  0.00  0.00    +0.016 C 
ATOM      3  C   UNL     1      -4.034  -1.433  -0.598  0.00  0.00    +0.163 C 
ATOM      4  C   UNL     1      -2.043  -2.893   0.701  0.00  0.00    +0.004 C 
ATOM      5  C   UNL     1      -4.207  -2.797  -0.368  0.00  0.00    +0.167 C 
ATOM      6  C   UNL     1      -3.212  -3.528   0.282  0.00  0.00    +0.040 C 
ENDROOT
BRANCH   3   7
ATOM      7  O   UNL     1      -5.011  -0.725  -1.233  0.00  0.00    -0.503 OA
ATOM      8  H   UNL     1      -4.898   0.192  -1.390  0.00  0.00    +0.292 HD
ENDBRANCH   3   7
BRANCH   5   9
ATOM      9  O   UNL     1      -5.345  -3.430  -0.769  0.00  0.00    -0.503 OA
ATOM     10  H   UNL     1      -6.020  -2.948  -1.207  0.00  0.00    +0.292 HD
ENDBRANCH   5   9
BRANCH   2  12
ATOM     11  N   UNL     1       0.495  -1.531   0.979  0.00  0.00    -0.176 NA
ATOM     12  C   UNL     1      -0.624  -0.886   0.925  0.00  0.00    +0.088 C 
BRANCH  11  14
ATOM     13  O   UNL     1       1.613   0.065   2.242  0.00  0.00    -0.270 OA
ATOM     14  C   UNL     1       1.612  -0.838   1.405  0.00  0.00    +0.279 C 
BRANCH  14  15
ATOM     15  C   UNL     1       2.919  -1.363   0.779  0.00  0.00    +0.279 C 
BRANCH  15  17
ATOM     16  O   UNL     1       3.028  -2.156  -1.520  0.00  0.00    -0.291 OA
ATOM     17  C   UNL     1       2.943  -1.189  -0.757  0.00  0.00    +0.213 C 
BRANCH  17  18
ATOM     18  C   UNL     1       2.883   0.236  -1.315  0.00  0.00    +0.241 C 
BRANCH  18  20
ATOM     19  N   UNL     1       5.082   0.731  -2.675  0.00  0.00    -0.194 NA
ATOM     20  C   UNL     1       4.111   0.512  -2.078  0.00  0.00    +0.095 C 
ENDBRANCH  18  20
BRANCH  18  22
ATOM     21  N   UNL     1       0.700   0.522  -2.759  0.00  0.00    -0.194 NA
ATOM     22  C   UNL     1       1.664   0.396  -2.126  0.00  0.00    +0.095 C 
ENDBRANCH  18  22
ENDBRANCH  17  18
ENDBRANCH  15  17
BRANCH  15  24
ATOM     23  N   UNL     1       3.088  -3.929   1.394  0.00  0.00    -0.194 NA
ATOM     24  C   UNL     1       3.015  -2.802   1.123  0.00  0.00    +0.102 C 
ENDBRANCH  15  24
BRANCH  15  26
ATOM     25  N   UNL     1       4.990  -0.056   1.770  0.00  0.00    -0.194 NA
ATOM     26  C   UNL     1       4.080  -0.631   1.335  0.00  0.00    +0.102 C 
ENDBRANCH  15  26
ENDBRANCH  14  15
ENDBRANCH  11  14
ENDBRANCH   2  12
BRANCH   1  27
ATOM     27  C   UNL     1      -2.685   0.666  -0.427  0.00  0.00    +0.030 C 
BRANCH  27  28
ATOM     28  C   UNL     1      -3.478   1.606   0.503  0.00  0.00    +0.009 C 
BRANCH  28  29
ATOM     29  C   UNL     1      -3.302   3.103   0.202  0.00  0.00    +0.027 C 
BRANCH  29  30
ATOM     30  C   UNL     1      -1.894   3.627   0.331  0.00  0.00    -0.022 C 
ATOM     31  C   UNL     1      -1.445   4.128   1.552  0.00  0.00    -0.004 C 
ATOM     32  C   UNL     1      -1.041   3.612  -0.773  0.00  0.00    -0.004 C 
ATOM     33  C   UNL     1      -0.142   4.613   1.671  0.00  0.00    -0.000 C 
ATOM     34  C   UNL     1       0.261   4.098  -0.655  0.00  0.00    -0.000 C 
ATOM     35  C   UNL     1       0.711   4.598   0.567  0.00  0.00    -0.000 C 
ENDBRANCH  29  30
ENDBRANCH  28  29
ENDBRANCH  27  28
ENDBRANCH   1  27
TORSDOF 15
