REMARK  Name = 13714985
REMARK  12 active torsions:
REMARK  status: ('A' for Active; 'I' for Inactive)
REMARK    1  A    between atoms: N_3  and  C_20
REMARK    2  A    between atoms: C_20  and  C_21
REMARK    3  A    between atoms: C_21  and  O_22
REMARK    4  A    between atoms: C_21  and  C_24
REMARK    5  A    between atoms: C_24  and  O_25
REMARK    6  A    between atoms: C_24  and  C_27
REMARK    7  A    between atoms: C_27  and  O_28
REMARK    8  A    between atoms: C_27  and  C_30
REMARK    9  A    between atoms: C_30  and  O_31
REMARK   10  A    between atoms: O_31  and  C_33
REMARK   11  A    between atoms: C_33  and  C_34
REMARK   12  A    between atoms: C_34  and  C_35
REMARK                            x       y       z     vdW  Elec       q    Type
REMARK                         _______ _______ _______ _____ _____    ______ ____
ROOT
ATOM      1  O   UNL     1      -5.386  -0.932  -2.423  0.00  0.00    -0.266 OA
ATOM      2  O   UNL     1      -3.466  -4.459  -0.187  0.00  0.00    -0.193 OA
ATOM      3  N   UNL     1      -1.836  -0.199   0.776  0.00  0.00    -0.270 N 
ATOM      4  N   UNL     1      -3.732   0.744  -1.107  0.00  0.00    -0.396 NA
ATOM      5  N   UNL     1      -2.667  -2.382   0.288  0.00  0.00    -0.303 NA
ATOM      6  N   UNL     1      -4.427  -2.732  -1.301  0.00  0.00    -0.196 N 
ATOM      7  C   UNL     1      -1.928   1.185   0.511  0.00  0.00    +0.150 C 
ATOM      8  C   UNL     1      -2.671  -1.093   0.116  0.00  0.00    +0.232 C 
ATOM      9  C   UNL     1      -2.879   1.630  -0.430  0.00  0.00    +0.131 C 
ATOM     10  C   UNL     1      -1.118   2.153   1.136  0.00  0.00    -0.004 C 
ATOM     11  C   UNL     1      -3.655  -0.525  -0.870  0.00  0.00    +0.230 C 
ATOM     12  C   UNL     1      -1.248   3.512   0.839  0.00  0.00    -0.028 C 
ATOM     13  C   UNL     1      -3.001   2.997  -0.721  0.00  0.00    +0.025 C 
ATOM     14  C   UNL     1      -2.190   3.935  -0.089  0.00  0.00    -0.024 C 
ATOM     15  C   UNL     1      -4.594  -1.407  -1.627  0.00  0.00    +0.293 C 
ATOM     16  C   UNL     1      -0.361   4.493   1.534  0.00  0.00    +0.030 C 
ATOM     17  C   UNL     1      -2.348   5.381  -0.426  0.00  0.00    +0.031 C 
ATOM     18  C   UNL     1      -3.509  -3.242  -0.383  0.00  0.00    +0.273 C 
ATOM     19  H   UNL     1      -5.009  -3.381  -1.758  0.00  0.00    +0.169 HD
ENDROOT
BRANCH   3  20
ATOM     20  C   UNL     1      -0.847  -0.650   1.754  0.00  0.00    +0.126 C 
BRANCH  20  21
ATOM     21  C   UNL     1       0.484  -0.949   1.053  0.00  0.00    +0.159 C 
BRANCH  21  22
ATOM     22  O   UNL     1       0.260  -1.951   0.060  0.00  0.00    -0.380 OA
ATOM     23  H   UNL     1       1.095  -2.150  -0.391  0.00  0.00    +0.211 HD
ENDBRANCH  21  22
BRANCH  21  24
ATOM     24  C   UNL     1       1.573  -1.435   2.031  0.00  0.00    +0.169 C 
BRANCH  24  25
ATOM     25  O   UNL     1       1.788  -0.449   3.039  0.00  0.00    -0.379 OA
ATOM     26  H   UNL     1       0.948  -0.253   3.484  0.00  0.00    +0.211 HD
ENDBRANCH  24  25
BRANCH  24  27
ATOM     27  C   UNL     1       2.916  -1.732   1.337  0.00  0.00    +0.184 C 
BRANCH  27  28
ATOM     28  O   UNL     1       3.866  -2.151   2.319  0.00  0.00    -0.378 OA
ATOM     29  H   UNL     1       3.523  -2.927   2.790  0.00  0.00    +0.211 HD
ENDBRANCH  27  28
BRANCH  27  30
ATOM     30  C   UNL     1       3.477  -0.511   0.610  0.00  0.00    +0.240 C 
BRANCH  30  31
ATOM     31  O   UNL     1       4.696  -0.878  -0.029  0.00  0.00    -0.446 OA
BRANCH  31  33
ATOM     32  O   UNL     1       4.928   1.270  -0.840  0.00  0.00    -0.250 OA
ATOM     33  C   UNL     1       5.325   0.118  -0.727  0.00  0.00    +0.317 C 
BRANCH  33  34
ATOM     34  C   UNL     1       6.592  -0.431  -1.341  0.00  0.00    +0.110 C 
BRANCH  34  35
ATOM     35  C   UNL     1       7.335   0.622  -2.159  0.00  0.00    +0.012 C 
ATOM     36  C   UNL     1       8.624   0.067  -2.744  0.00  0.00    +0.001 C 
ENDBRANCH  34  35
ENDBRANCH  33  34
ENDBRANCH  31  33
ENDBRANCH  30  31
ENDBRANCH  27  30
ENDBRANCH  24  27
ENDBRANCH  21  24
ENDBRANCH  20  21
ENDBRANCH   3  20
TORSDOF 12
