137191345
  -OEChem-03292013293D

 50 51  0     0  0  0  0  0  0999 V2000
   -5.0107   -0.7248   -1.2332 O   0  0  0  0  0  0  0  0  0  0  0  0
   -5.3453   -3.4299   -0.7695 O   0  0  0  0  0  0  0  0  0  0  0  0
    1.6126    0.0646    2.2421 O   0  0  0  0  0  0  0  0  0  0  0  0
    3.0278   -2.1564   -1.5200 O   0  0  0  0  0  0  0  0  0  0  0  0
    0.4953   -1.5312    0.9789 N   0  0  0  0  0  0  0  0  0  0  0  0
    3.0878   -3.9289    1.3936 N   0  0  0  0  0  0  0  0  0  0  0  0
    4.9905   -0.0560    1.7695 N   0  0  0  0  0  0  0  0  0  0  0  0
    5.0819    0.7311   -2.6755 N   0  0  0  0  0  0  0  0  0  0  0  0
    0.6999    0.5220   -2.7591 N   0  0  0  0  0  0  0  0  0  0  0  0
   -3.4775    1.6062    0.5033 C   0  0  0  0  0  0  0  0  0  0  0  0
   -2.6854    0.6659   -0.4271 C   0  0  0  0  0  0  0  0  0  0  0  0
   -3.3021    3.1029    0.2023 C   0  0  0  0  0  0  0  0  0  0  0  0
   -2.8642   -0.7984   -0.1783 C   0  0  0  0  0  0  0  0  0  0  0  0
   -1.8942    3.6275    0.3305 C   0  0  0  0  0  0  0  0  0  0  0  0
   -1.8689   -1.5286    0.4710 C   0  0  0  0  0  0  0  0  0  0  0  0
   -4.0335   -1.4328   -0.5976 C   0  0  0  0  0  0  0  0  0  0  0  0
   -2.0430   -2.8934    0.7012 C   0  0  0  0  0  0  0  0  0  0  0  0
   -4.2075   -2.7975   -0.3676 C   0  0  0  0  0  0  0  0  0  0  0  0
   -1.4446    4.1279    1.5525 C   0  0  0  0  0  0  0  0  0  0  0  0
   -1.0414    3.6125   -0.7732 C   0  0  0  0  0  0  0  0  0  0  0  0
   -3.2122   -3.5279    0.2819 C   0  0  0  0  0  0  0  0  0  0  0  0
   -0.6238   -0.8862    0.9254 C   0  0  0  0  0  0  0  0  0  0  0  0
   -0.1421    4.6133    1.6708 C   0  0  0  0  0  0  0  0  0  0  0  0
    0.2609    4.0978   -0.6550 C   0  0  0  0  0  0  0  0  0  0  0  0
    0.7106    4.5983    0.5670 C   0  0  0  0  0  0  0  0  0  0  0  0
    2.9194   -1.3632    0.7791 C   0  0  0  0  0  0  0  0  0  0  0  0
    1.6120   -0.8377    1.4052 C   0  0  0  0  0  0  0  0  0  0  0  0
    2.9431   -1.1889   -0.7575 C   0  0  0  0  0  0  0  0  0  0  0  0
    2.8833    0.2364   -1.3153 C   0  0  0  0  0  0  0  0  0  0  0  0
    4.0804   -0.6310    1.3354 C   0  0  0  0  0  0  0  0  0  0  0  0
    3.0151   -2.8024    1.1231 C   0  0  0  0  0  0  0  0  0  0  0  0
    1.6644    0.3963   -2.1259 C   0  0  0  0  0  0  0  0  0  0  0  0
    4.1114    0.5124   -2.0780 C   0  0  0  0  0  0  0  0  0  0  0  0
   -4.5465    1.3679    0.4454 H   0  0  0  0  0  0  0  0  0  0  0  0
   -3.1751    1.4108    1.5405 H   0  0  0  0  0  0  0  0  0  0  0  0
   -3.0010    0.8710   -1.4607 H   0  0  0  0  0  0  0  0  0  0  0  0
   -1.6276    0.9379   -0.4416 H   0  0  0  0  0  0  0  0  0  0  0  0
   -3.6728    3.3130   -0.8097 H   0  0  0  0  0  0  0  0  0  0  0  0
   -3.9568    3.6756    0.8723 H   0  0  0  0  0  0  0  0  0  0  0  0
   -1.2846   -3.4819    1.2109 H   0  0  0  0  0  0  0  0  0  0  0  0
   -2.0988    4.1425    2.4201 H   0  0  0  0  0  0  0  0  0  0  0  0
   -1.3792    3.2278   -1.7318 H   0  0  0  0  0  0  0  0  0  0  0  0
   -3.3356   -4.5912    0.4692 H   0  0  0  0  0  0  0  0  0  0  0  0
   -0.6721    0.1770    1.2168 H   0  0  0  0  0  0  0  0  0  0  0  0
    0.2084    5.0020    2.6224 H   0  0  0  0  0  0  0  0  0  0  0  0
    0.9252    4.0852   -1.5141 H   0  0  0  0  0  0  0  0  0  0  0  0
    1.7249    4.9752    0.6590 H   0  0  0  0  0  0  0  0  0  0  0  0
   -5.7413   -1.3312   -1.4458 H   0  0  0  0  0  0  0  0  0  0  0  0
   -5.2887   -4.3697   -0.5256 H   0  0  0  0  0  0  0  0  0  0  0  0
    2.8261    0.9457   -0.4821 H   0  0  0  0  0  0  0  0  0  0  0  0
  1 16  1  0  0  0  0
  1 48  1  0  0  0  0
  2 18  1  0  0  0  0
  2 49  1  0  0  0  0
  3 27  2  0  0  0  0
  4 28  2  0  0  0  0
  5 22  2  0  0  0  0
  5 27  1  0  0  0  0
  6 31  3  0  0  0  0
  7 30  3  0  0  0  0
  8 33  3  0  0  0  0
  9 32  3  0  0  0  0
 10 11  1  0  0  0  0
 10 12  1  0  0  0  0
 10 34  1  0  0  0  0
 10 35  1  0  0  0  0
 11 13  1  0  0  0  0
 11 36  1  0  0  0  0
 11 37  1  0  0  0  0
 12 14  1  0  0  0  0
 12 38  1  0  0  0  0
 12 39  1  0  0  0  0
 13 15  2  0  0  0  0
 13 16  1  0  0  0  0
 14 19  2  0  0  0  0
 14 20  1  0  0  0  0
 15 17  1  0  0  0  0
 15 22  1  0  0  0  0
 16 18  2  0  0  0  0
 17 21  2  0  0  0  0
 17 40  1  0  0  0  0
 18 21  1  0  0  0  0
 19 23  1  0  0  0  0
 19 41  1  0  0  0  0
 20 24  2  0  0  0  0
 20 42  1  0  0  0  0
 21 43  1  0  0  0  0
 22 44  1  0  0  0  0
 23 25  2  0  0  0  0
 23 45  1  0  0  0  0
 24 25  1  0  0  0  0
 24 46  1  0  0  0  0
 25 47  1  0  0  0  0
 26 27  1  0  0  0  0
 26 28  1  0  0  0  0
 26 30  1  0  0  0  0
 26 31  1  0  0  0  0
 28 29  1  0  0  0  0
 29 32  1  0  0  0  0
 29 33  1  0  0  0  0
 29 50  1  0  0  0  0
M  END
> <PUBCHEM_COMPOUND_CID>
137191345

> <PUBCHEM_CONFORMER_RMSD>
1.4

> <PUBCHEM_CONFORMER_DIVERSEORDER>
1
63
124
88
76
91
80
77
51
26
54
109
61
93
56
90
86
126
95
22
62
123
32
49
118
120
119
112
39
127
99
83
74
128
35
106
103
68
58
100
96
81
85
2
72
73
48
50
113
117
121
64
46
111
8
79
122
67
14
116
101
33
102
78
36
15
115
4
47
110
60
65
94
13
38
45
28
125
20
108
43
37
11
42
105
98
29
52
114
19
30
92
71
31
9
82
55
57
89
34
10
23
66
44
12
75
27
41
70
7
69
97
59
87
21
24
40
104
18
25
17
16
107
6
3
84
53
5

> <PUBCHEM_MMFF94_PARTIAL_CHARGES>
42
1 -0.53
11 0.14
12 0.14
13 -0.14
14 -0.14
15 0.09
16 0.08
17 -0.15
18 0.08
19 -0.15
2 -0.53
20 -0.15
21 -0.15
22 0.3
23 -0.15
24 -0.15
25 -0.15
26 0.52
27 0.72
28 0.45
29 0.46
3 -0.57
30 0.36
31 0.36
32 0.36
33 0.36
4 -0.57
40 0.15
41 0.15
42 0.15
43 0.15
44 0.06
45 0.15
46 0.15
47 0.15
48 0.45
49 0.45
5 -0.66
6 -0.56
7 -0.56
8 -0.56
9 -0.56

> <PUBCHEM_EFFECTIVE_ROTOR_COUNT>
9

> <PUBCHEM_PHARMACOPHORE_FEATURES>
12
1 1 donor
1 2 donor
1 3 acceptor
1 4 acceptor
1 5 acceptor
1 5 donor
1 6 acceptor
1 7 acceptor
1 8 acceptor
1 9 acceptor
6 13 15 16 17 18 21 rings
6 14 19 20 23 24 25 rings

> <PUBCHEM_HEAVY_ATOM_COUNT>
33

> <PUBCHEM_ATOM_DEF_STEREO_COUNT>
0

> <PUBCHEM_ATOM_UDEF_STEREO_COUNT>
0

> <PUBCHEM_BOND_DEF_STEREO_COUNT>
0

> <PUBCHEM_BOND_UDEF_STEREO_COUNT>
0

> <PUBCHEM_ISOTOPIC_ATOM_COUNT>
0

> <PUBCHEM_COMPONENT_COUNT>
1

> <PUBCHEM_CACTVS_TAUTO_COUNT>
-1

> <PUBCHEM_CONFORMER_ID>
082D5FB100000001

> <PUBCHEM_MMFF94_ENERGY>
73.451

> <PUBCHEM_FEATURE_SELFOVERLAP>
60.953

> <PUBCHEM_SHAPE_FINGERPRINT>
10940486 97 17903077729649164878
1100329 8 18411694379981599361
11578080 2 17534870230480852597
12422481 6 16097402387584581146
12788726 201 18410584959183250271
13009979 54 18188205390712544562
15484559 13 16900433526987773263
16991981 162 18052851098396397252
17818456 19 18120931702963034658
21033650 10 18264506009139359906
21860390 5 18053656164135341629
23559900 14 18126569148756327679
3298306 158 17329709237628613317
532947 4 17618505823671900715
550186 7 18129090118349207006
5895379 119 18335989658202079406
6287921 2 16753258909147851441
6700243 42 17916328132684161278

> <PUBCHEM_SHAPE_MULTIPOLES>
630.74
9.23
6.73
2.18
1.12
6.33
-0.81
-7.23
-2.39
-5.27
2.35
2.95
0.44
-2.19

> <PUBCHEM_SHAPE_SELFOVERLAP>
1339.813

> <PUBCHEM_SHAPE_VOLUME>
341.6

> <PUBCHEM_COORDINATE_TYPE>
2
5
10

$$$$
