REMARK  Name = 13712878
REMARK  7 active torsions:
REMARK  status: ('A' for Active; 'I' for Inactive)
REMARK    1  A    between atoms: N_1  and  C1*_11
REMARK    2  A    between atoms: C_7  and  C_25
REMARK    3  A    between atoms: C2*_12  and  O2*_15
REMARK    4  A    between atoms: C3*_13  and  O3*_17
REMARK    5  A    between atoms: C4*_14  and  C5*_19
REMARK    6  A    between atoms: C5*_19  and  O5*_20
REMARK    7  A    between atoms: C_25  and  O_26
REMARK                            x       y       z     vdW  Elec       q    Type
REMARK                         _______ _______ _______ _____ _____    ______ ____
ROOT
ATOM      1  N   UNL     1       0.021  -0.046   0.262  0.00  0.00    -0.250 N 
ATOM      2  N   UNL     1      -1.240  -2.099   0.384  0.00  0.00    -0.233 NA
ATOM      3  N   UNL     1      -3.646  -1.750   0.262  0.00  0.00    -0.234 NA
ATOM      4  C   UNL     1      -1.150  -0.762   0.276  0.00  0.00    +0.121 C 
ATOM      5  C   UNL     1      -0.270   1.291   0.140  0.00  0.00    +0.063 C 
ATOM      6  C   UNL     1      -2.206   0.134   0.161  0.00  0.00    +0.129 C 
ATOM      7  C   UNL     1      -1.640   1.431   0.075  0.00  0.00    +0.013 C 
ATOM      8  C   UNL     1      -3.489  -0.410   0.156  0.00  0.00    +0.110 C 
ATOM      9  C   UNL     1      -2.527  -2.501   0.367  0.00  0.00    +0.252 C 
ATOM     10  N   UNL     1      -4.626   0.411   0.045  0.00  0.00    -0.346 N 
ATOM     11  H   UNL     1      -5.525   0.011   0.043  0.00  0.00    +0.143 HD
ATOM     12  H   UNL     1      -4.522   1.388  -0.032  0.00  0.00    +0.143 HD
ENDROOT
BRANCH   1  14
ATOM     13  O4* UNL     1       2.227   0.318   1.057  0.00  0.00    -0.333 OA
ATOM     14  C1* UNL     1       1.367  -0.605   0.361  0.00  0.00    +0.227 C 
ATOM     15  C2* UNL     1       2.029  -0.868  -0.983  0.00  0.00    +0.187 C 
ATOM     16  C3* UNL     1       3.498  -0.804  -0.614  0.00  0.00    +0.171 C 
ATOM     17  C4* UNL     1       3.525   0.318   0.419  0.00  0.00    +0.175 C 
BRANCH  15  18
ATOM     18  O2* UNL     1       1.648  -2.118  -1.522  0.00  0.00    -0.378 OA
ATOM     19  H2* UNL     1       0.703  -2.101  -1.739  0.00  0.00    +0.211 HD
ENDBRANCH  15  18
BRANCH  16  20
ATOM     20  O3* UNL     1       3.883  -2.024   0.021  0.00  0.00    -0.379 OA
ATOM     21  H3* UNL     1       3.869  -2.745  -0.627  0.00  0.00    +0.211 HD
ENDBRANCH  16  20
BRANCH  17  22
ATOM     22  C5* UNL     1       3.756   1.689  -0.201  0.00  0.00    +0.169 C 
BRANCH  22  23
ATOM     23  O5* UNL     1       3.753   2.660   0.832  0.00  0.00    -0.379 OA
ATOM     24  H5* UNL     1       3.899   3.539   0.449  0.00  0.00    +0.211 HD
ENDBRANCH  22  23
ENDBRANCH  17  22
ENDBRANCH   1  14
BRANCH   7  25
ATOM     25  C   UNL     1      -2.364   2.712  -0.059  0.00  0.00    +0.161 C 
BRANCH  25  26
ATOM     26  O   UNL     1      -2.551   3.023  -1.439  0.00  0.00    -0.377 OA
ATOM     27  H   UNL     1      -3.027   3.864  -1.520  0.00  0.00    +0.211 HD
ENDBRANCH  25  26
ENDBRANCH   7  25
TORSDOF 7
