REMARK  Name = 137177172
REMARK  8 active torsions:
REMARK  status: ('A' for Active; 'I' for Inactive)
REMARK    1  A    between atoms: C_6  and  O_18
REMARK    2  A    between atoms: C_6  and  C_24
REMARK    3  A    between atoms: C_8  and  C_30
REMARK    4  A    between atoms: C_10  and  O_20
REMARK    5  A    between atoms: C_11  and  O_22
REMARK    6  A    between atoms: C_24  and  C_25
REMARK    7  A    between atoms: C_25  and  O_28
REMARK    8  A    between atoms: C_30  and  C_31
REMARK                            x       y       z     vdW  Elec       q    Type
REMARK                         _______ _______ _______ _____ _____    ______ ____
ROOT
ATOM      1  O   UNL     1      -1.815  -1.198   0.461  0.00  0.00    -0.474 OA
ATOM      2  O   UNL     1       2.838  -0.327  -0.103  0.00  0.00    -0.287 OA
ATOM      3  O   UNL     1      -5.359   1.952  -0.497  0.00  0.00    -0.286 OA
ATOM      4  C   UNL     1       0.522  -0.803   0.239  0.00  0.00    +0.090 C 
ATOM      5  C   UNL     1      -0.829  -0.279   0.124  0.00  0.00    +0.221 C 
ATOM      6  C   UNL     1       0.819  -2.046   0.654  0.00  0.00    +0.116 C 
ATOM      7  C   UNL     1      -1.090   0.990  -0.277  0.00  0.00    +0.089 C 
ATOM      8  C   UNL     1       1.349   1.477  -0.519  0.00  0.00    +0.055 C 
ATOM      9  C   UNL     1       1.676   0.069  -0.127  0.00  0.00    +0.197 C 
ATOM     10  C   UNL     1       0.060   1.875  -0.556  0.00  0.00    +0.136 C 
ATOM     11  C   UNL     1      -2.522   1.360  -0.375  0.00  0.00    +0.142 C 
ATOM     12  C   UNL     1      -3.491   0.491  -0.029  0.00  0.00    +0.102 C 
ATOM     13  C   UNL     1      -3.151  -0.845   0.424  0.00  0.00    +0.127 C 
ATOM     14  C   UNL     1      -4.949   0.863  -0.112  0.00  0.00    +0.201 C 
ATOM     15  C   UNL     1      -4.096  -1.724   0.780  0.00  0.00    +0.090 C 
ATOM     16  C   UNL     1      -5.922  -0.182   0.315  0.00  0.00    +0.038 C 
ATOM     17  C   UNL     1      -5.495  -1.380   0.730  0.00  0.00    -0.015 C 
ENDROOT
BRANCH   6  18
ATOM     18  O   UNL     1      -0.163  -2.965   0.961  0.00  0.00    -0.510 OA
ATOM     19  H   UNL     1       0.073  -3.825   1.248  0.00  0.00    +0.292 HD
ENDBRANCH   6  18
BRANCH  10  20
ATOM     20  O   UNL     1      -0.295   3.181  -0.840  0.00  0.00    -0.506 OA
ATOM     21  H   UNL     1      -1.199   3.427  -0.858  0.00  0.00    +0.292 HD
ENDBRANCH  10  20
BRANCH  11  22
ATOM     22  O   UNL     1      -2.842   2.616  -0.854  0.00  0.00    -0.505 OA
ATOM     23  H   UNL     1      -2.162   3.214  -1.092  0.00  0.00    +0.292 HD
ENDBRANCH  11  22
BRANCH   6  24
ATOM     24  C   UNL     1       2.229  -2.562   0.764  0.00  0.00    +0.090 C 
BRANCH  24  25
ATOM     25  C   UNL     1       2.797  -3.196  -0.526  0.00  0.00    +0.096 C 
ATOM     26  C   UNL     1       2.223  -4.607  -0.701  0.00  0.00    +0.030 C 
ATOM     27  C   UNL     1       4.325  -3.260  -0.544  0.00  0.00    +0.030 C 
BRANCH  25  28
ATOM     28  O   UNL     1       2.385  -2.420  -1.655  0.00  0.00    -0.386 OA
ATOM     29  H   UNL     1       1.417  -2.361  -1.671  0.00  0.00    +0.210 HD
ENDBRANCH  25  28
ENDBRANCH  24  25
ENDBRANCH   6  24
BRANCH   8  30
ATOM     30  C   UNL     1       2.546   2.330  -0.845  0.00  0.00    +0.058 C 
BRANCH  30  31
ATOM     31  C   UNL     1       3.212   2.841   0.393  0.00  0.00    -0.030 C 
ATOM     32  C   UNL     1       4.492   2.664   0.773  0.00  0.00    -0.048 C 
ATOM     33  C   UNL     1       5.443   1.880  -0.092  0.00  0.00    +0.026 C 
ATOM     34  C   UNL     1       5.104   3.206   2.034  0.00  0.00    +0.026 C 
ENDBRANCH  30  31
ENDBRANCH   8  30
TORSDOF 8
