137182739
  -OEChem-03292013293D

 19 20  0     0  0  0  0  0  0999 V2000
   -0.0094   -2.8289    0.0000 O   0  5  0  0  0  0  0  0  0  0  0  0
   -1.4884    2.7860    0.0000 O   0  5  0  0  0  0  0  0  0  0  0  0
   -4.2667   -0.6673    0.0000 O   0  5  0  0  0  0  0  0  0  0  0  0
    3.6067    0.9538    1.0976 O   0  5  0  0  0  0  0  0  0  0  0  0
    3.6068    0.9538   -1.0976 O   0  0  0  0  0  0  0  0  0  0  0  0
    0.2038   -1.5679   -0.0001 N   0  3  0  0  0  0  0  0  0  0  0  0
    0.6842    1.1891    0.0000 N   0  0  0  0  0  0  0  0  0  0  0  0
   -1.6301    1.5281    0.0000 N   0  3  0  0  0  0  0  0  0  0  0  0
   -2.1010   -1.1712    0.0000 N   0  0  0  0  0  0  0  0  0  0  0  0
    2.5632   -1.9864    0.0001 N   0  0  0  0  0  0  0  0  0  0  0  0
   -3.0765   -0.2474    0.0000 N   0  3  0  0  0  0  0  0  0  0  0  0
    3.0438    0.7599   -0.0001 N   0  3  0  0  0  0  0  0  0  0  0  0
   -2.8981    1.0871    0.0000 N   0  0  0  0  0  0  0  0  0  0  0  0
   -0.8553   -0.6829    0.0000 C   0  0  0  0  0  0  0  0  0  0  0  0
   -0.5624    0.6764   -0.0001 C   0  0  0  0  0  0  0  0  0  0  0  0
    1.4900   -1.0753    0.0000 C   0  0  0  0  0  0  0  0  0  0  0  0
    1.6894    0.2932   -0.0001 C   0  0  0  0  0  0  0  0  0  0  0  0
    3.4319   -1.7199   -0.4461 H   0  0  0  0  0  0  0  0  0  0  0  0
    2.3263   -2.9710    0.0079 H   0  0  0  0  0  0  0  0  0  0  0  0
  1  6  1  0  0  0  0
  2  8  1  0  0  0  0
  3 11  1  0  0  0  0
  4 12  1  0  0  0  0
  5 12  2  0  0  0  0
  6 14  2  0  0  0  0
  6 16  1  0  0  0  0
  7 15  2  0  0  0  0
  7 17  1  0  0  0  0
  8 13  2  0  0  0  0
  8 15  1  0  0  0  0
  9 11  2  0  0  0  0
  9 14  1  0  0  0  0
 10 16  1  0  0  0  0
 10 18  1  0  0  0  0
 10 19  1  0  0  0  0
 11 13  1  0  0  0  0
 12 17  1  0  0  0  0
 14 15  1  0  0  0  0
 16 17  2  0  0  0  0
M  CHG  8   1  -1   2  -1   3  -1   4  -1   6   1   8   1  11   1  12   1
M  END
> <PUBCHEM_COMPOUND_CID>
137182739

> <PUBCHEM_CONFORMER_RMSD>
0.6

> <PUBCHEM_CONFORMER_DIVERSEORDER>
1

> <PUBCHEM_MMFF94_PARTIAL_CHARGES>
19
1 -0.75
10 -0.9
11 1.43
12 0.91
13 -0.68
14 0.4
15 0.4
16 0.19
17 0.44
18 0.4
19 0.4
2 -0.75
3 -0.75
4 -0.52
5 -0.52
6 0.57
7 -0.62
8 1
9 -0.65

> <PUBCHEM_EFFECTIVE_ROTOR_COUNT>
1

> <PUBCHEM_PHARMACOPHORE_FEATURES>
10
1 1 anion
1 10 cation
1 10 donor
1 4 acceptor
1 4 anion
1 5 acceptor
3 6 9 14 cation
3 7 8 15 cation
6 6 7 14 15 16 17 rings
6 8 9 11 13 14 15 rings

> <PUBCHEM_HEAVY_ATOM_COUNT>
17

> <PUBCHEM_ATOM_DEF_STEREO_COUNT>
0

> <PUBCHEM_ATOM_UDEF_STEREO_COUNT>
0

> <PUBCHEM_BOND_DEF_STEREO_COUNT>
0

> <PUBCHEM_BOND_UDEF_STEREO_COUNT>
0

> <PUBCHEM_ISOTOPIC_ATOM_COUNT>
0

> <PUBCHEM_COMPONENT_COUNT>
1

> <PUBCHEM_CACTVS_TAUTO_COUNT>
-1

> <PUBCHEM_CONFORMER_ID>
082D3E1300000001

> <PUBCHEM_MMFF94_ENERGY>
47.4963

> <PUBCHEM_FEATURE_SELFOVERLAP>
50.92

> <PUBCHEM_SHAPE_FINGERPRINT>
10608611 8 18339075965259897937
10967382 1 18410574028153897607
11132069 177 18271804682749979417
11471102 20 18410288087007278759
13140716 1 17978225285761418096
13380535 21 18268441147842338025
13380535 76 18410291445297579978
14325111 11 18410855425789704325
14576447 43 18056744645770926311
14614273 12 18188482485075599941
15196674 1 18410575055131122759
15536298 74 18343019952497898062
15775835 57 18272655649057714947
16945 1 18338516464360088806
17846911 113 18339072791278832504
18186145 218 18059862735718148984
193761 8 18122343471724316231
20510252 161 18343865519515070656
20588541 1 18340771553902574978
20645477 70 18341045204066336959
21501502 16 18266463113586397041
2334 1 18410575046182524532
23402539 116 18270105941601164518
23402655 69 18341320125223238109
23463225 33 18334572391692247770
23552423 10 18191589648847749671
23559900 14 18195237832945366826
25610 137 18409171008768122117
2748010 2 18337955575906586726
350125 39 18266181638799603368
43471831 8 18335979796319130723
5104073 3 18338518539151034147
528886 8 18339356465484637467
537710 114 18335706086943770133
53812653 166 18272645800798010280
53812653 8 18336269019696067284
57177213 63 18334300837915839588
58051976 378 18411699889627886332
7364860 26 18126846002095175878

> <PUBCHEM_SHAPE_MULTIPOLES>
280.66
5.71
2.38
0.66
0.4
0.35
0
-0.95
0
0.12
0
-0.46
-0.12
0

> <PUBCHEM_SHAPE_SELFOVERLAP>
611.784

> <PUBCHEM_SHAPE_VOLUME>
150.1

> <PUBCHEM_COORDINATE_TYPE>
2
5
10

$$$$
