REMARK  Name = 137199502
REMARK  5 active torsions:
REMARK  status: ('A' for Active; 'I' for Inactive)
REMARK    1  A    between atoms: C_7  and  N_17
REMARK    2  A    between atoms: C_11  and  O_15
REMARK    3  A    between atoms: N_17  and  N_18
REMARK    4  A    between atoms: N_18  and  C_20
REMARK    5  A    between atoms: C_20  and  N_21
REMARK                            x       y       z     vdW  Elec       q    Type
REMARK                         _______ _______ _______ _____ _____    ______ ____
ROOT
ATOM      1  C   UNL     1      -1.081   0.859   0.020  0.00  0.00    +0.001 C 
ATOM      2  C   UNL     1      -2.369   0.217   0.058  0.00  0.00    +0.000 C 
ATOM      3  C   UNL     1       0.074   0.080  -0.248  0.00  0.00    +0.020 C 
ATOM      4  C   UNL     1      -2.452  -1.181  -0.174  0.00  0.00    +0.000 C 
ATOM      5  C   UNL     1      -0.048  -1.294  -0.472  0.00  0.00    +0.001 C 
ATOM      6  C   UNL     1      -1.292  -1.915  -0.436  0.00  0.00    +0.000 C 
ATOM      7  C   UNL     1       1.346   0.677  -0.292  0.00  0.00    +0.123 C 
ATOM      8  C   UNL     1      -0.877   2.245   0.236  0.00  0.00    +0.003 C 
ATOM      9  C   UNL     1      -3.588   0.893   0.316  0.00  0.00    +0.000 C 
ATOM     10  C   UNL     1      -3.694  -1.838  -0.145  0.00  0.00    +0.000 C 
ATOM     11  C   UNL     1       1.505   2.042  -0.074  0.00  0.00    +0.150 C 
ATOM     12  C   UNL     1       0.393   2.826   0.190  0.00  0.00    +0.038 C 
ATOM     13  C   UNL     1      -4.816   0.227   0.342  0.00  0.00    +0.000 C 
ATOM     14  C   UNL     1      -4.870  -1.139   0.112  0.00  0.00    +0.000 C 
ENDROOT
BRANCH  11  15
ATOM     15  O   UNL     1       2.736   2.624  -0.115  0.00  0.00    -0.504 OA
ATOM     16  H   UNL     1       3.495   2.103  -0.293  0.00  0.00    +0.292 HD
ENDBRANCH  11  15
BRANCH   7  17
ATOM     17  N   UNL     1       2.499  -0.084  -0.556  0.00  0.00    -0.123 NA
BRANCH  17  18
ATOM     18  N   UNL     1       2.977  -0.511   0.518  0.00  0.00    -0.106 NA
BRANCH  18  20
ATOM     19  S   UNL     1       4.300  -2.860   0.770  0.00  0.00    -0.016 S 
ATOM     20  C   UNL     1       4.109  -1.260   0.288  0.00  0.00    +0.170 C 
BRANCH  20  21
ATOM     21  N   UNL     1       5.150  -0.609  -0.338  0.00  0.00    -0.338 N 
ATOM     22  H   UNL     1       5.987  -1.090  -0.530  0.00  0.00    +0.144 HD
ATOM     23  H   UNL     1       5.057   0.337  -0.592  0.00  0.00    +0.144 HD
ENDBRANCH  20  21
ENDBRANCH  18  20
ENDBRANCH  17  18
ENDBRANCH   7  17
TORSDOF 5
