REMARK  Name = 137239458
REMARK  4 active torsions:
REMARK  status: ('A' for Active; 'I' for Inactive)
REMARK    1  A    between atoms: N_2  and  C1*_17
REMARK    2  A    between atoms: C2*_18  and  O2*_21
REMARK    3  A    between atoms: C3*_19  and  O3*_23
REMARK    4  A    between atoms: C4*_20  and  C5*_26
REMARK                            x       y       z     vdW  Elec       q    Type
REMARK                         _______ _______ _______ _____ _____    ______ ____
ROOT
ATOM      1  O   UNL     1      -4.354  -1.532   0.306  0.00  0.00    -0.273 OA
ATOM      2  N   UNL     1       0.041  -0.289  -0.172  0.00  0.00    -0.247 N 
ATOM      3  N   UNL     1      -1.306  -1.940   0.188  0.00  0.00    -0.241 NA
ATOM      4  N   UNL     1      -1.585   1.543  -0.378  0.00  0.00    -0.361 NA
ATOM      5  N   UNL     1      -3.803   0.675  -0.096  0.00  0.00    -0.246 N 
ATOM      6  N   UNL     1      -3.449   2.960  -0.501  0.00  0.00    -0.321 N 
ATOM      7  C   UNL     1      -1.232   0.246  -0.183  0.00  0.00    +0.189 C 
ATOM      8  C   UNL     1      -0.019  -1.606   0.052  0.00  0.00    +0.173 C 
ATOM      9  C   UNL     1      -2.083  -0.816   0.048  0.00  0.00    +0.204 C 
ATOM     10  C   UNL     1      -3.493  -0.678   0.111  0.00  0.00    +0.252 C 
ATOM     11  C   UNL     1      -1.782  -3.284   0.443  0.00  0.00    +0.092 C 
ATOM     12  C   UNL     1      -2.885   1.722  -0.328  0.00  0.00    +0.239 C 
ATOM     13  H   UNL     1      -4.757   0.918  -0.078  0.00  0.00    +0.159 HD
ATOM     14  H   UNL     1      -2.876   3.743  -0.668  0.00  0.00    +0.146 HD
ATOM     15  H   UNL     1      -4.427   3.066  -0.459  0.00  0.00    +0.146 HD
ENDROOT
BRANCH   2  17
ATOM     16  O4* UNL     1       2.324  -0.317  -1.034  0.00  0.00    -0.333 OA
ATOM     17  C1* UNL     1       1.320   0.487  -0.383  0.00  0.00    +0.225 C 
ATOM     18  C2* UNL     1       1.951   0.960   0.923  0.00  0.00    +0.187 C 
ATOM     19  C3* UNL     1       3.409   1.101   0.534  0.00  0.00    +0.171 C 
ATOM     20  C4* UNL     1       3.605  -0.079  -0.409  0.00  0.00    +0.179 C 
BRANCH  18  21
ATOM     21  O2* UNL     1       1.388   2.164   1.404  0.00  0.00    -0.378 OA
ATOM     22  H2* UNL     1       0.458   2.016   1.637  0.00  0.00    +0.211 HD
ENDBRANCH  18  21
BRANCH  19  23
ATOM     23  O3* UNL     1       3.611   2.300  -0.213  0.00  0.00    -0.379 OA
ATOM     24  H3* UNL     1       3.491   3.067   0.368  0.00  0.00    +0.211 HD
ENDBRANCH  19  23
BRANCH  20  26
ATOM     25  O5* UNL     1       4.311  -2.262  -0.618  0.00  0.00    -0.218 OA
ATOM     26  C5* UNL     1       4.030  -1.353   0.308  0.00  0.00    +0.214 C 
ENDBRANCH  20  26
ENDBRANCH   2  17
TORSDOF 4
