137266807
  -OEChem-03292013293D

 44 48  0     1  0  0  0  0  0999 V2000
    4.8803    0.8307    0.7467 S   0  0  0  0  0  0  0  0  0  0  0  0
    0.6892   -2.1200    1.9969 S   0  0  0  0  0  0  0  0  0  0  0  0
   -2.6565   -2.6014   -0.7692 S   0  0  0  0  0  0  0  0  0  0  0  0
    2.2205   -0.9638   -2.2548 O   0  0  0  0  0  0  0  0  0  0  0  0
   -1.5773    1.7814   -0.8166 O   0  0  0  0  0  0  0  0  0  0  0  0
    2.0100   -0.9219    0.0609 N   0  0  0  0  0  0  0  0  0  0  0  0
    2.4399    1.6851    0.0646 N   0  0  2  0  0  0  0  0  0  0  0  0
   -0.8656   -0.7960   -0.2327 N   0  0  0  0  0  0  0  0  0  0  0  0
    2.5081   -0.3762    1.3362 C   0  0  1  0  0  0  0  0  0  0  0  0
    3.1108    1.0343    1.1971 C   0  0  1  0  0  0  0  0  0  0  0  0
    3.0025    1.0047   -1.1192 C   0  0  2  0  0  0  0  0  0  0  0  0
    1.1506   -2.0968    0.2199 C   0  0  2  0  0  0  0  0  0  0  0  0
    1.3332   -0.4514    2.3057 C   0  0  0  0  0  0  0  0  0  0  0  0
    2.3763   -0.3949   -1.1738 C   0  0  0  0  0  0  0  0  0  0  0  0
    4.5283    0.9284   -1.0260 C   0  0  0  0  0  0  0  0  0  0  0  0
   -0.1365   -2.0306   -0.5961 C   0  0  1  0  0  0  0  0  0  0  0  0
    2.6324    3.1318    0.0357 C   0  0  0  0  0  0  0  0  0  0  0  0
   -1.0284   -3.2376   -0.3388 C   0  0  0  0  0  0  0  0  0  0  0  0
   -2.1429   -0.9795   -0.3495 C   0  0  0  0  0  0  0  0  0  0  0  0
   -3.1332    0.0970   -0.1123 C   0  0  0  0  0  0  0  0  0  0  0  0
   -2.8113    1.4322   -0.3555 C   0  0  0  0  0  0  0  0  0  0  0  0
   -4.4010   -0.2396    0.3620 C   0  0  0  0  0  0  0  0  0  0  0  0
   -3.7573    2.4309   -0.1244 C   0  0  0  0  0  0  0  0  0  0  0  0
   -5.3470    0.7590    0.5932 C   0  0  0  0  0  0  0  0  0  0  0  0
   -5.0252    2.0943    0.3500 C   0  0  0  0  0  0  0  0  0  0  0  0
    3.2777   -1.0785    1.6921 H   0  0  0  0  0  0  0  0  0  0  0  0
    3.0313    1.5900    2.1376 H   0  0  0  0  0  0  0  0  0  0  0  0
    2.6936    1.5115   -2.0423 H   0  0  0  0  0  0  0  0  0  0  0  0
    1.7356   -2.9894   -0.0250 H   0  0  0  0  0  0  0  0  0  0  0  0
    1.6453   -0.3354    3.3470 H   0  0  0  0  0  0  0  0  0  0  0  0
    0.5568    0.2855    2.0774 H   0  0  0  0  0  0  0  0  0  0  0  0
    4.9422    0.0558   -1.5393 H   0  0  0  0  0  0  0  0  0  0  0  0
    4.9955    1.8345   -1.4231 H   0  0  0  0  0  0  0  0  0  0  0  0
    0.0977   -1.9816   -1.6667 H   0  0  0  0  0  0  0  0  0  0  0  0
    2.1969    3.5862    0.9325 H   0  0  0  0  0  0  0  0  0  0  0  0
    2.1039    3.5634   -0.8214 H   0  0  0  0  0  0  0  0  0  0  0  0
    3.6812    3.4398   -0.0245 H   0  0  0  0  0  0  0  0  0  0  0  0
   -0.7536   -4.0840   -0.9754 H   0  0  0  0  0  0  0  0  0  0  0  0
   -1.0784   -3.5907    0.6919 H   0  0  0  0  0  0  0  0  0  0  0  0
   -4.6861   -1.2629    0.5862 H   0  0  0  0  0  0  0  0  0  0  0  0
   -3.5202    3.4753   -0.3087 H   0  0  0  0  0  0  0  0  0  0  0  0
   -6.3326    0.4980    0.9676 H   0  0  0  0  0  0  0  0  0  0  0  0
   -5.7614    2.8719    0.5313 H   0  0  0  0  0  0  0  0  0  0  0  0
   -1.5386    2.7475   -0.9215 H   0  0  0  0  0  0  0  0  0  0  0  0
  1 10  1  0  0  0  0
  1 15  1  0  0  0  0
  2 12  1  0  0  0  0
  2 13  1  0  0  0  0
  3 18  1  0  0  0  0
  3 19  1  0  0  0  0
  4 14  2  0  0  0  0
  5 21  1  0  0  0  0
  5 44  1  0  0  0  0
  6  9  1  0  0  0  0
  6 12  1  0  0  0  0
  6 14  1  0  0  0  0
  7 10  1  0  0  0  0
  7 11  1  0  0  0  0
  7 17  1  0  0  0  0
  8 16  1  0  0  0  0
  8 19  2  0  0  0  0
  9 10  1  0  0  0  0
  9 13  1  0  0  0  0
  9 26  1  0  0  0  0
 10 27  1  0  0  0  0
 11 14  1  0  0  0  0
 11 15  1  0  0  0  0
 11 28  1  0  0  0  0
 12 16  1  0  0  0  0
 12 29  1  0  0  0  0
 13 30  1  0  0  0  0
 13 31  1  0  0  0  0
 15 32  1  0  0  0  0
 15 33  1  0  0  0  0
 16 18  1  0  0  0  0
 16 34  1  0  0  0  0
 17 35  1  0  0  0  0
 17 36  1  0  0  0  0
 17 37  1  0  0  0  0
 18 38  1  0  0  0  0
 18 39  1  0  0  0  0
 19 20  1  0  0  0  0
 20 21  1  0  0  0  0
 20 22  2  0  0  0  0
 21 23  2  0  0  0  0
 22 24  1  0  0  0  0
 22 40  1  0  0  0  0
 23 25  1  0  0  0  0
 23 41  1  0  0  0  0
 24 25  2  0  0  0  0
 24 42  1  0  0  0  0
 25 43  1  0  0  0  0
M  END
> <PUBCHEM_COMPOUND_CID>
137266807

> <PUBCHEM_CONFORMER_RMSD>
0.8

> <PUBCHEM_CONFORMER_DIVERSEORDER>
1
8
14
5
9
16
7
2
11
13
10
17
4
6
3
15
12

> <PUBCHEM_MMFF94_PARTIAL_CHARGES>
30
1 -0.46
10 0.5
11 0.33
12 0.53
13 0.23
14 0.57
15 0.23
16 0.25
17 0.27
18 0.23
19 0.5
2 -0.46
20 0.09
21 0.08
22 -0.15
23 -0.15
24 -0.15
25 -0.15
3 -0.37
4 -0.57
40 0.15
41 0.15
42 0.15
43 0.15
44 0.45
5 -0.53
6 -0.66
7 -0.81
8 -0.7
9 0.3

> <PUBCHEM_EFFECTIVE_ROTOR_COUNT>
3.8

> <PUBCHEM_PHARMACOPHORE_FEATURES>
8
1 4 acceptor
1 5 donor
1 7 cation
1 8 acceptor
5 2 6 9 12 13 rings
5 3 8 16 18 19 rings
6 20 21 22 23 24 25 rings
8 1 6 7 9 10 11 14 15 rings

> <PUBCHEM_HEAVY_ATOM_COUNT>
25

> <PUBCHEM_ATOM_DEF_STEREO_COUNT>
5

> <PUBCHEM_ATOM_UDEF_STEREO_COUNT>
0

> <PUBCHEM_BOND_DEF_STEREO_COUNT>
0

> <PUBCHEM_BOND_UDEF_STEREO_COUNT>
0

> <PUBCHEM_ISOTOPIC_ATOM_COUNT>
0

> <PUBCHEM_COMPONENT_COUNT>
1

> <PUBCHEM_CACTVS_TAUTO_COUNT>
-1

> <PUBCHEM_CONFORMER_ID>
082E867700000001

> <PUBCHEM_MMFF94_ENERGY>
81.8291

> <PUBCHEM_FEATURE_SELFOVERLAP>
40.61

> <PUBCHEM_SHAPE_FINGERPRINT>
10165383 225 18201449068683017339
10498660 4 18343017770759961321
10670039 82 18411417349277467359
10764073 3 17556544718732086378
11221954 11 17977670036911562192
11578080 2 17558818736516971848
11595378 159 18113615703463989127
11640471 11 18113608010676635986
11720765 8 17200521710938070254
12173636 292 18341325669609773015
12422481 6 17829290685551355154
12633257 1 18337663200393004348
12788726 201 17247267773746770475
12925494 130 17979640031606417273
12978246 48 18409728452447564721
13224815 77 18335415747433985909
13583140 156 17240749667443734381
13911987 19 15983706761218422312
13965767 371 18115017507284290989
14251757 17 17987816136690731102
14251764 38 18051689151177614552
14341114 328 17603590733423651513
1454969 45 18341332288876971271
14955137 171 17902508194962558266
151778 21 18269276764306119139
15238133 3 18335139834793617844
20465049 17 18337405845836200134
20691752 17 17605258778357052708
20775530 9 9943263531563016561
21864079 5 18411976970958242629
23227448 37 18342739658742416413
23557571 272 17987795357533795602
23558518 356 17974291228783426117
23559900 14 18130796637541500710
2637199 183 18335710429039408410
350125 39 18265618671444987846
38570 142 17314535771270593292
392239 28 17823151171340354523
427121 178 18259708882666466164
46194498 28 16414058901652294755
474 4 17749391485493388295
5048184 11 18411417302339002693
5081480 168 17413631356298235524
5104073 3 18117006486082344705
57091435 65 18117271463134687442
57527585 21 17697589253666402685
6442390 28 18342178873400381615
7097593 13 17680128691485223203
7808743 9 18339922713761874009
8988823 20 14201694086710940727

> <PUBCHEM_SHAPE_MULTIPOLES>
499.36
9.78
3.35
1.59
4.97
0.38
0.37
-7.16
0.48
1.57
-0.21
-1.46
0.59
-0.63

> <PUBCHEM_SHAPE_SELFOVERLAP>
1053.589

> <PUBCHEM_SHAPE_VOLUME>
283.6

> <PUBCHEM_COORDINATE_TYPE>
2
5
10

$$$$
