REMARK  Name = 137250079
REMARK  7 active torsions:
REMARK  status: ('A' for Active; 'I' for Inactive)
REMARK    1  A    between atoms: C_2  and  N_4
REMARK    2  A    between atoms: C_2  and  C_18
REMARK    3  A    between atoms: N_3  and  N_4
REMARK    4  A    between atoms: N_3  and  C_9
REMARK    5  A    between atoms: C_10  and  O_16
REMARK    6  A    between atoms: C_18  and  N_20
REMARK    7  A    between atoms: C_27  and  N_32
REMARK                            x       y       z     vdW  Elec       q    Type
REMARK                         _______ _______ _______ _____ _____    ______ ____
ROOT
ATOM      1  O   UNL     1      -2.165  -3.719  -1.586  0.00  0.00    -0.270 OA
ATOM      2  C   UNL     1      -2.052  -3.231  -0.463  0.00  0.00    +0.281 C 
ENDROOT
BRANCH   2   3
ATOM      3  N   UNL     1      -2.662  -2.077  -0.012  0.00  0.00    -0.089 NA
BRANCH   3   4
ATOM      4  N   UNL     1      -2.336  -1.072  -0.689  0.00  0.00    -0.121 NA
BRANCH   4   9
ATOM      5 CL   UNL     1       0.343   4.072  -1.264  0.00  0.00    -0.082 Cl
ATOM      6  N   UNL     1      -4.455   1.415   0.748  0.00  0.00    -0.324 N 
ATOM      7  C   UNL     1      -2.463   1.393  -0.257  0.00  0.00    +0.038 A 
ATOM      8  C   UNL     1      -3.413   2.221   0.346  0.00  0.00    +0.060 A 
ATOM      9  C   UNL     1      -2.970   0.065  -0.201  0.00  0.00    +0.141 A 
ATOM     10  C   UNL     1      -4.196   0.111   0.422  0.00  0.00    +0.217 A 
ATOM     11  C   UNL     1      -1.283   1.973  -0.763  0.00  0.00    +0.014 C 
ATOM     12  C   UNL     1      -3.241   3.604   0.468  0.00  0.00    +0.018 C 
ATOM     13  C   UNL     1      -1.097   3.356  -0.648  0.00  0.00    +0.058 C 
ATOM     14  C   UNL     1      -2.063   4.157  -0.042  0.00  0.00    +0.013 C 
ATOM     15  H   UNL     1      -5.268   1.732   1.205  0.00  0.00    +0.169 HD
BRANCH  10  16
ATOM     16  O   UNL     1      -5.071  -0.839   0.720  0.00  0.00    -0.492 OA
ATOM     17  H   UNL     1      -5.871  -0.620   1.155  0.00  0.00    +0.294 HD
ENDBRANCH  10  16
ENDBRANCH   4   9
ENDBRANCH   3   4
ENDBRANCH   2   3
BRANCH   2  18
ATOM     18  C   UNL     1      -1.193  -3.862   0.612  0.00  0.00    +0.179 C 
BRANCH  18  20
ATOM     19  S   UNL     1       2.660  -3.099  -0.369  0.00  0.00    -0.038 S 
ATOM     20  N   UNL     1       0.175  -3.942   0.166  0.00  0.00    -0.295 N 
ATOM     21  N   UNL     1       0.754  -1.673   0.625  0.00  0.00    -0.384 NA
ATOM     22  C   UNL     1       3.006  -1.448  -0.012  0.00  0.00    +0.060 C 
ATOM     23  C   UNL     1       1.860  -0.843   0.514  0.00  0.00    +0.122 C 
ATOM     24  C   UNL     1       1.060  -2.874   0.192  0.00  0.00    +0.211 C 
ATOM     25  C   UNL     1       4.205  -0.738  -0.186  0.00  0.00    +0.033 C 
ATOM     26  C   UNL     1       1.919   0.519   0.878  0.00  0.00    +0.087 C 
ATOM     27  C   UNL     1       4.236   0.610   0.182  0.00  0.00    +0.140 C 
ATOM     28  C   UNL     1       3.109   1.232   0.707  0.00  0.00    +0.005 C 
ATOM     29  H   UNL     1       0.500  -4.805  -0.179  0.00  0.00    +0.150 HD
BRANCH  27  32
ATOM     30  O   UNL     1       5.454   2.561   0.352  0.00  0.00    -0.126 OA
ATOM     31  O   UNL     1       6.446   0.777  -0.457  0.00  0.00    -0.126 OA
ATOM     32  N   UNL     1       5.437   1.352   0.018  0.00  0.00    +0.057 N 
ENDBRANCH  27  32
ENDBRANCH  18  20
ENDBRANCH   2  18
TORSDOF 7
