REMARK  Name = 137246610
REMARK  6 active torsions:
REMARK  status: ('A' for Active; 'I' for Inactive)
REMARK    1  A    between atoms: C_3  and  O_27
REMARK    2  A    between atoms: CA_6  and  C_32
REMARK    3  A    between atoms: C_8  and  C_16
REMARK    4  A    between atoms: C_11  and  O_29
REMARK    5  A    between atoms: C_22  and  O_25
REMARK    6  A    between atoms: C_32  and  O_33
REMARK                            x       y       z     vdW  Elec       q    Type
REMARK                         _______ _______ _______ _____ _____    ______ ____
ROOT
ATOM      1  N   UNL     1      -2.911  -3.034   0.499  0.00  0.00    -0.312 N 
ATOM      2  N   UNL     1      -0.902   1.548  -0.542  0.00  0.00    -0.258 NA
ATOM      3  C   UNL     1      -2.796   0.629   0.784  0.00  0.00    +0.172 C 
ATOM      4  C   UNL     1      -2.604  -0.833   0.570  0.00  0.00    +0.023 C 
ATOM      5  C   UNL     1      -1.554  -1.410  -0.205  0.00  0.00    +0.017 C 
ATOM      6  CA  UNL     1      -2.348   1.409  -0.464  0.00  0.00    +0.232 C 
ATOM      7  C   UNL     1      -0.436  -0.875  -0.879  0.00  0.00    +0.052 C 
ATOM      8  C   UNL     1      -0.085   0.572  -0.741  0.00  0.00    +0.081 C 
ATOM      9  C   UNL     1      -1.795  -2.783  -0.267  0.00  0.00    +0.048 C 
ATOM     10  C   UNL     1      -3.410  -1.863   1.004  0.00  0.00    +0.060 C 
ATOM     11  C   UNL     1       0.362  -1.745  -1.643  0.00  0.00    +0.135 C 
ATOM     12  C   UNL     1      -0.992  -3.660  -1.001  0.00  0.00    +0.018 C 
ATOM     13  C   UNL     1       0.085  -3.111  -1.701  0.00  0.00    +0.038 C 
ATOM     14  H   UNL     1      -3.294  -3.926   0.661  0.00  0.00    +0.152 HD
ENDROOT
BRANCH   8  16
ATOM     15  N   UNL     1       3.236   1.912  -1.476  0.00  0.00    -0.312 N 
ATOM     16  C   UNL     1       1.355   0.949  -0.796  0.00  0.00    +0.033 C 
ATOM     17  C   UNL     1       2.408   0.525   0.063  0.00  0.00    +0.019 C 
ATOM     18  C   UNL     1       3.577   1.143  -0.385  0.00  0.00    +0.049 C 
ATOM     19  C   UNL     1       1.896   1.801  -1.732  0.00  0.00    +0.063 C 
ATOM     20  C   UNL     1       2.478  -0.329   1.182  0.00  0.00    +0.038 C 
ATOM     21  C   UNL     1       4.818   0.951   0.232  0.00  0.00    +0.018 C 
ATOM     22  C   UNL     1       3.712  -0.531   1.810  0.00  0.00    +0.134 C 
ATOM     23  C   UNL     1       4.863   0.100   1.341  0.00  0.00    +0.038 C 
ATOM     24  H   UNL     1       3.865   2.462  -1.996  0.00  0.00    +0.152 HD
BRANCH  22  25
ATOM     25  O   UNL     1       3.788  -1.354   2.893  0.00  0.00    -0.506 OA
ATOM     26  H   UNL     1       3.017  -1.781   3.212  0.00  0.00    +0.292 HD
ENDBRANCH  22  25
ENDBRANCH   8  16
BRANCH   3  27
ATOM     27  O   UNL     1      -2.088   1.065   1.943  0.00  0.00    -0.347 OA
ATOM     28  C   UNL     1      -2.805   0.764   3.130  0.00  0.00    +0.175 C 
ENDBRANCH   3  27
BRANCH  11  29
ATOM     29  O   UNL     1       1.420  -1.299  -2.382  0.00  0.00    -0.505 OA
ATOM     30  H   UNL     1       1.646  -0.390  -2.376  0.00  0.00    +0.292 HD
ENDBRANCH  11  29
BRANCH   6  32
ATOM     31  OXT UNL     1      -2.177   3.821  -0.403  0.00  0.00    -0.248 OA
ATOM     32  C   UNL     1      -2.871   2.815  -0.423  0.00  0.00    +0.339 C 
BRANCH  32  33
ATOM     33  O   UNL     1      -4.226   2.822  -0.408  0.00  0.00    -0.479 OA
ATOM     34  H   UNL     1      -4.699   2.013  -0.425  0.00  0.00    +0.295 HD
ENDBRANCH  32  33
ENDBRANCH   6  32
TORSDOF 6
