137222921
  -OEChem-03292013293D

 25 27  0     0  0  0  0  0  0999 V2000
   -0.8725   -1.5244    0.3907 S   0  0  0  0  0  0  0  0  0  0  0  0
   -4.5397    0.4979   -0.1838 S   0  0  0  0  0  0  0  0  0  0  0  0
    1.5979    1.6140    1.5291 O   0  0  0  0  0  0  0  0  0  0  0  0
    5.5833   -0.4059   -0.1254 O   0  0  0  0  0  0  0  0  0  0  0  0
   -2.3433    2.4591   -0.8534 O   0  0  0  0  0  0  0  0  0  0  0  0
   -0.5963    1.0653   -0.4502 N   0  0  0  0  0  0  0  0  0  0  0  0
    1.4413   -0.1372   -0.1030 C   0  0  0  0  0  0  0  0  0  0  0  0
   -0.0429   -0.0580   -0.1106 C   0  0  0  0  0  0  0  0  0  0  0  0
   -2.5207   -0.9952    0.2532 C   0  0  0  0  0  0  0  0  0  0  0  0
   -2.8431    0.2743   -0.1472 C   0  0  0  0  0  0  0  0  0  0  0  0
    2.1990    0.7007    0.7154 C   0  0  0  0  0  0  0  0  0  0  0  0
    2.0756   -1.0655   -0.9287 C   0  0  0  0  0  0  0  0  0  0  0  0
   -3.6518   -1.8034    0.5344 C   0  0  0  0  0  0  0  0  0  0  0  0
   -1.9451    1.3496   -0.5097 C   0  0  0  0  0  0  0  0  0  0  0  0
    3.5909    0.6104    0.7078 C   0  0  0  0  0  0  0  0  0  0  0  0
    3.4675   -1.1556   -0.9365 C   0  0  0  0  0  0  0  0  0  0  0  0
    4.2252   -0.3176   -0.1181 C   0  0  0  0  0  0  0  0  0  0  0  0
   -4.8252   -1.1087    0.3361 C   0  0  0  0  0  0  0  0  0  0  0  0
    1.5040   -1.7191   -1.5826 H   0  0  0  0  0  0  0  0  0  0  0  0
   -3.6246   -2.8345    0.8641 H   0  0  0  0  0  0  0  0  0  0  0  0
    4.1828    1.2629    1.3452 H   0  0  0  0  0  0  0  0  0  0  0  0
    3.9562   -1.8786   -1.5839 H   0  0  0  0  0  0  0  0  0  0  0  0
   -5.8356   -1.4677    0.4716 H   0  0  0  0  0  0  0  0  0  0  0  0
    2.2814    2.1025    2.0191 H   0  0  0  0  0  0  0  0  0  0  0  0
    5.9455    0.2460    0.4990 H   0  0  0  0  0  0  0  0  0  0  0  0
  1  8  1  0  0  0  0
  1  9  1  0  0  0  0
  2 10  1  0  0  0  0
  2 18  1  0  0  0  0
  3 11  1  0  0  0  0
  3 24  1  0  0  0  0
  4 17  1  0  0  0  0
  4 25  1  0  0  0  0
  5 14  2  0  0  0  0
  6  8  2  0  0  0  0
  6 14  1  0  0  0  0
  7  8  1  0  0  0  0
  7 11  2  0  0  0  0
  7 12  1  0  0  0  0
  9 10  2  0  0  0  0
  9 13  1  0  0  0  0
 10 14  1  0  0  0  0
 11 15  1  0  0  0  0
 12 16  2  0  0  0  0
 12 19  1  0  0  0  0
 13 18  2  0  0  0  0
 13 20  1  0  0  0  0
 15 17  2  0  0  0  0
 15 21  1  0  0  0  0
 16 17  1  0  0  0  0
 16 22  1  0  0  0  0
 18 23  1  0  0  0  0
M  END
> <PUBCHEM_COMPOUND_CID>
137222921

> <PUBCHEM_CONFORMER_RMSD>
0.6

> <PUBCHEM_CONFORMER_DIVERSEORDER>
1
4
6
5
2
3

> <PUBCHEM_MMFF94_PARTIAL_CHARGES>
25
1 -0.2
10 -0.05
11 0.08
12 -0.15
13 -0.15
14 0.87
15 -0.15
16 -0.15
17 0.08
18 -0.11
19 0.15
2 -0.08
20 0.15
21 0.15
22 0.15
23 0.15
24 0.45
25 0.45
3 -0.53
4 -0.53
5 -0.57
6 -0.66
7 0.09
8 0.5
9 0.05

> <PUBCHEM_EFFECTIVE_ROTOR_COUNT>
1

> <PUBCHEM_PHARMACOPHORE_FEATURES>
8
1 3 donor
1 4 donor
1 5 acceptor
1 6 acceptor
1 6 donor
5 2 9 10 13 18 rings
6 1 6 8 9 10 14 rings
6 7 11 12 15 16 17 rings

> <PUBCHEM_HEAVY_ATOM_COUNT>
18

> <PUBCHEM_ATOM_DEF_STEREO_COUNT>
0

> <PUBCHEM_ATOM_UDEF_STEREO_COUNT>
0

> <PUBCHEM_BOND_DEF_STEREO_COUNT>
0

> <PUBCHEM_BOND_UDEF_STEREO_COUNT>
0

> <PUBCHEM_ISOTOPIC_ATOM_COUNT>
0

> <PUBCHEM_COMPONENT_COUNT>
1

> <PUBCHEM_CACTVS_TAUTO_COUNT>
-1

> <PUBCHEM_CONFORMER_ID>
082DDB0900000001

> <PUBCHEM_MMFF94_ENERGY>
48.8434

> <PUBCHEM_FEATURE_SELFOVERLAP>
40.704

> <PUBCHEM_SHAPE_FINGERPRINT>
10 15 18341600573871706704
10366900 7 18411414020857336115
10498660 4 18114175315990600781
10608611 8 18413101762610873296
11132069 177 18408324393541786743
11471102 20 17846497049939917954
11552529 35 17273975933830758479
11615757 297 17203890777193915123
12236239 1 16588024602146011854
12403259 415 18272082808011200776
13288520 33 18334860514967193735
14252887 29 17060065817918705358
14386348 63 18342741814367846094
15196674 1 18336266842168805621
15219456 202 18272930535433248210
15653759 3 18410572889966465272
15961568 22 17968939833268044764
16752209 62 17603853521224451859
17804303 29 18409731780993789305
17834074 16 18413672404634353038
18785283 64 18056751251288261240
19049666 15 18270116786377690854
19141452 34 18201442527828133775
19862831 5 16298389075640120462
200 152 17346877840849495759
20279233 1 18342462534066780215
20510252 161 18411136905430751609
20645477 70 17560240207013659598
21065201 7 18260825956331256002
21267235 1 18260556662404309139
22094290 60 18260551108283315677
22854114 59 18060700606396175394
2297311 6 18335993016249144591
23175994 123 17775569723680095408
23402539 116 18259981587098756903
23557571 272 18410014299642590228
23559900 14 18408602552360665892
26918003 58 17989489627737700275
2838139 119 15984547681708611833
3286 77 17917433172066351561
4214541 1 18336828606479177180
43471831 8 17968089781561132363
474 4 15194133111547303138
5104073 3 18270116808311645962
6049 1 18342452638483378569
69090 78 18202560704887847631
7495541 125 18411982490202344496
77492 1 16515404045232824492
9709674 26 18267022936967495019

> <PUBCHEM_SHAPE_MULTIPOLES>
355.54
10
1.82
0.96
2.57
0.41
0.09
-2.01
0.06
-1.3
-0.06
0.4
0.14
1.35

> <PUBCHEM_SHAPE_SELFOVERLAP>
764.76

> <PUBCHEM_SHAPE_VOLUME>
196.1

> <PUBCHEM_COORDINATE_TYPE>
2
5
10

$$$$
