REMARK  Name = 137207468
REMARK  10 active torsions:
REMARK  status: ('A' for Active; 'I' for Inactive)
REMARK    1  A    between atoms: N_1  and  C_4
REMARK    2  A    between atoms: N_1  and  C_14
REMARK    3  A    between atoms: C_4  and  C_5
REMARK    4  A    between atoms: C_5  and  N_6
REMARK    5  A    between atoms: C_7  and  C_10
REMARK    6  A    between atoms: N_9  and  O_12
REMARK    7  A    between atoms: C_14  and  C_15
REMARK    8  A    between atoms: C_15  and  N_16
REMARK    9  A    between atoms: C_17  and  C_20
REMARK   10  A    between atoms: N_19  and  O_22
REMARK                            x       y       z     vdW  Elec       q    Type
REMARK                         _______ _______ _______ _____ _____    ______ ____
ROOT
ATOM      1  N   UNL     1       0.000   0.740  -0.013  0.00  0.00    +0.386 N 
ATOM      2  H   UNL     1      -0.007   1.326   0.822  0.00  0.00    -0.084 HD
ATOM      3  H   UNL     1       0.007   1.316  -0.854  0.00  0.00    -0.084 HD
ENDROOT
BRANCH   1   4
ATOM      4  C   UNL     1      -1.200  -0.086  -0.025  0.00  0.00    -0.055 C 
BRANCH   4   5
ATOM      5  C   UNL     1      -2.446   0.788  -0.023  0.00  0.00    +0.102 C 
BRANCH   5   6
ATOM      6  N   UNL     1      -3.624  -0.067  -0.065  0.00  0.00    -0.276 NA
ATOM      7  C   UNL     1      -4.774   0.510  -0.091  0.00  0.00    +0.071 C 
ATOM      8  C   UNL     1      -5.053   1.984  -0.088  0.00  0.00    +0.053 C 
BRANCH   7  10
ATOM      9  N   UNL     1      -6.493  -0.745   0.970  0.00  0.00    -0.090 NA
ATOM     10  C   UNL     1      -5.968  -0.394  -0.159  0.00  0.00    +0.110 C 
ATOM     11  C   UNL     1      -6.441  -0.787  -1.527  0.00  0.00    +0.057 C 
BRANCH   9  12
ATOM     12  O   UNL     1      -7.599  -1.571   0.760  0.00  0.00    -0.409 OA
ATOM     13  H   UNL     1      -8.081  -1.904   1.491  0.00  0.00    +0.328 HD
ENDBRANCH   9  12
ENDBRANCH   7  10
ENDBRANCH   5   6
ENDBRANCH   4   5
ENDBRANCH   1   4
BRANCH   1  14
ATOM     14  C   UNL     1       1.200  -0.086  -0.004  0.00  0.00    -0.055 C 
BRANCH  14  15
ATOM     15  C   UNL     1       2.445   0.788   0.019  0.00  0.00    +0.102 C 
BRANCH  15  16
ATOM     16  N   UNL     1       3.630  -0.072   0.057  0.00  0.00    -0.276 NA
ATOM     17  C   UNL     1       4.773   0.509   0.101  0.00  0.00    +0.071 C 
ATOM     18  C   UNL     1       5.051   1.983   0.125  0.00  0.00    +0.053 C 
BRANCH  17  20
ATOM     19  N   UNL     1       6.500  -0.728  -0.967  0.00  0.00    -0.090 NA
ATOM     20  C   UNL     1       5.966  -0.396   0.164  0.00  0.00    +0.110 C 
ATOM     21  C   UNL     1       6.428  -0.812   1.529  0.00  0.00    +0.057 C 
BRANCH  19  22
ATOM     22  O   UNL     1       7.604  -1.558  -0.762  0.00  0.00    -0.409 OA
ATOM     23  H   UNL     1       8.093  -1.878  -1.494  0.00  0.00    +0.328 HD
ENDBRANCH  19  22
ENDBRANCH  17  20
ENDBRANCH  15  16
ENDBRANCH  14  15
ENDBRANCH   1  14
TORSDOF 10
