137250079
  -OEChem-03292013293D

 40 43  0     0  0  0  0  0  0999 V2000
    0.3434    4.0724   -1.2639 Cl  0  0  0  0  0  0  0  0  0  0  0  0
    2.6596   -3.0986   -0.3687 S   0  0  0  0  0  0  0  0  0  0  0  0
   -5.0709   -0.8393    0.7195 O   0  0  0  0  0  0  0  0  0  0  0  0
   -2.1647   -3.7194   -1.5859 O   0  0  0  0  0  0  0  0  0  0  0  0
    5.4539    2.5605    0.3516 O   0  5  0  0  0  0  0  0  0  0  0  0
    6.4455    0.7767   -0.4570 O   0  0  0  0  0  0  0  0  0  0  0  0
   -4.4547    1.4153    0.7482 N   0  0  0  0  0  0  0  0  0  0  0  0
    0.1747   -3.9424    0.1655 N   0  0  0  0  0  0  0  0  0  0  0  0
    0.7536   -1.6733    0.6252 N   0  0  0  0  0  0  0  0  0  0  0  0
   -2.3361   -1.0719   -0.6887 N   0  0  0  0  0  0  0  0  0  0  0  0
   -2.6620   -2.0767   -0.0123 N   0  0  0  0  0  0  0  0  0  0  0  0
    5.4368    1.3516    0.0176 N   0  3  0  0  0  0  0  0  0  0  0  0
   -2.4631    1.3934   -0.2566 C   0  0  0  0  0  0  0  0  0  0  0  0
   -3.4133    2.2207    0.3458 C   0  0  0  0  0  0  0  0  0  0  0  0
   -2.9705    0.0651   -0.2011 C   0  0  0  0  0  0  0  0  0  0  0  0
   -4.1963    0.1109    0.4220 C   0  0  0  0  0  0  0  0  0  0  0  0
   -1.2827    1.9731   -0.7630 C   0  0  0  0  0  0  0  0  0  0  0  0
   -3.2415    3.6042    0.4678 C   0  0  0  0  0  0  0  0  0  0  0  0
    3.0056   -1.4476   -0.0124 C   0  0  0  0  0  0  0  0  0  0  0  0
    1.8597   -0.8434    0.5137 C   0  0  0  0  0  0  0  0  0  0  0  0
    1.0595   -2.8740    0.1921 C   0  0  0  0  0  0  0  0  0  0  0  0
   -1.0974    3.3556   -0.6481 C   0  0  0  0  0  0  0  0  0  0  0  0
   -2.0629    4.1566   -0.0418 C   0  0  0  0  0  0  0  0  0  0  0  0
    4.2048   -0.7378   -0.1860 C   0  0  0  0  0  0  0  0  0  0  0  0
    1.9186    0.5195    0.8776 C   0  0  0  0  0  0  0  0  0  0  0  0
    4.2362    0.6096    0.1824 C   0  0  0  0  0  0  0  0  0  0  0  0
   -1.1928   -3.8623    0.6121 C   0  0  0  0  0  0  0  0  0  0  0  0
    3.1091    1.2321    0.7074 C   0  0  0  0  0  0  0  0  0  0  0  0
   -2.0522   -3.2307   -0.4630 C   0  0  0  0  0  0  0  0  0  0  0  0
   -5.2885    1.7420    1.2166 H   0  0  0  0  0  0  0  0  0  0  0  0
   -0.5302    1.3486   -1.2373 H   0  0  0  0  0  0  0  0  0  0  0  0
   -3.9927    4.2286    0.9397 H   0  0  0  0  0  0  0  0  0  0  0  0
   -1.9122    5.2307    0.0444 H   0  0  0  0  0  0  0  0  0  0  0  0
    5.0711   -1.2471   -0.5984 H   0  0  0  0  0  0  0  0  0  0  0  0
    1.0447    1.0145    1.2914 H   0  0  0  0  0  0  0  0  0  0  0  0
    0.4879   -4.8372   -0.2009 H   0  0  0  0  0  0  0  0  0  0  0  0
   -1.2698   -3.3118    1.5568 H   0  0  0  0  0  0  0  0  0  0  0  0
   -1.5835   -4.8689    0.7974 H   0  0  0  0  0  0  0  0  0  0  0  0
    3.1130    2.2796    0.9998 H   0  0  0  0  0  0  0  0  0  0  0  0
   -5.8316   -0.4260    1.1642 H   0  0  0  0  0  0  0  0  0  0  0  0
  1 22  1  0  0  0  0
  2 19  1  0  0  0  0
  2 21  1  0  0  0  0
  3 16  1  0  0  0  0
  3 40  1  0  0  0  0
  4 29  2  0  0  0  0
  5 12  1  0  0  0  0
  6 12  2  0  0  0  0
  7 14  1  0  0  0  0
  7 16  1  0  0  0  0
  7 30  1  0  0  0  0
  8 21  1  0  0  0  0
  8 27  1  0  0  0  0
  8 36  1  0  0  0  0
  9 20  1  0  0  0  0
  9 21  2  0  0  0  0
 10 11  2  0  0  0  0
 10 15  1  0  0  0  0
 11 29  1  0  0  0  0
 12 26  1  0  0  0  0
 13 14  2  0  0  0  0
 13 15  1  0  0  0  0
 13 17  1  0  0  0  0
 14 18  1  0  0  0  0
 15 16  2  0  0  0  0
 17 22  2  0  0  0  0
 17 31  1  0  0  0  0
 18 23  2  0  0  0  0
 18 32  1  0  0  0  0
 19 20  2  0  0  0  0
 19 24  1  0  0  0  0
 20 25  1  0  0  0  0
 22 23  1  0  0  0  0
 23 33  1  0  0  0  0
 24 26  2  0  0  0  0
 24 34  1  0  0  0  0
 25 28  2  0  0  0  0
 25 35  1  0  0  0  0
 26 28  1  0  0  0  0
 27 29  1  0  0  0  0
 27 37  1  0  0  0  0
 27 38  1  0  0  0  0
 28 39  1  0  0  0  0
M  CHG  2   5  -1  12   1
M  END
> <PUBCHEM_COMPOUND_CID>
137250079

> <PUBCHEM_CONFORMER_RMSD>
1.2

> <PUBCHEM_CONFORMER_DIVERSEORDER>
1
28
74
36
22
91
56
80
23
39
60
3
53
83
51
33
79
75
2
46
50
29
37
30
85
93
52
32
67
19
9
73
25
63
12
15
57
59
4
62
41
58
54
42
45
82
11
89
38
18
40
43
90
96
27
31
21
48
71
70
20
77
47
61
6
14
68
55
78
95
86
10
65
16
5
44
35
64
94
92
13
26
88
49
84
72
81
66
87
69
17
24
8
76
34
7

> <PUBCHEM_MMFF94_PARTIAL_CHARGES>
37
1 -0.18
10 -0.12
11 -0.21
12 0.91
14 -0.15
15 0.12
16 -0.09
17 -0.15
18 -0.15
19 0.04
2 -0.08
20 0.23
21 0.46
22 0.18
23 -0.15
24 -0.15
25 -0.15
26 0.13
27 0.43
28 -0.15
29 0.72
3 -0.51
30 0.27
31 0.15
32 0.15
33 0.15
34 0.15
35 0.15
36 0.4
39 0.15
4 -0.57
40 0.45
5 -0.52
6 -0.52
7 0.03
8 -0.85
9 -0.57

> <PUBCHEM_EFFECTIVE_ROTOR_COUNT>
6

> <PUBCHEM_PHARMACOPHORE_FEATURES>
14
1 11 donor
1 3 donor
1 4 acceptor
1 5 acceptor
1 5 anion
1 6 acceptor
1 7 cation
1 7 donor
1 8 donor
3 8 9 21 cation
5 2 9 19 20 21 rings
5 7 13 14 15 16 rings
6 13 14 17 18 22 23 rings
6 19 20 24 25 26 28 rings

> <PUBCHEM_HEAVY_ATOM_COUNT>
29

> <PUBCHEM_ATOM_DEF_STEREO_COUNT>
0

> <PUBCHEM_ATOM_UDEF_STEREO_COUNT>
0

> <PUBCHEM_BOND_DEF_STEREO_COUNT>
0

> <PUBCHEM_BOND_UDEF_STEREO_COUNT>
0

> <PUBCHEM_ISOTOPIC_ATOM_COUNT>
0

> <PUBCHEM_COMPONENT_COUNT>
1

> <PUBCHEM_CACTVS_TAUTO_COUNT>
-1

> <PUBCHEM_CONFORMER_ID>
082E451F00000001

> <PUBCHEM_MMFF94_ENERGY>
61.785

> <PUBCHEM_FEATURE_SELFOVERLAP>
71.337

> <PUBCHEM_SHAPE_FINGERPRINT>
10006869 2 18336255757439204203
10864689 126 18338516340234240756
10871710 139 18412537722194727519
1100329 8 18121220037561276741
11014199 57 18050850214771964343
11135609 187 18264189350117848621
11211813 163 18337125492958823236
11513181 2 18201156529707308471
12100795 323 17974846168760068573
12633257 1 17252863854651812339
12925494 130 17330554246606486145
12978246 48 18265889168653822346
13122387 1 17977097959935884853
13140716 1 18050291659097665969
1361 2 18337105675500145001
13773456 30 17612283296233556500
138480 1 16970265142175597627
14363568 33 17691985764327207875
14790565 3 18267590117521647248
151778 21 17908423554576412673
15320467 1 18410293640041926296
15721738 15 16746749830134090100
19591789 44 18266741268500770259
19611394 137 17825962695419054827
21133410 127 17753055990789491668
21796203 349 17683845289863372593
21860390 5 16758583856877455423
23559900 14 17761488093257593449
238 59 17471539180843235623
463206 1 18047758375459281861
469060 322 18193854857792576787
5081480 168 16192566304611559095
5776283 40 18194704578818226510
6287921 2 18189909621156546684
6371009 1 18121755271516224195
6700243 42 17406876172254833374
7288768 16 18041000639487491363
7808743 9 18412260653469340674

> <PUBCHEM_SHAPE_MULTIPOLES>
549.16
10.33
6.43
0.94
8.37
1.19
0.14
-6.16
-1.24
-2.19
1.27
-0.24
-0.01
-0.08

> <PUBCHEM_SHAPE_SELFOVERLAP>
1196.732

> <PUBCHEM_SHAPE_VOLUME>
301.2

> <PUBCHEM_COORDINATE_TYPE>
2
5
10

$$$$
