REMARK  Name = 137241419
REMARK  6 active torsions:
REMARK  status: ('A' for Active; 'I' for Inactive)
REMARK    1  A    between atoms: N_4  and  C_7
REMARK    2  A    between atoms: N_4  and  N_9
REMARK    3  A    between atoms: C_5  and  C_13
REMARK    4  A    between atoms: N_9  and  C_10
REMARK    5  A    between atoms: C_13  and  C_16
REMARK    6  A    between atoms: N_15  and  C_18
REMARK                            x       y       z     vdW  Elec       q    Type
REMARK                         _______ _______ _______ _____ _____    ______ ____
ROOT
ATOM      1  S   UNL     1      -1.731   0.159  -0.492  0.00  0.00    -0.093 S 
ATOM      2  O   UNL     1      -1.341  -3.656  -0.005  0.00  0.00    -0.274 OA
ATOM      3  N   UNL     1      -2.951  -2.003   0.144  0.00  0.00    -0.282 N 
ATOM      4  C   UNL     1      -0.749  -1.375  -0.556  0.00  0.00    +0.136 C 
ATOM      5  C   UNL     1      -1.683  -2.484  -0.114  0.00  0.00    +0.234 C 
ATOM      6  C   UNL     1      -3.172  -0.666   0.003  0.00  0.00    +0.215 C 
ATOM      7  H   UNL     1      -3.675  -2.609   0.421  0.00  0.00    +0.152 HD
ENDROOT
BRANCH   6   8
ATOM      8  N   UNL     1      -4.300  -0.087   0.213  0.00  0.00    -0.101 NA
BRANCH   8   9
ATOM      9  N   UNL     1      -4.201   1.277  -0.034  0.00  0.00    -0.130 NA
BRANCH   9  10
ATOM     10  C   UNL     1      -5.312   1.920   0.160  0.00  0.00    +0.092 C 
ATOM     11  C   UNL     1      -5.482   3.408  -0.035  0.00  0.00    +0.020 C 
ATOM     12  C   UNL     1      -6.519   1.138   0.610  0.00  0.00    +0.020 C 
ENDBRANCH   9  10
ENDBRANCH   8   9
ENDBRANCH   6   8
BRANCH   4  13
ATOM     13  C   UNL     1       0.463  -1.278   0.353  0.00  0.00    +0.105 C 
BRANCH  13  16
ATOM     14  O   UNL     1       1.558  -0.090  -1.432  0.00  0.00    -0.275 OA
ATOM     15  N   UNL     1       2.695  -0.441   0.594  0.00  0.00    -0.284 N 
ATOM     16  C   UNL     1       1.622  -0.530  -0.289  0.00  0.00    +0.227 C 
ATOM     17  H   UNL     1       2.567  -0.856   1.477  0.00  0.00    +0.155 HD
BRANCH  15  18
ATOM     18  C   UNL     1       3.948   0.176   0.368  0.00  0.00    +0.050 C 
ATOM     19  C   UNL     1       4.918   0.172   1.371  0.00  0.00    +0.015 C 
ATOM     20  C   UNL     1       4.214   0.788  -0.856  0.00  0.00    +0.015 C 
ATOM     21  C   UNL     1       6.153   0.780   1.150  0.00  0.00    +0.001 C 
ATOM     22  C   UNL     1       5.450   1.397  -1.078  0.00  0.00    +0.001 C 
ATOM     23  C   UNL     1       6.419   1.393  -0.075  0.00  0.00    +0.000 C 
ENDBRANCH  15  18
ENDBRANCH  13  16
ENDBRANCH   4  13
TORSDOF 6
