REMARK  Name = 137266807
REMARK  3 active torsions:
REMARK  status: ('A' for Active; 'I' for Inactive)
REMARK    1  A    between atoms: C_9  and  C_17
REMARK    2  A    between atoms: C_19  and  C_20
REMARK    3  A    between atoms: C_21  and  O_26
REMARK                            x       y       z     vdW  Elec       q    Type
REMARK                         _______ _______ _______ _____ _____    ______ ____
ROOT
ATOM      1  S   UNL     1       4.880   0.831   0.747  0.00  0.00    -0.162 S 
ATOM      2  S   UNL     1       0.689  -2.120   1.997  0.00  0.00    -0.118 S 
ATOM      3  O   UNL     1       2.220  -0.964  -2.255  0.00  0.00    -0.277 OA
ATOM      4  N   UNL     1       2.010  -0.922   0.061  0.00  0.00    -0.274 N 
ATOM      5  N   UNL     1       2.440   1.685   0.065  0.00  0.00    +0.402 N 
ATOM      6  C   UNL     1       2.508  -0.376   1.336  0.00  0.00    +0.078 C 
ATOM      7  C   UNL     1       3.111   1.034   1.197  0.00  0.00    +0.012 C 
ATOM      8  C   UNL     1       3.002   1.005  -1.119  0.00  0.00    +0.033 C 
ATOM      9  C   UNL     1       1.151  -2.097   0.220  0.00  0.00    +0.147 C 
ATOM     10  C   UNL     1       1.333  -0.451   2.306  0.00  0.00    +0.078 C 
ATOM     11  C   UNL     1       2.376  -0.395  -1.174  0.00  0.00    +0.208 C 
ATOM     12  C   UNL     1       4.528   0.928  -1.026  0.00  0.00    +0.044 C 
ATOM     13  C   UNL     1       2.632   3.132   0.036  0.00  0.00    -0.098 C 
ATOM     14  H   UNL     1       1.425   1.594   0.117  0.00  0.00    -0.078 HD
ENDROOT
BRANCH   9  17
ATOM     15  S   UNL     1      -2.656  -2.601  -0.769  0.00  0.00    -0.093 S 
ATOM     16  N   UNL     1      -0.866  -0.796  -0.233  0.00  0.00    -0.263 NA
ATOM     17  C   UNL     1      -0.137  -2.031  -0.596  0.00  0.00    +0.143 C 
ATOM     18  C   UNL     1      -1.028  -3.238  -0.339  0.00  0.00    +0.090 C 
ATOM     19  C   UNL     1      -2.143  -0.980  -0.349  0.00  0.00    +0.104 C 
BRANCH  19  20
ATOM     20  C   UNL     1      -3.133   0.097  -0.112  0.00  0.00    +0.057 C 
ATOM     21  C   UNL     1      -2.811   1.432  -0.355  0.00  0.00    +0.136 C 
ATOM     22  C   UNL     1      -4.401  -0.240   0.362  0.00  0.00    +0.005 C 
ATOM     23  C   UNL     1      -3.757   2.431  -0.124  0.00  0.00    +0.037 C 
ATOM     24  C   UNL     1      -5.347   0.759   0.593  0.00  0.00    +0.000 C 
ATOM     25  C   UNL     1      -5.025   2.094   0.350  0.00  0.00    +0.003 C 
BRANCH  21  26
ATOM     26  O   UNL     1      -1.577   1.781  -0.817  0.00  0.00    -0.505 OA
ATOM     27  H   UNL     1      -0.932   1.121  -0.976  0.00  0.00    +0.292 HD
ENDBRANCH  21  26
ENDBRANCH  19  20
ENDBRANCH   9  17
TORSDOF 3
