REMARK  Name = 137250088
REMARK  11 active torsions:
REMARK  status: ('A' for Active; 'I' for Inactive)
REMARK    1  A    between atoms: N_1  and  N_15
REMARK    2  A    between atoms: C_2  and  C_3
REMARK    3  A    between atoms: C_2  and  C_24
REMARK    4  A    between atoms: C_4  and  O_9
REMARK    5  A    between atoms: C_5  and  O_11
REMARK    6  A    between atoms: C_8  and  O_13
REMARK    7  A    between atoms: N_15  and  C_17
REMARK    8  A    between atoms: C_17  and  C_19
REMARK    9  A    between atoms: C_24  and  C_25
REMARK   10  A    between atoms: C_25  and  C_26
REMARK   11  A    between atoms: C_31  and  O_32
REMARK                            x       y       z     vdW  Elec       q    Type
REMARK                         _______ _______ _______ _____ _____    ______ ____
ROOT
ATOM      1  N   UNL     1      -0.419   1.852  -0.105  0.00  0.00    -0.189 NA
ATOM      2  C   UNL     1      -1.107   0.783   0.176  0.00  0.00    +0.082 C 
ENDROOT
BRANCH   2   3
ATOM      3  C   UNL     1      -2.592   0.894   0.121  0.00  0.00    +0.083 C 
ATOM      4  C   UNL     1      -3.356   0.590   1.247  0.00  0.00    +0.141 C 
ATOM      5  C   UNL     1      -3.217   1.302  -1.057  0.00  0.00    +0.141 C 
ATOM      6  C   UNL     1      -4.746   0.694   1.196  0.00  0.00    +0.073 C 
ATOM      7  C   UNL     1      -4.607   1.406  -1.109  0.00  0.00    +0.073 C 
ATOM      8  C   UNL     1      -5.372   1.102   0.018  0.00  0.00    +0.140 C 
BRANCH   4   9
ATOM      9  O   UNL     1      -2.765   0.190   2.408  0.00  0.00    -0.505 OA
ATOM     10  H   UNL     1      -1.833   0.116   2.458  0.00  0.00    +0.292 HD
ENDBRANCH   4   9
BRANCH   5  11
ATOM     11  O   UNL     1      -2.490   1.604  -2.170  0.00  0.00    -0.505 OA
ATOM     12  H   UNL     1      -1.555   1.539  -2.150  0.00  0.00    +0.292 HD
ENDBRANCH   5  11
BRANCH   8  13
ATOM     13  O   UNL     1      -6.728   1.204  -0.032  0.00  0.00    -0.505 OA
ATOM     14  H   UNL     1      -7.242   1.000   0.724  0.00  0.00    +0.292 HD
ENDBRANCH   8  13
ENDBRANCH   2   3
BRANCH   1  15
ATOM     15  N   UNL     1       0.922   1.746  -0.043  0.00  0.00    -0.253 N 
ATOM     16  H   UNL     1       1.374   0.891   0.136  0.00  0.00    +0.169 HD
BRANCH  15  17
ATOM     17  C   UNL     1       1.655   2.983  -0.259  0.00  0.00    +0.133 C 
BRANCH  17  19
ATOM     18  N   UNL     1       5.882   2.465   0.346  0.00  0.00    -0.242 NA
ATOM     19  C   UNL     1       3.135   2.802  -0.047  0.00  0.00    +0.002 C 
ATOM     20  C   UNL     1       3.651   2.716   1.242  0.00  0.00    +0.018 C 
ATOM     21  C   UNL     1       3.991   2.719  -1.139  0.00  0.00    +0.018 C 
ATOM     22  C   UNL     1       5.019   2.550   1.383  0.00  0.00    +0.099 C 
ATOM     23  C   UNL     1       5.344   2.552  -0.891  0.00  0.00    +0.099 C 
ENDBRANCH  17  19
ENDBRANCH  15  17
ENDBRANCH   1  15
BRANCH   2  24
ATOM     24  C   UNL     1      -0.516  -0.594   0.499  0.00  0.00    +0.052 C 
BRANCH  24  25
ATOM     25  C   UNL     1      -0.212  -1.403  -0.768  0.00  0.00    +0.033 C 
BRANCH  25  26
ATOM     26  C   UNL     1       0.442  -2.732  -0.481  0.00  0.00    -0.022 C 
ATOM     27  C   UNL     1       1.833  -2.827  -0.422  0.00  0.00    -0.001 C 
ATOM     28  C   UNL     1      -0.343  -3.867  -0.278  0.00  0.00    -0.001 C 
ATOM     29  C   UNL     1       2.438  -4.056  -0.160  0.00  0.00    +0.036 C 
ATOM     30  C   UNL     1       0.262  -5.096  -0.016  0.00  0.00    +0.036 C 
ATOM     31  C   UNL     1       1.653  -5.191   0.043  0.00  0.00    +0.134 C 
BRANCH  31  32
ATOM     32  O   UNL     1       2.244  -6.390   0.299  0.00  0.00    -0.506 OA
ATOM     33  H   UNL     1       3.178  -6.453   0.338  0.00  0.00    +0.292 HD
ENDBRANCH  31  32
ENDBRANCH  25  26
ENDBRANCH  24  25
ENDBRANCH   2  24
TORSDOF 11
