REMARK  Name = 137235203
REMARK  1 active torsions:
REMARK  status: ('A' for Active; 'I' for Inactive)
REMARK    1  A    between atoms: C_8  and  C_19
REMARK                            x       y       z     vdW  Elec       q    Type
REMARK                         _______ _______ _______ _____ _____    ______ ____
ROOT
ATOM      1  O   UNL     1      -1.317   2.670  -0.216  0.00  0.00    -0.267 OA
ATOM      2  N   UNL     1       0.165  -1.774   0.262  0.00  0.00    -0.302 N 
ATOM      3  N   UNL     1       0.784   0.916   0.027  0.00  0.00    -0.393 NA
ATOM      4  N   UNL     1      -2.184  -1.270   0.180  0.00  0.00    -0.356 NA
ATOM      5  N   UNL     1      -2.855   0.964  -0.067  0.00  0.00    -0.242 N 
ATOM      6  N   UNL     1      -4.460  -0.721   0.086  0.00  0.00    -0.321 N 
ATOM      7  C   UNL     1       1.567  -1.462   0.096  0.00  0.00    +0.127 C 
ATOM      8  C   UNL     1       1.736   0.040   0.077  0.00  0.00    +0.161 C 
ATOM      9  C   UNL     1      -0.866  -0.853   0.154  0.00  0.00    +0.218 C 
ATOM     10  C   UNL     1      -0.508   0.447   0.027  0.00  0.00    +0.228 C 
ATOM     11  C   UNL     1       2.067  -2.079  -1.204  0.00  0.00    +0.029 C 
ATOM     12  C   UNL     1      -1.578   1.476  -0.098  0.00  0.00    +0.286 C 
ATOM     13  C   UNL     1      -3.132  -0.384   0.071  0.00  0.00    +0.239 C 
ATOM     14  H   UNL     1      -0.075  -2.707   0.467  0.00  0.00    +0.150 HD
ATOM     15  H   UNL     1      -3.611   1.590  -0.147  0.00  0.00    +0.159 HD
ATOM     16  H   UNL     1      -4.727  -1.663   0.181  0.00  0.00    +0.146 HD
ATOM     17  H   UNL     1      -5.146  -0.020   0.001  0.00  0.00    +0.146 HD
ENDROOT
BRANCH   8  19
ATOM     18  O   UNL     1       3.503   1.259  -0.820  0.00  0.00    -0.289 OA
ATOM     19  C   UNL     1       3.128   0.570   0.115  0.00  0.00    +0.200 C 
ATOM     20  C   UNL     1       3.951   0.201   1.308  0.00  0.00    +0.080 C 
ENDBRANCH   8  19
TORSDOF 1
