REMARK  Name = 13727072
REMARK  8 active torsions:
REMARK  status: ('A' for Active; 'I' for Inactive)
REMARK    1  A    between atoms: C_2  and  N_8
REMARK    2  A    between atoms: C_3  and  O_12
REMARK    3  A    between atoms: C_4  and  O_14
REMARK    4  A    between atoms: C_5  and  C_27
REMARK    5  A    between atoms: C_6  and  O_16
REMARK    6  A    between atoms: O_16  and  C_18
REMARK    7  A    between atoms: C_23  and  N_26
REMARK    8  A    between atoms: C_27  and  O_28
REMARK                            x       y       z     vdW  Elec       q    Type
REMARK                         _______ _______ _______ _____ _____    ______ ____
ROOT
ATOM      1  O   UNL     1       0.783  -0.895  -0.475  0.00  0.00    -0.317 OA
ATOM      2  C   UNL     1       2.359   0.473   0.794  0.00  0.00    +0.172 C 
ATOM      3  C   UNL     1       3.335  -0.708   0.857  0.00  0.00    +0.164 C 
ATOM      4  C   UNL     1       3.073  -1.685  -0.297  0.00  0.00    +0.169 C 
ATOM      5  C   UNL     1       1.591  -2.072  -0.369  0.00  0.00    +0.177 C 
ATOM      6  C   UNL     1       0.914  -0.035   0.658  0.00  0.00    +0.309 C 
ENDROOT
BRANCH   2   8
ATOM      7  O   UNL     1       4.169   2.743   0.884  0.00  0.00    -0.275 OA
ATOM      8  N   UNL     1       2.709   1.364  -0.292  0.00  0.00    -0.298 N 
ATOM      9  C   UNL     1       3.587   2.424  -0.149  0.00  0.00    +0.223 C 
ATOM     10  C   UNL     1       3.792   3.171  -1.440  0.00  0.00    +0.095 C 
ATOM     11  H   UNL     1       2.303   1.208  -1.175  0.00  0.00    +0.150 HD
ENDBRANCH   2   8
BRANCH   3  12
ATOM     12  O   UNL     1       3.153  -1.394   2.098  0.00  0.00    -0.380 OA
ATOM     13  H   UNL     1       3.316  -0.783   2.832  0.00  0.00    +0.211 HD
ENDBRANCH   3  12
BRANCH   4  14
ATOM     14  O   UNL     1       3.876  -2.850  -0.144  0.00  0.00    -0.379 OA
ATOM     15  H   UNL     1       4.811  -2.595  -0.100  0.00  0.00    +0.211 HD
ENDBRANCH   4  14
BRANCH   6  16
ATOM     16  O   UNL     1       0.034   1.082   0.554  0.00  0.00    -0.450 OA
BRANCH  16  18
ATOM     17 CL   UNL     1      -1.273   2.105  -1.953  0.00  0.00    -0.079 Cl
ATOM     18  C   UNL     1      -1.300   0.803   0.436  0.00  0.00    +0.152 C 
ATOM     19  C   UNL     1      -2.026   1.220  -0.677  0.00  0.00    +0.093 C 
ATOM     20  C   UNL     1      -1.924   0.090   1.456  0.00  0.00    +0.040 C 
ATOM     21  C   UNL     1      -3.385   0.922  -0.770  0.00  0.00    +0.039 C 
ATOM     22  C   UNL     1      -3.284  -0.208   1.363  0.00  0.00    +0.027 C 
ATOM     23  C   UNL     1      -4.014   0.208   0.250  0.00  0.00    +0.144 C 
BRANCH  23  26
ATOM     24  O   UNL     1      -5.944  -0.739   1.084  0.00  0.00    -0.126 OA
ATOM     25  O   UNL     1      -6.037   0.287  -0.854  0.00  0.00    -0.126 OA
ATOM     26  N   UNL     1      -5.398  -0.096   0.155  0.00  0.00    +0.058 N 
ENDBRANCH  23  26
ENDBRANCH  16  18
ENDBRANCH   6  16
BRANCH   5  27
ATOM     27  C   UNL     1       1.294  -2.943  -1.586  0.00  0.00    +0.169 C 
BRANCH  27  28
ATOM     28  O   UNL     1      -0.084  -3.270  -1.581  0.00  0.00    -0.379 OA
ATOM     29  H   UNL     1      -0.288  -3.824  -2.350  0.00  0.00    +0.211 HD
ENDBRANCH  27  28
ENDBRANCH   5  27
TORSDOF 8
