REMARK  Name = 137266806
REMARK  3 active torsions:
REMARK  status: ('A' for Active; 'I' for Inactive)
REMARK    1  A    between atoms: C_9  and  C_17
REMARK    2  A    between atoms: C_19  and  C_20
REMARK    3  A    between atoms: C_21  and  O_26
REMARK                            x       y       z     vdW  Elec       q    Type
REMARK                         _______ _______ _______ _____ _____    ______ ____
ROOT
ATOM      1  S   UNL     1      -3.086   1.666   1.892  0.00  0.00    -0.162 S 
ATOM      2  S   UNL     1      -2.231  -3.138  -0.235  0.00  0.00    -0.118 S 
ATOM      3  O   UNL     1      -0.777   0.826  -1.794  0.00  0.00    -0.277 OA
ATOM      4  N   UNL     1      -1.850  -0.545  -0.261  0.00  0.00    -0.274 N 
ATOM      5  N   UNL     1      -4.034   1.010  -0.524  0.00  0.00    +0.402 N 
ATOM      6  C   UNL     1      -2.947  -0.777   0.691  0.00  0.00    +0.078 C 
ATOM      7  C   UNL     1      -3.900   0.423   0.816  0.00  0.00    +0.012 C 
ATOM      8  C   UNL     1      -2.751   1.705  -0.741  0.00  0.00    +0.033 C 
ATOM      9  C   UNL     1      -1.083  -1.749  -0.556  0.00  0.00    +0.147 C 
ATOM     10  C   UNL     1      -3.629  -2.057   0.206  0.00  0.00    +0.078 C 
ATOM     11  C   UNL     1      -1.695   0.625  -0.997  0.00  0.00    +0.208 C 
ATOM     12  C   UNL     1      -2.385   2.555   0.479  0.00  0.00    +0.044 C 
ATOM     13  C   UNL     1      -5.188   1.896  -0.648  0.00  0.00    -0.098 C 
ATOM     14  H   UNL     1      -4.212   0.301  -1.235  0.00  0.00    -0.078 HD
ENDROOT
BRANCH   9  17
ATOM     15  S   UNL     1       2.593  -2.697   0.579  0.00  0.00    -0.093 S 
ATOM     16  N   UNL     1       1.028  -0.690   0.052  0.00  0.00    -0.263 NA
ATOM     17  C   UNL     1       0.157  -1.856   0.319  0.00  0.00    +0.143 C 
ATOM     18  C   UNL     1       0.932  -3.138   0.042  0.00  0.00    +0.090 C 
ATOM     19  C   UNL     1       2.272  -1.013   0.218  0.00  0.00    +0.104 C 
BRANCH  19  20
ATOM     20  C   UNL     1       3.379  -0.038   0.081  0.00  0.00    +0.057 C 
ATOM     21  C   UNL     1       3.185   1.312   0.376  0.00  0.00    +0.136 C 
ATOM     22  C   UNL     1       4.628  -0.485  -0.350  0.00  0.00    +0.005 C 
ATOM     23  C   UNL     1       4.240   2.214   0.239  0.00  0.00    +0.037 C 
ATOM     24  C   UNL     1       5.683   0.417  -0.487  0.00  0.00    +0.000 C 
ATOM     25  C   UNL     1       5.489   1.767  -0.193  0.00  0.00    +0.003 C 
BRANCH  21  26
ATOM     26  O   UNL     1       1.972   1.768   0.796  0.00  0.00    -0.505 OA
ATOM     27  H   UNL     1       1.255   1.173   0.893  0.00  0.00    +0.292 HD
ENDBRANCH  21  26
ENDBRANCH  19  20
ENDBRANCH   9  17
TORSDOF 3
