REMARK  Name = 137274215
REMARK  4 active torsions:
REMARK  status: ('A' for Active; 'I' for Inactive)
REMARK    1  A    between atoms: N_2  and  C_17
REMARK    2  A    between atoms: C_18  and  O_21
REMARK    3  A    between atoms: C_20  and  C_23
REMARK    4  A    between atoms: C_23  and  O_24
REMARK                            x       y       z     vdW  Elec       q    Type
REMARK                         _______ _______ _______ _____ _____    ______ ____
ROOT
ATOM      1  O   UNL     1      -4.405   1.739   0.093  0.00  0.00    -0.268 OA
ATOM      2  N   UNL     1      -0.092   0.397   0.199  0.00  0.00    -0.236 N 
ATOM      3  N   UNL     1      -1.466   2.161   0.191  0.00  0.00    -0.240 NA
ATOM      4  N   UNL     1      -1.695  -1.415   0.115  0.00  0.00    -0.357 NA
ATOM      5  N   UNL     1      -3.927  -0.547   0.063  0.00  0.00    -0.243 N 
ATOM      6  N   UNL     1      -3.539  -2.869   0.030  0.00  0.00    -0.321 N 
ATOM      7  C   UNL     1      -1.358  -0.107   0.150  0.00  0.00    +0.211 C 
ATOM      8  C   UNL     1      -0.209   1.765   0.222  0.00  0.00    +0.224 C 
ATOM      9  C   UNL     1      -2.176   0.998   0.146  0.00  0.00    +0.176 C 
ATOM     10  C   UNL     1      -3.600   0.816   0.100  0.00  0.00    +0.273 C 
ATOM     11  C   UNL     1      -2.995  -1.611   0.071  0.00  0.00    +0.239 C 
ATOM     12  H   UNL     1      -4.883  -0.782   0.029  0.00  0.00    +0.159 HD
ATOM     13  H   UNL     1      -2.952  -3.659   0.032  0.00  0.00    +0.146 HD
ATOM     14  H   UNL     1      -4.516  -2.982  -0.003  0.00  0.00    +0.146 HD
ENDROOT
BRANCH   2  17
ATOM     15  F   UNL     1       2.221  -1.916  -1.229  0.00  0.00    -0.230 F 
ATOM     16  O   UNL     1       2.209   0.303   0.988  0.00  0.00    -0.333 OA
ATOM     17  C   UNL     1       1.203  -0.385   0.223  0.00  0.00    +0.231 C 
ATOM     18  C   UNL     1       2.968   0.293  -1.252  0.00  0.00    +0.177 C 
ATOM     19  C   UNL     1       1.777  -0.629  -1.169  0.00  0.00    +0.236 C 
ATOM     20  C   UNL     1       3.401   0.450   0.197  0.00  0.00    +0.176 C 
BRANCH  18  21
ATOM     21  O   UNL     1       2.537   1.546  -1.772  0.00  0.00    -0.379 OA
ATOM     22  H   UNL     1       2.264   1.437  -2.696  0.00  0.00    +0.211 HD
ENDBRANCH  18  21
BRANCH  20  23
ATOM     23  C   UNL     1       4.399  -0.612   0.641  0.00  0.00    +0.169 C 
BRANCH  23  24
ATOM     24  O   UNL     1       4.748  -0.377   1.995  0.00  0.00    -0.379 OA
ATOM     25  H   UNL     1       5.384  -1.048   2.287  0.00  0.00    +0.211 HD
ENDBRANCH  23  24
ENDBRANCH  20  23
ENDBRANCH   2  17
TORSDOF 4
