REMARK  Name = 137222921
REMARK  3 active torsions:
REMARK  status: ('A' for Active; 'I' for Inactive)
REMARK    1  A    between atoms: C_1  and  C_11
REMARK    2  A    between atoms: C_2  and  O_17
REMARK    3  A    between atoms: C_6  and  O_19
REMARK                            x       y       z     vdW  Elec       q    Type
REMARK                         _______ _______ _______ _____ _____    ______ ____
ROOT
ATOM      1  C   UNL     1       1.441  -0.137  -0.103  0.00  0.00    +0.071 C 
ATOM      2  C   UNL     1       2.199   0.701   0.715  0.00  0.00    +0.140 C 
ATOM      3  C   UNL     1       2.076  -1.065  -0.929  0.00  0.00    +0.009 C 
ATOM      4  C   UNL     1       3.591   0.610   0.708  0.00  0.00    +0.073 C 
ATOM      5  C   UNL     1       3.467  -1.156  -0.936  0.00  0.00    +0.037 C 
ATOM      6  C   UNL     1       4.225  -0.318  -0.118  0.00  0.00    +0.137 C 
ENDROOT
BRANCH   1  11
ATOM      7  S   UNL     1      -0.873  -1.524   0.391  0.00  0.00    -0.053 S 
ATOM      8  S   UNL     1      -4.540   0.498  -0.184  0.00  0.00    -0.073 S 
ATOM      9  O   UNL     1      -2.343   2.459  -0.853  0.00  0.00    -0.209 OA
ATOM     10  N   UNL     1      -0.596   1.065  -0.450  0.00  0.00    -0.326 NA
ATOM     11  C   UNL     1      -0.043  -0.058  -0.111  0.00  0.00    +0.177 C 
ATOM     12  C   UNL     1      -2.521  -0.995   0.253  0.00  0.00    +0.050 C 
ATOM     13  C   UNL     1      -2.843   0.274  -0.147  0.00  0.00    +0.130 C 
ATOM     14  C   UNL     1      -3.652  -1.803   0.534  0.00  0.00    +0.015 C 
ATOM     15  C   UNL     1      -1.945   1.350  -0.510  0.00  0.00    +0.212 C 
ATOM     16  C   UNL     1      -4.825  -1.109   0.336  0.00  0.00    +0.037 C 
ENDBRANCH   1  11
BRANCH   2  17
ATOM     17  O   UNL     1       1.598   1.614   1.529  0.00  0.00    -0.505 OA
ATOM     18  H   UNL     1       0.664   1.685   1.544  0.00  0.00    +0.292 HD
ENDBRANCH   2  17
BRANCH   6  19
ATOM     19  O   UNL     1       5.583  -0.406  -0.125  0.00  0.00    -0.505 OA
ATOM     20  H   UNL     1       6.092   0.157   0.424  0.00  0.00    +0.292 HD
ENDBRANCH   6  19
TORSDOF 3
