13727072
  -OEChem-03292013303D

 42 43  0     1  0  0  0  0  0999 V2000
   -1.2731    2.1048   -1.9530 Cl  0  0  0  0  0  0  0  0  0  0  0  0
    0.7830   -0.8949   -0.4752 O   0  0  0  0  0  0  0  0  0  0  0  0
    3.1526   -1.3942    2.0975 O   0  0  0  0  0  0  0  0  0  0  0  0
    0.0344    1.0817    0.5540 O   0  0  0  0  0  0  0  0  0  0  0  0
    3.8759   -2.8496   -0.1445 O   0  0  0  0  0  0  0  0  0  0  0  0
   -0.0839   -3.2696   -1.5809 O   0  0  0  0  0  0  0  0  0  0  0  0
    4.1688    2.7434    0.8840 O   0  0  0  0  0  0  0  0  0  0  0  0
   -5.9437   -0.7391    1.0844 O   0  5  0  0  0  0  0  0  0  0  0  0
   -6.0373    0.2874   -0.8538 O   0  0  0  0  0  0  0  0  0  0  0  0
    2.7088    1.3639   -0.2924 N   0  0  0  0  0  0  0  0  0  0  0  0
   -5.3978   -0.0958    0.1555 N   0  3  0  0  0  0  0  0  0  0  0  0
    2.3593    0.4735    0.7944 C   0  0  2  0  0  0  0  0  0  0  0  0
    3.3347   -0.7078    0.8567 C   0  0  2  0  0  0  0  0  0  0  0  0
    3.0734   -1.6848   -0.2973 C   0  0  2  0  0  0  0  0  0  0  0  0
    1.5911   -2.0725   -0.3689 C   0  0  2  0  0  0  0  0  0  0  0  0
    0.9139   -0.0349    0.6579 C   0  0  2  0  0  0  0  0  0  0  0  0
    1.2938   -2.9431   -1.5859 C   0  0  0  0  0  0  0  0  0  0  0  0
    3.5867    2.4244   -0.1494 C   0  0  0  0  0  0  0  0  0  0  0  0
   -1.3005    0.8033    0.4356 C   0  0  0  0  0  0  0  0  0  0  0  0
    3.7922    3.1715   -1.4398 C   0  0  0  0  0  0  0  0  0  0  0  0
   -2.0255    1.2203   -0.6770 C   0  0  0  0  0  0  0  0  0  0  0  0
   -1.9241    0.0902    1.4559 C   0  0  0  0  0  0  0  0  0  0  0  0
   -3.3850    0.9219   -0.7703 C   0  0  0  0  0  0  0  0  0  0  0  0
   -3.2836   -0.2079    1.3628 C   0  0  0  0  0  0  0  0  0  0  0  0
   -4.0140    0.2079    0.2496 C   0  0  0  0  0  0  0  0  0  0  0  0
    2.4242    1.0553    1.7230 H   0  0  0  0  0  0  0  0  0  0  0  0
    4.3788   -0.3747    0.8308 H   0  0  0  0  0  0  0  0  0  0  0  0
    3.3628   -1.2016   -1.2391 H   0  0  0  0  0  0  0  0  0  0  0  0
    1.2862   -2.6266    0.5289 H   0  0  0  0  0  0  0  0  0  0  0  0
    0.6644   -0.6042    1.5625 H   0  0  0  0  0  0  0  0  0  0  0  0
    1.8748   -3.8701   -1.5835 H   0  0  0  0  0  0  0  0  0  0  0  0
    1.4968   -2.4014   -2.5152 H   0  0  0  0  0  0  0  0  0  0  0  0
    2.3296    1.1596   -1.2127 H   0  0  0  0  0  0  0  0  0  0  0  0
    3.3450   -0.7630    2.8116 H   0  0  0  0  0  0  0  0  0  0  0  0
    4.8038   -2.5623   -0.1006 H   0  0  0  0  0  0  0  0  0  0  0  0
   -0.2645   -3.7786   -0.7722 H   0  0  0  0  0  0  0  0  0  0  0  0
    2.8307    3.3711   -1.9218 H   0  0  0  0  0  0  0  0  0  0  0  0
    4.4186    2.5756   -2.1091 H   0  0  0  0  0  0  0  0  0  0  0  0
    4.2860    4.1260   -1.2377 H   0  0  0  0  0  0  0  0  0  0  0  0
   -1.3798   -0.2245    2.3414 H   0  0  0  0  0  0  0  0  0  0  0  0
   -3.9367    1.2551   -1.6468 H   0  0  0  0  0  0  0  0  0  0  0  0
   -3.7412   -0.7618    2.1786 H   0  0  0  0  0  0  0  0  0  0  0  0
  1 21  1  0  0  0  0
  2 15  1  0  0  0  0
  2 16  1  0  0  0  0
  3 13  1  0  0  0  0
  3 34  1  0  0  0  0
  4 16  1  0  0  0  0
  4 19  1  0  0  0  0
  5 14  1  0  0  0  0
  5 35  1  0  0  0  0
  6 17  1  0  0  0  0
  6 36  1  0  0  0  0
  7 18  2  0  0  0  0
  8 11  1  0  0  0  0
  9 11  2  0  0  0  0
 10 12  1  0  0  0  0
 10 18  1  0  0  0  0
 10 33  1  0  0  0  0
 11 25  1  0  0  0  0
 12 13  1  0  0  0  0
 12 16  1  0  0  0  0
 12 26  1  0  0  0  0
 13 14  1  0  0  0  0
 13 27  1  0  0  0  0
 14 15  1  0  0  0  0
 14 28  1  0  0  0  0
 15 17  1  0  0  0  0
 15 29  1  0  0  0  0
 16 30  1  0  0  0  0
 17 31  1  0  0  0  0
 17 32  1  0  0  0  0
 18 20  1  0  0  0  0
 19 21  2  0  0  0  0
 19 22  1  0  0  0  0
 20 37  1  0  0  0  0
 20 38  1  0  0  0  0
 20 39  1  0  0  0  0
 21 23  1  0  0  0  0
 22 24  2  0  0  0  0
 22 40  1  0  0  0  0
 23 25  2  0  0  0  0
 23 41  1  0  0  0  0
 24 25  1  0  0  0  0
 24 42  1  0  0  0  0
M  CHG  2   8  -1  11   1
M  END
> <PUBCHEM_COMPOUND_CID>
13727072

> <PUBCHEM_CONFORMER_RMSD>
1

> <PUBCHEM_CONFORMER_DIVERSEORDER>
3
139
281
876
416
152
153
730
724
76
637
102
307
660
611
328
440
748
855
119
90
80
642
655
379
803
343
1
898
260
735
923
20
79
196
517
581
300
450
569
61
643
808
111
404
308
394
588
743
156
334
756
30
265
645
363
148
402
100
149
706
295
847
14
457
339
552
396
206
87
928
504
607
118
623
165
12
47
101
745
214
533
106
639
13
209
182
176
6
364
38
40
74
848
169
563
52
8
2
235
845
430
114
4
425
821
222
625
490
918
36
233
67
186
117
9
123
207
559
634
774
741
155
287
316
77
392
131
678
172
850
409
168
381
542
45
35
608
33
261
145
846
88
63
320
456
43
345
15
747
5
448
761
104
135
164
62
215
375
53
619
136
488
477
286
844
758
405
726
390
41
27
432
474
16
127
663
276
129
624
667
241
897
159
150
602
282
561
10
121
689
527
734
65
249
331
96
407
142
590
183
613
105
610
641
702

> <PUBCHEM_MMFF94_PARTIAL_CHARGES>
32
1 -0.18
10 -0.73
11 0.91
12 0.3
13 0.28
14 0.28
15 0.28
16 0.56
17 0.28
18 0.57
19 0.08
2 -0.56
20 0.06
21 0.18
22 -0.15
23 -0.15
24 -0.15
25 0.13
3 -0.68
33 0.37
34 0.4
35 0.4
36 0.4
4 -0.36
40 0.15
41 0.15
42 0.15
5 -0.68
6 -0.68
7 -0.57
8 -0.52
9 -0.52

> <PUBCHEM_EFFECTIVE_ROTOR_COUNT>
7.2

> <PUBCHEM_PHARMACOPHORE_FEATURES>
15
1 10 donor
1 2 acceptor
1 3 acceptor
1 3 donor
1 4 acceptor
1 5 acceptor
1 5 donor
1 6 acceptor
1 6 donor
1 7 acceptor
1 8 acceptor
1 8 anion
1 9 acceptor
6 19 21 22 23 24 25 rings
6 2 12 13 14 15 16 rings

> <PUBCHEM_HEAVY_ATOM_COUNT>
25

> <PUBCHEM_ATOM_DEF_STEREO_COUNT>
0

> <PUBCHEM_ATOM_UDEF_STEREO_COUNT>
5

> <PUBCHEM_BOND_DEF_STEREO_COUNT>
0

> <PUBCHEM_BOND_UDEF_STEREO_COUNT>
0

> <PUBCHEM_ISOTOPIC_ATOM_COUNT>
0

> <PUBCHEM_COMPONENT_COUNT>
1

> <PUBCHEM_CACTVS_TAUTO_COUNT>
2

> <PUBCHEM_CONFORMER_ID>
00D1756000000003

> <PUBCHEM_MMFF94_ENERGY>
72.9248

> <PUBCHEM_FEATURE_SELFOVERLAP>
76.264

> <PUBCHEM_SHAPE_FINGERPRINT>
10165383 225 18269281329862292024
10366900 7 17749680566783645810
10871710 139 17542793452809263444
11578080 2 14997377601790297444
12403259 226 17969778566927612926
12596602 18 15913032223985883779
13583140 156 17533191138337871878
13836976 161 18343022194549779078
13955234 65 18413389843473755898
14178342 30 17841148849072569938
14863182 85 17560797693858350758
14955137 171 18411980244409059866
15961568 22 17386009519696276332
17138139 8 17271415179876234351
17844677 252 18114182995782769313
1813 80 17771922532353063150
20600515 1 16877944988121352925
20645477 70 18409448072386178097
21304303 94 17845672420603809246
21524375 3 18263648532035554944
23557571 272 17675926482339237293
23559900 14 18266455412847094555
239999 70 18334576823892996642
3060560 45 18412554219200820444
312423 11 18130520625573455225
4340502 62 18201725114415046088
46194498 28 18335143059654414676
5104073 3 18260830367658834841
59755656 215 18335709351593746724
59755656 520 18199465653139685188
621550 34 18335136505408109837
7399639 24 18335691758669529412
81228 2 17330550364213876488
9709674 26 18261394412485452969

> <PUBCHEM_SHAPE_MULTIPOLES>
459.44
10.33
3.44
1.62
12.73
0.41
-0.15
-1.73
1.39
-5.56
-1.98
-0.09
0.23
0.46

> <PUBCHEM_SHAPE_SELFOVERLAP>
952.771

> <PUBCHEM_SHAPE_VOLUME>
261.3

> <PUBCHEM_COORDINATE_TYPE>
2
5
10

$$$$
