137266806
  -OEChem-03292013293D

 44 48  0     1  0  0  0  0  0999 V2000
   -3.0856    1.6660    1.8924 S   0  0  0  0  0  0  0  0  0  0  0  0
   -2.2312   -3.1382   -0.2354 S   0  0  0  0  0  0  0  0  0  0  0  0
    2.5926   -2.6974    0.5789 S   0  0  0  0  0  0  0  0  0  0  0  0
   -0.7769    0.8258   -1.7937 O   0  0  0  0  0  0  0  0  0  0  0  0
    1.9719    1.7684    0.7964 O   0  0  0  0  0  0  0  0  0  0  0  0
   -1.8501   -0.5455   -0.2610 N   0  0  0  0  0  0  0  0  0  0  0  0
   -4.0340    1.0103   -0.5239 N   0  0  2  0  0  0  0  0  0  0  0  0
    1.0280   -0.6903    0.0516 N   0  0  0  0  0  0  0  0  0  0  0  0
   -2.9470   -0.7774    0.6913 C   0  0  1  0  0  0  0  0  0  0  0  0
   -3.9003    0.4232    0.8163 C   0  0  1  0  0  0  0  0  0  0  0  0
   -2.7510    1.7047   -0.7412 C   0  0  2  0  0  0  0  0  0  0  0  0
   -1.0829   -1.7490   -0.5561 C   0  0  1  0  0  0  0  0  0  0  0  0
   -3.6286   -2.0567    0.2062 C   0  0  0  0  0  0  0  0  0  0  0  0
   -1.6952    0.6246   -0.9973 C   0  0  0  0  0  0  0  0  0  0  0  0
   -2.3855    2.5553    0.4788 C   0  0  0  0  0  0  0  0  0  0  0  0
    0.1574   -1.8558    0.3186 C   0  0  1  0  0  0  0  0  0  0  0  0
   -5.1879    1.8960   -0.6477 C   0  0  0  0  0  0  0  0  0  0  0  0
    0.9316   -3.1377    0.0424 C   0  0  0  0  0  0  0  0  0  0  0  0
    2.2718   -1.0130    0.2179 C   0  0  0  0  0  0  0  0  0  0  0  0
    3.3790   -0.0378    0.0810 C   0  0  0  0  0  0  0  0  0  0  0  0
    3.1851    1.3115    0.3757 C   0  0  0  0  0  0  0  0  0  0  0  0
    4.6277   -0.4850   -0.3505 C   0  0  0  0  0  0  0  0  0  0  0  0
    4.2399    2.2139    0.2390 C   0  0  0  0  0  0  0  0  0  0  0  0
    5.6827    0.4174   -0.4874 C   0  0  0  0  0  0  0  0  0  0  0  0
    5.4888    1.7669   -0.1926 C   0  0  0  0  0  0  0  0  0  0  0  0
   -2.4858   -0.9906    1.6673 H   0  0  0  0  0  0  0  0  0  0  0  0
   -4.8543    0.1147    1.2574 H   0  0  0  0  0  0  0  0  0  0  0  0
   -2.7877    2.3208   -1.6485 H   0  0  0  0  0  0  0  0  0  0  0  0
   -0.8117   -1.7453   -1.6182 H   0  0  0  0  0  0  0  0  0  0  0  0
   -4.2520   -2.5132    0.9798 H   0  0  0  0  0  0  0  0  0  0  0  0
   -4.2342   -1.8895   -0.6902 H   0  0  0  0  0  0  0  0  0  0  0  0
   -1.3053    2.6709    0.6064 H   0  0  0  0  0  0  0  0  0  0  0  0
   -2.8495    3.5447    0.4262 H   0  0  0  0  0  0  0  0  0  0  0  0
   -0.1274   -1.8104    1.3804 H   0  0  0  0  0  0  0  0  0  0  0  0
   -6.1131    1.3322   -0.4844 H   0  0  0  0  0  0  0  0  0  0  0  0
   -5.2438    2.3006   -1.6642 H   0  0  0  0  0  0  0  0  0  0  0  0
   -5.1777    2.7386    0.0512 H   0  0  0  0  0  0  0  0  0  0  0  0
    0.5543   -3.9971    0.6027 H   0  0  0  0  0  0  0  0  0  0  0  0
    0.9639   -3.3829   -1.0242 H   0  0  0  0  0  0  0  0  0  0  0  0
    4.8166   -1.5216   -0.6124 H   0  0  0  0  0  0  0  0  0  0  0  0
    4.1030    3.2682    0.4644 H   0  0  0  0  0  0  0  0  0  0  0  0
    6.6539    0.0707   -0.8284 H   0  0  0  0  0  0  0  0  0  0  0  0
    6.3099    2.4696   -0.3005 H   0  0  0  0  0  0  0  0  0  0  0  0
    2.0283    2.7273    0.9485 H   0  0  0  0  0  0  0  0  0  0  0  0
  1 10  1  0  0  0  0
  1 15  1  0  0  0  0
  2 12  1  0  0  0  0
  2 13  1  0  0  0  0
  3 18  1  0  0  0  0
  3 19  1  0  0  0  0
  4 14  2  0  0  0  0
  5 21  1  0  0  0  0
  5 44  1  0  0  0  0
  6  9  1  0  0  0  0
  6 12  1  0  0  0  0
  6 14  1  0  0  0  0
  7 10  1  0  0  0  0
  7 11  1  0  0  0  0
  7 17  1  0  0  0  0
  8 16  1  0  0  0  0
  8 19  2  0  0  0  0
  9 10  1  0  0  0  0
  9 13  1  0  0  0  0
  9 26  1  0  0  0  0
 10 27  1  0  0  0  0
 11 14  1  0  0  0  0
 11 15  1  0  0  0  0
 11 28  1  0  0  0  0
 12 16  1  0  0  0  0
 12 29  1  0  0  0  0
 13 30  1  0  0  0  0
 13 31  1  0  0  0  0
 15 32  1  0  0  0  0
 15 33  1  0  0  0  0
 16 18  1  0  0  0  0
 16 34  1  0  0  0  0
 17 35  1  0  0  0  0
 17 36  1  0  0  0  0
 17 37  1  0  0  0  0
 18 38  1  0  0  0  0
 18 39  1  0  0  0  0
 19 20  1  0  0  0  0
 20 21  1  0  0  0  0
 20 22  2  0  0  0  0
 21 23  2  0  0  0  0
 22 24  1  0  0  0  0
 22 40  1  0  0  0  0
 23 25  1  0  0  0  0
 23 41  1  0  0  0  0
 24 25  2  0  0  0  0
 24 42  1  0  0  0  0
 25 43  1  0  0  0  0
M  END
> <PUBCHEM_COMPOUND_CID>
137266806

> <PUBCHEM_CONFORMER_RMSD>
0.8

> <PUBCHEM_CONFORMER_DIVERSEORDER>
1
15
8
19
6
14
9
16
4
12
13
3
18
10
11
2
7
17
5

> <PUBCHEM_MMFF94_PARTIAL_CHARGES>
30
1 -0.46
10 0.5
11 0.33
12 0.53
13 0.23
14 0.57
15 0.23
16 0.25
17 0.27
18 0.23
19 0.5
2 -0.46
20 0.09
21 0.08
22 -0.15
23 -0.15
24 -0.15
25 -0.15
3 -0.37
4 -0.57
40 0.15
41 0.15
42 0.15
43 0.15
44 0.45
5 -0.53
6 -0.66
7 -0.81
8 -0.7
9 0.3

> <PUBCHEM_EFFECTIVE_ROTOR_COUNT>
3.8

> <PUBCHEM_PHARMACOPHORE_FEATURES>
8
1 4 acceptor
1 5 donor
1 7 cation
1 8 acceptor
5 2 6 9 12 13 rings
5 3 8 16 18 19 rings
6 20 21 22 23 24 25 rings
8 1 6 7 9 10 11 14 15 rings

> <PUBCHEM_HEAVY_ATOM_COUNT>
25

> <PUBCHEM_ATOM_DEF_STEREO_COUNT>
5

> <PUBCHEM_ATOM_UDEF_STEREO_COUNT>
0

> <PUBCHEM_BOND_DEF_STEREO_COUNT>
0

> <PUBCHEM_BOND_UDEF_STEREO_COUNT>
0

> <PUBCHEM_ISOTOPIC_ATOM_COUNT>
0

> <PUBCHEM_COMPONENT_COUNT>
1

> <PUBCHEM_CACTVS_TAUTO_COUNT>
-1

> <PUBCHEM_CONFORMER_ID>
082E867600000001

> <PUBCHEM_MMFF94_ENERGY>
76.122

> <PUBCHEM_FEATURE_SELFOVERLAP>
40.614

> <PUBCHEM_SHAPE_FINGERPRINT>
10165383 225 18410578370339817416
10366900 7 18131060524653546625
10411042 1 17616816973369532043
10498660 4 18410290319810238200
10670039 82 18263092170561615356
1100329 8 17544477913229437323
11552529 35 18200592621854924863
11578080 2 17242155873801005599
12390115 104 18339375140192169102
12633257 1 18192990422298250947
12788726 201 18264757943173136515
13140716 1 18261386694171317818
13224815 77 18040428910673124902
14251751 93 18342457088428024398
14251757 17 18130521768583173886
14466204 15 18410847781665646976
14787075 74 18272077289589758823
14790565 3 18262807392597090476
14931854 50 18201436935153129372
15021287 119 17313380150490767996
15163728 17 16270538322229905329
15183329 4 18341057324906846006
15196674 1 18410009966257555830
15840311 113 17907304257121818717
21033648 29 18340198708903920136
21236236 1 18338517546644673518
21279426 13 18342185453833175998
21623110 236 18337678619452164929
21864079 5 18410284839822352130
221357 26 18200877408615151174
22182937 141 18341054098484391522
22393880 68 18412826897952633194
23227448 37 18412544340190503055
23557571 272 18270124637620483054
23559900 14 18196645207597194883
238 59 17613680788364855925
283562 15 18192988442419008771
350125 39 18339083807864762923
376196 1 16811491360263826285
4214541 1 18412265073127571664
469060 322 17168419480010377767
474 4 18339920411680515418
5048184 11 18410572881524321176
5081480 168 17127927593674557462
5104073 3 18259702276838434914
6287921 2 18261685856202525284
7097593 13 17680970925581419434
7226269 152 18202277023067937672
7808743 9 18409445929598371928
9981440 41 18334572490429601810

> <PUBCHEM_SHAPE_MULTIPOLES>
499.36
11.11
3.64
1.11
8.52
1.8
-0.09
-6.69
0.44
-0.78
-0.33
-0.89
-0.45
-0.14

> <PUBCHEM_SHAPE_SELFOVERLAP>
1052.815

> <PUBCHEM_SHAPE_VOLUME>
284.3

> <PUBCHEM_COORDINATE_TYPE>
2
5
10

$$$$
