REMARK  Name = 137307
REMARK  6 active torsions:
REMARK  status: ('A' for Active; 'I' for Inactive)
REMARK    1  A    between atoms: C_1  and  C_12
REMARK    2  A    between atoms: C_4  and  O_19
REMARK    3  A    between atoms: O_19  and  C_21
REMARK    4  A    between atoms: C_21  and  C_22
REMARK    5  A    between atoms: C_22  and  C_24
REMARK    6  A    between atoms: C_24  and  O_25
REMARK                            x       y       z     vdW  Elec       q    Type
REMARK                         _______ _______ _______ _____ _____    ______ ____
ROOT
ATOM      1  C   UNL     1       0.305  -1.682  -0.010  0.00  0.00    +0.030 C 
ATOM      2  C   UNL     1       1.310  -0.876   0.533  0.00  0.00    +0.040 C 
ATOM      3  C   UNL     1       0.638  -2.919  -0.568  0.00  0.00    +0.002 C 
ATOM      4  C   UNL     1       2.638  -1.305   0.518  0.00  0.00    +0.149 C 
ATOM      5  C   UNL     1       1.965  -3.348  -0.583  0.00  0.00    +0.003 C 
ATOM      6  C   UNL     1       2.965  -2.541  -0.040  0.00  0.00    +0.038 C 
ENDROOT
BRANCH   1  12
ATOM      7  S   UNL     1      -4.882  -1.518   0.116  0.00  0.00    -0.039 S 
ATOM      8  N   UNL     1      -2.804   0.021  -0.005  0.00  0.00    -0.250 N 
ATOM      9  N   UNL     1      -2.138  -2.102   0.072  0.00  0.00    -0.383 NA
ATOM     10  C   UNL     1      -3.845   0.939  -0.018  0.00  0.00    +0.061 C 
ATOM     11  C   UNL     1      -3.161  -1.292   0.061  0.00  0.00    +0.218 C 
ATOM     12  C   UNL     1      -1.056  -1.242   0.005  0.00  0.00    +0.132 C 
ATOM     13  C   UNL     1      -5.077   0.268   0.044  0.00  0.00    +0.047 C 
ATOM     14  C   UNL     1      -1.448   0.086  -0.044  0.00  0.00    +0.157 C 
ATOM     15  C   UNL     1      -3.736   2.314  -0.080  0.00  0.00    +0.015 C 
ATOM     16  C   UNL     1      -6.256   0.992   0.043  0.00  0.00    +0.008 C 
ATOM     17  C   UNL     1      -4.928   3.041  -0.079  0.00  0.00    +0.001 C 
ATOM     18  C   UNL     1      -6.174   2.388  -0.019  0.00  0.00    +0.001 C 
ENDBRANCH   1  12
BRANCH   4  19
ATOM     19  O   UNL     1       3.614  -0.519   1.049  0.00  0.00    -0.424 OA
BRANCH  19  21
ATOM     20  O   UNL     1       3.895   0.474  -1.051  0.00  0.00    -0.249 OA
ATOM     21  C   UNL     1       4.195   0.373   0.132  0.00  0.00    +0.333 C 
BRANCH  21  22
ATOM     22  C   UNL     1       5.260   1.200   0.804  0.00  0.00    +0.219 C 
BRANCH  22  24
ATOM     23  O   UNL     1       5.761   2.285  -1.308  0.00  0.00    -0.250 OA
ATOM     24  C   UNL     1       5.992   2.142  -0.115  0.00  0.00    +0.325 C 
BRANCH  24  25
ATOM     25  O   UNL     1       6.969   2.821   0.540  0.00  0.00    -0.480 OA
ATOM     26  H   UNL     1       7.107   2.677   1.456  0.00  0.00    +0.295 HD
ENDBRANCH  24  25
ENDBRANCH  22  24
ENDBRANCH  21  22
ENDBRANCH  19  21
ENDBRANCH   4  19
TORSDOF 6
