REMARK  Name = 137326
REMARK  7 active torsions:
REMARK  status: ('A' for Active; 'I' for Inactive)
REMARK    1  A    between atoms: C_5  and  C_14
REMARK    2  A    between atoms: C_14  and  S_15
REMARK    3  A    between atoms: S_15  and  C_16
REMARK    4  A    between atoms: C_16  and  C_17
REMARK    5  A    between atoms: C_17  and  N_18
REMARK    6  A    between atoms: C_17  and  C_23
REMARK    7  A    between atoms: C_23  and  O_24
REMARK                            x       y       z     vdW  Elec       q    Type
REMARK                         _______ _______ _______ _____ _____    ______ ____
ROOT
ATOM      1  O   UNK     1      -3.657   2.331   0.837  0.00  0.00    -0.265 OA
ATOM      2  O   UNK     1      -4.625  -1.034   0.805  0.00  0.00    -0.265 OA
ATOM      3  N   UNK     1      -1.531  -0.092  -0.363  0.00  0.00    -0.248 N 
ATOM      4  N   UNK     1      -2.734   0.249   0.183  0.00  0.00    -0.175 N 
ATOM      5  C   UNK     1      -0.767   1.039  -0.536  0.00  0.00    +0.070 A 
ATOM      6  C   UNK     1      -1.482  -1.453  -0.557  0.00  0.00    +0.060 A 
ATOM      7  C   UNK     1      -1.434   2.137  -0.116  0.00  0.00    +0.050 A 
ATOM      8  C   UNK     1      -2.633  -2.035  -0.153  0.00  0.00    +0.050 A 
ATOM      9  C   UNK     1      -2.766   1.640   0.376  0.00  0.00    +0.279 A 
ATOM     10  C   UNK     1      -3.501  -0.915   0.352  0.00  0.00    +0.279 A 
ATOM     11  C   UNK     1      -0.292  -2.133  -1.140  0.00  0.00    +0.052 C 
ATOM     12  C   UNK     1      -1.080   3.574  -0.081  0.00  0.00    +0.037 C 
ATOM     13  C   UNK     1      -3.094  -3.442  -0.138  0.00  0.00    +0.037 C 
ENDROOT
BRANCH   5  14
ATOM     14  C   UNK     1       0.605   0.994  -1.115  0.00  0.00    +0.103 C 
BRANCH  14  15
ATOM     15  S   UNK     1       1.823   0.773   0.202  0.00  0.00    -0.135 S 
BRANCH  15  16
ATOM     16  C   UNK     1       3.320   0.760  -0.813  0.00  0.00    +0.047 C 
BRANCH  16  17
ATOM     17  C   UNK     1       4.576   0.512   0.023  0.00  0.00    +0.047 C 
BRANCH  17  18
ATOM     18  N   UNK     1       5.757   0.486  -0.842  0.00  0.00    +0.389 N 
ATOM     19  H   UNK     1       5.822   1.366  -1.355  0.00  0.00    -0.088 HD
ATOM     20  H   UNK     1       5.678  -0.287  -1.502  0.00  0.00    -0.088 HD
ATOM     21  H   UNK     1       6.594   0.363  -0.272  0.00  0.00    -0.088 HD
ENDBRANCH  17  18
BRANCH  17  23
ATOM     22  O   UNK     1       4.370  -1.891   0.203  0.00  0.00    -0.253 OA
ATOM     23  C   UNK     1       4.522  -0.811   0.763  0.00  0.00    +0.294 C 
BRANCH  23  24
ATOM     24  O   UNK     1       4.623  -0.690   2.111  0.00  0.00    -0.482 OA
ATOM     25  H   UNK     1       4.739   0.155   2.498  0.00  0.00    +0.295 HD
ENDBRANCH  23  24
ENDBRANCH  17  23
ENDBRANCH  16  17
ENDBRANCH  15  16
ENDBRANCH  14  15
ENDBRANCH   5  14
TORSDOF 7
