137306
  -OEChem-03292013323D

 43 44  0     0  0  0  0  0  0999 V2000
   -1.3776   -0.4481   -0.6094 O   0  0  0  0  0  0  0  0  0  0  0  0
    4.7228    1.2062    0.8622 O   0  0  0  0  0  0  0  0  0  0  0  0
   -7.0941   -1.3367    0.5158 O   0  5  0  0  0  0  0  0  0  0  0  0
   -7.3891    0.7394    1.1797 O   0  0  0  0  0  0  0  0  0  0  0  0
   -4.3013    0.2448    0.4538 N   0  0  0  0  0  0  0  0  0  0  0  0
    7.3583    0.6064    0.3081 N   0  0  0  0  0  0  0  0  0  0  0  0
    4.1102   -0.9079    0.0455 N   0  0  0  0  0  0  0  0  0  0  0  0
   -5.5143    0.6530   -1.3612 N   0  0  0  0  0  0  0  0  0  0  0  0
   -6.7195   -0.1300    0.5522 N   0  3  0  0  0  0  0  0  0  0  0  0
   -3.4424    0.6713   -0.5012 C   0  0  0  0  0  0  0  0  0  0  0  0
   -1.9701    0.8034   -0.2649 C   0  0  0  0  0  0  0  0  0  0  0  0
   -5.5464    0.2489   -0.1107 C   0  0  0  0  0  0  0  0  0  0  0  0
    6.4114   -0.4853    0.5330 C   0  0  0  0  0  0  0  0  0  0  0  0
   -4.1907    0.9187   -1.6087 C   0  0  0  0  0  0  0  0  0  0  0  0
   -0.0307   -0.5607   -0.4496 C   0  0  0  0  0  0  0  0  0  0  0  0
    2.7097   -0.7907   -0.1218 C   0  0  0  0  0  0  0  0  0  0  0  0
   -3.9731   -0.1411    1.8078 C   0  0  0  0  0  0  0  0  0  0  0  0
    4.9948    0.0622    0.5122 C   0  0  0  0  0  0  0  0  0  0  0  0
    0.6117   -1.7571   -0.7677 C   0  0  0  0  0  0  0  0  0  0  0  0
    0.7070    0.5199    0.0338 C   0  0  0  0  0  0  0  0  0  0  0  0
    1.9919   -1.8730   -0.6027 C   0  0  0  0  0  0  0  0  0  0  0  0
    2.0871    0.4041    0.1988 C   0  0  0  0  0  0  0  0  0  0  0  0
    8.7333    0.1139    0.3825 C   0  0  0  0  0  0  0  0  0  0  0  0
    7.1112    1.2384   -0.9874 C   0  0  0  0  0  0  0  0  0  0  0  0
   -1.5889    1.5990   -0.9182 H   0  0  0  0  0  0  0  0  0  0  0  0
   -1.7854    1.0609    0.7848 H   0  0  0  0  0  0  0  0  0  0  0  0
    6.5372   -1.2759   -0.2172 H   0  0  0  0  0  0  0  0  0  0  0  0
    6.5647   -0.9284    1.5245 H   0  0  0  0  0  0  0  0  0  0  0  0
   -3.8621    1.2728   -2.5750 H   0  0  0  0  0  0  0  0  0  0  0  0
   -3.7457    0.7655    2.3744 H   0  0  0  0  0  0  0  0  0  0  0  0
   -3.1077   -0.8084    1.7845 H   0  0  0  0  0  0  0  0  0  0  0  0
   -4.8110   -0.6673    2.2694 H   0  0  0  0  0  0  0  0  0  0  0  0
    4.4939   -1.8171   -0.2031 H   0  0  0  0  0  0  0  0  0  0  0  0
    0.0421   -2.6024   -1.1442 H   0  0  0  0  0  0  0  0  0  0  0  0
    0.2747    1.4794    0.2964 H   0  0  0  0  0  0  0  0  0  0  0  0
    2.4824   -2.8094   -0.8535 H   0  0  0  0  0  0  0  0  0  0  0  0
    2.5878    1.2834    0.5762 H   0  0  0  0  0  0  0  0  0  0  0  0
    9.4449    0.9388    0.2654 H   0  0  0  0  0  0  0  0  0  0  0  0
    8.9470   -0.6379   -0.3860 H   0  0  0  0  0  0  0  0  0  0  0  0
    8.9296   -0.3314    1.3642 H   0  0  0  0  0  0  0  0  0  0  0  0
    6.1459    1.7496   -1.0424 H   0  0  0  0  0  0  0  0  0  0  0  0
    7.1681    0.5196   -1.8135 H   0  0  0  0  0  0  0  0  0  0  0  0
    7.8603    2.0175   -1.1741 H   0  0  0  0  0  0  0  0  0  0  0  0
  1 11  1  0  0  0  0
  1 15  1  0  0  0  0
  2 18  2  0  0  0  0
  3  9  1  0  0  0  0
  4  9  2  0  0  0  0
  5 10  1  0  0  0  0
  5 12  1  0  0  0  0
  5 17  1  0  0  0  0
  6 13  1  0  0  0  0
  6 23  1  0  0  0  0
  6 24  1  0  0  0  0
  7 16  1  0  0  0  0
  7 18  1  0  0  0  0
  7 33  1  0  0  0  0
  8 12  2  0  0  0  0
  8 14  1  0  0  0  0
  9 12  1  0  0  0  0
 10 11  1  0  0  0  0
 10 14  2  0  0  0  0
 11 25  1  0  0  0  0
 11 26  1  0  0  0  0
 13 18  1  0  0  0  0
 13 27  1  0  0  0  0
 13 28  1  0  0  0  0
 14 29  1  0  0  0  0
 15 19  2  0  0  0  0
 15 20  1  0  0  0  0
 16 21  2  0  0  0  0
 16 22  1  0  0  0  0
 17 30  1  0  0  0  0
 17 31  1  0  0  0  0
 17 32  1  0  0  0  0
 19 21  1  0  0  0  0
 19 34  1  0  0  0  0
 20 22  2  0  0  0  0
 20 35  1  0  0  0  0
 21 36  1  0  0  0  0
 22 37  1  0  0  0  0
 23 38  1  0  0  0  0
 23 39  1  0  0  0  0
 23 40  1  0  0  0  0
 24 41  1  0  0  0  0
 24 42  1  0  0  0  0
 24 43  1  0  0  0  0
M  CHG  2   3  -1   9   1
M  END
> <PUBCHEM_COMPOUND_CID>
137306

> <PUBCHEM_CONFORMER_RMSD>
0.8

> <PUBCHEM_CONFORMER_DIVERSEORDER>
1
69
81
60
67
3
72
18
92
80
76
88
66
4
50
110
32
105
111
51
22
53
39
57
36
30
68
19
95
37
23
115
98
114
84
70
100
73
24
104
27
77
54
96
47
42
58
5
62
75
14
44
78
63
108
28
99
31
93
33
85
6
82
83
16
7
26
89
10
59
38
56
64
45
90
40
71
107
61
74
46
52
94
106
11
8
86
102
43
65
29
21
12
109
13
55
15
17
101
41
48
112
2
91
49
25
97
35
20
113
103
87
79
9
34

> <PUBCHEM_MMFF94_PARTIAL_CHARGES>
30
1 -0.36
10 -0.33
11 0.46
12 0.27
13 0.33
14 0.08
15 0.08
16 0.12
17 0.26
18 0.57
19 -0.15
2 -0.57
20 -0.15
21 -0.15
22 -0.15
23 0.27
24 0.27
29 0.15
3 -0.52
33 0.37
34 0.15
35 0.15
36 0.15
37 0.15
4 -0.52
5 0.05
6 -0.81
7 -0.55
8 -0.57
9 0.96

> <PUBCHEM_EFFECTIVE_ROTOR_COUNT>
8

> <PUBCHEM_PHARMACOPHORE_FEATURES>
9
1 1 acceptor
1 2 acceptor
1 3 acceptor
1 4 acceptor
1 6 cation
1 7 donor
4 5 8 9 12 cation
5 5 8 10 12 14 rings
6 15 16 19 20 21 22 rings

> <PUBCHEM_HEAVY_ATOM_COUNT>
24

> <PUBCHEM_ATOM_DEF_STEREO_COUNT>
0

> <PUBCHEM_ATOM_UDEF_STEREO_COUNT>
0

> <PUBCHEM_BOND_DEF_STEREO_COUNT>
0

> <PUBCHEM_BOND_UDEF_STEREO_COUNT>
0

> <PUBCHEM_ISOTOPIC_ATOM_COUNT>
0

> <PUBCHEM_COMPONENT_COUNT>
1

> <PUBCHEM_CACTVS_TAUTO_COUNT>
2

> <PUBCHEM_CONFORMER_ID>
0002185A00000001

> <PUBCHEM_MMFF94_ENERGY>
74.6429

> <PUBCHEM_FEATURE_SELFOVERLAP>
45.752

> <PUBCHEM_SHAPE_FINGERPRINT>
10 15 18040435508117281954
10299344 5 16343982503092643668
106641 1 18113338630248436738
10670039 82 13398639316408345771
10730089 173 15195287517104271795
10835480 77 18189326884547229661
11315181 36 17530683204519154341
11638347 137 17022901225572767938
12236239 1 16988560182928349111
12516196 113 13912322382797400398
12596602 18 16877938322395393368
13073987 5 17895753976815908217
13177829 20 17095243639981781716
13533116 47 17346315948175902534
13631057 29 17845076532884513119
13964095 4 12391514187077728551
14123256 10 18131632283764155496
14251764 18 18409166631859038798
14251764 46 12895071821260140964
14849402 71 18059291079893016688
14933364 13 14476960090698772434
15183329 4 12031793556451191286
15690457 1 14418136231276209961
15716309 27 18040714770563602946
1577012 14 17060614469467088471
15849732 13 18040715870871523854
18006028 8 11963389639816204470
19489759 90 16732982003718641525
20281389 69 18412820283919366240
21150785 3 15482671291099198398
21365058 27 17203610393171053966
220451 1 16845566500459432686
22224240 67 18186238446304774226
23035841 295 15482669074263058164
23198884 109 15769774667215345862
28498 318 10087647000823624504
3004659 81 10735875071890024694
3009799 131 9151174251353835222
335352 9 18201997751578040044
3545911 37 18342173371414893438
4325135 7 17967814963661754694
4340502 62 17385722474805968898
5104073 3 18193272992886825849
5758199 1 17989205940937228042
59682541 35 18335423503775631787
5969126 39 11241961590494296038
59755656 520 17703783734578401479
9953998 17 18260833700874618211

> <PUBCHEM_SHAPE_MULTIPOLES>
445.53
23.95
1.32
1.18
11.92
0.35
-0.07
-4.5
-4.89
0.44
0.32
-1.29
-0.1
0.6

> <PUBCHEM_SHAPE_SELFOVERLAP>
934.742

> <PUBCHEM_SHAPE_VOLUME>
253.8

> <PUBCHEM_COORDINATE_TYPE>
2
5
10

$$$$
