REMARK  Name = 137324626
REMARK  8 active torsions:
REMARK  status: ('A' for Active; 'I' for Inactive)
REMARK    1  A    between atoms: C_8  and  O_25
REMARK    2  A    between atoms: C_14  and  O_27
REMARK    3  A    between atoms: C_16  and  O_29
REMARK    4  A    between atoms: C_17  and  O_31
REMARK    5  A    between atoms: O_31  and  C_33
REMARK    6  A    between atoms: C_33  and  C_34
REMARK    7  A    between atoms: C_34  and  O_36
REMARK    8  A    between atoms: C_34  and  C_38
REMARK                            x       y       z     vdW  Elec       q    Type
REMARK                         _______ _______ _______ _____ _____    ______ ____
ROOT
ATOM      1  O   UNL     1      -1.388  -1.410   1.932  0.00  0.00    -0.332 OA
ATOM      2  O   UNL     1       0.472   2.362   0.656  0.00  0.00    -0.450 OA
ATOM      3  O   UNL     1       2.650   2.871   0.379  0.00  0.00    -0.246 OA
ATOM      4  O   UNL     1      -6.379  -0.534  -1.468  0.00  0.00    -0.289 OA
ATOM      5  C   UNL     1      -0.442   0.111   0.354  0.00  0.00    +0.076 C 
ATOM      6  C   UNL     1      -1.524  -0.755  -0.347  0.00  0.00    +0.063 C 
ATOM      7  C   UNL     1      -2.887   0.023  -0.644  0.00  0.00    +0.040 C 
ATOM      8  C   UNL     1      -1.442  -1.966   0.609  0.00  0.00    +0.213 C 
ATOM      9  C   UNL     1      -0.529   1.582  -0.016  0.00  0.00    +0.172 C 
ATOM     10  C   UNL     1       0.971  -0.417  -0.044  0.00  0.00    +0.078 C 
ATOM     11  C   UNL     1      -3.080   1.221   0.339  0.00  0.00    +0.025 C 
ATOM     12  C   UNL     1      -0.686  -0.159   1.857  0.00  0.00    +0.149 C 
ATOM     13  C   UNL     1      -1.898   2.217   0.268  0.00  0.00    +0.048 C 
ATOM     14  C   UNL     1      -0.125  -2.746   0.322  0.00  0.00    +0.180 C 
ATOM     15  C   UNL     1       1.139  -1.891   0.382  0.00  0.00    -0.009 C 
ATOM     16  C   UNL     1      -4.160  -0.858  -0.563  0.00  0.00    +0.172 C 
ATOM     17  C   UNL     1       2.067   0.533   0.483  0.00  0.00    +0.270 C 
ATOM     18  C   UNL     1      -2.786   0.544  -2.123  0.00  0.00    +0.003 C 
ATOM     19  C   UNL     1      -4.445   1.903   0.245  0.00  0.00    -0.041 C 
ATOM     20  C   UNL     1       1.767   2.020   0.452  0.00  0.00    +0.358 C 
ATOM     21  C   UNL     1      -5.424  -0.063  -0.853  0.00  0.00    +0.199 C 
ATOM     22  C   UNL     1      -5.513   1.315  -0.317  0.00  0.00    +0.031 C 
ATOM     23  C   UNL     1       2.301  -2.419   0.808  0.00  0.00    -0.006 C 
ATOM     24  C   UNL     1      -4.603   3.257   0.887  0.00  0.00    +0.026 C 
ENDROOT
BRANCH   8  25
ATOM     25  O   UNL     1      -2.529  -2.861   0.471  0.00  0.00    -0.362 OA
ATOM     26  H   UNL     1      -3.359  -2.392   0.647  0.00  0.00    +0.213 HD
ENDBRANCH   8  25
BRANCH  14  27
ATOM     27  O   UNL     1      -0.036  -3.832   1.250  0.00  0.00    -0.376 OA
ATOM     28  H   UNL     1      -0.845  -4.366   1.201  0.00  0.00    +0.211 HD
ENDBRANCH  14  27
BRANCH  16  29
ATOM     29  O   UNL     1      -4.105  -1.927  -1.496  0.00  0.00    -0.377 OA
ATOM     30  H   UNL     1      -3.307  -2.455  -1.336  0.00  0.00    +0.211 HD
ENDBRANCH  16  29
BRANCH  17  31
ATOM     31  O   UNL     1       3.243   0.365  -0.307  0.00  0.00    -0.439 OA
BRANCH  31  33
ATOM     32  O   UNL     1       4.545   0.935   1.505  0.00  0.00    -0.248 OA
ATOM     33  C   UNL     1       4.429   0.599   0.333  0.00  0.00    +0.342 C 
BRANCH  33  34
ATOM     34  C   UNL     1       5.603   0.387  -0.620  0.00  0.00    +0.177 C 
ATOM     35  C   UNL     1       5.487   1.341  -1.807  0.00  0.00    +0.041 C 
BRANCH  34  36
ATOM     36  O   UNL     1       6.779   0.752   0.100  0.00  0.00    -0.376 OA
ATOM     37  H   UNL     1       6.885   0.164   0.864  0.00  0.00    +0.211 HD
ENDBRANCH  34  36
BRANCH  34  38
ATOM     38  C   UNL     1       5.693  -1.092  -1.035  0.00  0.00    +0.038 C 
ATOM     39  C   UNL     1       6.838  -1.406  -1.990  0.00  0.00    +0.003 C 
ENDBRANCH  34  38
ENDBRANCH  33  34
ENDBRANCH  31  33
ENDBRANCH  17  31
TORSDOF 8
