REMARK  Name = 13734230
REMARK  11 active torsions:
REMARK  status: ('A' for Active; 'I' for Inactive)
REMARK    1  A    between atoms: N_1  and  S_3
REMARK    2  A    between atoms: N_1  and  C_19
REMARK    3  A    between atoms: S_3  and  C_6
REMARK    4  A    between atoms: C_9  and  N_16
REMARK    5  A    between atoms: C_19  and  C_21
REMARK    6  A    between atoms: C_19  and  C_24
REMARK    7  A    between atoms: C_21  and  O_22
REMARK    8  A    between atoms: C_24  and  C_25
REMARK    9  A    between atoms: C_25  and  C_26
REMARK   10  A    between atoms: C_26  and  N_27
REMARK   11  A    between atoms: N_27  and  C_30
REMARK                            x       y       z     vdW  Elec       q    Type
REMARK                         _______ _______ _______ _____ _____    ______ ____
ROOT
ATOM      1  N   UNL     1       2.480  -0.873   0.636  0.00  0.00    -0.170 NA
ATOM      2  H   UNL     1       3.109  -1.429   1.214  0.00  0.00    +0.149 HD
ENDROOT
BRANCH   1   3
ATOM      3  S   UNL     1       1.962  -1.877  -0.633  0.00  0.00    +0.061 S 
ATOM      4  O   UNL     1       1.839  -3.239  -0.150  0.00  0.00    -0.153 OA
ATOM      5  O   UNL     1       2.757  -1.591  -1.812  0.00  0.00    -0.153 OA
BRANCH   3   6
ATOM      6  C   UNL     1       0.335  -1.261  -0.946  0.00  0.00    +0.122 C 
ATOM      7  C   UNL     1      -0.722  -1.443  -0.048  0.00  0.00    +0.020 C 
ATOM      8  C   UNL     1      -1.995  -0.917  -0.374  0.00  0.00    +0.015 C 
ATOM      9  C   UNL     1      -3.061  -1.095   0.523  0.00  0.00    +0.048 C 
ATOM     10  C   UNL     1       0.159  -0.577  -2.143  0.00  0.00    +0.020 C 
ATOM     11  C   UNL     1      -0.553  -2.131   1.164  0.00  0.00    +0.001 C 
ATOM     12  C   UNL     1      -2.163  -0.227  -1.585  0.00  0.00    +0.001 C 
ATOM     13  C   UNL     1      -1.092  -0.059  -2.464  0.00  0.00    +0.001 C 
ATOM     14  C   UNL     1      -2.876  -1.782   1.722  0.00  0.00    +0.015 C 
ATOM     15  C   UNL     1      -1.624  -2.299   2.043  0.00  0.00    +0.001 C 
BRANCH   9  16
ATOM     16  N   UNL     1      -4.355  -0.589   0.246  0.00  0.00    -0.304 N 
ATOM     17  C   UNL     1      -5.313  -1.397  -0.477  0.00  0.00    +0.112 C 
ATOM     18  C   UNL     1      -4.722   0.744   0.672  0.00  0.00    +0.112 C 
ENDBRANCH   9  16
ENDBRANCH   3   6
ENDBRANCH   1   3
BRANCH   1  19
ATOM     19  C   UNL     1       3.183   0.395   0.334  0.00  0.00    +0.174 C 
BRANCH  19  21
ATOM     20  O   UNL     1       5.146  -1.049   0.372  0.00  0.00    -0.249 OA
ATOM     21  C   UNL     1       4.652   0.056   0.191  0.00  0.00    +0.330 C 
BRANCH  21  22
ATOM     22  O   UNL     1       5.389   1.141  -0.166  0.00  0.00    -0.479 OA
ATOM     23  H   UNL     1       4.972   1.970  -0.294  0.00  0.00    +0.295 HD
ENDBRANCH  21  22
ENDBRANCH  19  21
BRANCH  19  24
ATOM     24  C   UNL     1       2.967   1.396   1.468  0.00  0.00    +0.031 C 
BRANCH  24  25
ATOM     25  C   UNL     1       1.516   1.851   1.686  0.00  0.00    +0.028 C 
BRANCH  25  26
ATOM     26  C   UNL     1       0.862   2.489   0.465  0.00  0.00    +0.129 C 
BRANCH  26  27
ATOM     27  N   UNL     1      -0.494   2.934   0.785  0.00  0.00    -0.240 NA
BRANCH  27  30
ATOM     28  N   UNL     1      -0.712   3.846  -1.426  0.00  0.00    -0.370 N 
ATOM     29  N   UNL     1      -2.424   4.002   0.070  0.00  0.00    -0.370 N 
ATOM     30  C   UNL     1      -1.143   3.552  -0.152  0.00  0.00    +0.189 C 
ATOM     31  H   UNL     1       0.191   3.577  -1.714  0.00  0.00    +0.159 HD
ATOM     32  H   UNL     1      -1.305   4.324  -2.049  0.00  0.00    +0.159 HD
ATOM     33  H   UNL     1      -2.852   3.856   0.944  0.00  0.00    +0.159 HD
ATOM     34  H   UNL     1      -2.912   4.471  -0.645  0.00  0.00    +0.159 HD
ENDBRANCH  27  30
ENDBRANCH  26  27
ENDBRANCH  25  26
ENDBRANCH  24  25
ENDBRANCH  19  24
ENDBRANCH   1  19
TORSDOF 11
