REMARK  Name = 137333450
REMARK  7 active torsions:
REMARK  status: ('A' for Active; 'I' for Inactive)
REMARK    1  A    between atoms: C_3  and  C_14
REMARK    2  A    between atoms: C_4  and  N_26
REMARK    3  A    between atoms: C_12  and  C_18
REMARK    4  A    between atoms: C_18  and  N_19
REMARK    5  A    between atoms: C_18  and  C_23
REMARK    6  A    between atoms: N_26  and  S_28
REMARK    7  A    between atoms: S_28  and  C_31
REMARK                            x       y       z     vdW  Elec       q    Type
REMARK                         _______ _______ _______ _____ _____    ______ ____
ROOT
ATOM      1 CL   UNL     1       4.536   1.486   2.549  0.00  0.00    -0.060 Cl
ATOM      2  N   UNL     1       2.239   0.337   2.776  0.00  0.00    -0.231 NA
ATOM      3  C   UNL     1       0.473   0.371   1.125  0.00  0.00    +0.015 C 
ATOM      4  C   UNL     1       2.540   1.523   0.691  0.00  0.00    +0.093 C 
ATOM      5  C   UNL     1       1.263   1.150   0.286  0.00  0.00    +0.017 C 
ATOM      6  C   UNL     1       1.003  -0.006   2.349  0.00  0.00    +0.097 C 
ATOM      7  C   UNL     1       2.977   1.094   1.934  0.00  0.00    +0.153 C 
ENDROOT
BRANCH   3  14
ATOM      8  S   UNL     1      -2.038   1.164   0.395  0.00  0.00    -0.056 S 
ATOM      9  O   UNL     1      -5.595  -1.684  -0.666  0.00  0.00    -0.277 OA
ATOM     10  N   UNL     1      -4.462   0.341  -0.321  0.00  0.00    -0.256 N 
ATOM     11  N   UNL     1      -2.728  -1.318   0.177  0.00  0.00    -0.388 NA
ATOM     12  C   UNL     1      -5.556  -0.456  -0.647  0.00  0.00    +0.208 C 
ATOM     13  C   UNL     1      -3.166  -0.084   0.057  0.00  0.00    +0.213 C 
ATOM     14  C   UNL     1      -0.855  -0.031   0.735  0.00  0.00    +0.127 C 
ATOM     15  C   UNL     1      -1.403  -1.285   0.566  0.00  0.00    +0.104 C 
ATOM     16  C   UNL     1      -0.710  -2.575   0.764  0.00  0.00    +0.063 C 
ATOM     17  H   UNL     1      -4.607   1.314  -0.357  0.00  0.00    +0.158 HD
BRANCH  12  18
ATOM     18  C   UNL     1      -6.782   0.398  -0.990  0.00  0.00    +0.013 C 
BRANCH  18  19
ATOM     19  N   UNL     1      -7.549  -0.285  -2.032  0.00  0.00    +0.387 N 
ATOM     20  H   UNL     1      -8.369   0.272  -2.271  0.00  0.00    -0.089 HD
ATOM     21  H   UNL     1      -7.847  -1.199  -1.691  0.00  0.00    -0.089 HD
ATOM     22  H   UNL     1      -6.966  -0.405  -2.860  0.00  0.00    -0.089 HD
ENDBRANCH  18  19
BRANCH  18  23
ATOM     23  C   UNL     1      -7.619   0.729   0.270  0.00  0.00    -0.011 C 
ATOM     24  C   UNL     1      -8.123  -0.512   1.016  0.00  0.00    -0.002 C 
ATOM     25  C   UNL     1      -8.803   1.639  -0.075  0.00  0.00    -0.002 C 
ENDBRANCH  18  23
ENDBRANCH  12  18
ENDBRANCH   3  14
BRANCH   4  26
ATOM     26  N   UNL     1       3.352   2.321  -0.171  0.00  0.00    -0.213 N 
ATOM     27  H   UNL     1       3.590   3.243   0.076  0.00  0.00    +0.174 HD
BRANCH  26  28
ATOM     28  S   UNL     1       3.907   1.639  -1.652  0.00  0.00    +0.074 S 
ATOM     29  O   UNL     1       4.963   2.476  -2.191  0.00  0.00    -0.150 OA
ATOM     30  O   UNL     1       2.778   1.278  -2.488  0.00  0.00    -0.150 OA
BRANCH  28  31
ATOM     31  C   UNL     1       4.671   0.141  -1.100  0.00  0.00    +0.125 C 
ATOM     32  C   UNL     1       3.921  -1.032  -1.008  0.00  0.00    +0.016 C 
ATOM     33  C   UNL     1       4.523  -2.212  -0.572  0.00  0.00    -0.021 C 
ATOM     34  C   UNL     1       6.023   0.133  -0.756  0.00  0.00    +0.020 C 
ATOM     35  C   UNL     1       5.875  -2.220  -0.228  0.00  0.00    -0.004 C 
ATOM     36  C   UNL     1       6.625  -1.048  -0.321  0.00  0.00    +0.001 C 
ATOM     37  C   UNL     1       3.722  -3.466  -0.473  0.00  0.00    +0.031 C 
ENDBRANCH  28  31
ENDBRANCH  26  28
ENDBRANCH   4  26
TORSDOF 7
