REMARK  Name = 137333523
REMARK  2 active torsions:
REMARK  status: ('A' for Active; 'I' for Inactive)
REMARK    1  A    between atoms: C_3  and  C_12
REMARK    2  A    between atoms: C_14  and  C_18
REMARK                            x       y       z     vdW  Elec       q    Type
REMARK                         _______ _______ _______ _____ _____    ______ ____
ROOT
ATOM      1  N   UNL     1      -1.139   0.879  -0.002  0.00  0.00    -0.311 N 
ATOM      2  N   UNL     1      -4.000  -1.183   0.003  0.00  0.00    -0.243 NA
ATOM      3  C   UNL     1      -0.521  -0.346  -0.001  0.00  0.00    +0.056 C 
ATOM      4  C   UNL     1      -2.502   0.716  -0.001  0.00  0.00    +0.066 C 
ATOM      5  C   UNL     1      -2.749  -0.656   0.001  0.00  0.00    +0.096 C 
ATOM      6  C   UNL     1      -1.497  -1.318   0.002  0.00  0.00    +0.035 C 
ATOM      7  C   UNL     1      -3.547   1.639  -0.002  0.00  0.00    +0.018 C 
ATOM      8  C   UNL     1      -4.834   1.111  -0.001  0.00  0.00    +0.022 C 
ATOM      9  C   UNL     1      -4.996  -0.268   0.002  0.00  0.00    +0.099 C 
ATOM     10  H   UNL     1      -0.673   1.747  -0.004  0.00  0.00    +0.152 HD
ENDROOT
BRANCH   3  12
ATOM     11  S   UNL     1       1.900   0.899  -0.003  0.00  0.00    -0.081 S 
ATOM     12  C   UNL     1       0.888  -0.482  -0.001  0.00  0.00    +0.043 C 
ATOM     13  C   UNL     1       1.612  -1.654   0.001  0.00  0.00    +0.008 C 
ATOM     14  C   UNL     1       3.312  -0.069  -0.002  0.00  0.00    +0.083 C 
ATOM     15  C   UNL     1       3.017  -1.415   0.000  0.00  0.00    +0.012 C 
BRANCH  14  18
ATOM     16  O   UNL     1       4.723   1.817   0.011  0.00  0.00    -0.270 OA
ATOM     17  N   UNL     1       5.743  -0.236  -0.003  0.00  0.00    -0.325 N 
ATOM     18  C   UNL     1       4.590   0.566  -0.003  0.00  0.00    +0.249 C 
ATOM     19  H   UNL     1       6.634   0.182  -0.003  0.00  0.00    +0.145 HD
ATOM     20  H   UNL     1       5.660  -1.217  -0.001  0.00  0.00    +0.145 HD
ENDBRANCH  14  18
ENDBRANCH   3  12
TORSDOF 2
