137321146
  -OEChem-03292013293D

 35 35  0     0  0  0  0  0  0999 V2000
   -1.1575   -2.8249   -0.6100 Cl  0  0  0  0  0  0  0  0  0  0  0  0
    2.6888    1.7924   -0.4177 O   0  0  0  0  0  0  0  0  0  0  0  0
   -2.9919   -0.6854    0.5160 N   0  0  0  0  0  0  0  0  0  0  0  0
   -1.2817    0.9319    0.7172 N   0  0  0  0  0  0  0  0  0  0  0  0
    0.5575   -0.9206   -0.3082 N   0  0  0  0  0  0  0  0  0  0  0  0
    0.4661    2.5300    0.9050 N   0  0  0  0  0  0  0  0  0  0  0  0
    3.2368   -0.4438   -0.0211 N   0  0  0  0  0  0  0  0  0  0  0  0
    5.2615   -1.6237   -0.0067 N   0  0  0  0  0  0  0  0  0  0  0  0
    5.2384    0.6773   -0.4779 N   0  0  0  0  0  0  0  0  0  0  0  0
   -3.9545   -0.4829   -0.5399 C   0  0  0  0  0  0  0  0  0  0  0  0
   -4.5666    0.9113   -0.4526 C   0  0  0  0  0  0  0  0  0  0  0  0
   -1.6482   -0.3156    0.3620 C   0  0  0  0  0  0  0  0  0  0  0  0
   -3.4459   -1.2843    1.7725 C   0  0  0  0  0  0  0  0  0  0  0  0
   -5.5579    1.1920   -1.5735 C   0  0  0  0  0  0  0  0  0  0  0  0
   -0.7448   -1.2255   -0.1417 C   0  0  0  0  0  0  0  0  0  0  0  0
    0.0205    1.2366    0.5509 C   0  0  0  0  0  0  0  0  0  0  0  0
    0.9240    0.3267    0.0472 C   0  0  0  0  0  0  0  0  0  0  0  0
    2.3335    0.6345   -0.1399 C   0  0  0  0  0  0  0  0  0  0  0  0
    4.6220   -0.4261   -0.1816 C   0  0  0  0  0  0  0  0  0  0  0  0
   -3.4784   -0.6165   -1.5198 H   0  0  0  0  0  0  0  0  0  0  0  0
   -4.7473   -1.2394   -0.4863 H   0  0  0  0  0  0  0  0  0  0  0  0
   -3.7778    1.6722   -0.4880 H   0  0  0  0  0  0  0  0  0  0  0  0
   -5.0739    1.0335    0.5122 H   0  0  0  0  0  0  0  0  0  0  0  0
   -4.5347   -1.3996    1.7943 H   0  0  0  0  0  0  0  0  0  0  0  0
   -3.1629   -0.6505    2.6198 H   0  0  0  0  0  0  0  0  0  0  0  0
   -2.9979   -2.2734    1.9106 H   0  0  0  0  0  0  0  0  0  0  0  0
   -6.3868    0.4776   -1.5492 H   0  0  0  0  0  0  0  0  0  0  0  0
   -5.9727    2.1995   -1.4701 H   0  0  0  0  0  0  0  0  0  0  0  0
   -5.0715    1.1221   -2.5516 H   0  0  0  0  0  0  0  0  0  0  0  0
    1.4179    2.6443    1.2304 H   0  0  0  0  0  0  0  0  0  0  0  0
   -0.2327    3.1680    1.2664 H   0  0  0  0  0  0  0  0  0  0  0  0
    2.8345   -1.3501    0.2059 H   0  0  0  0  0  0  0  0  0  0  0  0
    6.2679   -1.7041   -0.1035 H   0  0  0  0  0  0  0  0  0  0  0  0
    4.7491   -2.4676    0.2251 H   0  0  0  0  0  0  0  0  0  0  0  0
    6.2433    0.4842   -0.5514 H   0  0  0  0  0  0  0  0  0  0  0  0
  1 15  1  0  0  0  0
  2 18  2  0  0  0  0
  3 10  1  0  0  0  0
  3 12  1  0  0  0  0
  3 13  1  0  0  0  0
  4 12  2  0  0  0  0
  4 16  1  0  0  0  0
  5 15  2  0  0  0  0
  5 17  1  0  0  0  0
  6 16  1  0  0  0  0
  6 30  1  0  0  0  0
  6 31  1  0  0  0  0
  7 18  1  0  0  0  0
  7 19  1  0  0  0  0
  7 32  1  0  0  0  0
  8 19  1  0  0  0  0
  8 33  1  0  0  0  0
  8 34  1  0  0  0  0
  9 19  2  0  0  0  0
  9 35  1  0  0  0  0
 10 11  1  0  0  0  0
 10 20  1  0  0  0  0
 10 21  1  0  0  0  0
 11 14  1  0  0  0  0
 11 22  1  0  0  0  0
 11 23  1  0  0  0  0
 12 15  1  0  0  0  0
 13 24  1  0  0  0  0
 13 25  1  0  0  0  0
 13 26  1  0  0  0  0
 14 27  1  0  0  0  0
 14 28  1  0  0  0  0
 14 29  1  0  0  0  0
 16 17  2  0  0  0  0
 17 18  1  0  0  0  0
M  END
> <PUBCHEM_COMPOUND_CID>
137321146

> <PUBCHEM_CONFORMER_RMSD>
0.8

> <PUBCHEM_CONFORMER_DIVERSEORDER>
1
23
40
33
41
11
19
32
21
29
37
20
31
38
18
28
26
15
4
10
36
17
16
5
25
13
6
7
24
27
14
8
22
2
35
9
34
30
3
39
12

> <PUBCHEM_MMFF94_PARTIAL_CHARGES>
23
1 -0.18
10 0.37
12 0.41
13 0.37
15 0.49
16 0.41
17 0.4
18 0.54
19 0.56
2 -0.57
3 -0.84
30 0.4
31 0.4
32 0.37
33 0.4
34 0.4
35 0.4
4 -0.62
5 -0.62
6 -0.9
7 -0.49
8 -0.85
9 -0.85

> <PUBCHEM_EFFECTIVE_ROTOR_COUNT>
6

> <PUBCHEM_PHARMACOPHORE_FEATURES>
10
1 14 hydrophobe
1 2 acceptor
1 5 acceptor
1 6 cation
1 6 donor
1 7 donor
1 8 donor
1 9 donor
3 3 4 12 cation
6 4 5 12 15 16 17 rings

> <PUBCHEM_HEAVY_ATOM_COUNT>
19

> <PUBCHEM_ATOM_DEF_STEREO_COUNT>
0

> <PUBCHEM_ATOM_UDEF_STEREO_COUNT>
0

> <PUBCHEM_BOND_DEF_STEREO_COUNT>
0

> <PUBCHEM_BOND_UDEF_STEREO_COUNT>
0

> <PUBCHEM_ISOTOPIC_ATOM_COUNT>
0

> <PUBCHEM_COMPONENT_COUNT>
1

> <PUBCHEM_CACTVS_TAUTO_COUNT>
-1

> <PUBCHEM_CONFORMER_ID>
082F5ABA00000001

> <PUBCHEM_MMFF94_ENERGY>
71.7248

> <PUBCHEM_FEATURE_SELFOVERLAP>
50.87

> <PUBCHEM_SHAPE_FINGERPRINT>
10366900 7 17060624408448737530
11401426 45 18202560679033121389
11796584 16 17894348869781005042
12403259 226 18196931296022188043
124424 183 18409730673002912371
12555020 224 18272086093460858807
12670543 26 18338793421047152149
12916748 109 8214145175139602822
13140716 1 17914626195921265867
13464514 151 18263358089208951289
13675066 3 18261958560692493378
13690532 89 18412546500854386802
13760787 19 17313099752675097091
13760787 5 18272379705951603745
13862211 1 18272930514080166414
14251731 8 18187085039813198973
14787075 74 10879697797845570469
14911166 2 18343579651076504965
15048467 5 17022620862111657596
15099037 51 18412260631888742711
15209294 21 16915964901460096315
16752209 62 18343017744568125672
16945 1 18058744614049528153
17349148 13 17561085834159853471
17834072 8 18334855000271279957
18222031 100 17346598573771052228
19026448 4 17676773187733089721
200 152 17775845705451507017
20645477 70 18342460348033843734
21029758 11 18059853973795143200
22079108 93 12895056419686713966
23402539 116 17918274229562768613
23493267 7 17894909646575504241
23559900 14 18201717410029772320
25 1 18337666422293202701
266924 87 18127411138044344309
2748010 2 18055937410424045919
3004659 81 18260548892924417646
3009799 131 18272358759422630737
32948 21 17967249784599383260
34934 24 18340761637471902458
3759504 43 17967814972415771771
56616090 46 17749669585142931471
59755656 520 17530676603391881523
633830 44 17241042223014023436

> <PUBCHEM_SHAPE_MULTIPOLES>
352.14
10.77
2.21
1.08
4.23
0.45
-0.17
-0.83
3.26
-0.24
0.04
-1.44
0
0.92

> <PUBCHEM_SHAPE_SELFOVERLAP>
710.47

> <PUBCHEM_SHAPE_VOLUME>
206.6

> <PUBCHEM_COORDINATE_TYPE>
2
5
10

$$$$
