137307
  -OEChem-03292013323D

 37 40  0     0  0  0  0  0  0999 V2000
   -4.8821   -1.5183    0.1162 S   0  0  0  0  0  0  0  0  0  0  0  0
    3.6135   -0.5187    1.0489 O   0  0  0  0  0  0  0  0  0  0  0  0
    3.8950    0.4741   -1.0508 O   0  0  0  0  0  0  0  0  0  0  0  0
    6.9689    2.8213    0.5405 O   0  0  0  0  0  0  0  0  0  0  0  0
    5.7613    2.2852   -1.3075 O   0  0  0  0  0  0  0  0  0  0  0  0
   -2.8042    0.0212   -0.0053 N   0  0  0  0  0  0  0  0  0  0  0  0
   -2.1382   -2.1024    0.0716 N   0  0  0  0  0  0  0  0  0  0  0  0
   -3.8447    0.9386   -0.0177 C   0  0  0  0  0  0  0  0  0  0  0  0
   -3.1614   -1.2916    0.0612 C   0  0  0  0  0  0  0  0  0  0  0  0
   -1.0559   -1.2424    0.0054 C   0  0  0  0  0  0  0  0  0  0  0  0
   -5.0773    0.2684    0.0438 C   0  0  0  0  0  0  0  0  0  0  0  0
   -1.4480    0.0859   -0.0439 C   0  0  0  0  0  0  0  0  0  0  0  0
    0.3055   -1.6817   -0.0101 C   0  0  0  0  0  0  0  0  0  0  0  0
   -3.7365    2.3137   -0.0797 C   0  0  0  0  0  0  0  0  0  0  0  0
   -6.2565    0.9919    0.0435 C   0  0  0  0  0  0  0  0  0  0  0  0
    1.3103   -0.8764    0.5331 C   0  0  0  0  0  0  0  0  0  0  0  0
   -4.9281    3.0409   -0.0793 C   0  0  0  0  0  0  0  0  0  0  0  0
    0.6381   -2.9191   -0.5683 C   0  0  0  0  0  0  0  0  0  0  0  0
   -6.1744    2.3880   -0.0187 C   0  0  0  0  0  0  0  0  0  0  0  0
    2.6376   -1.3053    0.5183 C   0  0  0  0  0  0  0  0  0  0  0  0
    1.9652   -3.3479   -0.5830 C   0  0  0  0  0  0  0  0  0  0  0  0
    2.9649   -2.5412   -0.0396 C   0  0  0  0  0  0  0  0  0  0  0  0
    4.1947    0.3735    0.1320 C   0  0  0  0  0  0  0  0  0  0  0  0
    5.2601    1.2002    0.8042 C   0  0  0  0  0  0  0  0  0  0  0  0
    5.9923    2.1421   -0.1147 C   0  0  0  0  0  0  0  0  0  0  0  0
   -0.9043    1.0191   -0.1063 H   0  0  0  0  0  0  0  0  0  0  0  0
   -2.7801    2.8212   -0.1265 H   0  0  0  0  0  0  0  0  0  0  0  0
   -7.2235    0.5026    0.0900 H   0  0  0  0  0  0  0  0  0  0  0  0
    1.0822    0.0857    0.9866 H   0  0  0  0  0  0  0  0  0  0  0  0
   -4.8963    4.1264   -0.1266 H   0  0  0  0  0  0  0  0  0  0  0  0
   -0.1234   -3.5637   -1.0012 H   0  0  0  0  0  0  0  0  0  0  0  0
   -7.0866    2.9793   -0.0202 H   0  0  0  0  0  0  0  0  0  0  0  0
    2.2206   -4.3097   -1.0182 H   0  0  0  0  0  0  0  0  0  0  0  0
    3.9967   -2.8817   -0.0540 H   0  0  0  0  0  0  0  0  0  0  0  0
    4.7813    1.7948    1.5887 H   0  0  0  0  0  0  0  0  0  0  0  0
    5.9950    0.5131    1.2360 H   0  0  0  0  0  0  0  0  0  0  0  0
    7.4526    3.4320   -0.0556 H   0  0  0  0  0  0  0  0  0  0  0  0
  1  9  1  0  0  0  0
  1 11  1  0  0  0  0
  2 20  1  0  0  0  0
  2 23  1  0  0  0  0
  3 23  2  0  0  0  0
  4 25  1  0  0  0  0
  4 37  1  0  0  0  0
  5 25  2  0  0  0  0
  6  8  1  0  0  0  0
  6  9  1  0  0  0  0
  6 12  1  0  0  0  0
  7  9  2  0  0  0  0
  7 10  1  0  0  0  0
  8 11  1  0  0  0  0
  8 14  2  0  0  0  0
 10 12  2  0  0  0  0
 10 13  1  0  0  0  0
 11 15  2  0  0  0  0
 12 26  1  0  0  0  0
 13 16  2  0  0  0  0
 13 18  1  0  0  0  0
 14 17  1  0  0  0  0
 14 27  1  0  0  0  0
 15 19  1  0  0  0  0
 15 28  1  0  0  0  0
 16 20  1  0  0  0  0
 16 29  1  0  0  0  0
 17 19  2  0  0  0  0
 17 30  1  0  0  0  0
 18 21  2  0  0  0  0
 18 31  1  0  0  0  0
 19 32  1  0  0  0  0
 20 22  2  0  0  0  0
 21 22  1  0  0  0  0
 21 33  1  0  0  0  0
 22 34  1  0  0  0  0
 23 24  1  0  0  0  0
 24 25  1  0  0  0  0
 24 35  1  0  0  0  0
 24 36  1  0  0  0  0
M  END
> <PUBCHEM_COMPOUND_CID>
137307

> <PUBCHEM_CONFORMER_RMSD>
0.8

> <PUBCHEM_CONFORMER_DIVERSEORDER>
1
51
132
97
111
98
137
84
22
121
8
80
55
15
106
91
27
129
77
105
108
110
138
85
36
90
18
103
131
60
47
114
58
83
23
126
25
100
68
101
120
69
29
31
65
118
5
82
11
127
61
74
17
135
73
57
122
79
104
52
102
42
62
76
54
26
95
119
115
4
33
28
38
78
30
92
112
117
72
34
41
123
128
43
99
96
7
116
66
39
40
133
113
35
12
130
67
107
75
14
134
87
21
9
53
44
86
24
136
10
125
20
46
37
45
2
124
32
63
71
3
19
49
48
13
88
56
70
16
6
93
50
89
94
59
64
109
81

> <PUBCHEM_MMFF94_PARTIAL_CHARGES>
35
1 -0.16
10 0.17
11 0.1
12 -0.3
13 0.05
14 -0.15
15 -0.15
16 -0.15
17 -0.15
18 -0.15
19 -0.15
2 -0.23
20 0.08
21 -0.15
22 -0.15
23 0.66
24 0.12
25 0.66
26 0.15
27 0.15
28 0.15
29 0.15
3 -0.57
30 0.15
31 0.15
32 0.15
33 0.15
34 0.15
37 0.5
4 -0.65
5 -0.57
6 0.33
7 -0.57
8 -0.02
9 0.24

> <PUBCHEM_EFFECTIVE_ROTOR_COUNT>
5

> <PUBCHEM_PHARMACOPHORE_FEATURES>
10
1 24 anion
1 3 acceptor
1 4 acceptor
1 5 acceptor
3 4 5 25 anion
3 6 7 9 cation
5 1 6 8 9 11 rings
5 6 7 9 10 12 rings
6 13 16 18 20 21 22 rings
6 8 11 14 15 17 19 rings

> <PUBCHEM_HEAVY_ATOM_COUNT>
25

> <PUBCHEM_ATOM_DEF_STEREO_COUNT>
0

> <PUBCHEM_ATOM_UDEF_STEREO_COUNT>
0

> <PUBCHEM_BOND_DEF_STEREO_COUNT>
0

> <PUBCHEM_BOND_UDEF_STEREO_COUNT>
0

> <PUBCHEM_ISOTOPIC_ATOM_COUNT>
0

> <PUBCHEM_COMPONENT_COUNT>
1

> <PUBCHEM_CACTVS_TAUTO_COUNT>
1

> <PUBCHEM_CONFORMER_ID>
0002185B00000001

> <PUBCHEM_MMFF94_ENERGY>
66.2413

> <PUBCHEM_FEATURE_SELFOVERLAP>
51.397

> <PUBCHEM_SHAPE_FINGERPRINT>
10 15 18187368723025702929
10050765 1 18411136939786065950
10595046 47 18411414012626370479
11315621 246 17344901039402819687
11796584 16 9727370021080905034
12107183 9 18262785312692520066
12293681 160 17846503660126897322
12390115 104 18271255987866912203
12422481 6 17603577509420034996
12596602 18 17530963575404148017
12633257 1 16081370812635584806
13540713 5 18268970112353471406
1361 87 12319160871609772877
13911987 19 17418092105653974175
14257110 125 18410011057137083500
14294032 229 18200032996148486630
14429114 114 18339921494261044857
14739800 52 18336533993608822416
14790565 3 18337955718010136284
14849402 71 18115585921048750834
15196674 1 18339641132028367251
15198563 99 17696185194413641302
15519825 34 16226627293981858129
15961568 22 18260267438536639004
17844677 252 18196378013955870883
17980427 23 17967815002237677463
19611394 137 17969797460726515619
20058555 10 18409728439599637869
21302155 148 18408605868007106357
21315764 268 17972876965225608013
21585482 111 18260828142328172804
21756936 100 18198897192700680734
23559900 14 18054225427965709215
23569943 247 10015867587707939909
245318 6 17605855817487301188
270888 7 18410853287391928096
2748736 6 18410282632088135028
2838139 119 18270394014375576804
3411729 13 18408038486148595626
3472631 163 18341614840988224684
34797466 226 17988649545504665111
4073 2 18187369830779657947
44249763 50 17559379456991611880
50009960 94 10086777188110529292
5104073 3 18186520964868938995
5219985 13 18341610456106209622
543368 44 18411980269794118053
550186 72 18410290359087800021
59682541 52 17060069116643363260
60123966 16 18055350241039409862
6327066 14 18339640144154136812
633830 44 18337383825750623751
636775 72 18052533559450415856
6898599 12 18343294860986500575
7288768 16 18113616815285999987
7808743 9 18339357586713831266
90127 26 18263092015753213187
9981440 41 18334582385992014546

> <PUBCHEM_SHAPE_MULTIPOLES>
484.9
17.05
3.94
0.81
5.6
0.2
-0.05
18.34
0.13
2.31
-0.54
0.8
0.09
0.08

> <PUBCHEM_SHAPE_SELFOVERLAP>
1070.11

> <PUBCHEM_SHAPE_VOLUME>
262.3

> <PUBCHEM_COORDINATE_TYPE>
2
5
10

$$$$
