137303679
  -OEChem-03292013293D

 32 33  0     1  0  0  0  0  0999 V2000
    1.2261    1.1897    0.3543 S   0  0  0  0  0  0  0  0  0  0  0  0
   -1.4505    0.9536    0.9358 O   0  0  0  0  0  0  0  0  0  0  0  0
   -1.0017   -2.8264   -0.7924 O   0  0  0  0  0  0  0  0  0  0  0  0
   -3.0227   -1.3624    0.4042 O   0  0  0  0  0  0  0  0  0  0  0  0
   -3.1359    2.8599   -0.5355 O   0  0  0  0  0  0  0  0  0  0  0  0
    1.3285   -1.3935    0.4973 N   0  0  0  0  0  0  0  0  0  0  0  0
    3.3840   -0.2946   -0.0820 N   0  0  0  0  0  0  0  0  0  0  0  0
   -0.0917   -1.1391    0.6920 C   0  0  2  0  0  0  0  0  0  0  0  0
   -0.8439   -1.4210   -0.6130 C   0  0  2  0  0  0  0  0  0  0  0  0
   -2.2198   -0.7604   -0.6115 C   0  0  2  0  0  0  0  0  0  0  0  0
   -0.1892    0.3300    1.1409 C   0  0  1  0  0  0  0  0  0  0  0  0
   -2.0560    0.7378   -0.3415 C   0  0  1  0  0  0  0  0  0  0  0  0
   -3.3876    1.4806   -0.3362 C   0  0  0  0  0  0  0  0  0  0  0  0
    2.1337   -0.3182    0.2284 C   0  0  0  0  0  0  0  0  0  0  0  0
    3.9270    1.0393   -0.3021 C   0  0  0  0  0  0  0  0  0  0  0  0
    5.3996    0.9246   -0.6387 C   0  0  0  0  0  0  0  0  0  0  0  0
   -0.4716   -1.7976    1.4823 H   0  0  0  0  0  0  0  0  0  0  0  0
   -0.2684   -1.0521   -1.4719 H   0  0  0  0  0  0  0  0  0  0  0  0
   -2.7186   -0.9403   -1.5709 H   0  0  0  0  0  0  0  0  0  0  0  0
    0.0108    0.3793    2.2175 H   0  0  0  0  0  0  0  0  0  0  0  0
   -1.4102    1.1830   -1.1094 H   0  0  0  0  0  0  0  0  0  0  0  0
    1.6676   -2.3478    0.4394 H   0  0  0  0  0  0  0  0  0  0  0  0
   -3.9142    1.3628    0.6164 H   0  0  0  0  0  0  0  0  0  0  0  0
   -4.0301    1.1407   -1.1544 H   0  0  0  0  0  0  0  0  0  0  0  0
   -1.4761   -2.9642   -1.6301 H   0  0  0  0  0  0  0  0  0  0  0  0
   -3.9242   -1.0096    0.3168 H   0  0  0  0  0  0  0  0  0  0  0  0
   -3.9966    3.3123   -0.5331 H   0  0  0  0  0  0  0  0  0  0  0  0
    3.4493    1.5409   -1.1530 H   0  0  0  0  0  0  0  0  0  0  0  0
    3.8634    1.6637    0.5978 H   0  0  0  0  0  0  0  0  0  0  0  0
    5.9512    0.4432    0.1758 H   0  0  0  0  0  0  0  0  0  0  0  0
    5.5491    0.3232   -1.5417 H   0  0  0  0  0  0  0  0  0  0  0  0
    5.8346    1.9142   -0.8097 H   0  0  0  0  0  0  0  0  0  0  0  0
  1 11  1  0  0  0  0
  1 14  1  0  0  0  0
  2 11  1  0  0  0  0
  2 12  1  0  0  0  0
  3  9  1  0  0  0  0
  3 25  1  0  0  0  0
  4 10  1  0  0  0  0
  4 26  1  0  0  0  0
  5 13  1  0  0  0  0
  5 27  1  0  0  0  0
  6  8  1  0  0  0  0
  6 14  1  0  0  0  0
  6 22  1  0  0  0  0
  7 14  2  0  0  0  0
  7 15  1  0  0  0  0
  8  9  1  0  0  0  0
  8 11  1  0  0  0  0
  8 17  1  0  0  0  0
  9 10  1  0  0  0  0
  9 18  1  0  0  0  0
 10 12  1  0  0  0  0
 10 19  1  0  0  0  0
 11 20  1  0  0  0  0
 12 13  1  0  0  0  0
 12 21  1  0  0  0  0
 13 23  1  0  0  0  0
 13 24  1  0  0  0  0
 15 16  1  0  0  0  0
 15 28  1  0  0  0  0
 15 29  1  0  0  0  0
 16 30  1  0  0  0  0
 16 31  1  0  0  0  0
 16 32  1  0  0  0  0
M  END
> <PUBCHEM_COMPOUND_CID>
137303679

> <PUBCHEM_CONFORMER_RMSD>
0.6

> <PUBCHEM_CONFORMER_DIVERSEORDER>
1
27
32
33
29
15
28
17
5
35
2
26
36
21
10
24
16
23
34
14
3
30
38
31
39
9
12
6
4
19
18
25
13
11
37
22
20
8
7

> <PUBCHEM_MMFF94_PARTIAL_CHARGES>
19
1 -0.37
10 0.28
11 0.51
12 0.28
13 0.28
14 0.64
15 0.25
2 -0.56
22 0.4
25 0.4
26 0.4
27 0.4
3 -0.68
4 -0.68
5 -0.68
6 -0.82
7 -0.7
8 0.37
9 0.28

> <PUBCHEM_EFFECTIVE_ROTOR_COUNT>
3.2

> <PUBCHEM_PHARMACOPHORE_FEATURES>
11
1 2 acceptor
1 3 acceptor
1 3 donor
1 4 acceptor
1 4 donor
1 5 acceptor
1 5 donor
1 6 donor
3 6 7 14 cation
5 1 6 8 11 14 rings
6 2 8 9 10 11 12 rings

> <PUBCHEM_HEAVY_ATOM_COUNT>
16

> <PUBCHEM_ATOM_DEF_STEREO_COUNT>
3

> <PUBCHEM_ATOM_UDEF_STEREO_COUNT>
2

> <PUBCHEM_BOND_DEF_STEREO_COUNT>
0

> <PUBCHEM_BOND_UDEF_STEREO_COUNT>
0

> <PUBCHEM_ISOTOPIC_ATOM_COUNT>
0

> <PUBCHEM_COMPONENT_COUNT>
1

> <PUBCHEM_CACTVS_TAUTO_COUNT>
-1

> <PUBCHEM_CONFORMER_ID>
082F167F00000001

> <PUBCHEM_MMFF94_ENERGY>
45.7154

> <PUBCHEM_FEATURE_SELFOVERLAP>
55.981

> <PUBCHEM_SHAPE_FINGERPRINT>
10014705 185 18409450327993471256
10062212 137 18262784221164015754
10726558 24 18271525282490522509
11127187 94 17203606016583015061
11206711 2 18271792554094696935
12138202 97 18202002127142250142
12173636 292 18411689972442859421
12186901 62 18343306984914201142
12491281 212 18260827090012750488
12500047 106 18342452647553068780
12824470 246 12175615144641557540
13024252 1 17386004039343872875
13214271 11 17676493855850243992
14123255 52 18336263440396705084
15775835 57 18334575707164439676
16945 1 18268694173092908123
1741750 31 18340481171158567233
17780758 139 9366800512080980332
17844478 74 18263367048136412083
18186145 218 17917709119399215824
19765921 60 18187080624792599616
19868273 293 18411698781557725256
200 152 14979964666258635980
20645476 183 18410288103580778815
20645477 56 18343024419221564536
20653085 51 18334298638855667346
20871999 31 18202557410573597901
21524375 3 18264195920915761075
22926399 65 18411417306713097796
23402539 116 18131349743255617582
23402655 69 18411421692133254428
23557571 272 18271817868806019484
23559900 14 17988924475468122632
23598291 2 18042387076389294850
24859131 72 8646773296042922800
25 1 18261671480794173232
2748010 2 18271806766073121883
298252 57 18410569548513635755
4028521 119 18413673504668324156
4175511 318 18202285844165534502
559249 180 18410009898013320034
633830 44 17458069279219782660
76465 3 9078527310430772249

> <PUBCHEM_SHAPE_MULTIPOLES>
299.68
7.32
2.33
0.93
9.07
0.03
-0.09
-3.8
2.09
-2.25
0.51
-0.09
0.04
-0.11

> <PUBCHEM_SHAPE_SELFOVERLAP>
600.143

> <PUBCHEM_SHAPE_VOLUME>
178.6

> <PUBCHEM_COORDINATE_TYPE>
2
5
10

$$$$
