REMARK  Name = 137387
REMARK  8 active torsions:
REMARK  status: ('A' for Active; 'I' for Inactive)
REMARK    1  A    between atoms: C_2  and  N_15
REMARK    2  A    between atoms: CA_5  and  C_8
REMARK    3  A    between atoms: CA_6  and  C_12
REMARK    4  A    between atoms: C_8  and  O_9
REMARK    5  A    between atoms: C_12  and  O_13
REMARK    6  A    between atoms: N_15  and  C_17
REMARK    7  A    between atoms: C_17  and  C_18
REMARK    8  A    between atoms: C_18  and  S_19
REMARK                            x       y       z     vdW  Elec       q    Type
REMARK                         _______ _______ _______ _____ _____    ______ ____
ROOT
ATOM      1  N   UNL     1       1.808   0.139  -0.044  0.00  0.00    -0.393 NA
ATOM      2  C   UNL     1      -0.949  -0.270   0.167  0.00  0.00    +0.032 C 
ATOM      3  C   UNL     1      -0.438   1.022   0.095  0.00  0.00    +0.049 C 
ATOM      4  C   UNL     1      -0.082  -1.357   0.135  0.00  0.00    +0.107 C 
ATOM      5  CA  UNL     1       0.935   1.171  -0.009  0.00  0.00    +0.207 C 
ATOM      6  CA  UNL     1       1.275  -1.101   0.029  0.00  0.00    +0.190 C 
ENDROOT
BRANCH   5   8
ATOM      7  OXT UNL     1       0.897   3.562  -0.071  0.00  0.00    -0.242 OA
ATOM      8  C   UNL     1       1.524   2.497  -0.087  0.00  0.00    +0.368 C 
BRANCH   8   9
ATOM      9  O   UNL     1       2.882   2.461  -0.183  0.00  0.00    -0.475 OA
ATOM     10  H   UNL     1       3.329   1.637  -0.194  0.00  0.00    +0.295 HD
ENDBRANCH   8   9
ENDBRANCH   5   8
BRANCH   6  12
ATOM     11  OXT UNL     1       1.939  -3.400   0.043  0.00  0.00    -0.243 OA
ATOM     12  C   UNL     1       2.227  -2.198  -0.010  0.00  0.00    +0.364 C 
BRANCH  12  13
ATOM     13  O   UNL     1       3.515  -1.769  -0.116  0.00  0.00    -0.476 OA
ATOM     14  H   UNL     1       3.701  -0.852  -0.155  0.00  0.00    +0.295 HD
ENDBRANCH  12  13
ENDBRANCH   6  12
BRANCH   2  15
ATOM     15  N   UNL     1      -2.339  -0.476   0.274  0.00  0.00    -0.335 N 
ATOM     16  H   UNL     1      -2.675  -1.400   0.323  0.00  0.00    +0.147 HD
BRANCH  15  17
ATOM     17  C   UNL     1      -3.284   0.598   0.312  0.00  0.00    +0.098 C 
BRANCH  17  18
ATOM     18  C   UNL     1      -4.710   0.078   0.440  0.00  0.00    +0.075 C 
BRANCH  18  19
ATOM     19  S   UNL     1      -5.199  -0.956  -0.975  0.00  0.00    -0.166 S 
ATOM     20  H   UNL     1      -6.477  -1.387  -0.801  0.00  0.00    +0.102 HD
ENDBRANCH  18  19
ENDBRANCH  17  18
ENDBRANCH  15  17
ENDBRANCH   2  15
TORSDOF 8
