REMARK  Name = 137300622
REMARK  5 active torsions:
REMARK  status: ('A' for Active; 'I' for Inactive)
REMARK    1  A    between atoms: C_5  and  C_20
REMARK    2  A    between atoms: C_9  and  C_12
REMARK    3  A    between atoms: N_19  and  C_22
REMARK    4  A    between atoms: C_23  and  C_29
REMARK    5  A    between atoms: C_29  and  O_30
REMARK                            x       y       z     vdW  Elec       q    Type
REMARK                         _______ _______ _______ _____ _____    ______ ____
ROOT
ATOM      1  O   UNL     1       4.319  -2.780  -0.210  0.00  0.00    -0.272 OA
ATOM      2  N   UNL     1       2.013  -2.510  -0.037  0.00  0.00    -0.160 N 
ATOM      3  N   UNL     1       1.608  -3.809  -0.065  0.00  0.00    -0.253 N 
ATOM      4  N   UNL     1       0.957  -0.407   0.050  0.00  0.00    -0.389 NA
ATOM      5  C   UNL     1      -0.284  -2.593   0.085  0.00  0.00    +0.115 C 
ATOM      6  C   UNL     1       0.893  -1.693   0.033  0.00  0.00    +0.210 C 
ATOM      7  C   UNL     1       0.246  -3.823   0.041  0.00  0.00    +0.085 C 
ATOM      8  C   UNL     1       3.314  -2.088  -0.120  0.00  0.00    +0.254 C 
ATOM      9  C   UNL     1       2.240   0.126  -0.008  0.00  0.00    +0.120 C 
ATOM     10  C   UNL     1       3.380  -0.598  -0.094  0.00  0.00    +0.146 C 
ATOM     11  H   UNL     1       2.192  -4.597  -0.148  0.00  0.00    +0.171 HD
ENDROOT
BRANCH   9  12
ATOM     12  C   UNL     1       2.339   1.604   0.001  0.00  0.00    +0.026 C 
ATOM     13  C   UNL     1       3.059   2.248   1.007  0.00  0.00    +0.002 C 
ATOM     14  C   UNL     1       1.712   2.351  -0.996  0.00  0.00    +0.002 C 
ATOM     15  C   UNL     1       3.152   3.640   1.016  0.00  0.00    +0.000 C 
ATOM     16  C   UNL     1       1.806   3.743  -0.987  0.00  0.00    +0.000 C 
ATOM     17  C   UNL     1       2.526   4.387   0.019  0.00  0.00    +0.000 C 
ENDBRANCH   9  12
BRANCH   5  20
ATOM     18  O   UNL     1      -2.536  -3.139   0.276  0.00  0.00    -0.270 OA
ATOM     19  N   UNL     1      -1.906  -0.895   0.222  0.00  0.00    -0.302 N 
ATOM     20  C   UNL     1      -1.687  -2.257   0.204  0.00  0.00    +0.251 C 
ATOM     21  H   UNL     1      -1.129  -0.294   0.156  0.00  0.00    +0.150 HD
BRANCH  19  22
ATOM     22  C   UNL     1      -3.225  -0.311   0.332  0.00  0.00    +0.082 C 
ATOM     23  C   UNL     1      -3.330   1.033  -0.406  0.00  0.00    +0.117 C 
ATOM     24  C   UNL     1      -3.623  -0.153   1.805  0.00  0.00    +0.020 C 
ATOM     25  C   UNL     1      -2.531   2.139   0.287  0.00  0.00    +0.013 C 
ATOM     26  C   UNL     1      -2.857   0.971   2.508  0.00  0.00    +0.002 C 
ATOM     27  C   UNL     1      -2.951   2.290   1.747  0.00  0.00    +0.001 C 
BRANCH  23  29
ATOM     28  O   UNL     1      -1.773   1.094  -2.256  0.00  0.00    -0.250 OA
ATOM     29  C   UNL     1      -2.905   0.899  -1.838  0.00  0.00    +0.315 C 
BRANCH  29  30
ATOM     30  O   UNL     1      -3.953   0.533  -2.616  0.00  0.00    -0.480 OA
ATOM     31  H   UNL     1      -4.797   0.400  -2.233  0.00  0.00    +0.295 HD
ENDBRANCH  29  30
ENDBRANCH  23  29
ENDBRANCH  19  22
ENDBRANCH   5  20
TORSDOF 5
