13730
  -OEChem-03292013323D

 31 33  0     1  0  0  0  0  0999 V2000
   -2.0313   -0.2627    0.9720 O   0  0  0  0  0  0  0  0  0  0  0  0
   -3.8147    1.6277   -1.5048 O   0  0  0  0  0  0  0  0  0  0  0  0
   -4.3906   -1.7747    1.2676 O   0  0  0  0  0  0  0  0  0  0  0  0
    0.1796   -0.0398    0.1477 N   0  0  0  0  0  0  0  0  0  0  0  0
    1.4360   -1.6550   -0.7454 N   0  0  0  0  0  0  0  0  0  0  0  0
    1.9245    1.4960    0.8550 N   0  0  0  0  0  0  0  0  0  0  0  0
    4.1418    0.6378    0.3045 N   0  0  0  0  0  0  0  0  0  0  0  0
    4.4700   -1.4617   -0.7962 N   0  0  0  0  0  0  0  0  0  0  0  0
   -1.0188    0.6821    0.5776 C   0  0  1  0  0  0  0  0  0  0  0  0
   -2.8078    0.7817   -0.9887 C   0  0  1  0  0  0  0  0  0  0  0  0
   -1.6181    1.5780   -0.5001 C   0  0  0  0  0  0  0  0  0  0  0  0
   -3.2452    0.0693    0.2799 C   0  0  1  0  0  0  0  0  0  0  0  0
   -4.0485   -1.1926    0.0221 C   0  0  0  0  0  0  0  0  0  0  0  0
    1.4790    0.3627    0.2920 C   0  0  0  0  0  0  0  0  0  0  0  0
    0.2084   -1.2588   -0.4811 C   0  0  0  0  0  0  0  0  0  0  0  0
    2.2402   -0.6510   -0.2676 C   0  0  0  0  0  0  0  0  0  0  0  0
    3.6213   -0.4839   -0.2489 C   0  0  0  0  0  0  0  0  0  0  0  0
    3.2739    1.5447    0.8145 C   0  0  0  0  0  0  0  0  0  0  0  0
   -0.7359    1.2630    1.4627 H   0  0  0  0  0  0  0  0  0  0  0  0
   -2.4917    0.0752   -1.7652 H   0  0  0  0  0  0  0  0  0  0  0  0
   -0.9238    1.8402   -1.3051 H   0  0  0  0  0  0  0  0  0  0  0  0
   -1.9563    2.5229   -0.0558 H   0  0  0  0  0  0  0  0  0  0  0  0
   -3.8205    0.7382    0.9334 H   0  0  0  0  0  0  0  0  0  0  0  0
   -3.4577   -1.9257   -0.5367 H   0  0  0  0  0  0  0  0  0  0  0  0
   -4.9678   -0.9720   -0.5287 H   0  0  0  0  0  0  0  0  0  0  0  0
   -0.6892   -1.8099   -0.7262 H   0  0  0  0  0  0  0  0  0  0  0  0
   -4.5755    1.0698   -1.7392 H   0  0  0  0  0  0  0  0  0  0  0  0
   -4.9016   -2.5796    1.0772 H   0  0  0  0  0  0  0  0  0  0  0  0
    3.7252    2.4302    1.2493 H   0  0  0  0  0  0  0  0  0  0  0  0
    4.0839   -2.2995   -1.2100 H   0  0  0  0  0  0  0  0  0  0  0  0
    5.4702   -1.3174   -0.7708 H   0  0  0  0  0  0  0  0  0  0  0  0
  1  9  1  0  0  0  0
  1 12  1  0  0  0  0
  2 10  1  0  0  0  0
  2 27  1  0  0  0  0
  3 13  1  0  0  0  0
  3 28  1  0  0  0  0
  4  9  1  0  0  0  0
  4 14  1  0  0  0  0
  4 15  1  0  0  0  0
  5 15  2  0  0  0  0
  5 16  1  0  0  0  0
  6 14  2  0  0  0  0
  6 18  1  0  0  0  0
  7 17  1  0  0  0  0
  7 18  2  0  0  0  0
  8 17  1  0  0  0  0
  8 30  1  0  0  0  0
  8 31  1  0  0  0  0
  9 11  1  0  0  0  0
  9 19  1  0  0  0  0
 10 11  1  0  0  0  0
 10 12  1  0  0  0  0
 10 20  1  0  0  0  0
 11 21  1  0  0  0  0
 11 22  1  0  0  0  0
 12 13  1  0  0  0  0
 12 23  1  0  0  0  0
 13 24  1  0  0  0  0
 13 25  1  0  0  0  0
 14 16  1  0  0  0  0
 15 26  1  0  0  0  0
 16 17  2  0  0  0  0
 18 29  1  0  0  0  0
M  END
> <PUBCHEM_COMPOUND_CID>
13730

> <PUBCHEM_CONFORMER_RMSD>
0.6

> <PUBCHEM_CONFORMER_DIVERSEORDER>
3
2
13
12
4
9
5
7
6
11
8
14
10
1

> <PUBCHEM_MMFF94_PARTIAL_CHARGES>
23
1 -0.56
10 0.28
12 0.28
13 0.28
14 0.11
15 0.04
16 0.23
17 0.41
18 0.47
2 -0.68
26 0.15
27 0.4
28 0.4
29 0.15
3 -0.68
30 0.4
31 0.4
4 0.05
5 -0.57
6 -0.57
7 -0.62
8 -0.9
9 0.54

> <PUBCHEM_EFFECTIVE_ROTOR_COUNT>
3

> <PUBCHEM_PHARMACOPHORE_FEATURES>
13
1 1 acceptor
1 2 acceptor
1 2 donor
1 3 acceptor
1 3 donor
1 8 cation
1 8 donor
3 4 5 15 cation
3 4 6 14 cation
3 6 7 18 cation
5 1 9 10 11 12 rings
5 4 5 14 15 16 rings
6 6 7 14 16 17 18 rings

> <PUBCHEM_HEAVY_ATOM_COUNT>
18

> <PUBCHEM_ATOM_DEF_STEREO_COUNT>
3

> <PUBCHEM_ATOM_UDEF_STEREO_COUNT>
0

> <PUBCHEM_BOND_DEF_STEREO_COUNT>
0

> <PUBCHEM_BOND_UDEF_STEREO_COUNT>
0

> <PUBCHEM_ISOTOPIC_ATOM_COUNT>
0

> <PUBCHEM_COMPONENT_COUNT>
1

> <PUBCHEM_CACTVS_TAUTO_COUNT>
3

> <PUBCHEM_CONFORMER_ID>
000035A200000003

> <PUBCHEM_MMFF94_ENERGY>
39.8081

> <PUBCHEM_FEATURE_SELFOVERLAP>
66.579

> <PUBCHEM_SHAPE_FINGERPRINT>
10608611 8 18410849936816485157
11471102 20 18202276979580031444
11543360 7 17530978989836083422
11615757 297 17918275350411991979
12032990 46 18343589508168860982
12236239 1 16271926013093464513
12403259 226 18411697673477443816
12403259 415 18411419527000199768
13296908 3 18411416211353843633
13583140 156 17605524791361580112
13760787 5 17418372493328797156
14289901 80 17676209065158599025
15219456 202 18411978061700711089
15653759 3 18187085039792223489
16945 1 18131350770064043870
18175812 5 18408881819671620909
18186145 218 18411700954589663608
19026448 4 18408037407562970100
19026448 5 16443062781532108608
19141452 34 18340213007309179083
19422 9 15985097535420367381
200 152 17560792204615631717
20645477 70 17988635251246738711
21065201 7 17895187788066827232
21079973 296 18261394498532667307
221490 88 18341616997093494406
22943178 12 18409443674445174773
23402539 116 17748821908342106447
23402655 69 18060131016550200996
23532345 42 18041277763461337917
23557571 272 18187368710051149525
23559900 14 18187921717007587242
2748010 2 18129100194463731022
2871803 45 18335976545561669863
3268164 11 17531237375263802823
474 4 16126374961600378688
5104073 3 18342176644026934562
633830 44 17561094595977624348
77492 1 16343983610951762073
81228 2 17408213212110179450

> <PUBCHEM_SHAPE_MULTIPOLES>
327.92
8.68
1.81
1.06
0.48
0.05
-0.06
1.45
-0.03
0.12
-0.1
0.75
-0.1
1.89

> <PUBCHEM_SHAPE_SELFOVERLAP>
712.613

> <PUBCHEM_SHAPE_VOLUME>
177.5

> <PUBCHEM_COORDINATE_TYPE>
2
5
10

$$$$
