REMARK  Name = 137321146
REMARK  3 active torsions:
REMARK  status: ('A' for Active; 'I' for Inactive)
REMARK    1  A    between atoms: N_2  and  C_23
REMARK    2  A    between atoms: C_9  and  C_14
REMARK    3  A    between atoms: C_23  and  C_24
REMARK                            x       y       z     vdW  Elec       q    Type
REMARK                         _______ _______ _______ _____ _____    ______ ____
ROOT
ATOM      1 CL   UNL     1      -1.157  -2.825  -0.610  0.00  0.00    -0.044 Cl
ATOM      2  N   UNL     1      -2.992  -0.685   0.516  0.00  0.00    -0.279 N 
ATOM      3  N   UNL     1      -1.282   0.932   0.717  0.00  0.00    -0.366 NA
ATOM      4  N   UNL     1       0.557  -0.921  -0.308  0.00  0.00    -0.378 NA
ATOM      5  C   UNL     1      -1.648  -0.316   0.362  0.00  0.00    +0.226 C 
ATOM      6  C   UNL     1      -3.446  -1.284   1.772  0.00  0.00    +0.115 C 
ATOM      7  C   UNL     1      -0.745  -1.226  -0.142  0.00  0.00    +0.233 C 
ATOM      8  C   UNL     1       0.021   1.237   0.551  0.00  0.00    +0.213 C 
ATOM      9  C   UNL     1       0.924   0.327   0.047  0.00  0.00    +0.229 C 
ATOM     10  N   UNL     1       0.466   2.530   0.905  0.00  0.00    -0.331 N 
ATOM     11  H   UNL     1      -0.171   3.188   1.266  0.00  0.00    +0.145 HD
ATOM     12  H   UNL     1       1.413   2.773   0.791  0.00  0.00    +0.145 HD
ENDROOT
BRANCH   9  17
ATOM     13  O   UNL     1       2.689   1.792  -0.418  0.00  0.00    -0.267 OA
ATOM     14  N   UNL     1       3.237  -0.444  -0.021  0.00  0.00    -0.251 N 
ATOM     15  N   UNL     1       5.261  -1.624  -0.007  0.00  0.00    -0.372 N 
ATOM     16  N   UNL     1       5.238   0.677  -0.478  0.00  0.00    -0.270 NA
ATOM     17  C   UNL     1       2.333   0.634  -0.140  0.00  0.00    +0.285 C 
ATOM     18  C   UNL     1       4.622  -0.426  -0.182  0.00  0.00    +0.186 C 
ATOM     19  H   UNL     1       2.840  -1.316   0.203  0.00  0.00    +0.158 HD
ATOM     20  H   UNL     1       4.743  -2.430   0.217  0.00  0.00    +0.159 HD
ATOM     21  H   UNL     1       6.240  -1.678  -0.105  0.00  0.00    +0.159 HD
ATOM     22  H   UNL     1       4.728   1.511  -0.592  0.00  0.00    +0.190 HD
ENDBRANCH   9  17
BRANCH   2  23
ATOM     23  C   UNL     1      -3.954  -0.483  -0.540  0.00  0.00    +0.093 C 
BRANCH  23  24
ATOM     24  C   UNL     1      -4.567   0.911  -0.453  0.00  0.00    +0.021 C 
ATOM     25  C   UNL     1      -5.558   1.192  -1.573  0.00  0.00    +0.002 C 
ENDBRANCH  23  24
ENDBRANCH   2  23
TORSDOF 3
