REMARK  Name = 137303679
REMARK  6 active torsions:
REMARK  status: ('A' for Active; 'I' for Inactive)
REMARK    1  A    between atoms: N_4  and  C_10
REMARK    2  A    between atoms: N_4  and  C_16
REMARK    3  A    between atoms: C_6  and  O_12
REMARK    4  A    between atoms: C_7  and  O_14
REMARK    5  A    between atoms: C_9  and  C_18
REMARK    6  A    between atoms: C_18  and  O_19
REMARK                            x       y       z     vdW  Elec       q    Type
REMARK                         _______ _______ _______ _____ _____    ______ ____
ROOT
ATOM      1  S   UNL     1       1.226   1.190   0.354  0.00  0.00    -0.078 S 
ATOM      2  O   UNL     1      -1.450   0.954   0.936  0.00  0.00    -0.341 OA
ATOM      3  N   UNL     1       1.329  -1.393   0.497  0.00  0.00    -0.272 NA
ATOM      4  C   UNL     1      -0.092  -1.139   0.692  0.00  0.00    +0.123 C 
ATOM      5  C   UNL     1      -0.844  -1.421  -0.613  0.00  0.00    +0.157 C 
ATOM      6  C   UNL     1      -2.220  -0.760  -0.612  0.00  0.00    +0.168 C 
ATOM      7  C   UNL     1      -0.189   0.330   1.141  0.00  0.00    +0.182 C 
ATOM      8  C   UNL     1      -2.056   0.738  -0.342  0.00  0.00    +0.175 C 
ATOM      9  C   UNL     1       2.134  -0.318   0.228  0.00  0.00    +0.181 C 
ATOM     10  H   UNL     1       1.697  -2.305   0.557  0.00  0.00    +0.125 HD
ENDROOT
BRANCH   5  11
ATOM     11  O   UNL     1      -1.002  -2.826  -0.792  0.00  0.00    -0.380 OA
ATOM     12  H   UNL     1      -0.130  -3.252  -0.794  0.00  0.00    +0.211 HD
ENDBRANCH   5  11
BRANCH   6  13
ATOM     13  O   UNL     1      -3.023  -1.362   0.404  0.00  0.00    -0.379 OA
ATOM     14  H   UNL     1      -3.118  -2.310   0.221  0.00  0.00    +0.211 HD
ENDBRANCH   6  13
BRANCH   9  15
ATOM     15  N   UNL     1       3.384  -0.295  -0.082  0.00  0.00    -0.194 NA
BRANCH  15  16
ATOM     16  C   UNL     1       3.927   1.039  -0.302  0.00  0.00    +0.091 C 
ATOM     17  C   UNL     1       5.400   0.925  -0.639  0.00  0.00    +0.020 C 
ENDBRANCH  15  16
ENDBRANCH   9  15
BRANCH   8  18
ATOM     18  C   UNL     1      -3.388   1.481  -0.336  0.00  0.00    +0.169 C 
BRANCH  18  19
ATOM     19  O   UNL     1      -3.136   2.860  -0.535  0.00  0.00    -0.379 OA
ATOM     20  H   UNL     1      -3.976   3.345  -0.534  0.00  0.00    +0.211 HD
ENDBRANCH  18  19
ENDBRANCH   8  18
TORSDOF 6
