REMARK  Name = 137366
REMARK  7 active torsions:
REMARK  status: ('A' for Active; 'I' for Inactive)
REMARK    1  A    between atoms: C_3  and  C_15
REMARK    2  A    between atoms: C_9  and  O_12
REMARK    3  A    between atoms: C_10  and  C_18
REMARK    4  A    between atoms: C_15  and  O_16
REMARK    5  A    between atoms: C_18  and  C_19
REMARK    6  A    between atoms: C_19  and  C_21
REMARK    7  A    between atoms: C_21  and  O_22
REMARK                            x       y       z     vdW  Elec       q    Type
REMARK                         _______ _______ _______ _____ _____    ______ ____
ROOT
ATOM      1  O   UNL     1       0.513   1.389   1.182  0.00  0.00    -0.270 OA
ATOM      2  N   UNL     1      -1.228   0.003   0.461  0.00  0.00    -0.247 N 
ATOM      3  C   UNL     1      -2.205   1.083   0.645  0.00  0.00    +0.178 C 
ATOM      4  C   UNL     1      -3.657   0.643   0.781  0.00  0.00    +0.032 C 
ATOM      5  C   UNL     1      -4.009  -0.370  -0.293  0.00  0.00    +0.008 C 
ATOM      6  C   UNL     1      -3.090  -1.575  -0.178  0.00  0.00    +0.045 C 
ATOM      7  C   UNL     1      -1.623  -1.257  -0.003  0.00  0.00    +0.066 C 
ATOM      8  C   UNL     1       0.122   0.306   0.744  0.00  0.00    +0.249 C 
ATOM      9  C   UNL     1      -0.695  -2.204  -0.241  0.00  0.00    +0.143 C 
ATOM     10  C   UNL     1       1.128  -0.769   0.460  0.00  0.00    +0.035 C 
ATOM     11  C   UNL     1       0.702  -1.945  -0.019  0.00  0.00    +0.038 C 
ENDROOT
BRANCH   9  12
ATOM     12  O   UNL     1      -1.029  -3.469  -0.678  0.00  0.00    -0.505 OA
ATOM     13  H   UNL     1      -1.926  -3.688  -0.837  0.00  0.00    +0.292 HD
ENDBRANCH   9  12
BRANCH   3  15
ATOM     14  O   UNL     1      -1.770   1.646  -1.671  0.00  0.00    -0.248 OA
ATOM     15  C   UNL     1      -2.060   2.002  -0.538  0.00  0.00    +0.332 C 
BRANCH  15  16
ATOM     16  O   UNL     1      -2.292   3.287  -0.177  0.00  0.00    -0.479 OA
ATOM     17  H   UNL     1      -2.509   3.493   0.711  0.00  0.00    +0.295 HD
ENDBRANCH  15  16
ENDBRANCH   3  15
BRANCH  10  18
ATOM     18  C   UNL     1       2.570  -0.463   0.718  0.00  0.00    +0.043 C 
BRANCH  18  19
ATOM     19  C   UNL     1       3.261   0.143  -0.495  0.00  0.00    +0.114 C 
BRANCH  19  21
ATOM     20  O   UNL     1       5.282   0.166   0.828  0.00  0.00    -0.250 OA
ATOM     21  C   UNL     1       4.724   0.409  -0.234  0.00  0.00    +0.314 C 
BRANCH  21  22
ATOM     22  O   UNL     1       5.354   0.975  -1.293  0.00  0.00    -0.480 OA
ATOM     23  H   UNL     1       4.882   1.142  -2.085  0.00  0.00    +0.295 HD
ENDBRANCH  21  22
ENDBRANCH  19  21
ENDBRANCH  18  19
ENDBRANCH  10  18
TORSDOF 7
