REMARK  Name = 137305
REMARK  4 active torsions:
REMARK  status: ('A' for Active; 'I' for Inactive)
REMARK    1  A    between atoms: C_6  and  O_21
REMARK    2  A    between atoms: C_6  and  C_24
REMARK    3  A    between atoms: C_24  and  C_25
REMARK    4  A    between atoms: C_25  and  N_28
REMARK                            x       y       z     vdW  Elec       q    Type
REMARK                         _______ _______ _______ _____ _____    ______ ____
ROOT
ATOM      1  O   UNL     1       8.088   1.745  -0.803  0.00  0.00    -0.291 OA
ATOM      2  C   UNL     1       0.231  -1.373  -0.047  0.00  0.00    +0.029 C 
ATOM      3  C   UNL     1       0.629   0.108   0.136  0.00  0.00    +0.003 C 
ATOM      4  C   UNL     1       2.062   0.317   0.673  0.00  0.00    +0.001 C 
ATOM      5  C   UNL     1       3.137  -0.474  -0.117  0.00  0.00    +0.003 C 
ATOM      6  C   UNL     1      -1.053  -1.247  -0.911  0.00  0.00    +0.140 C 
ATOM      7  C   UNL     1       1.341  -2.149  -0.806  0.00  0.00    +0.003 C 
ATOM      8  C   UNL     1       4.602  -0.250   0.433  0.00  0.00    +0.016 C 
ATOM      9  C   UNL     1       2.737  -1.960  -0.210  0.00  0.00    +0.000 C 
ATOM     10  C   UNL     1       0.332   0.748  -1.234  0.00  0.00    +0.003 C 
ATOM     11  C   UNL     1      -0.752  -0.112  -1.895  0.00  0.00    +0.034 C 
ATOM     12  C   UNL     1       2.420   1.810   0.727  0.00  0.00    +0.004 C 
ATOM     13  C   UNL     1      -0.032  -2.070   1.302  0.00  0.00    +0.003 C 
ATOM     14  C   UNL     1       4.861   1.249   0.624  0.00  0.00    -0.042 C 
ATOM     15  C   UNL     1       3.791   2.030   1.348  0.00  0.00    +0.022 C 
ATOM     16  C   UNL     1       5.604  -0.834  -0.607  0.00  0.00    +0.012 C 
ATOM     17  C   UNL     1       4.828  -0.952   1.792  0.00  0.00    +0.004 C 
ATOM     18  C   UNL     1       7.037  -0.368  -0.402  0.00  0.00    +0.069 C 
ATOM     19  C   UNL     1       5.973   1.880   0.212  0.00  0.00    +0.029 C 
ATOM     20  C   UNL     1       7.102   1.136  -0.392  0.00  0.00    +0.173 C 
ENDROOT
BRANCH   6  21
ATOM     21  O   UNL     1      -1.360  -2.453  -1.588  0.00  0.00    -0.380 OA
ATOM     22  H   UNL     1      -0.600  -2.724  -2.126  0.00  0.00    +0.211 HD
ENDBRANCH   6  21
BRANCH   6  24
ATOM     23  O   UNL     1      -2.200  -0.303   0.953  0.00  0.00    -0.292 OA
ATOM     24  C   UNL     1      -2.288  -0.919  -0.112  0.00  0.00    +0.195 C 
BRANCH  24  25
ATOM     25  C   UNL     1      -3.647  -1.348  -0.627  0.00  0.00    +0.166 C 
BRANCH  25  28
ATOM     26  O   UNL     1      -5.184  -1.607   1.759  0.00  0.00    -0.252 OA
ATOM     27  O   UNL     1      -7.662   2.141   0.777  0.00  0.00    -0.270 OA
ATOM     28  N   UNL     1      -4.700  -0.467  -0.221  0.00  0.00    -0.235 N 
ATOM     29  N   UNL     1      -6.413   0.263   1.257  0.00  0.00    -0.236 N 
ATOM     30  C   UNL     1      -5.021   0.613  -1.038  0.00  0.00    +0.070 C 
ATOM     31  C   UNL     1      -5.411  -0.675   0.985  0.00  0.00    +0.314 C 
ATOM     32  C   UNL     1      -5.981   1.509  -0.774  0.00  0.00    +0.047 C 
ATOM     33  C   UNL     1      -6.769   1.353   0.477  0.00  0.00    +0.250 C 
ATOM     34  C   UNL     1      -6.305   2.661  -1.671  0.00  0.00    +0.037 C 
ATOM     35  H   UNL     1      -6.919   0.136   2.091  0.00  0.00    +0.159 HD
ENDBRANCH  25  28
ENDBRANCH  24  25
ENDBRANCH   6  24
TORSDOF 4
