137300622
  -OEChem-03292013293D

 48 51  0     1  0  0  0  0  0999 V2000
   -3.9531    0.5333   -2.6163 O   0  0  0  0  0  0  0  0  0  0  0  0
   -1.7733    1.0937   -2.2558 O   0  0  0  0  0  0  0  0  0  0  0  0
   -2.5358   -3.1394    0.2761 O   0  0  0  0  0  0  0  0  0  0  0  0
    4.3186   -2.7803   -0.2101 O   0  0  0  0  0  0  0  0  0  0  0  0
   -1.9056   -0.8954    0.2215 N   0  0  0  0  0  0  0  0  0  0  0  0
    2.0129   -2.5104   -0.0371 N   0  0  0  0  0  0  0  0  0  0  0  0
    1.6077   -3.8088   -0.0653 N   0  0  0  0  0  0  0  0  0  0  0  0
    0.9572   -0.4070    0.0498 N   0  0  0  0  0  0  0  0  0  0  0  0
   -3.2251   -0.3110    0.3322 C   0  0  2  0  0  0  0  0  0  0  0  0
   -3.3300    1.0333   -0.4059 C   0  0  1  0  0  0  0  0  0  0  0  0
   -3.6229   -0.1527    1.8054 C   0  0  0  0  0  0  0  0  0  0  0  0
   -2.5308    2.1390    0.2872 C   0  0  0  0  0  0  0  0  0  0  0  0
   -2.8571    0.9706    2.5076 C   0  0  0  0  0  0  0  0  0  0  0  0
   -2.9511    2.2904    1.7471 C   0  0  0  0  0  0  0  0  0  0  0  0
   -2.9052    0.8994   -1.8384 C   0  0  0  0  0  0  0  0  0  0  0  0
   -1.6873   -2.2573    0.2040 C   0  0  0  0  0  0  0  0  0  0  0  0
   -0.2843   -2.5931    0.0850 C   0  0  0  0  0  0  0  0  0  0  0  0
    0.8934   -1.6929    0.0332 C   0  0  0  0  0  0  0  0  0  0  0  0
    0.2459   -3.8233    0.0409 C   0  0  0  0  0  0  0  0  0  0  0  0
    3.3136   -2.0881   -0.1198 C   0  0  0  0  0  0  0  0  0  0  0  0
    2.2395    0.1258   -0.0078 C   0  0  0  0  0  0  0  0  0  0  0  0
    3.3797   -0.5975   -0.0943 C   0  0  0  0  0  0  0  0  0  0  0  0
    2.3387    1.6036    0.0014 C   0  0  0  0  0  0  0  0  0  0  0  0
    3.0586    2.2480    1.0074 C   0  0  0  0  0  0  0  0  0  0  0  0
    1.7122    2.3508   -0.9959 C   0  0  0  0  0  0  0  0  0  0  0  0
    3.1521    3.6398    1.0162 C   0  0  0  0  0  0  0  0  0  0  0  0
    1.8055    3.7426   -0.9873 C   0  0  0  0  0  0  0  0  0  0  0  0
    2.5255    4.3870    0.0188 C   0  0  0  0  0  0  0  0  0  0  0  0
   -3.9257   -1.0182   -0.1310 H   0  0  0  0  0  0  0  0  0  0  0  0
   -4.3817    1.3546   -0.4032 H   0  0  0  0  0  0  0  0  0  0  0  0
   -3.4686   -1.0917    2.3505 H   0  0  0  0  0  0  0  0  0  0  0  0
   -4.6963    0.0702    1.8597 H   0  0  0  0  0  0  0  0  0  0  0  0
   -1.4537    1.9360    0.2401 H   0  0  0  0  0  0  0  0  0  0  0  0
   -2.6822    3.0925   -0.2342 H   0  0  0  0  0  0  0  0  0  0  0  0
   -1.8027    0.6858    2.6101 H   0  0  0  0  0  0  0  0  0  0  0  0
   -3.2486    1.1026    3.5226 H   0  0  0  0  0  0  0  0  0  0  0  0
   -3.9824    2.6617    1.7915 H   0  0  0  0  0  0  0  0  0  0  0  0
   -2.3215    3.0427    2.2356 H   0  0  0  0  0  0  0  0  0  0  0  0
   -1.1165   -0.2579    0.2049 H   0  0  0  0  0  0  0  0  0  0  0  0
   -3.6952    0.4408   -3.5582 H   0  0  0  0  0  0  0  0  0  0  0  0
   -0.2593   -4.7747    0.1017 H   0  0  0  0  0  0  0  0  0  0  0  0
    2.1793   -4.5536    0.3101 H   0  0  0  0  0  0  0  0  0  0  0  0
    4.3649   -0.1476   -0.1543 H   0  0  0  0  0  0  0  0  0  0  0  0
    3.5488    1.6843    1.7976 H   0  0  0  0  0  0  0  0  0  0  0  0
    1.1492    1.8648   -1.7890 H   0  0  0  0  0  0  0  0  0  0  0  0
    3.7112    4.1419    1.8004 H   0  0  0  0  0  0  0  0  0  0  0  0
    1.3177    4.3244   -1.7638 H   0  0  0  0  0  0  0  0  0  0  0  0
    2.5979    5.4706    0.0257 H   0  0  0  0  0  0  0  0  0  0  0  0
  1 15  1  0  0  0  0
  1 40  1  0  0  0  0
  2 15  2  0  0  0  0
  3 16  2  0  0  0  0
  4 20  2  0  0  0  0
  5  9  1  0  0  0  0
  5 16  1  0  0  0  0
  5 39  1  0  0  0  0
  6  7  1  0  0  0  0
  6 18  1  0  0  0  0
  6 20  1  0  0  0  0
  7 19  1  0  0  0  0
  7 42  1  0  0  0  0
  8 18  2  0  0  0  0
  8 21  1  0  0  0  0
  9 10  1  0  0  0  0
  9 11  1  0  0  0  0
  9 29  1  0  0  0  0
 10 12  1  0  0  0  0
 10 15  1  0  0  0  0
 10 30  1  0  0  0  0
 11 13  1  0  0  0  0
 11 31  1  0  0  0  0
 11 32  1  0  0  0  0
 12 14  1  0  0  0  0
 12 33  1  0  0  0  0
 12 34  1  0  0  0  0
 13 14  1  0  0  0  0
 13 35  1  0  0  0  0
 13 36  1  0  0  0  0
 14 37  1  0  0  0  0
 14 38  1  0  0  0  0
 16 17  1  0  0  0  0
 17 18  1  0  0  0  0
 17 19  2  0  0  0  0
 19 41  1  0  0  0  0
 20 22  1  0  0  0  0
 21 22  2  0  0  0  0
 21 23  1  0  0  0  0
 22 43  1  0  0  0  0
 23 24  2  0  0  0  0
 23 25  1  0  0  0  0
 24 26  1  0  0  0  0
 24 44  1  0  0  0  0
 25 27  2  0  0  0  0
 25 45  1  0  0  0  0
 26 28  2  0  0  0  0
 26 46  1  0  0  0  0
 27 28  1  0  0  0  0
 27 47  1  0  0  0  0
 28 48  1  0  0  0  0
M  END
> <PUBCHEM_COMPOUND_CID>
137300622

> <PUBCHEM_CONFORMER_RMSD>
0.8

> <PUBCHEM_CONFORMER_DIVERSEORDER>
1
35
19
21
44
15
5
6
11
25
28
24
3
17
18
36
42
8
20
7
16
4
10
9
13
31
27
32
23
12
29
34
33
2
22
30
37
14
26
41
40
45
43
46
38
39
48
47

> <PUBCHEM_MMFF94_PARTIAL_CHARGES>
34
1 -0.65
10 0.06
15 0.66
16 0.62
17 0.03
18 0.5
19 -0.05
2 -0.57
20 0.62
21 0.14
22 -0.14
23 0.03
24 -0.15
25 -0.15
26 -0.15
27 -0.15
28 -0.15
3 -0.57
39 0.37
4 -0.57
40 0.5
41 0.15
42 0.4
43 0.15
44 0.15
45 0.15
46 0.15
47 0.15
48 0.15
5 -0.73
6 -0.1
7 -0.52
8 -0.62
9 0.3

> <PUBCHEM_EFFECTIVE_ROTOR_COUNT>
6.2

> <PUBCHEM_PHARMACOPHORE_FEATURES>
11
1 1 acceptor
1 2 acceptor
1 3 acceptor
1 4 acceptor
1 5 donor
1 7 donor
3 1 2 15 anion
5 6 7 17 18 19 rings
6 23 24 25 26 27 28 rings
6 6 8 18 20 21 22 rings
6 9 10 11 12 13 14 rings

> <PUBCHEM_HEAVY_ATOM_COUNT>
28

> <PUBCHEM_ATOM_DEF_STEREO_COUNT>
2

> <PUBCHEM_ATOM_UDEF_STEREO_COUNT>
0

> <PUBCHEM_BOND_DEF_STEREO_COUNT>
0

> <PUBCHEM_BOND_UDEF_STEREO_COUNT>
0

> <PUBCHEM_ISOTOPIC_ATOM_COUNT>
0

> <PUBCHEM_COMPONENT_COUNT>
1

> <PUBCHEM_CACTVS_TAUTO_COUNT>
-1

> <PUBCHEM_CONFORMER_ID>
082F0A8E00000001

> <PUBCHEM_MMFF94_ENERGY>
75.9051

> <PUBCHEM_FEATURE_SELFOVERLAP>
56.004

> <PUBCHEM_SHAPE_FINGERPRINT>
10006869 2 18054807319030815963
10165383 225 18047222857329916708
10670039 82 17542514181404438100
11370993 70 18264754640121265285
11582403 64 16737995815116600269
12156800 1 15244628350144969345
12422481 6 17823152271273948985
12539773 59 17632011936671040761
12553582 1 18049724014549616512
12655364 131 17911198928911525080
12788726 201 16752984649668517328
13122387 1 18339083696290636800
13140716 1 18339090392092163819
13583140 156 17676476255142636195
13773456 30 18119503635122481669
14466204 15 18410291389969518242
14468879 13 17750217240723372573
14790565 3 18337968848189338436
14955137 171 18122656897116372586
17818456 19 17619058878332233672
17980427 23 17846776270180254162
18219364 16 18189340074054061531
19930381 70 18410012148233233481
20600515 1 18129389207234958778
20715895 44 17972008574509983007
22749437 52 18339916142462236024
238 59 18191840406503138167
350125 39 18266188394757033202
35225 105 17692807503161078364
5252454 2 18118989085112995956
6287921 2 18191887805387669861
9981440 41 17834957847295025618

> <PUBCHEM_SHAPE_MULTIPOLES>
532.83
7.36
5.83
1.71
0.37
1.79
-0.35
-3.31
0.61
-5.01
0.23
2.35
-1.51
0.22

> <PUBCHEM_SHAPE_SELFOVERLAP>
1164.271

> <PUBCHEM_SHAPE_VOLUME>
286.1

> <PUBCHEM_COORDINATE_TYPE>
2
5
10

$$$$
