REMARK  Name = 137324
REMARK  7 active torsions:
REMARK  status: ('A' for Active; 'I' for Inactive)
REMARK    1  A    between atoms: N_1  and  O_18
REMARK    2  A    between atoms: C_2  and  C_9
REMARK    3  A    between atoms: C_10  and  C_12
REMARK    4  A    between atoms: C_12  and  N_14
REMARK    5  A    between atoms: O_18  and  C_20
REMARK    6  A    between atoms: C_20  and  C_21
REMARK    7  A    between atoms: C_26  and  N_29
REMARK                            x       y       z     vdW  Elec       q    Type
REMARK                         _______ _______ _______ _____ _____    ______ ____
ROOT
ATOM      1  N   UNL     1       1.098  -1.656  -0.870  0.00  0.00    -0.110 NA
ATOM      2  C   UNL     1       1.306  -1.211   0.515  0.00  0.00    +0.172 C 
ATOM      3  C   UNL     1       0.858  -2.350   1.425  0.00  0.00    +0.030 C 
ATOM      4  C   UNL     1       0.653  -3.549   0.506  0.00  0.00    +0.023 C 
ATOM      5  C   UNL     1       1.241  -3.119  -0.828  0.00  0.00    +0.114 C 
ENDROOT
BRANCH   2   9
ATOM      6  O   UNL     1       3.568  -1.796   1.009  0.00  0.00    -0.273 OA
ATOM      7  O   UNL     1       5.385   0.325   0.694  0.00  0.00    -0.277 OA
ATOM      8  N   UNL     1       3.081   0.393   0.350  0.00  0.00    -0.256 N 
ATOM      9  C   UNL     1       2.771  -0.929   0.663  0.00  0.00    +0.246 C 
ATOM     10  C   UNL     1       4.367   0.940   0.384  0.00  0.00    +0.208 C 
ATOM     11  H   UNL     1       2.341   0.985   0.086  0.00  0.00    +0.157 HD
BRANCH  10  12
ATOM     12  C   UNL     1       4.365   2.417   0.006  0.00  0.00    +0.013 C 
ATOM     13  C   UNL     1       4.589   2.578  -1.492  0.00  0.00    -0.015 C 
BRANCH  12  14
ATOM     14  N   UNL     1       5.430   3.082   0.751  0.00  0.00    +0.387 N 
ATOM     15  H   UNL     1       5.268   2.967   1.752  0.00  0.00    -0.089 HD
ATOM     16  H   UNL     1       5.438   4.075   0.520  0.00  0.00    -0.089 HD
ATOM     17  H   UNL     1       6.329   2.668   0.502  0.00  0.00    -0.089 HD
ENDBRANCH  12  14
ENDBRANCH  10  12
ENDBRANCH   2   9
BRANCH   1  18
ATOM     18  O   UNL     1      -0.323  -1.438  -1.112  0.00  0.00    -0.361 OA
BRANCH  18  20
ATOM     19  O   UNL     1       0.186   0.774  -1.550  0.00  0.00    -0.243 OA
ATOM     20  C   UNL     1      -0.573  -0.105  -1.171  0.00  0.00    +0.359 C 
BRANCH  20  21
ATOM     21  C   UNL     1      -1.955   0.172  -0.699  0.00  0.00    +0.077 C 
ATOM     22  C   UNL     1      -2.221   1.383  -0.095  0.00  0.00    +0.008 C 
ATOM     23  C   UNL     1      -2.926  -0.791  -0.878  0.00  0.00    +0.008 C 
ATOM     24  C   UNL     1      -3.517   1.643   0.350  0.00  0.00    +0.024 C 
ATOM     25  C   UNL     1      -4.222  -0.531  -0.433  0.00  0.00    +0.024 C 
ATOM     26  C   UNL     1      -4.518   0.686   0.181  0.00  0.00    +0.143 C 
BRANCH  26  29
ATOM     27  O   UNL     1      -6.081   2.051   1.186  0.00  0.00    -0.126 OA
ATOM     28  O   UNL     1      -6.723   0.076   0.473  0.00  0.00    -0.126 OA
ATOM     29  N   UNL     1      -5.837   0.950   0.635  0.00  0.00    +0.058 N 
ENDBRANCH  26  29
ENDBRANCH  20  21
ENDBRANCH  18  20
ENDBRANCH   1  18
TORSDOF 7
