REMARK  Name = 137347863
REMARK  12 active torsions:
REMARK  status: ('A' for Active; 'I' for Inactive)
REMARK    1  A    between atoms: C_1  and  N_3
REMARK    2  A    between atoms: C_1  and  C_23
REMARK    3  A    between atoms: C_4  and  N_9
REMARK    4  A    between atoms: N_9  and  S_11
REMARK    5  A    between atoms: S_11  and  C_14
REMARK    6  A    between atoms: C_14  and  C_15
REMARK    7  A    between atoms: N_22  and  CA_25
REMARK    8  A    between atoms: CA_25  and  C_27
REMARK    9  A    between atoms: CA_25  and  CB_28
REMARK   10  A    between atoms: CB_28  and  CG_29
REMARK   11  A    between atoms: CG_29  and  CD_30
REMARK   12  A    between atoms: CD_30  and  NE_31
REMARK                            x       y       z     vdW  Elec       q    Type
REMARK                         _______ _______ _______ _____ _____    ______ ____
ROOT
ATOM      1  C   UNL     1       3.631   2.144  -0.700  0.00  0.00    +0.179 C 
ENDROOT
BRANCH   1   3
ATOM      2  O   UNL     1       1.134   1.370  -1.738  0.00  0.00    -0.273 OA
ATOM      3  N   UNL     1       2.351   2.689  -0.268  0.00  0.00    -0.270 N 
ATOM      4  C   UNL     1      -0.133   2.822  -0.341  0.00  0.00    +0.151 C 
ATOM      5  C   UNL     1      -0.036   4.110   0.458  0.00  0.00    +0.028 C 
ATOM      6  C   UNL     1       1.146   4.077   1.408  0.00  0.00    +0.023 C 
ATOM      7  C   UNL     1       2.415   3.855   0.610  0.00  0.00    +0.094 C 
ATOM      8  C   UNL     1       1.173   2.244  -0.865  0.00  0.00    +0.242 C 
BRANCH   4   9
ATOM      9  N   UNL     1      -0.717   1.746   0.496  0.00  0.00    -0.176 NA
ATOM     10  H   UNL     1      -0.324   0.864   0.167  0.00  0.00    +0.149 HD
BRANCH   9  11
ATOM     11  S   UNL     1      -2.408   1.559   0.529  0.00  0.00    +0.045 S 
ATOM     12  O   UNL     1      -3.054   2.841   0.334  0.00  0.00    -0.157 OA
ATOM     13  O   UNL     1      -2.747   0.722   1.664  0.00  0.00    -0.157 OA
BRANCH  11  14
ATOM     14  C   UNL     1      -2.662   0.589  -0.940  0.00  0.00    +0.195 C 
BRANCH  14  15
ATOM     15  C   UNL     1      -3.995  -0.081  -0.819  0.00  0.00    +0.003 C 
ATOM     16  C   UNL     1      -5.166   0.661  -0.976  0.00  0.00    -0.003 C 
ATOM     17  C   UNL     1      -4.067  -1.448  -0.549  0.00  0.00    -0.003 C 
ATOM     18  C   UNL     1      -6.408   0.037  -0.864  0.00  0.00    -0.000 C 
ATOM     19  C   UNL     1      -5.310  -2.072  -0.436  0.00  0.00    -0.000 C 
ATOM     20  C   UNL     1      -6.480  -1.330  -0.594  0.00  0.00    -0.000 C 
ENDBRANCH  14  15
ENDBRANCH  11  14
ENDBRANCH   9  11
ENDBRANCH   4   9
ENDBRANCH   1   3
BRANCH   1  23
ATOM     21  O   UNL     1       4.171   0.999   1.357  0.00  0.00    -0.273 OA
ATOM     22  N   UNL     1       4.100  -0.207  -0.628  0.00  0.00    -0.298 N 
ATOM     23  C   ACE A   0       3.979   0.938   0.145  0.00  0.00    +0.243 C 
ATOM     24  H   UNL     1       3.923  -0.141  -1.594  0.00  0.00    +0.150 HD
BRANCH  22  25
ATOM     25  CA  UNL     1       4.474  -1.494  -0.086  0.00  0.00    +0.137 C 
BRANCH  25  27
ATOM     26  O   UNL     1       5.909  -3.261  -0.900  0.00  0.00    -0.286 OA
ATOM     27  C   UNL     1       5.335  -2.196  -1.114  0.00  0.00    +0.227 C 
ENDBRANCH  25  27
BRANCH  25  28
ATOM     28  CB  UNL     1       3.265  -2.318   0.361  0.00  0.00    +0.030 C 
BRANCH  28  29
ATOM     29  CG  UNL     1       2.277  -2.644  -0.768  0.00  0.00    +0.026 C 
BRANCH  29  30
ATOM     30  CD  UNL     1       1.071  -3.431  -0.265  0.00  0.00    +0.100 C 
BRANCH  30  31
ATOM     31  NE  UNL     1       0.336  -2.705   0.769  0.00  0.00    -0.347 N 
ATOM     32  NH1 UNL     1      -1.277  -4.475   0.987  0.00  0.00    -0.372 N 
ATOM     33  NH2 UNL     1      -1.497  -2.519   2.358  0.00  0.00    -0.372 N 
ATOM     34  CZ  UNL     1      -0.810  -3.223   1.375  0.00  0.00    +0.167 C 
ATOM     35  HE  UNL     1       0.661  -1.819   1.048  0.00  0.00    +0.163 HD
ATOM     36 HH11 UNL     1      -0.800  -4.984   0.292  0.00  0.00    +0.159 HD
ATOM     37 HH12 UNL     1      -2.084  -4.851   1.406  0.00  0.00    +0.159 HD
ATOM     38 HH21 UNL     1      -1.177  -1.632   2.642  0.00  0.00    +0.159 HD
ATOM     39 HH22 UNL     1      -2.302  -2.907   2.769  0.00  0.00    +0.159 HD
ENDBRANCH  30  31
ENDBRANCH  29  30
ENDBRANCH  28  29
ENDBRANCH  25  28
ENDBRANCH  22  25
ENDBRANCH   1  23
TORSDOF 12
