137346
  -OEChem-03292013323D

 45 47  0     0  0  0  0  0  0999 V2000
   -3.5143    0.9908    0.2891 S   0  0  0  0  0  0  0  0  0  0  0  0
    3.0407    0.1254   -0.1355 N   0  0  0  0  0  0  0  0  0  0  0  0
    5.3260   -0.8631    0.0275 N   0  0  0  0  0  0  0  0  0  0  0  0
    4.9499    1.4348    0.4115 N   0  0  0  0  0  0  0  0  0  0  0  0
    2.8764    2.4522    0.2496 N   0  0  0  0  0  0  0  0  0  0  0  0
    7.0790    0.4855    0.6825 N   0  0  0  0  0  0  0  0  0  0  0  0
    3.9083   -1.0584   -0.3297 C   0  0  0  0  0  0  0  0  0  0  0  0
    3.4447   -2.2442    0.5383 C   0  0  0  0  0  0  0  0  0  0  0  0
    3.9237   -1.4794   -1.8096 C   0  0  0  0  0  0  0  0  0  0  0  0
    1.6404   -0.0370   -0.1437 C   0  0  0  0  0  0  0  0  0  0  0  0
    3.6654    1.3254    0.1882 C   0  0  0  0  0  0  0  0  0  0  0  0
    0.9587   -0.4494    1.0138 C   0  0  0  0  0  0  0  0  0  0  0  0
    0.8958    0.2106   -1.3095 C   0  0  0  0  0  0  0  0  0  0  0  0
    5.7538    0.3154    0.3596 C   0  0  0  0  0  0  0  0  0  0  0  0
   -1.1510   -0.3602   -0.1596 C   0  0  0  0  0  0  0  0  0  0  0  0
   -0.4268   -0.6099    1.0059 C   0  0  0  0  0  0  0  0  0  0  0  0
   -0.4898    0.0502   -1.3173 C   0  0  0  0  0  0  0  0  0  0  0  0
   -2.6323   -0.5326   -0.1684 C   0  0  0  0  0  0  0  0  0  0  0  0
   -5.2180    0.4560    0.1832 C   0  0  0  0  0  0  0  0  0  0  0  0
   -5.6654   -0.5891    0.9861 C   0  0  0  0  0  0  0  0  0  0  0  0
   -6.0870    1.0881   -0.7011 C   0  0  0  0  0  0  0  0  0  0  0  0
   -6.9938   -1.0061    0.9037 C   0  0  0  0  0  0  0  0  0  0  0  0
   -7.4155    0.6710   -0.7834 C   0  0  0  0  0  0  0  0  0  0  0  0
   -7.8688   -0.3761    0.0190 C   0  0  0  0  0  0  0  0  0  0  0  0
    2.4590   -2.6204    0.2464 H   0  0  0  0  0  0  0  0  0  0  0  0
    3.4225   -1.9746    1.6002 H   0  0  0  0  0  0  0  0  0  0  0  0
    4.1405   -3.0877    0.4442 H   0  0  0  0  0  0  0  0  0  0  0  0
    2.9306   -1.7854   -2.1550 H   0  0  0  0  0  0  0  0  0  0  0  0
    4.2568   -0.6517   -2.4467 H   0  0  0  0  0  0  0  0  0  0  0  0
    4.6070   -2.3198   -1.9789 H   0  0  0  0  0  0  0  0  0  0  0  0
    1.5006   -0.6284    1.9393 H   0  0  0  0  0  0  0  0  0  0  0  0
    1.3972    0.5329   -2.2192 H   0  0  0  0  0  0  0  0  0  0  0  0
   -0.9303   -0.9248    1.9162 H   0  0  0  0  0  0  0  0  0  0  0  0
   -1.0424    0.2492   -2.2318 H   0  0  0  0  0  0  0  0  0  0  0  0
   -2.9672   -0.8508   -1.1630 H   0  0  0  0  0  0  0  0  0  0  0  0
   -2.9079   -1.3401    0.5195 H   0  0  0  0  0  0  0  0  0  0  0  0
    3.2844    3.3535    0.4745 H   0  0  0  0  0  0  0  0  0  0  0  0
    1.8788    2.4377    0.0737 H   0  0  0  0  0  0  0  0  0  0  0  0
    7.7283   -0.2933    0.6654 H   0  0  0  0  0  0  0  0  0  0  0  0
    7.4436    1.3945    0.9454 H   0  0  0  0  0  0  0  0  0  0  0  0
   -5.0044   -1.0880    1.6899 H   0  0  0  0  0  0  0  0  0  0  0  0
   -5.7508    1.9054   -1.3340 H   0  0  0  0  0  0  0  0  0  0  0  0
   -7.3476   -1.8198    1.5300 H   0  0  0  0  0  0  0  0  0  0  0  0
   -8.0972    1.1614   -1.4722 H   0  0  0  0  0  0  0  0  0  0  0  0
   -8.9034   -0.7004   -0.0447 H   0  0  0  0  0  0  0  0  0  0  0  0
  1 18  1  0  0  0  0
  1 19  1  0  0  0  0
  2  7  1  0  0  0  0
  2 10  1  0  0  0  0
  2 11  1  0  0  0  0
  3  7  1  0  0  0  0
  3 14  2  0  0  0  0
  4 11  2  0  0  0  0
  4 14  1  0  0  0  0
  5 11  1  0  0  0  0
  5 37  1  0  0  0  0
  5 38  1  0  0  0  0
  6 14  1  0  0  0  0
  6 39  1  0  0  0  0
  6 40  1  0  0  0  0
  7  8  1  0  0  0  0
  7  9  1  0  0  0  0
  8 25  1  0  0  0  0
  8 26  1  0  0  0  0
  8 27  1  0  0  0  0
  9 28  1  0  0  0  0
  9 29  1  0  0  0  0
  9 30  1  0  0  0  0
 10 12  2  0  0  0  0
 10 13  1  0  0  0  0
 12 16  1  0  0  0  0
 12 31  1  0  0  0  0
 13 17  2  0  0  0  0
 13 32  1  0  0  0  0
 15 16  2  0  0  0  0
 15 17  1  0  0  0  0
 15 18  1  0  0  0  0
 16 33  1  0  0  0  0
 17 34  1  0  0  0  0
 18 35  1  0  0  0  0
 18 36  1  0  0  0  0
 19 20  2  0  0  0  0
 19 21  1  0  0  0  0
 20 22  1  0  0  0  0
 20 41  1  0  0  0  0
 21 23  2  0  0  0  0
 21 42  1  0  0  0  0
 22 24  2  0  0  0  0
 22 43  1  0  0  0  0
 23 24  1  0  0  0  0
 23 44  1  0  0  0  0
 24 45  1  0  0  0  0
M  END
> <PUBCHEM_COMPOUND_CID>
137346

> <PUBCHEM_CONFORMER_RMSD>
0.8

> <PUBCHEM_CONFORMER_DIVERSEORDER>
1
10
7
12
13
8
9
3
5
4
2
15
14
11
16
6

> <PUBCHEM_MMFF94_PARTIAL_CHARGES>
35
1 -0.33
10 0.1
11 0.55
12 -0.15
13 -0.15
14 0.71
15 -0.14
16 -0.15
17 -0.15
18 0.37
19 0.1
2 -0.52
20 -0.15
21 -0.15
22 -0.15
23 -0.15
24 -0.15
3 -0.7
31 0.15
32 0.15
33 0.15
34 0.15
37 0.4
38 0.4
39 0.4
4 -0.66
40 0.4
41 0.15
42 0.15
43 0.15
44 0.15
45 0.15
5 -0.85
6 -0.85
7 0.62

> <PUBCHEM_EFFECTIVE_ROTOR_COUNT>
4.4

> <PUBCHEM_PHARMACOPHORE_FEATURES>
8
1 5 donor
1 6 donor
3 7 8 9 hydrophobe
4 2 4 5 11 cation
4 3 4 6 14 cation
6 10 12 13 15 16 17 rings
6 19 20 21 22 23 24 rings
6 2 3 4 7 11 14 rings

> <PUBCHEM_HEAVY_ATOM_COUNT>
24

> <PUBCHEM_ATOM_DEF_STEREO_COUNT>
0

> <PUBCHEM_ATOM_UDEF_STEREO_COUNT>
0

> <PUBCHEM_BOND_DEF_STEREO_COUNT>
0

> <PUBCHEM_BOND_UDEF_STEREO_COUNT>
0

> <PUBCHEM_ISOTOPIC_ATOM_COUNT>
0

> <PUBCHEM_COMPONENT_COUNT>
1

> <PUBCHEM_CACTVS_TAUTO_COUNT>
5

> <PUBCHEM_CONFORMER_ID>
0002188200000001

> <PUBCHEM_MMFF94_ENERGY>
94.9192

> <PUBCHEM_FEATURE_SELFOVERLAP>
40.633

> <PUBCHEM_SHAPE_FINGERPRINT>
10 15 18261109707382313592
10162869 55 18201707501286785773
10299344 5 16128656354107666229
11315181 36 18343021087260684553
11719270 70 16443060591241440675
11724838 91 17988921192994698685
12166972 35 18333456447910565709
12236239 1 17346594193173104550
12516196 113 17675925391833950765
12730499 353 18335421257698003482
12916748 109 18342179942577712617
13073987 5 18339079276647749041
13533116 47 18340206297541549546
13835254 42 17060066874444146928
14170010 4 18342455954751843712
14251764 18 16845852391010468303
14933364 13 18407760335566067265
15183329 4 14979955866039406053
15419008 47 18040991839579842389
15849732 13 18333732425138720503
17844677 252 18411143507075125137
18222031 100 16588030108373220021
18681886 176 17967814985785424761
19377110 9 16702030747075412611
19489759 90 17458346339028388681
20157964 124 18201721756035229924
21150785 3 15195283148700512371
21267235 1 18272093756436388326
220451 1 15410891843158791367
22224240 67 17168141260576367712
23081809 10 16415484818437308907
23522609 53 16199610085631734217
23536379 177 18343302552835038203
23559900 14 18040997371855746001
23569943 247 17533774892997364435
249057 3 18202283628157698950
3411729 13 16299528256150683764
34797466 226 18202287995775429007
3545911 37 18272088309769192336
397830 11 18191029108829710057
4073 2 17968662734276965379
4325135 7 17561082510477749573
4340502 62 18342176678645628614
59755656 215 17894631427084153659
59755656 520 17603861243655239627

> <PUBCHEM_SHAPE_MULTIPOLES>
472.85
21
1.59
1.17
24.33
0.13
0.32
0.78
-1.71
-1.64
-0.13
-0.18
-0.22
1.39

> <PUBCHEM_SHAPE_SELFOVERLAP>
997.903

> <PUBCHEM_SHAPE_VOLUME>
266.4

> <PUBCHEM_COORDINATE_TYPE>
2
5
10

$$$$
