REMARK  Name = 13730
REMARK  4 active torsions:
REMARK  status: ('A' for Active; 'I' for Inactive)
REMARK    1  A    between atoms: N9_1  and  C1*_11
REMARK    2  A    between atoms: C3*_12  and  O3*_15
REMARK    3  A    between atoms: C4*_14  and  C5*_17
REMARK    4  A    between atoms: C5*_17  and  O5*_18
REMARK                            x       y       z     vdW  Elec       q    Type
REMARK                         _______ _______ _______ _____ _____    ______ ____
ROOT
ATOM      1  N9  A   A   1       0.180  -0.040   0.148  0.00  0.00    -0.249 N 
ATOM      2  N7  A   A   1       1.436  -1.655  -0.745  0.00  0.00    -0.242 NA
ATOM      3  N3  A   A   1       1.925   1.496   0.855  0.00  0.00    -0.228 NA
ATOM      4  N1  A   A   1       4.142   0.638   0.304  0.00  0.00    -0.229 NA
ATOM      5  C4  A   A   1       1.479   0.363   0.292  0.00  0.00    +0.152 C 
ATOM      6  C8  A   A   1       0.208  -1.259  -0.481  0.00  0.00    +0.223 C 
ATOM      7  C5  A   A   1       2.240  -0.651  -0.268  0.00  0.00    +0.140 C 
ATOM      8  C6  A   A   1       3.621  -0.484  -0.249  0.00  0.00    +0.143 C 
ATOM      9  C2  A   A   1       3.274   1.545   0.815  0.00  0.00    +0.253 C 
ATOM     10  N6  A   A   1       4.470  -1.462  -0.796  0.00  0.00    -0.342 N 
ATOM     11  H61 A   A   1       5.446  -1.333  -0.777  0.00  0.00    +0.144 HD
ATOM     12  H62 A   A   1       4.089  -2.275  -1.198  0.00  0.00    +0.144 HD
ENDROOT
BRANCH   1  14
ATOM     13  O4* A   A   1      -2.031  -0.263   0.972  0.00  0.00    -0.335 OA
ATOM     14  C1* A   A   1      -1.019   0.682   0.578  0.00  0.00    +0.197 C 
ATOM     15  C3* A   A   1      -2.808   0.782  -0.989  0.00  0.00    +0.144 C 
ATOM     16  C2* A   A   1      -1.618   1.578  -0.500  0.00  0.00    +0.083 C 
ATOM     17  C4* A   A   1      -3.245   0.069   0.280  0.00  0.00    +0.173 C 
BRANCH  15  18
ATOM     18  O3* A   A   1      -3.815   1.628  -1.505  0.00  0.00    -0.382 OA
ATOM     19  H3* A   A   1      -3.492   2.060  -2.311  0.00  0.00    +0.210 HD
ENDBRANCH  15  18
BRANCH  17  20
ATOM     20  C5* A   A   1      -4.048  -1.193   0.022  0.00  0.00    +0.169 C 
BRANCH  20  21
ATOM     21  O5* A   A   1      -4.391  -1.775   1.268  0.00  0.00    -0.379 OA
ATOM     22  H5* A   A   1      -4.905  -2.583   1.116  0.00  0.00    +0.211 HD
ENDBRANCH  20  21
ENDBRANCH  17  20
ENDBRANCH   1  14
TORSDOF 4
