REMARK  Name = 137360
REMARK  6 active torsions:
REMARK  status: ('A' for Active; 'I' for Inactive)
REMARK    1  A    between atoms: C_1  and  O_7
REMARK    2  A    between atoms: C_4  and  C_18
REMARK    3  A    between atoms: O_7  and  C_8
REMARK    4  A    between atoms: C_8  and  C_9
REMARK    5  A    between atoms: C_12  and  O_16
REMARK    6  A    between atoms: C_18  and  C_23
REMARK                            x       y       z     vdW  Elec       q    Type
REMARK                         _______ _______ _______ _____ _____    ______ ____
ROOT
ATOM      1  C   UNL     1      -0.862   1.482   0.199  0.00  0.00    +0.139 C 
ATOM      2  C   UNL     1      -0.410   1.294  -1.100  0.00  0.00    +0.037 C 
ATOM      3  C   UNL     1       0.029   1.565   1.260  0.00  0.00    +0.037 C 
ATOM      4  C   UNL     1       1.863   1.269  -0.284  0.00  0.00    -0.021 C 
ATOM      5  C   UNL     1       0.959   1.187  -1.342  0.00  0.00    -0.001 C 
ATOM      6  C   UNL     1       1.398   1.458   1.018  0.00  0.00    -0.001 C 
ENDROOT
BRANCH   1   7
ATOM      7  O   UNL     1      -2.212   1.588   0.438  0.00  0.00    -0.475 OA
BRANCH   7   8
ATOM      8  C   UNL     1      -3.077   0.894  -0.435  0.00  0.00    +0.205 C 
BRANCH   8   9
ATOM      9  C   UNL     1      -4.349   0.524   0.352  0.00  0.00    +0.043 C 
ATOM     10  C   UNL     1      -5.366  -0.191  -0.566  0.00  0.00    +0.033 C 
ATOM     11  C   UNL     1      -4.000  -0.384   1.554  0.00  0.00    +0.004 C 
ATOM     12  C   UNL     1      -4.931  -1.601  -0.973  0.00  0.00    +0.111 C 
ATOM     13  C   UNL     1      -3.572  -1.795   1.148  0.00  0.00    +0.003 C 
ATOM     14  C   UNL     1      -4.606  -2.458   0.247  0.00  0.00    +0.029 C 
ATOM     15  C   UNL     1      -4.978   1.828   0.876  0.00  0.00    +0.004 C 
BRANCH  12  16
ATOM     16  O   UNL     1      -5.984  -2.231  -1.697  0.00  0.00    -0.384 OA
ATOM     17  H   UNL     1      -6.204  -1.698  -2.478  0.00  0.00    +0.210 HD
ENDBRANCH  12  16
ENDBRANCH   8   9
ENDBRANCH   7   8
ENDBRANCH   1   7
BRANCH   4  18
ATOM     18  C   UNL     1       3.327   1.155  -0.543  0.00  0.00    +0.047 C 
BRANCH  18  23
ATOM     19  S   UNL     1       4.093  -0.792   1.258  0.00  0.00    -0.048 S 
ATOM     20  O   UNL     1       5.347  -0.163  -2.338  0.00  0.00    -0.274 OA
ATOM     21  O   UNL     1       6.490  -1.684   1.871  0.00  0.00    -0.263 OA
ATOM     22  N   UNL     1       6.103  -0.973  -0.308  0.00  0.00    -0.246 N 
ATOM     23  C   UNL     1       3.819  -0.289  -0.469  0.00  0.00    +0.137 C 
ATOM     24  C   UNL     1       5.153  -0.454  -1.162  0.00  0.00    +0.239 C 
ATOM     25  C   UNL     1       5.768  -1.229   0.996  0.00  0.00    +0.279 C 
ATOM     26  H   UNL     1       7.014  -1.158  -0.632  0.00  0.00    +0.158 HD
ENDBRANCH  18  23
ENDBRANCH   4  18
TORSDOF 6
