REMARK  Name = 137334
REMARK  6 active torsions:
REMARK  status: ('A' for Active; 'I' for Inactive)
REMARK    1  A    between atoms: C_2  and  C_13
REMARK    2  A    between atoms: C_9  and  O_11
REMARK    3  A    between atoms: C_13  and  CA_14
REMARK    4  A    between atoms: CA_14  and  N_16
REMARK    5  A    between atoms: CA_14  and  C_21
REMARK    6  A    between atoms: C_21  and  O_22
REMARK                            x       y       z     vdW  Elec       q    Type
REMARK                         _______ _______ _______ _____ _____    ______ ____
ROOT
ATOM      1  N   UNL     1      -1.465  -2.428  -0.079  0.00  0.00    -0.312 N 
ATOM      2  C   UNL     1       0.074  -1.094   0.803  0.00  0.00    -0.004 C 
ATOM      3  C   UNL     1      -1.080  -0.312   0.515  0.00  0.00    +0.011 C 
ATOM      4  C   UNL     1      -2.030  -1.173  -0.038  0.00  0.00    +0.051 C 
ATOM      5  C   UNL     1      -0.194  -2.390   0.427  0.00  0.00    +0.058 C 
ATOM      6  C   UNL     1      -1.408   1.049   0.672  0.00  0.00    +0.004 C 
ATOM      7  C   UNL     1      -3.298  -0.739  -0.443  0.00  0.00    +0.051 C 
ATOM      8  C   UNL     1      -2.671   1.498   0.271  0.00  0.00    +0.037 C 
ATOM      9  C   UNL     1      -3.600   0.616  -0.278  0.00  0.00    +0.135 C 
ATOM     10  H   UNL     1      -1.911  -3.235  -0.423  0.00  0.00    +0.152 HD
ENDROOT
BRANCH   9  11
ATOM     11  O   UNL     1      -4.824   1.079  -0.659  0.00  0.00    -0.505 OA
ATOM     12  H   UNL     1      -5.454   0.491  -1.029  0.00  0.00    +0.292 HD
ENDBRANCH   9  11
BRANCH   2  13
ATOM     13  C   UNL     1       1.336  -0.612   1.399  0.00  0.00    +0.059 C 
BRANCH  13  14
ATOM     14  CA  UNL     1       2.381  -0.135   0.364  0.00  0.00    +0.176 C 
BRANCH  14  16
ATOM     15  O   UNL     1       2.686   2.680   1.006  0.00  0.00    -0.275 OA
ATOM     16  N   UNL     1       1.889   0.993  -0.387  0.00  0.00    -0.297 N 
ATOM     17  C   UNL     1       2.085   2.309   0.001  0.00  0.00    +0.223 C 
ATOM     18  C   UNL     1       1.490   3.289  -0.976  0.00  0.00    +0.095 C 
ATOM     19  H   UNL     1       1.389   0.819  -1.217  0.00  0.00    +0.150 HD
ENDBRANCH  14  16
BRANCH  14  21
ATOM     20  OXT UNL     1       3.314  -2.304  -0.161  0.00  0.00    -0.248 OA
ATOM     21  C   UNL     1       2.787  -1.272  -0.562  0.00  0.00    +0.332 C 
BRANCH  21  22
ATOM     22  O   UNL     1       2.528  -1.056  -1.874  0.00  0.00    -0.479 OA
ATOM     23  H   UNL     1       2.124  -0.256  -2.147  0.00  0.00    +0.295 HD
ENDBRANCH  21  22
ENDBRANCH  14  21
ENDBRANCH  13  14
ENDBRANCH   2  13
TORSDOF 6
