REMARK  Name = 137346
REMARK  4 active torsions:
REMARK  status: ('A' for Active; 'I' for Inactive)
REMARK    1  A    between atoms: N_1  and  C_15
REMARK    2  A    between atoms: C_18  and  C_21
REMARK    3  A    between atoms: C_21  and  S_22
REMARK    4  A    between atoms: S_22  and  C_23
REMARK                            x       y       z     vdW  Elec       q    Type
REMARK                         _______ _______ _______ _____ _____    ______ ____
ROOT
ATOM      1  N   UNL     1       3.041   0.125  -0.136  0.00  0.00    -0.234 N 
ATOM      2  N   UNL     1       5.326  -0.863   0.028  0.00  0.00    -0.183 NA
ATOM      3  N   UNL     1       4.950   1.435   0.411  0.00  0.00    -0.307 NA
ATOM      4  N   UNL     1       2.876   2.452   0.250  0.00  0.00    -0.320 N 
ATOM      5  N   UNL     1       7.079   0.485   0.682  0.00  0.00    -0.293 N 
ATOM      6  C   UNL     1       3.908  -1.058  -0.330  0.00  0.00    +0.161 C 
ATOM      7  C   UNL     1       3.445  -2.244   0.538  0.00  0.00    +0.047 C 
ATOM      8  C   UNL     1       3.924  -1.479  -1.810  0.00  0.00    +0.047 C 
ATOM      9  C   UNL     1       3.665   1.325   0.188  0.00  0.00    +0.252 C 
ATOM     10  C   UNL     1       5.754   0.315   0.360  0.00  0.00    +0.141 C 
ATOM     11  H   UNL     1       1.908   2.385   0.084  0.00  0.00    +0.146 HD
ATOM     12  H   UNL     1       3.280   3.325   0.459  0.00  0.00    +0.146 HD
ATOM     13  H   UNL     1       7.694  -0.283   0.660  0.00  0.00    +0.155 HD
ATOM     14  H   UNL     1       7.414   1.376   0.936  0.00  0.00    +0.155 HD
ENDROOT
BRANCH   1  15
ATOM     15  C   UNL     1       1.640  -0.037  -0.144  0.00  0.00    +0.056 C 
ATOM     16  C   UNL     1       0.959  -0.449   1.014  0.00  0.00    +0.015 C 
ATOM     17  C   UNL     1       0.896   0.211  -1.310  0.00  0.00    +0.015 C 
ATOM     18  C   UNL     1      -1.151  -0.360  -0.160  0.00  0.00    -0.011 C 
ATOM     19  C   UNL     1      -0.427  -0.610   1.006  0.00  0.00    -0.002 C 
ATOM     20  C   UNL     1      -0.490   0.050  -1.317  0.00  0.00    -0.002 C 
BRANCH  18  21
ATOM     21  C   UNL     1      -2.632  -0.533  -0.168  0.00  0.00    +0.088 C 
BRANCH  21  22
ATOM     22  S   UNL     1      -3.514   0.991   0.289  0.00  0.00    -0.109 S 
BRANCH  22  23
ATOM     23  C   UNL     1      -5.218   0.456   0.183  0.00  0.00    +0.026 C 
ATOM     24  C   UNL     1      -5.665  -0.589   0.986  0.00  0.00    +0.006 C 
ATOM     25  C   UNL     1      -6.087   1.088  -0.701  0.00  0.00    +0.006 C 
ATOM     26  C   UNL     1      -6.994  -1.006   0.904  0.00  0.00    +0.001 C 
ATOM     27  C   UNL     1      -7.415   0.671  -0.783  0.00  0.00    +0.001 C 
ATOM     28  C   UNL     1      -7.869  -0.376   0.019  0.00  0.00    +0.000 C 
ENDBRANCH  22  23
ENDBRANCH  21  22
ENDBRANCH  18  21
ENDBRANCH   1  15
TORSDOF 4
