REMARK  Name = 137321290
REMARK  4 active torsions:
REMARK  status: ('A' for Active; 'I' for Inactive)
REMARK    1  A    between atoms: C_3  and  C_10
REMARK    2  A    between atoms: C_6  and  C_21
REMARK    3  A    between atoms: N_15  and  C_16
REMARK    4  A    between atoms: N_15  and  N_17
REMARK                            x       y       z     vdW  Elec       q    Type
REMARK                         _______ _______ _______ _____ _____    ______ ____
ROOT
ATOM      1  O   UNL     1       3.810  -1.061  -0.002  0.00  0.00    -0.269 OA
ATOM      2  N   UNL     1       1.549  -1.484  -0.001  0.00  0.00    -0.282 N 
ATOM      3  C   UNL     1      -0.046   0.270  -0.001  0.00  0.00    +0.082 C 
ATOM      4  C   UNL     1       0.243  -1.048   0.000  0.00  0.00    +0.053 C 
ATOM      5  C   UNL     1       1.069   1.211   0.000  0.00  0.00    -0.001 C 
ATOM      6  C   UNL     1       2.352   0.817   0.000  0.00  0.00    +0.118 C 
ATOM      7  C   UNL     1       2.652  -0.648  -0.001  0.00  0.00    +0.259 C 
ATOM      8  H   UNL     1       1.709  -2.455  -0.001  0.00  0.00    +0.155 HD
ATOM      9  C   UNL     1      -0.788  -2.096   0.000  0.00  0.00    +0.110 C 
ENDROOT
BRANCH   3  11
ATOM     10  N   UNL     1      -4.067   1.664   0.000  0.00  0.00    -0.242 NA
ATOM     11  C   UNL     1      -1.426   0.748   0.000  0.00  0.00    -0.010 C 
ATOM     12  C   UNL     1      -2.086   0.978  -1.203  0.00  0.00    +0.017 C 
ATOM     13  C   UNL     1      -2.086   0.976   1.202  0.00  0.00    +0.017 C 
ATOM     14  C   UNL     1      -3.394   1.431  -1.149  0.00  0.00    +0.099 C 
ATOM     15  C   UNL     1      -3.394   1.430   1.149  0.00  0.00    +0.099 C 
ENDBRANCH   3  11
BRANCH   6  17
ATOM     16  N   UNL     1       4.273   2.541   0.002  0.00  0.00    -0.191 NA
ATOM     17  C   UNL     1       3.409   1.766   0.001  0.00  0.00    +0.105 C 
ENDBRANCH   6  17
BRANCH   9  18
ATOM     18  N   UNL     1      -0.491  -3.353   0.003  0.00  0.00    -0.169 NA
BRANCH  18  19
ATOM     19  N   UNL     1      -1.581  -4.143   0.000  0.00  0.00    -0.235 NA
ATOM     20  H   UNL     1      -1.479  -5.123   0.002  0.00  0.00    +0.142 HD
ATOM     21  H   UNL     1      -2.480  -3.742  -0.004  0.00  0.00    +0.142 HD
ENDBRANCH  18  19
ENDBRANCH   9  18
TORSDOF 4
