137366
  -OEChem-03292013323D

 35 36  0     1  0  0  0  0  0999 V2000
   -1.0287   -3.4691   -0.6776 O   0  0  0  0  0  0  0  0  0  0  0  0
    0.5135    1.3888    1.1824 O   0  0  0  0  0  0  0  0  0  0  0  0
   -2.2915    3.2874   -0.1768 O   0  0  0  0  0  0  0  0  0  0  0  0
   -1.7705    1.6463   -1.6706 O   0  0  0  0  0  0  0  0  0  0  0  0
    5.3540    0.9754   -1.2928 O   0  0  0  0  0  0  0  0  0  0  0  0
    5.2818    0.1656    0.8281 O   0  0  0  0  0  0  0  0  0  0  0  0
   -1.2275    0.0034    0.4612 N   0  0  0  0  0  0  0  0  0  0  0  0
   -2.2046    1.0831    0.6455 C   0  0  2  0  0  0  0  0  0  0  0  0
   -3.6567    0.6430    0.7813 C   0  0  0  0  0  0  0  0  0  0  0  0
   -4.0091   -0.3697   -0.2931 C   0  0  0  0  0  0  0  0  0  0  0  0
   -3.0904   -1.5751   -0.1782 C   0  0  0  0  0  0  0  0  0  0  0  0
   -1.6229   -1.2571   -0.0033 C   0  0  0  0  0  0  0  0  0  0  0  0
    0.1223    0.3057    0.7435 C   0  0  0  0  0  0  0  0  0  0  0  0
   -0.6953   -2.2035   -0.2414 C   0  0  0  0  0  0  0  0  0  0  0  0
    1.1282   -0.7695    0.4598 C   0  0  0  0  0  0  0  0  0  0  0  0
   -2.0596    2.0016   -0.5377 C   0  0  0  0  0  0  0  0  0  0  0  0
    0.7022   -1.9451   -0.0188 C   0  0  0  0  0  0  0  0  0  0  0  0
    2.5701   -0.4631    0.7179 C   0  0  0  0  0  0  0  0  0  0  0  0
    3.2610    0.1427   -0.4952 C   0  0  0  0  0  0  0  0  0  0  0  0
    4.7239    0.4094   -0.2342 C   0  0  0  0  0  0  0  0  0  0  0  0
   -1.9148    1.6423    1.5446 H   0  0  0  0  0  0  0  0  0  0  0  0
   -4.3343    1.5023    0.7171 H   0  0  0  0  0  0  0  0  0  0  0  0
   -3.8078    0.1881    1.7685 H   0  0  0  0  0  0  0  0  0  0  0  0
   -3.9263    0.0768   -1.2906 H   0  0  0  0  0  0  0  0  0  0  0  0
   -5.0518   -0.6882   -0.1787 H   0  0  0  0  0  0  0  0  0  0  0  0
   -3.2592   -2.1785   -1.0781 H   0  0  0  0  0  0  0  0  0  0  0  0
   -3.4122   -2.1756    0.6831 H   0  0  0  0  0  0  0  0  0  0  0  0
    1.4055   -2.7420   -0.2406 H   0  0  0  0  0  0  0  0  0  0  0  0
    3.0897   -1.3884    1.0035 H   0  0  0  0  0  0  0  0  0  0  0  0
    2.6749    0.1953    1.5894 H   0  0  0  0  0  0  0  0  0  0  0  0
    3.1927   -0.5384   -1.3513 H   0  0  0  0  0  0  0  0  0  0  0  0
    2.7872    1.0941   -0.7628 H   0  0  0  0  0  0  0  0  0  0  0  0
   -1.9865   -3.6076   -0.6314 H   0  0  0  0  0  0  0  0  0  0  0  0
   -2.2009    3.9027   -0.9354 H   0  0  0  0  0  0  0  0  0  0  0  0
    6.2998    1.1540   -1.1035 H   0  0  0  0  0  0  0  0  0  0  0  0
  1 14  1  0  0  0  0
  1 33  1  0  0  0  0
  2 13  2  0  0  0  0
  3 16  1  0  0  0  0
  3 34  1  0  0  0  0
  4 16  2  0  0  0  0
  5 20  1  0  0  0  0
  5 35  1  0  0  0  0
  6 20  2  0  0  0  0
  7  8  1  0  0  0  0
  7 12  1  0  0  0  0
  7 13  1  0  0  0  0
  8  9  1  0  0  0  0
  8 16  1  0  0  0  0
  8 21  1  0  0  0  0
  9 10  1  0  0  0  0
  9 22  1  0  0  0  0
  9 23  1  0  0  0  0
 10 11  1  0  0  0  0
 10 24  1  0  0  0  0
 10 25  1  0  0  0  0
 11 12  1  0  0  0  0
 11 26  1  0  0  0  0
 11 27  1  0  0  0  0
 12 14  2  0  0  0  0
 13 15  1  0  0  0  0
 14 17  1  0  0  0  0
 15 17  2  0  0  0  0
 15 18  1  0  0  0  0
 17 28  1  0  0  0  0
 18 19  1  0  0  0  0
 18 29  1  0  0  0  0
 18 30  1  0  0  0  0
 19 20  1  0  0  0  0
 19 31  1  0  0  0  0
 19 32  1  0  0  0  0
M  END
> <PUBCHEM_COMPOUND_CID>
137366

> <PUBCHEM_CONFORMER_RMSD>
0.6

> <PUBCHEM_CONFORMER_DIVERSEORDER>
2
15
23
8
13
21
22
18
12
17
19
3
20
1
16
7
9
5
14
4
6
11
10

> <PUBCHEM_MMFF94_PARTIAL_CHARGES>
22
1 -0.53
11 0.14
12 -0.03
13 0.62
14 0.08
15 -0.12
16 0.66
17 -0.15
18 0.14
19 0.06
2 -0.57
20 0.66
28 0.15
3 -0.65
33 0.45
34 0.5
35 0.5
4 -0.57
5 -0.65
6 -0.57
7 -0.47
8 0.36

> <PUBCHEM_EFFECTIVE_ROTOR_COUNT>
4.8

> <PUBCHEM_PHARMACOPHORE_FEATURES>
10
1 1 donor
1 2 acceptor
1 3 acceptor
1 4 acceptor
1 5 acceptor
1 6 acceptor
3 3 4 16 anion
3 5 6 20 anion
6 7 12 13 14 15 17 rings
6 7 8 9 10 11 12 rings

> <PUBCHEM_HEAVY_ATOM_COUNT>
20

> <PUBCHEM_ATOM_DEF_STEREO_COUNT>
0

> <PUBCHEM_ATOM_UDEF_STEREO_COUNT>
1

> <PUBCHEM_BOND_DEF_STEREO_COUNT>
0

> <PUBCHEM_BOND_UDEF_STEREO_COUNT>
0

> <PUBCHEM_ISOTOPIC_ATOM_COUNT>
0

> <PUBCHEM_COMPONENT_COUNT>
1

> <PUBCHEM_CACTVS_TAUTO_COUNT>
5

> <PUBCHEM_CONFORMER_ID>
0002189600000002

> <PUBCHEM_MMFF94_ENERGY>
37.4658

> <PUBCHEM_FEATURE_SELFOVERLAP>
50.883

> <PUBCHEM_SHAPE_FINGERPRINT>
10411042 1 17764023962219844471
10759866 29 18187922837930949706
12011746 2 18342170086091940223
12173636 292 18340764836647687676
12236239 1 18113893897397026250
12390115 104 18128551383189727401
12403814 3 18187366523601520329
13140716 1 18124594442710008419
13583140 156 16953095305955800987
14142880 1 18041558023400628381
14251751 93 18334852792974594172
14508225 48 17911222129565442943
14614273 12 18337107848568681639
14790565 3 18342188738866667713
15042514 8 18337956817147679075
15463212 79 18261667177622324570
16945 1 18341322302555528467
18186145 218 18060695079142622024
18785283 64 17473834918272676265
20645477 56 18342460361403925322
20645477 70 16486987172309748926
20871999 31 18272934942296527716
21029758 27 18191592050098627627
21160774 45 18339912784309305599
21501502 16 18122053213998557739
21524375 3 18335140873569016178
22907989 373 18262782013339770717
23114952 82 17914063001128425998
23227448 37 18268148837159128972
2334 1 17692517228128797827
23366157 5 18044096744157119650
23402539 116 18270674380786950023
23557571 272 18059308633803351084
23559900 14 18060422413855822706
2748010 2 18127125273780115475
350125 39 18412827993095752825
4175511 318 18412826893446585022
458136 41 18127705828735814091
474 4 17240771748044734972
559249 180 18263918857477703346
58051976 378 18412823551608561964
81228 2 17981585371995593067
9925002 15 18119819254998855749

> <PUBCHEM_SHAPE_MULTIPOLES>
371.39
8.39
2.79
1.04
12.44
0.42
0.13
-2.68
0.95
-2.47
0.71
0.22
-0.34
-0.3

> <PUBCHEM_SHAPE_SELFOVERLAP>
785.881

> <PUBCHEM_SHAPE_VOLUME>
204.1

> <PUBCHEM_COORDINATE_TYPE>
2
5
10

$$$$
