REMARK  Name = 137306
REMARK  6 active torsions:
REMARK  status: ('A' for Active; 'I' for Inactive)
REMARK    1  A    between atoms: C_1  and  O_16
REMARK    2  A    between atoms: C_2  and  N_8
REMARK    3  A    between atoms: C_9  and  C_11
REMARK    4  A    between atoms: C_11  and  N_12
REMARK    5  A    between atoms: O_16  and  C_17
REMARK    6  A    between atoms: C_17  and  C_23
REMARK                            x       y       z     vdW  Elec       q    Type
REMARK                         _______ _______ _______ _____ _____    ______ ____
ROOT
ATOM      1  C   UNL     1      -0.031  -0.561  -0.450  0.00  0.00    +0.139 C 
ATOM      2  C   UNL     1       2.710  -0.791  -0.122  0.00  0.00    +0.050 C 
ATOM      3  C   UNL     1       0.612  -1.757  -0.768  0.00  0.00    +0.038 C 
ATOM      4  C   UNL     1       0.707   0.520   0.034  0.00  0.00    +0.038 C 
ATOM      5  C   UNL     1       1.992  -1.873  -0.603  0.00  0.00    +0.018 C 
ATOM      6  C   UNL     1       2.087   0.404   0.199  0.00  0.00    +0.018 C 
ENDROOT
BRANCH   2   8
ATOM      7  O   UNL     1       4.723   1.206   0.862  0.00  0.00    -0.277 OA
ATOM      8  N   UNL     1       4.110  -0.908   0.045  0.00  0.00    -0.286 N 
ATOM      9  C   UNL     1       4.995   0.062   0.512  0.00  0.00    +0.205 C 
ATOM     10  H   UNL     1       4.506  -1.777  -0.196  0.00  0.00    +0.155 HD
BRANCH   9  11
ATOM     11  C   UNL     1       6.411  -0.485   0.533  0.00  0.00    +0.010 C 
BRANCH  11  12
ATOM     12  N   UNL     1       7.358   0.606   0.308  0.00  0.00    +0.390 N 
ATOM     13  C   UNL     1       8.733   0.114   0.383  0.00  0.00    -0.100 C 
ATOM     14  C   UNL     1       7.111   1.238  -0.987  0.00  0.00    -0.100 C 
ATOM     15  H   UNL     1       7.225   1.305   1.039  0.00  0.00    -0.079 HD
ENDBRANCH  11  12
ENDBRANCH   9  11
ENDBRANCH   2   8
BRANCH   1  16
ATOM     16  O   UNL     1      -1.378  -0.448  -0.609  0.00  0.00    -0.469 OA
BRANCH  16  17
ATOM     17  C   UNL     1      -1.970   0.803  -0.265  0.00  0.00    +0.248 C 
BRANCH  17  23
ATOM     18  O   UNL     1      -7.094  -1.337   0.516  0.00  0.00    -0.123 OA
ATOM     19  O   UNL     1      -7.389   0.739   1.180  0.00  0.00    -0.123 OA
ATOM     20  N   UNL     1      -4.301   0.245   0.454  0.00  0.00    -0.251 N 
ATOM     21  N   UNL     1      -5.514   0.653  -1.361  0.00  0.00    -0.207 NA
ATOM     22  N   UNL     1      -6.720  -0.130   0.552  0.00  0.00    +0.091 N 
ATOM     23  C   UNL     1      -3.442   0.671  -0.501  0.00  0.00    +0.095 C 
ATOM     24  C   UNL     1      -5.546   0.249  -0.111  0.00  0.00    +0.284 C 
ATOM     25  C   UNL     1      -4.191   0.919  -1.609  0.00  0.00    +0.116 C 
ATOM     26  C   UNL     1      -3.973  -0.141   1.808  0.00  0.00    +0.120 C 
ENDBRANCH  17  23
ENDBRANCH  16  17
ENDBRANCH   1  16
TORSDOF 6
