REMARK  Name = 137306479
REMARK  3 active torsions:
REMARK  status: ('A' for Active; 'I' for Inactive)
REMARK    1  A    between atoms: C_10  and  O_21
REMARK    2  A    between atoms: C_12  and  C_23
REMARK    3  A    between atoms: C_23  and  O_24
REMARK                            x       y       z     vdW  Elec       q    Type
REMARK                         _______ _______ _______ _____ _____    ______ ____
ROOT
ATOM      1  O   UNL     1      -1.915  -0.984   0.379  0.00  0.00    -0.335 OA
ATOM      2  O   UNL     1       4.454   1.405   0.145  0.00  0.00    -0.267 OA
ATOM      3  N   UNL     1       0.095   0.393  -0.072  0.00  0.00    -0.216 N 
ATOM      4  N   UNL     1       1.561   2.071   0.056  0.00  0.00    -0.382 NA
ATOM      5  N   UNL     1       1.528  -1.544  -0.141  0.00  0.00    -0.355 NA
ATOM      6  N   UNL     1       3.814  -0.835  -0.009  0.00  0.00    -0.242 N 
ATOM      7  N   UNL     1       3.270  -3.120  -0.169  0.00  0.00    -0.321 N 
ATOM      8  C   UNL     1      -1.900   1.315   0.477  0.00  0.00    +0.085 C 
ATOM      9  C   UNL     1      -1.306   0.116  -0.265  0.00  0.00    +0.202 C 
ATOM     10  C   UNL     1      -3.354   1.000   0.283  0.00  0.00    +0.145 C 
ATOM     11  C   UNL     1      -1.034   2.480  -0.021  0.00  0.00    +0.082 C 
ATOM     12  C   UNL     1      -3.303  -0.535   0.593  0.00  0.00    +0.173 C 
ATOM     13  C   UNL     1       0.289   1.763  -0.024  0.00  0.00    +0.168 C 
ATOM     14  C   UNL     1       1.282  -0.219  -0.067  0.00  0.00    +0.228 C 
ATOM     15  C   UNL     1       2.176   0.836   0.025  0.00  0.00    +0.230 C 
ATOM     16  C   UNL     1       3.585   0.546   0.063  0.00  0.00    +0.286 C 
ATOM     17  C   UNL     1       2.811  -1.830  -0.108  0.00  0.00    +0.240 C 
ATOM     18  H   UNL     1       4.750  -1.139   0.011  0.00  0.00    +0.159 HD
ATOM     19  H   UNL     1       2.632  -3.866  -0.239  0.00  0.00    +0.146 HD
ATOM     20  H   UNL     1       4.237  -3.300  -0.142  0.00  0.00    +0.146 HD
ENDROOT
BRANCH  10  21
ATOM     21  O   UNL     1      -3.752   1.292  -1.046  0.00  0.00    -0.382 OA
ATOM     22  H   UNL     1      -3.764   2.253  -1.176  0.00  0.00    +0.210 HD
ENDBRANCH  10  21
BRANCH  12  23
ATOM     23  C   UNL     1      -4.233  -1.398  -0.241  0.00  0.00    +0.169 C 
BRANCH  23  24
ATOM     24  O   UNL     1      -4.069  -2.753   0.143  0.00  0.00    -0.379 OA
ATOM     25  H   UNL     1      -4.659  -3.313  -0.385  0.00  0.00    +0.211 HD
ENDBRANCH  23  24
ENDBRANCH  12  23
TORSDOF 3
