137324626
  -OEChem-03292013293D

 67 71  0     1  0  0  0  0  0999 V2000
   -1.3876   -1.4101    1.9324 O   0  0  0  0  0  0  0  0  0  0  0  0
    0.4724    2.3618    0.6556 O   0  0  0  0  0  0  0  0  0  0  0  0
   -2.5292   -2.8615    0.4706 O   0  0  0  0  0  0  0  0  0  0  0  0
   -0.0363   -3.8323    1.2496 O   0  0  0  0  0  0  0  0  0  0  0  0
   -4.1054   -1.9269   -1.4955 O   0  0  0  0  0  0  0  0  0  0  0  0
    3.2430    0.3647   -0.3071 O   0  0  0  0  0  0  0  0  0  0  0  0
    2.6496    2.8706    0.3791 O   0  0  0  0  0  0  0  0  0  0  0  0
   -6.3789   -0.5336   -1.4680 O   0  0  0  0  0  0  0  0  0  0  0  0
    4.5449    0.9346    1.5054 O   0  0  0  0  0  0  0  0  0  0  0  0
    6.7789    0.7516    0.0996 O   0  0  0  0  0  0  0  0  0  0  0  0
   -0.4423    0.1108    0.3541 C   0  0  2  0  0  0  0  0  0  0  0  0
   -1.5242   -0.7547   -0.3471 C   0  0  2  0  0  0  0  0  0  0  0  0
   -2.8874    0.0227   -0.6442 C   0  0  2  0  0  0  0  0  0  0  0  0
   -1.4423   -1.9663    0.6094 C   0  0  1  0  0  0  0  0  0  0  0  0
   -0.5293    1.5817   -0.0163 C   0  0  1  0  0  0  0  0  0  0  0  0
    0.9707   -0.4166   -0.0444 C   0  0  2  0  0  0  0  0  0  0  0  0
   -3.0796    1.2214    0.3390 C   0  0  1  0  0  0  0  0  0  0  0  0
   -0.6862   -0.1592    1.8566 C   0  0  0  0  0  0  0  0  0  0  0  0
   -1.8984    2.2169    0.2676 C   0  0  0  0  0  0  0  0  0  0  0  0
   -0.1252   -2.7463    0.3216 C   0  0  1  0  0  0  0  0  0  0  0  0
    1.1385   -1.8911    0.3816 C   0  0  0  0  0  0  0  0  0  0  0  0
   -4.1602   -0.8581   -0.5632 C   0  0  1  0  0  0  0  0  0  0  0  0
    2.0672    0.5329    0.4830 C   0  0  2  0  0  0  0  0  0  0  0  0
   -2.7856    0.5442   -2.1225 C   0  0  0  0  0  0  0  0  0  0  0  0
   -4.4450    1.9034    0.2453 C   0  0  0  0  0  0  0  0  0  0  0  0
    1.7669    2.0197    0.4518 C   0  0  0  0  0  0  0  0  0  0  0  0
   -5.4244   -0.0626   -0.8527 C   0  0  0  0  0  0  0  0  0  0  0  0
   -5.5130    1.3150   -0.3165 C   0  0  0  0  0  0  0  0  0  0  0  0
    2.3013   -2.4190    0.8078 C   0  0  0  0  0  0  0  0  0  0  0  0
   -4.6030    3.2566    0.8872 C   0  0  0  0  0  0  0  0  0  0  0  0
    4.4291    0.5994    0.3328 C   0  0  0  0  0  0  0  0  0  0  0  0
    5.6026    0.3871   -0.6204 C   0  0  2  0  0  0  0  0  0  0  0  0
    5.6932   -1.0922   -1.0348 C   0  0  0  0  0  0  0  0  0  0  0  0
    5.4866    1.3414   -1.8072 C   0  0  0  0  0  0  0  0  0  0  0  0
    6.8385   -1.4061   -1.9900 C   0  0  0  0  0  0  0  0  0  0  0  0
   -1.1744   -1.1000   -1.3307 H   0  0  0  0  0  0  0  0  0  0  0  0
   -0.3196    1.6980   -1.0866 H   0  0  0  0  0  0  0  0  0  0  0  0
    1.0339   -0.4162   -1.1436 H   0  0  0  0  0  0  0  0  0  0  0  0
   -3.0891    0.8010    1.3526 H   0  0  0  0  0  0  0  0  0  0  0  0
    0.2332   -0.2456    2.4440 H   0  0  0  0  0  0  0  0  0  0  0  0
   -1.2895    0.5981    2.3617 H   0  0  0  0  0  0  0  0  0  0  0  0
   -2.0810    2.9701   -0.5109 H   0  0  0  0  0  0  0  0  0  0  0  0
   -1.8522    2.7851    1.2067 H   0  0  0  0  0  0  0  0  0  0  0  0
   -0.1890   -3.1977   -0.6764 H   0  0  0  0  0  0  0  0  0  0  0  0
   -4.2870   -1.2705    0.4444 H   0  0  0  0  0  0  0  0  0  0  0  0
    2.2650    0.2949    1.5369 H   0  0  0  0  0  0  0  0  0  0  0  0
   -2.7452   -0.2902   -2.8325 H   0  0  0  0  0  0  0  0  0  0  0  0
   -1.8913    1.1416   -2.3042 H   0  0  0  0  0  0  0  0  0  0  0  0
   -3.6375    1.1683   -2.4089 H   0  0  0  0  0  0  0  0  0  0  0  0
   -2.6167   -3.0781   -0.4733 H   0  0  0  0  0  0  0  0  0  0  0  0
   -6.4787    1.8051   -0.3749 H   0  0  0  0  0  0  0  0  0  0  0  0
    2.3814   -3.4625    1.0945 H   0  0  0  0  0  0  0  0  0  0  0  0
    3.2187   -1.8526    0.8799 H   0  0  0  0  0  0  0  0  0  0  0  0
   -0.1029   -3.4603    2.1460 H   0  0  0  0  0  0  0  0  0  0  0  0
   -4.8624   -2.5109   -1.3174 H   0  0  0  0  0  0  0  0  0  0  0  0
   -4.0325    4.0157    0.3437 H   0  0  0  0  0  0  0  0  0  0  0  0
   -4.2550    3.2273    1.9250 H   0  0  0  0  0  0  0  0  0  0  0  0
   -5.6479    3.5857    0.9053 H   0  0  0  0  0  0  0  0  0  0  0  0
    5.8272   -1.7074   -0.1356 H   0  0  0  0  0  0  0  0  0  0  0  0
    4.7540   -1.4161   -1.4997 H   0  0  0  0  0  0  0  0  0  0  0  0
    5.3210    2.3689   -1.4612 H   0  0  0  0  0  0  0  0  0  0  0  0
    4.6512    1.0734   -2.4628 H   0  0  0  0  0  0  0  0  0  0  0  0
    6.4031    1.3654   -2.4063 H   0  0  0  0  0  0  0  0  0  0  0  0
    7.4955    0.9192   -0.5352 H   0  0  0  0  0  0  0  0  0  0  0  0
    6.7107   -0.8996   -2.9510 H   0  0  0  0  0  0  0  0  0  0  0  0
    6.8713   -2.4826   -2.1885 H   0  0  0  0  0  0  0  0  0  0  0  0
    7.8053   -1.1169   -1.5676 H   0  0  0  0  0  0  0  0  0  0  0  0
  1 14  1  0  0  0  0
  1 18  1  0  0  0  0
  2 15  1  0  0  0  0
  2 26  1  0  0  0  0
  3 14  1  0  0  0  0
  3 50  1  0  0  0  0
  4 20  1  0  0  0  0
  4 54  1  0  0  0  0
  5 22  1  0  0  0  0
  5 55  1  0  0  0  0
  6 23  1  0  0  0  0
  6 31  1  0  0  0  0
  7 26  2  0  0  0  0
  8 27  2  0  0  0  0
  9 31  2  0  0  0  0
 10 32  1  0  0  0  0
 10 64  1  0  0  0  0
 11 12  1  0  0  0  0
 11 15  1  0  0  0  0
 11 16  1  0  0  0  0
 11 18  1  0  0  0  0
 12 13  1  0  0  0  0
 12 14  1  0  0  0  0
 12 36  1  0  0  0  0
 13 17  1  0  0  0  0
 13 22  1  0  0  0  0
 13 24  1  0  0  0  0
 14 20  1  0  0  0  0
 15 19  1  0  0  0  0
 15 37  1  0  0  0  0
 16 21  1  0  0  0  0
 16 23  1  0  0  0  0
 16 38  1  0  0  0  0
 17 19  1  0  0  0  0
 17 25  1  0  0  0  0
 17 39  1  0  0  0  0
 18 40  1  0  0  0  0
 18 41  1  0  0  0  0
 19 42  1  0  0  0  0
 19 43  1  0  0  0  0
 20 21  1  0  0  0  0
 20 44  1  0  0  0  0
 21 29  2  0  0  0  0
 22 27  1  0  0  0  0
 22 45  1  0  0  0  0
 23 26  1  0  0  0  0
 23 46  1  0  0  0  0
 24 47  1  0  0  0  0
 24 48  1  0  0  0  0
 24 49  1  0  0  0  0
 25 28  2  0  0  0  0
 25 30  1  0  0  0  0
 27 28  1  0  0  0  0
 28 51  1  0  0  0  0
 29 52  1  0  0  0  0
 29 53  1  0  0  0  0
 30 56  1  0  0  0  0
 30 57  1  0  0  0  0
 30 58  1  0  0  0  0
 31 32  1  0  0  0  0
 32 33  1  0  0  0  0
 32 34  1  0  0  0  0
 33 35  1  0  0  0  0
 33 59  1  0  0  0  0
 33 60  1  0  0  0  0
 34 61  1  0  0  0  0
 34 62  1  0  0  0  0
 34 63  1  0  0  0  0
 35 65  1  0  0  0  0
 35 66  1  0  0  0  0
 35 67  1  0  0  0  0
M  END
> <PUBCHEM_COMPOUND_CID>
137324626

> <PUBCHEM_CONFORMER_RMSD>
0.8

> <PUBCHEM_CONFORMER_DIVERSEORDER>
1
10
16
2
13
7
15
5
14
12
4
3
11
6
8
9

> <PUBCHEM_MMFF94_PARTIAL_CHARGES>
34
1 -0.56
10 -0.68
14 0.56
15 0.28
16 0.14
17 0.14
18 0.28
2 -0.43
20 0.42
21 -0.28
22 0.34
23 0.34
25 -0.28
26 0.66
27 0.49
28 -0.14
29 -0.3
3 -0.68
30 0.14
31 0.66
32 0.34
4 -0.68
5 -0.68
50 0.4
51 0.15
52 0.15
53 0.15
54 0.4
55 0.4
6 -0.43
64 0.4
7 -0.57
8 -0.57
9 -0.57

> <PUBCHEM_EFFECTIVE_ROTOR_COUNT>
5.4

> <PUBCHEM_PHARMACOPHORE_FEATURES>
17
1 1 acceptor
1 10 acceptor
1 10 donor
1 3 acceptor
1 3 donor
1 35 hydrophobe
1 4 acceptor
1 4 donor
1 5 acceptor
1 5 donor
1 7 acceptor
1 8 acceptor
1 9 acceptor
6 11 12 13 15 17 19 rings
6 13 17 22 25 27 28 rings
6 2 11 15 16 23 26 rings
8 1 11 12 14 16 18 20 21 rings

> <PUBCHEM_HEAVY_ATOM_COUNT>
35

> <PUBCHEM_ATOM_DEF_STEREO_COUNT>
9

> <PUBCHEM_ATOM_UDEF_STEREO_COUNT>
2

> <PUBCHEM_BOND_DEF_STEREO_COUNT>
0

> <PUBCHEM_BOND_UDEF_STEREO_COUNT>
0

> <PUBCHEM_ISOTOPIC_ATOM_COUNT>
0

> <PUBCHEM_COMPONENT_COUNT>
1

> <PUBCHEM_CACTVS_TAUTO_COUNT>
-1

> <PUBCHEM_CONFORMER_ID>
082F685200000001

> <PUBCHEM_MMFF94_ENERGY>
133.1719

> <PUBCHEM_FEATURE_SELFOVERLAP>
86.453

> <PUBCHEM_SHAPE_FINGERPRINT>
10 15 9655571895240168702
10165383 225 18187364316183606733
10190108 129 18336275630447457755
10693767 8 18202273680797833126
10906281 52 18336558126629138064
11007060 377 18341899635743014488
11135609 187 18261384542503264309
11991303 11 17385731334574752179
12011746 2 18408039619518541948
12107698 1 17988922297049674973
12788726 201 17987801778494313377
13140716 1 18264761232927668032
13782708 43 15840691020266595615
13811026 1 18273495672453522742
14713325 29 18114471166333829115
14790565 3 18265619792415790280
14840074 17 17313114046426465812
14931854 50 18339912758802980061
15082195 135 18264777730567302804
15183329 4 18334013870140116302
15420108 30 17123974746099134016
15575132 122 17530963549101997213
15629462 23 16844181043226533728
15927050 60 18410857621030351819
16628084 112 17901674761338506806
17492 54 18187076248389651475
18608769 82 18261681479921507491
19958102 18 18261108565437932462
20775438 99 17338967043508531998
21033648 144 17459187546321368852
21267235 1 18343021121156153717
21279426 13 18412829071137396470
21781051 124 17968105277971662075
21814621 53 16343698794627418216
22122407 14 15285368305692106532
22393880 68 18272644623787242149
23559900 14 18341326811902229464
23569943 247 17914905231768645598
23576562 1 17750524046784173517
25147074 1 18265327322317170043
3004659 81 18336268964673713486
335352 9 18409444813059881812
3383291 50 18410009982995028522
340366 18 17822299036791185532
350125 39 18261960751315861299
404807 14 16336978403776535822
4058900 60 17896320225362235273
4173938 77 17459208385745555388
484989 97 18191307293914790835
508706 21 18409455795101470350
59755656 215 18409443687198402942
6138700 20 18341051822425875318
70251023 43 17483097629384989615
9896288 288 18128832854652361809

> <PUBCHEM_SHAPE_MULTIPOLES>
661.59
14.14
3.34
1.53
12.55
0.95
0.33
-3.39
7.38
-1.21
-1.12
0.34
0.32
-0.35

> <PUBCHEM_SHAPE_SELFOVERLAP>
1443.534

> <PUBCHEM_SHAPE_VOLUME>
351.1

> <PUBCHEM_COORDINATE_TYPE>
2
5
10

$$$$
