REMARK  Name = 137365
REMARK  7 active torsions:
REMARK  status: ('A' for Active; 'I' for Inactive)
REMARK    1  A    between atoms: C_3  and  C_14
REMARK    2  A    between atoms: C_8  and  O_11
REMARK    3  A    between atoms: C_9  and  C_17
REMARK    4  A    between atoms: C_14  and  O_15
REMARK    5  A    between atoms: C_17  and  C_18
REMARK    6  A    between atoms: C_18  and  C_20
REMARK    7  A    between atoms: C_20  and  O_21
REMARK                            x       y       z     vdW  Elec       q    Type
REMARK                         _______ _______ _______ _____ _____    ______ ____
ROOT
ATOM      1  O   UNL     1       0.317   1.765  -0.178  0.00  0.00    -0.270 OA
ATOM      2  N   UNL     1      -1.274   0.083  -0.278  0.00  0.00    -0.247 N 
ATOM      3  C   UNL     1      -2.405   0.867  -0.769  0.00  0.00    +0.179 C 
ATOM      4  C   UNL     1      -3.360  -0.183  -1.330  0.00  0.00    +0.038 C 
ATOM      5  C   UNL     1      -3.050  -1.454  -0.531  0.00  0.00    +0.047 C 
ATOM      6  C   UNL     1      -1.616  -1.248  -0.149  0.00  0.00    +0.066 C 
ATOM      7  C   UNL     1      -0.003   0.586  -0.040  0.00  0.00    +0.249 C 
ATOM      8  C   UNL     1      -0.709  -2.153   0.234  0.00  0.00    +0.143 C 
ATOM      9  C   UNL     1       1.009  -0.433   0.420  0.00  0.00    +0.035 C 
ATOM     10  C   UNL     1       0.637  -1.721   0.536  0.00  0.00    +0.038 C 
ENDROOT
BRANCH   8  11
ATOM     11  O   UNL     1      -1.003  -3.491   0.358  0.00  0.00    -0.505 OA
ATOM     12  H   UNL     1      -1.867  -3.800   0.169  0.00  0.00    +0.292 HD
ENDBRANCH   8  11
BRANCH   3  14
ATOM     13  O   UNL     1      -2.970   1.191   1.559  0.00  0.00    -0.248 OA
ATOM     14  C   UNL     1      -2.990   1.592   0.405  0.00  0.00    +0.332 C 
BRANCH  14  15
ATOM     15  O   UNL     1      -3.551   2.762   0.013  0.00  0.00    -0.479 OA
ATOM     16  H   UNL     1      -3.533   3.012  -0.890  0.00  0.00    +0.295 HD
ENDBRANCH  14  15
ENDBRANCH   3  14
BRANCH   9  17
ATOM     17  C   UNL     1       2.391   0.054   0.722  0.00  0.00    +0.043 C 
BRANCH  17  18
ATOM     18  C   UNL     1       3.300   0.015  -0.498  0.00  0.00    +0.114 C 
BRANCH  18  20
ATOM     19  O   UNL     1       5.057   0.828   0.946  0.00  0.00    -0.250 OA
ATOM     20  C   UNL     1       4.701   0.471  -0.170  0.00  0.00    +0.314 C 
BRANCH  20  21
ATOM     21  O   UNL     1       5.522   0.471  -1.249  0.00  0.00    -0.480 OA
ATOM     22  H   UNL     1       5.200   0.188  -2.082  0.00  0.00    +0.295 HD
ENDBRANCH  20  21
ENDBRANCH  18  20
ENDBRANCH  17  18
ENDBRANCH   9  17
TORSDOF 7
