137383
  -OEChem-03292013323D

 37 37  0     1  0  0  0  0  0999 V2000
    0.3359   -0.5196   -0.1561 O   0  0  0  0  0  0  0  0  0  0  0  0
   -1.3724    1.0604   -0.3239 O   0  0  0  0  0  0  0  0  0  0  0  0
    3.0557    2.3421    0.9776 O   0  0  0  0  0  0  0  0  0  0  0  0
    0.5623    3.1190   -0.3838 O   0  0  0  0  0  0  0  0  0  0  0  0
    3.9792   -0.2186   -0.0411 O   0  0  0  0  0  0  0  0  0  0  0  0
    3.0492   -2.7478   -0.1583 O   0  0  0  0  0  0  0  0  0  0  0  0
    0.9078   -2.8871    0.6107 O   0  0  0  0  0  0  0  0  0  0  0  0
   -1.9762   -0.7268   -1.6510 O   0  0  0  0  0  0  0  0  0  0  0  0
    2.3326    1.5365    0.0458 C   0  0  2  0  0  0  0  0  0  0  0  0
    0.8373    1.8317    0.1683 C   0  0  2  0  0  0  0  0  0  0  0  0
    2.6384    0.0699    0.3515 C   0  0  1  0  0  0  0  0  0  0  0  0
    0.0049    0.7973   -0.5897 C   0  0  1  0  0  0  0  0  0  0  0  0
    1.6958   -0.8495   -0.4150 C   0  0  1  0  0  0  0  0  0  0  0  0
    1.8069   -2.2575    0.0734 C   0  0  0  0  0  0  0  0  0  0  0  0
   -3.6721    0.6477   -0.5760 C   0  0  0  0  0  0  0  0  0  0  0  0
   -4.2429   -0.0801    0.6510 C   0  0  0  0  0  0  0  0  0  0  0  0
   -2.2640    0.2138   -0.9235 C   0  0  0  0  0  0  0  0  0  0  0  0
   -4.2568   -1.5970    0.4456 C   0  0  0  0  0  0  0  0  0  0  0  0
   -3.4217    0.2658    1.8945 C   0  0  0  0  0  0  0  0  0  0  0  0
    2.6941    1.8166   -0.9514 H   0  0  0  0  0  0  0  0  0  0  0  0
    0.5384    1.8635    1.2235 H   0  0  0  0  0  0  0  0  0  0  0  0
    2.5715   -0.1073    1.4320 H   0  0  0  0  0  0  0  0  0  0  0  0
    0.1672    0.8936   -1.6721 H   0  0  0  0  0  0  0  0  0  0  0  0
    1.8766   -0.8481   -1.4970 H   0  0  0  0  0  0  0  0  0  0  0  0
    3.9986    2.1243    0.8803 H   0  0  0  0  0  0  0  0  0  0  0  0
    1.1160    3.7624    0.0907 H   0  0  0  0  0  0  0  0  0  0  0  0
    4.0526   -0.0656   -0.9986 H   0  0  0  0  0  0  0  0  0  0  0  0
   -3.6905    1.7346   -0.4292 H   0  0  0  0  0  0  0  0  0  0  0  0
   -4.2986    0.4570   -1.4561 H   0  0  0  0  0  0  0  0  0  0  0  0
   -5.2732    0.2634    0.8035 H   0  0  0  0  0  0  0  0  0  0  0  0
   -3.2474   -2.0169    0.3880 H   0  0  0  0  0  0  0  0  0  0  0  0
   -4.7682   -2.0880    1.2808 H   0  0  0  0  0  0  0  0  0  0  0  0
   -4.7920   -1.8603   -0.4727 H   0  0  0  0  0  0  0  0  0  0  0  0
   -2.4061   -0.1406    1.8481 H   0  0  0  0  0  0  0  0  0  0  0  0
   -3.3535    1.3503    2.0308 H   0  0  0  0  0  0  0  0  0  0  0  0
   -3.8977   -0.1500    2.7895 H   0  0  0  0  0  0  0  0  0  0  0  0
    3.1432   -3.6720    0.1571 H   0  0  0  0  0  0  0  0  0  0  0  0
  1 12  1  0  0  0  0
  1 13  1  0  0  0  0
  2 12  1  0  0  0  0
  2 17  1  0  0  0  0
  3  9  1  0  0  0  0
  3 25  1  0  0  0  0
  4 10  1  0  0  0  0
  4 26  1  0  0  0  0
  5 11  1  0  0  0  0
  5 27  1  0  0  0  0
  6 14  1  0  0  0  0
  6 37  1  0  0  0  0
  7 14  2  0  0  0  0
  8 17  2  0  0  0  0
  9 10  1  0  0  0  0
  9 11  1  0  0  0  0
  9 20  1  0  0  0  0
 10 12  1  0  0  0  0
 10 21  1  0  0  0  0
 11 13  1  0  0  0  0
 11 22  1  0  0  0  0
 12 23  1  0  0  0  0
 13 14  1  0  0  0  0
 13 24  1  0  0  0  0
 15 16  1  0  0  0  0
 15 17  1  0  0  0  0
 15 28  1  0  0  0  0
 15 29  1  0  0  0  0
 16 18  1  0  0  0  0
 16 19  1  0  0  0  0
 16 30  1  0  0  0  0
 18 31  1  0  0  0  0
 18 32  1  0  0  0  0
 18 33  1  0  0  0  0
 19 34  1  0  0  0  0
 19 35  1  0  0  0  0
 19 36  1  0  0  0  0
M  END
> <PUBCHEM_COMPOUND_CID>
137383

> <PUBCHEM_CONFORMER_RMSD>
0.8

> <PUBCHEM_CONFORMER_DIVERSEORDER>
1
56
32
53
52
27
11
47
50
4
13
7
28
40
46
23
38
17
10
18
54
19
14
45
26
12
8
44
34
42
9
49
3
33
21
15
48
51
16
36
30
31
29
43
25
58
2
41
5
57
22
55
35
39
20
37
24
6

> <PUBCHEM_MMFF94_PARTIAL_CHARGES>
20
1 -0.56
10 0.28
11 0.28
12 0.56
13 0.34
14 0.66
15 0.06
17 0.66
2 -0.43
25 0.4
26 0.4
27 0.4
3 -0.68
37 0.5
4 -0.68
5 -0.68
6 -0.65
7 -0.57
8 -0.57
9 0.28

> <PUBCHEM_EFFECTIVE_ROTOR_COUNT>
6.2

> <PUBCHEM_PHARMACOPHORE_FEATURES>
13
1 1 acceptor
1 3 acceptor
1 3 donor
1 4 acceptor
1 4 donor
1 5 acceptor
1 5 donor
1 6 acceptor
1 7 acceptor
1 8 acceptor
3 16 18 19 hydrophobe
3 6 7 14 anion
6 1 9 10 11 12 13 rings

> <PUBCHEM_HEAVY_ATOM_COUNT>
19

> <PUBCHEM_ATOM_DEF_STEREO_COUNT>
5

> <PUBCHEM_ATOM_UDEF_STEREO_COUNT>
0

> <PUBCHEM_BOND_DEF_STEREO_COUNT>
0

> <PUBCHEM_BOND_UDEF_STEREO_COUNT>
0

> <PUBCHEM_ISOTOPIC_ATOM_COUNT>
0

> <PUBCHEM_COMPONENT_COUNT>
1

> <PUBCHEM_CACTVS_TAUTO_COUNT>
1

> <PUBCHEM_CONFORMER_ID>
000218A700000001

> <PUBCHEM_MMFF94_ENERGY>
35.2546

> <PUBCHEM_FEATURE_SELFOVERLAP>
66.064

> <PUBCHEM_SHAPE_FINGERPRINT>
10366900 7 18186526531304432587
10493431 412 18051969518073842288
11471102 22 18409451366805454985
12506688 2 18262242092879735627
12553582 1 18196363728399253230
12596599 1 18129959875039194315
13140716 1 18267293408654328674
13296908 3 18261954038134187151
13533116 47 18413393142546871435
14178342 30 18126830814816101449
14790565 3 18120947358436041220
15375462 189 18272084985211161247
15422964 175 18261112941782675501
15527383 91 18339934697010754345
15635459 17 18187364320462762683
16945 1 18340750569140805228
19049666 15 18042958779770882477
20603629 256 18341625805997617947
20645477 70 18269540685614283015
21041028 32 18198063564932955488
21427221 339 17701841894196285153
21673915 165 18194964278046878323
221490 88 18336267851354498222
22445834 79 18343302574315045509
2255824 54 18338238296339859028
23557571 272 17095516262825349605
23559900 14 17968656012626272871
23598291 2 17988636428226039901
2748010 2 18122607380411679556
3323516 105 18333455322159291363
33824 294 18336262439869674763
458136 41 18337397148859865092
474 4 18198619024147440760
7097593 13 18342184362531628913
77492 1 17632292380686483461
81228 2 17044275486138945608

> <PUBCHEM_SHAPE_MULTIPOLES>
344.06
7.46
2.9
1.12
5.25
0.54
0.15
1.37
1.68
-2.82
0.26
1.04
-0.08
0.41

> <PUBCHEM_SHAPE_SELFOVERLAP>
695.301

> <PUBCHEM_SHAPE_VOLUME>
197.7

> <PUBCHEM_COORDINATE_TYPE>
2
5
10

$$$$
