137334
  -OEChem-03292013323D

 33 34  0     1  0  0  0  0  0999 V2000
    2.5278   -1.0562   -1.8744 O   0  0  0  0  0  0  0  0  0  0  0  0
   -4.8245    1.0791   -0.6594 O   0  0  0  0  0  0  0  0  0  0  0  0
    3.3137   -2.3040   -0.1611 O   0  0  0  0  0  0  0  0  0  0  0  0
    2.6860    2.6803    1.0057 O   0  0  0  0  0  0  0  0  0  0  0  0
   -1.4651   -2.4277   -0.0793 N   0  0  0  0  0  0  0  0  0  0  0  0
    1.8892    0.9930   -0.3869 N   0  0  0  0  0  0  0  0  0  0  0  0
    1.3364   -0.6116    1.3986 C   0  0  0  0  0  0  0  0  0  0  0  0
    0.0739   -1.0938    0.8033 C   0  0  0  0  0  0  0  0  0  0  0  0
    2.3813   -0.1345    0.3642 C   0  0  1  0  0  0  0  0  0  0  0  0
   -1.0799   -0.3122    0.5150 C   0  0  0  0  0  0  0  0  0  0  0  0
   -2.0304   -1.1731   -0.0377 C   0  0  0  0  0  0  0  0  0  0  0  0
   -0.1936   -2.3898    0.4266 C   0  0  0  0  0  0  0  0  0  0  0  0
   -1.4076    1.0492    0.6719 C   0  0  0  0  0  0  0  0  0  0  0  0
   -3.2976   -0.7388   -0.4429 C   0  0  0  0  0  0  0  0  0  0  0  0
    2.7866   -1.2716   -0.5624 C   0  0  0  0  0  0  0  0  0  0  0  0
   -2.6714    1.4977    0.2711 C   0  0  0  0  0  0  0  0  0  0  0  0
   -3.6002    0.6157   -0.2777 C   0  0  0  0  0  0  0  0  0  0  0  0
    2.0850    2.3095    0.0008 C   0  0  0  0  0  0  0  0  0  0  0  0
    1.4905    3.2887   -0.9756 C   0  0  0  0  0  0  0  0  0  0  0  0
    1.1243    0.2059    2.1000 H   0  0  0  0  0  0  0  0  0  0  0  0
    1.7772   -1.4156    2.0033 H   0  0  0  0  0  0  0  0  0  0  0  0
    3.2898    0.1841    0.8895 H   0  0  0  0  0  0  0  0  0  0  0  0
    0.4039   -3.2896    0.4731 H   0  0  0  0  0  0  0  0  0  0  0  0
   -1.9233   -3.2564   -0.4323 H   0  0  0  0  0  0  0  0  0  0  0  0
   -0.7007    1.7507    1.1049 H   0  0  0  0  0  0  0  0  0  0  0  0
    1.3687    0.8052   -1.2394 H   0  0  0  0  0  0  0  0  0  0  0  0
   -4.0180   -1.4292   -0.8697 H   0  0  0  0  0  0  0  0  0  0  0  0
   -2.9172    2.5495    0.3970 H   0  0  0  0  0  0  0  0  0  0  0  0
    1.3458    4.2542   -0.4828 H   0  0  0  0  0  0  0  0  0  0  0  0
    2.1709    3.4122   -1.8224 H   0  0  0  0  0  0  0  0  0  0  0  0
    0.5206    2.9361   -1.3376 H   0  0  0  0  0  0  0  0  0  0  0  0
    2.8066   -1.8134   -2.4323 H   0  0  0  0  0  0  0  0  0  0  0  0
   -4.8718    2.0334   -0.4781 H   0  0  0  0  0  0  0  0  0  0  0  0
  1 15  1  0  0  0  0
  1 32  1  0  0  0  0
  2 17  1  0  0  0  0
  2 33  1  0  0  0  0
  3 15  2  0  0  0  0
  4 18  2  0  0  0  0
  5 11  1  0  0  0  0
  5 12  1  0  0  0  0
  5 24  1  0  0  0  0
  6  9  1  0  0  0  0
  6 18  1  0  0  0  0
  6 26  1  0  0  0  0
  7  8  1  0  0  0  0
  7  9  1  0  0  0  0
  7 20  1  0  0  0  0
  7 21  1  0  0  0  0
  8 10  1  0  0  0  0
  8 12  2  0  0  0  0
  9 15  1  0  0  0  0
  9 22  1  0  0  0  0
 10 11  2  0  0  0  0
 10 13  1  0  0  0  0
 11 14  1  0  0  0  0
 12 23  1  0  0  0  0
 13 16  2  0  0  0  0
 13 25  1  0  0  0  0
 14 17  2  0  0  0  0
 14 27  1  0  0  0  0
 16 17  1  0  0  0  0
 16 28  1  0  0  0  0
 18 19  1  0  0  0  0
 19 29  1  0  0  0  0
 19 30  1  0  0  0  0
 19 31  1  0  0  0  0
M  END
> <PUBCHEM_COMPOUND_CID>
137334

> <PUBCHEM_CONFORMER_RMSD>
0.8

> <PUBCHEM_CONFORMER_DIVERSEORDER>
1
9
19
13
22
5
21
23
10
7
2
18
11
24
3
20
16
17
6
14
15
4
12
8

> <PUBCHEM_MMFF94_PARTIAL_CHARGES>
26
1 -0.65
11 -0.15
12 -0.3
13 -0.15
14 -0.15
15 0.66
16 -0.15
17 0.08
18 0.57
19 0.06
2 -0.53
23 0.15
24 0.27
25 0.15
26 0.37
27 0.15
28 0.15
3 -0.57
32 0.5
33 0.45
4 -0.57
5 0.03
6 -0.73
7 0.18
8 -0.18
9 0.36

> <PUBCHEM_EFFECTIVE_ROTOR_COUNT>
5

> <PUBCHEM_PHARMACOPHORE_FEATURES>
10
1 1 acceptor
1 2 donor
1 3 acceptor
1 4 acceptor
1 5 cation
1 5 donor
1 6 donor
3 1 3 15 anion
5 5 8 10 11 12 rings
6 10 11 13 14 16 17 rings

> <PUBCHEM_HEAVY_ATOM_COUNT>
19

> <PUBCHEM_ATOM_DEF_STEREO_COUNT>
1

> <PUBCHEM_ATOM_UDEF_STEREO_COUNT>
0

> <PUBCHEM_BOND_DEF_STEREO_COUNT>
0

> <PUBCHEM_BOND_UDEF_STEREO_COUNT>
0

> <PUBCHEM_ISOTOPIC_ATOM_COUNT>
0

> <PUBCHEM_COMPONENT_COUNT>
1

> <PUBCHEM_CACTVS_TAUTO_COUNT>
18

> <PUBCHEM_CONFORMER_ID>
0002187600000001

> <PUBCHEM_MMFF94_ENERGY>
30.7452

> <PUBCHEM_FEATURE_SELFOVERLAP>
50.898

> <PUBCHEM_SHAPE_FINGERPRINT>
104564 63 17612878097700672516
12654903 92 18341897329466265106
13140716 1 18409450293279818409
13464514 151 18262529194706579388
13583140 156 17096066070542685867
14250199 8 18412547617329605941
14648413 74 18337396040647571922
14713325 29 15582931543052232188
15536298 74 18412542132704043129
15775835 57 17967816037229550799
16945 1 18336826390634885267
17134986 127 18335976498205870079
17980427 23 17911200053575732480
18186145 218 18335414660749237805
18981168 100 17097517502704960232
20233049 118 17969502611084150062
21069387 34 15482394136237595926
22802520 49 18341625852962721971
2334 1 18265335182386883417
23402539 116 18055065463565254630
23557571 272 17987226927202137386
23558518 356 18116990198685649635
23559900 14 18273207604338119850
23566358 2 18267015249360845503
2748010 2 18335710497816953059
3060560 45 18338507522296408887
3084891 8 17763470512981462894
474 4 18187641453169715929
5262128 65 18059310785012306124
5939293 188 18336257981577674276
6049 1 18189638178848795595
633830 44 18342450418765657725
7364860 26 18343018926016480296
74978 22 18409733962589548210
7832392 63 18408320012179298660
81228 2 17836389059494847930
9709674 26 18340488992346871063
9981440 41 17904757027195876792

> <PUBCHEM_SHAPE_MULTIPOLES>
357.57
6.26
3.27
1.1
4.05
1.43
0.11
1.35
1.48
-2.24
0.31
-0.62
0
0.35

> <PUBCHEM_SHAPE_SELFOVERLAP>
765.794

> <PUBCHEM_SHAPE_VOLUME>
198.3

> <PUBCHEM_COORDINATE_TYPE>
2
5
10

$$$$
