REMARK  Name = 13746
REMARK  5 active torsions:
REMARK  status: ('A' for Active; 'I' for Inactive)
REMARK    1  A    between atoms: N_2  and  C_12
REMARK    2  A    between atoms: C_12  and  S_13
REMARK    3  A    between atoms: S_13  and  P_14
REMARK    4  A    between atoms: P_14  and  O_16
REMARK    5  A    between atoms: P_14  and  O_18
REMARK                            x       y       z     vdW  Elec       q    Type
REMARK                         _______ _______ _______ _____ _____    ______ ____
ROOT
ATOM      1  O   UNL     1       0.833   1.832  -0.479  0.00  0.00    -0.268 OA
ATOM      2  N   UNL     1       0.536  -0.473  -0.522  0.00  0.00    -0.157 N 
ATOM      3  N   UNL     1       1.060  -1.729  -0.387  0.00  0.00    -0.041 NA
ATOM      4  N   UNL     1       2.264  -1.919  -0.111  0.00  0.00    -0.147 NA
ATOM      5  C   UNL     1       2.684   0.488  -0.044  0.00  0.00    +0.071 C 
ATOM      6  C   UNL     1       1.272   0.691  -0.367  0.00  0.00    +0.269 C 
ATOM      7  C   UNL     1       3.118  -0.826   0.069  0.00  0.00    +0.088 C 
ATOM      8  C   UNL     1       3.557   1.564   0.142  0.00  0.00    +0.005 C 
ATOM      9  C   UNL     1       4.463  -1.060   0.378  0.00  0.00    +0.074 C 
ATOM     10  C   UNL     1       4.893   1.317   0.448  0.00  0.00    -0.004 C 
ATOM     11  C   UNL     1       5.347   0.005   0.566  0.00  0.00    -0.020 C 
ENDROOT
BRANCH   2  12
ATOM     12  C   UNL     1      -0.881  -0.440  -0.843  0.00  0.00    +0.187 C 
BRANCH  12  13
ATOM     13  S   UNL     1      -1.875  -0.408   0.659  0.00  0.00    -0.007 S 
BRANCH  13  14
ATOM     14  P   UNL     1      -3.870  -0.362  -0.001  0.00  0.00    +0.395 P 
ATOM     15  O   UNL     1      -4.171  -1.584  -0.830  0.00  0.00    -0.246 OA
BRANCH  14  16
ATOM     16  O   UNL     1      -4.856  -0.236   1.286  0.00  0.00    -0.284 OA
ATOM     17  C   UNL     1      -6.253  -0.135   1.069  0.00  0.00    +0.185 C 
ENDBRANCH  14  16
BRANCH  14  18
ATOM     18  O   UNL     1      -4.172   1.008  -0.822  0.00  0.00    -0.284 OA
ATOM     19  C   UNL     1      -3.949   2.267  -0.209  0.00  0.00    +0.185 C 
ENDBRANCH  14  18
ENDBRANCH  13  14
ENDBRANCH  12  13
ENDBRANCH   2  12
TORSDOF 5
