REMARK  Name = 137530063
REMARK  4 active torsions:
REMARK  status: ('A' for Active; 'I' for Inactive)
REMARK    1  A    between atoms: C_5  and  C_13
REMARK    2  A    between atoms: C_5  and  O_28
REMARK    3  A    between atoms: C_10  and  C_18
REMARK    4  A    between atoms: C_21  and  C_24
REMARK                            x       y       z     vdW  Elec       q    Type
REMARK                         _______ _______ _______ _____ _____    ______ ____
ROOT
ATOM      1  O   UNL     1       0.208   1.976  -2.627  0.00  0.00    -0.270 OA
ATOM      2  N   UNL     1      -0.371   1.766  -0.389  0.00  0.00    -0.279 N 
ATOM      3  C   UNL     1      -1.626   2.490  -0.422  0.00  0.00    +0.079 C 
ATOM      4  C   UNL     1      -0.257   1.229   0.959  0.00  0.00    +0.079 C 
ATOM      5  C   UNL     1      -2.712   0.379   0.669  0.00  0.00    +0.163 C 
ATOM      6  C   UNL     1      -2.756   1.439  -0.482  0.00  0.00    +0.061 C 
ATOM      7  C   UNL     1      -1.231   0.034   1.044  0.00  0.00    +0.061 C 
ATOM      8  C   UNL     1      -0.693   2.417   1.822  0.00  0.00    +0.022 C 
ATOM      9  C   UNL     1      -1.597   3.257   0.903  0.00  0.00    +0.022 C 
ATOM     10  C   UNL     1       0.371   1.473  -1.517  0.00  0.00    +0.249 C 
ENDROOT
BRANCH   5  13
ATOM     11  N   UNL     1      -4.575  -0.672  -0.529  0.00  0.00    -0.195 NA
ATOM     12  N   UNL     1      -3.248  -1.992   0.989  0.00  0.00    -0.217 NA
ATOM     13  C   UNL     1      -3.574  -0.850   0.353  0.00  0.00    +0.031 C 
ATOM     14  C   UNL     1      -4.026  -3.053   0.688  0.00  0.00    +0.164 C 
ATOM     15  C   UNL     1      -5.312  -1.773  -0.784  0.00  0.00    +0.107 C 
ATOM     16  C   UNL     1      -5.082  -3.002  -0.200  0.00  0.00    +0.022 C 
ENDBRANCH   5  13
BRANCH  10  18
ATOM     17  S   UNL     1       2.820  -1.662  -1.746  0.00  0.00    -0.086 S 
ATOM     18  C   UNL     1       1.438   0.473  -1.382  0.00  0.00    +0.061 C 
ATOM     19  C   UNL     1       2.557   0.573  -0.506  0.00  0.00    +0.012 C 
ATOM     20  C   UNL     1       1.457  -0.693  -2.115  0.00  0.00    +0.040 C 
ATOM     21  C   UNL     1       3.389  -0.521  -0.602  0.00  0.00    +0.032 C 
BRANCH  21  24
ATOM     22  N   UNL     1       6.280  -0.395   1.575  0.00  0.00    -0.235 N 
ATOM     23  N   UNL     1       6.559  -1.585   1.017  0.00  0.00    -0.180 NA
ATOM     24  C   UNL     1       4.626  -0.700   0.182  0.00  0.00    +0.043 C 
ATOM     25  C   UNL     1       5.133   0.177   1.109  0.00  0.00    +0.082 C 
ATOM     26  C   UNL     1       5.545  -1.766   0.167  0.00  0.00    +0.119 C 
ATOM     27  H   UNL     1       6.852   0.026   2.258  0.00  0.00    +0.174 HD
ENDBRANCH  21  24
ENDBRANCH  10  18
BRANCH   5  28
ATOM     28  O   UNL     1      -3.323   0.981   1.822  0.00  0.00    -0.373 OA
ATOM     29  H   UNL     1      -2.822   1.772   2.078  0.00  0.00    +0.212 HD
ENDBRANCH   5  28
TORSDOF 4
