137530063
  -OEChem-03292013293D

 46 50  0     1  0  0  0  0  0999 V2000
    2.8196   -1.6620   -1.7456 S   0  0  0  0  0  0  0  0  0  0  0  0
   -3.3227    0.9814    1.8223 O   0  0  0  0  0  0  0  0  0  0  0  0
    0.2081    1.9760   -2.6267 O   0  0  0  0  0  0  0  0  0  0  0  0
   -0.3711    1.7665   -0.3888 N   0  0  0  0  0  0  0  0  0  0  0  0
   -4.5752   -0.6722   -0.5294 N   0  0  0  0  0  0  0  0  0  0  0  0
   -3.2484   -1.9922    0.9887 N   0  0  0  0  0  0  0  0  0  0  0  0
    6.2801   -0.3947    1.5751 N   0  0  0  0  0  0  0  0  0  0  0  0
    6.5589   -1.5851    1.0170 N   0  0  0  0  0  0  0  0  0  0  0  0
   -1.6261    2.4903   -0.4217 C   0  0  1  0  0  0  0  0  0  0  0  0
   -0.2567    1.2290    0.9594 C   0  0  2  0  0  0  0  0  0  0  0  0
   -2.7115    0.3791    0.6692 C   0  0  0  0  0  0  0  0  0  0  0  0
   -2.7558    1.4393   -0.4822 C   0  0  0  0  0  0  0  0  0  0  0  0
   -1.2308    0.0337    1.0441 C   0  0  0  0  0  0  0  0  0  0  0  0
   -0.6929    2.4171    1.8217 C   0  0  0  0  0  0  0  0  0  0  0  0
   -1.5972    3.2571    0.9031 C   0  0  0  0  0  0  0  0  0  0  0  0
    0.3707    1.4728   -1.5172 C   0  0  0  0  0  0  0  0  0  0  0  0
   -3.5739   -0.8503    0.3535 C   0  0  0  0  0  0  0  0  0  0  0  0
    1.4381    0.4731   -1.3817 C   0  0  0  0  0  0  0  0  0  0  0  0
    2.5573    0.5727   -0.5056 C   0  0  0  0  0  0  0  0  0  0  0  0
    1.4568   -0.6930   -2.1147 C   0  0  0  0  0  0  0  0  0  0  0  0
   -4.0260   -3.0528    0.6875 C   0  0  0  0  0  0  0  0  0  0  0  0
   -5.3123   -1.7733   -0.7839 C   0  0  0  0  0  0  0  0  0  0  0  0
    3.3888   -0.5214   -0.6022 C   0  0  0  0  0  0  0  0  0  0  0  0
   -5.0817   -3.0021   -0.1996 C   0  0  0  0  0  0  0  0  0  0  0  0
    4.6259   -0.7000    0.1818 C   0  0  0  0  0  0  0  0  0  0  0  0
    5.1328    0.1773    1.1092 C   0  0  0  0  0  0  0  0  0  0  0  0
    5.5450   -1.7663    0.1667 C   0  0  0  0  0  0  0  0  0  0  0  0
    0.7481    0.9021    1.2228 H   0  0  0  0  0  0  0  0  0  0  0  0
   -1.6842    3.1577   -1.2875 H   0  0  0  0  0  0  0  0  0  0  0  0
   -0.8666   -0.7475    0.3634 H   0  0  0  0  0  0  0  0  0  0  0  0
   -3.7213    1.9613   -0.4819 H   0  0  0  0  0  0  0  0  0  0  0  0
   -2.6657    0.9211   -1.4472 H   0  0  0  0  0  0  0  0  0  0  0  0
   -1.1930   -0.3793    2.0604 H   0  0  0  0  0  0  0  0  0  0  0  0
    0.1827    3.0179    2.0978 H   0  0  0  0  0  0  0  0  0  0  0  0
   -1.1325    4.2397    0.7542 H   0  0  0  0  0  0  0  0  0  0  0  0
   -2.5913    3.4330    1.3243 H   0  0  0  0  0  0  0  0  0  0  0  0
   -1.1846    2.1199    2.7525 H   0  0  0  0  0  0  0  0  0  0  0  0
   -4.2675    1.1154    1.6335 H   0  0  0  0  0  0  0  0  0  0  0  0
    2.7408    1.4195    0.1449 H   0  0  0  0  0  0  0  0  0  0  0  0
    0.7380   -1.0287   -2.8495 H   0  0  0  0  0  0  0  0  0  0  0  0
   -3.7683   -3.9757    1.1960 H   0  0  0  0  0  0  0  0  0  0  0  0
   -6.1204   -1.6360   -1.4944 H   0  0  0  0  0  0  0  0  0  0  0  0
   -5.6891   -3.8689   -0.4225 H   0  0  0  0  0  0  0  0  0  0  0  0
    4.7986    1.1363    1.4795 H   0  0  0  0  0  0  0  0  0  0  0  0
    5.5286   -2.6717   -0.4236 H   0  0  0  0  0  0  0  0  0  0  0  0
    6.9186   -0.0296    2.2708 H   0  0  0  0  0  0  0  0  0  0  0  0
  1 20  1  0  0  0  0
  1 23  1  0  0  0  0
  2 11  1  0  0  0  0
  2 38  1  0  0  0  0
  3 16  2  0  0  0  0
  4  9  1  0  0  0  0
  4 10  1  0  0  0  0
  4 16  1  0  0  0  0
  5 17  2  0  0  0  0
  5 22  1  0  0  0  0
  6 17  1  0  0  0  0
  6 21  2  0  0  0  0
  7  8  1  0  0  0  0
  7 26  1  0  0  0  0
  7 46  1  0  0  0  0
  8 27  2  0  0  0  0
  9 12  1  0  0  0  0
  9 15  1  0  0  0  0
  9 29  1  0  0  0  0
 10 13  1  0  0  0  0
 10 14  1  0  0  0  0
 10 28  1  0  0  0  0
 11 12  1  0  0  0  0
 11 13  1  0  0  0  0
 11 17  1  0  0  0  0
 12 31  1  0  0  0  0
 12 32  1  0  0  0  0
 13 30  1  0  0  0  0
 13 33  1  0  0  0  0
 14 15  1  0  0  0  0
 14 34  1  0  0  0  0
 14 37  1  0  0  0  0
 15 35  1  0  0  0  0
 15 36  1  0  0  0  0
 16 18  1  0  0  0  0
 18 19  1  0  0  0  0
 18 20  2  0  0  0  0
 19 23  2  0  0  0  0
 19 39  1  0  0  0  0
 20 40  1  0  0  0  0
 21 24  1  0  0  0  0
 21 41  1  0  0  0  0
 22 24  2  0  0  0  0
 22 42  1  0  0  0  0
 23 25  1  0  0  0  0
 24 43  1  0  0  0  0
 25 26  2  0  0  0  0
 25 27  1  0  0  0  0
 26 44  1  0  0  0  0
 27 45  1  0  0  0  0
M  END
> <PUBCHEM_COMPOUND_CID>
137530063

> <PUBCHEM_CONFORMER_RMSD>
0.8

> <PUBCHEM_CONFORMER_DIVERSEORDER>
1
8
24
25
15
23
20
19
17
3
26
13
21
10
12
22
14
9
4
11
18
27
6
7
2
5
16

> <PUBCHEM_MMFF94_PARTIAL_CHARGES>
31
1 -0.08
10 0.3
11 0.42
16 0.72
17 0.48
18 -0.09
19 -0.15
2 -0.68
20 -0.11
21 0.16
22 0.16
23 0.04
24 -0.15
26 -0.3
27 0.14
3 -0.57
38 0.4
39 0.15
4 -0.66
40 0.15
41 0.15
42 0.15
43 0.15
44 0.15
45 0.15
46 0.27
5 -0.62
6 -0.62
7 0.3
8 -0.71
9 0.3

> <PUBCHEM_EFFECTIVE_ROTOR_COUNT>
5.2

> <PUBCHEM_PHARMACOPHORE_FEATURES>
11
1 2 acceptor
1 2 donor
1 3 acceptor
1 6 acceptor
1 7 donor
1 8 acceptor
3 5 6 17 cation
5 1 18 19 20 23 rings
5 7 8 25 26 27 rings
6 5 6 17 21 22 24 rings
8 4 9 10 11 12 13 14 15 rings

> <PUBCHEM_HEAVY_ATOM_COUNT>
27

> <PUBCHEM_ATOM_DEF_STEREO_COUNT>
2

> <PUBCHEM_ATOM_UDEF_STEREO_COUNT>
0

> <PUBCHEM_BOND_DEF_STEREO_COUNT>
0

> <PUBCHEM_BOND_UDEF_STEREO_COUNT>
0

> <PUBCHEM_ISOTOPIC_ATOM_COUNT>
0

> <PUBCHEM_COMPONENT_COUNT>
1

> <PUBCHEM_CACTVS_TAUTO_COUNT>
-1

> <PUBCHEM_CONFORMER_ID>
08328ACF00000001

> <PUBCHEM_MMFF94_ENERGY>
76.2554

> <PUBCHEM_FEATURE_SELFOVERLAP>
55.823

> <PUBCHEM_SHAPE_FINGERPRINT>
10674148 151 14707471586517924095
12166972 35 17531248421529830519
12363563 72 18269854149697467183
12523318 42 18337951195224671568
12553582 1 17770815538902767807
12596602 18 18409440368122087290
12633257 1 18270414806054158160
13083527 12 18340772645019798060
13544653 18 18202291328881008133
13583140 156 17631160897517516656
13782708 43 18271246007329033782
13828863 39 12751244717904927583
13944108 23 8571671150087316135
14068700 675 18334292093446814452
14081887 123 18271536286022616062
14178342 30 18195260922626142780
14251751 18 18335419110114063615
14341114 328 13614530657699409063
14848178 5 18335420200735167415
15052358 14 12252176351708488346
15183329 4 13262390043007040078
15188451 53 18334284358648843738
17349148 13 17531260430595519418
19032999 76 18259980492077132138
20626108 58 18188209921944674389
20775530 9 17831322840342454791
21304303 282 17975681806604175845
21344244 78 16270261451759011787
21458453 9 17201625886668805826
21728266 224 18334572417383053874
21756936 100 11312049955027136062
22122407 14 15410613627619153905
23419403 2 18265875016600159629
23557571 272 18343582906498165769
23559900 14 18409719681981921600
23572383 38 18413390925648064359
255183 313 18196387918367558961
2637199 183 7997697467251723439
3027735 51 16298936542552873178
312425 54 18129952156819238554
339767 52 18335415785683087823
3459 83 13118822381635693244
3729539 64 12108325016248135336
392239 28 16917060109567622718
4015057 19 16081382881409590108
4098825 35 13984959431963173527
4280585 95 18261102006795920291
439807 62 17897731101114705051
463206 1 17603310379122519835
5161694 15 13190634861789870308
57527293 21 18115317657612585868
5924683 9 18336546019290520784
59444896 2 16124134251028793429
6126387 218 9655577402052626724
613672 6 18271535277122630983
7288768 16 13326855547519322157
9981440 41 16985737603051090764

> <PUBCHEM_SHAPE_MULTIPOLES>
522.85
12.8
3.37
1.91
12.18
0.26
-0.65
-12.25
4.92
-4.24
0.42
1
0.46
-0.14

> <PUBCHEM_SHAPE_SELFOVERLAP>
1147.082

> <PUBCHEM_SHAPE_VOLUME>
284.9

> <PUBCHEM_COORDINATE_TYPE>
2
5
10

$$$$
