REMARK  Name = 137520952
REMARK  9 active torsions:
REMARK  status: ('A' for Active; 'I' for Inactive)
REMARK    1  A    between atoms: N_2  and  CA_16
REMARK    2  A    between atoms: C_3  and  C_5
REMARK    3  A    between atoms: C_5  and  O_6
REMARK    4  A    between atoms: C_5  and  C_8
REMARK    5  A    between atoms: C_8  and  N_9
REMARK    6  A    between atoms: C_8  and  C_13
REMARK    7  A    between atoms: CA_16  and  CB_17
REMARK    8  A    between atoms: CA_16  and  C_21
REMARK    9  A    between atoms: C_21  and  O_22
REMARK                            x       y       z     vdW  Elec       q    Type
REMARK                         _______ _______ _______ _____ _____    ______ ____
ROOT
ATOM      1  O   UNL     1       0.042  -1.009   1.914  0.00  0.00    -0.273 OA
ATOM      2  N   UNL     1       0.904  -0.229  -0.096  0.00  0.00    -0.295 N 
ATOM      3  C   ACE A   0      -0.097  -0.717   0.727  0.00  0.00    +0.248 C 
ATOM      4  H   UNL     1       0.682  -0.027  -1.034  0.00  0.00    +0.150 HD
ENDROOT
BRANCH   3   5
ATOM      5  C   UNL     1      -1.448  -0.854   0.036  0.00  0.00    +0.166 C 
BRANCH   5   6
ATOM      6  O   UNL     1      -2.085  -1.990   0.614  0.00  0.00    -0.377 OA
ATOM      7  H   UNL     1      -2.954  -2.118   0.202  0.00  0.00    +0.211 HD
ENDBRANCH   5   6
BRANCH   5   8
ATOM      8  C   UNL     1      -2.354   0.383   0.207  0.00  0.00    -0.029 C 
BRANCH   8   9
ATOM      9  N   UNL     1      -1.848   1.448  -0.672  0.00  0.00    +0.384 N 
ATOM     10  H   UNL     1      -2.434   2.277  -0.574  0.00  0.00    -0.089 HD
ATOM     11  H   UNL     1      -1.870   1.128  -1.640  0.00  0.00    -0.089 HD
ATOM     12  H   UNL     1      -0.888   1.677  -0.412  0.00  0.00    -0.089 HD
ENDBRANCH   8   9
BRANCH   8  13
ATOM     13  C   UNL     1      -3.858   0.098  -0.060  0.00  0.00    -0.017 C 
ATOM     14  C   UNL     1      -4.146  -0.428  -1.470  0.00  0.00    -0.002 C 
ATOM     15  C   UNL     1      -4.730   1.330   0.216  0.00  0.00    -0.002 C 
ENDBRANCH   8  13
ENDBRANCH   5   8
ENDBRANCH   3   5
BRANCH   2  16
ATOM     16  CA  UNL     1       2.257  -0.002   0.354  0.00  0.00    +0.171 C 
BRANCH  16  17
ATOM     17  CB  UNL     1       3.239  -0.894  -0.435  0.00  0.00    +0.029 C 
ATOM     18  CG1 UNL     1       3.362  -0.465  -1.900  0.00  0.00    +0.002 C 
ATOM     19  CG2 UNL     1       2.903  -2.386  -0.347  0.00  0.00    +0.002 C 
ENDBRANCH  16  17
BRANCH  16  21
ATOM     20  OXT UNL     1       3.639   1.952   0.772  0.00  0.00    -0.248 OA
ATOM     21  C   UNL     1       2.596   1.486   0.327  0.00  0.00    +0.332 C 
BRANCH  21  22
ATOM     22  O   UNL     1       1.623   2.277  -0.187  0.00  0.00    -0.479 OA
ATOM     23  H   UNL     1       0.835   1.893  -0.521  0.00  0.00    +0.295 HD
ENDBRANCH  21  22
ENDBRANCH  16  21
ENDBRANCH   2  16
TORSDOF 9
