REMARK  Name = 137699607
REMARK  17 active torsions:
REMARK  status: ('A' for Active; 'I' for Inactive)
REMARK    1  A    between atoms: C_2  and  C_9
REMARK    2  A    between atoms: C_3  and  C_19
REMARK    3  A    between atoms: C_4  and  O_7
REMARK    4  A    between atoms: C_10  and  C_11
REMARK    5  A    between atoms: C_11  and  O_12
REMARK    6  A    between atoms: C_11  and  C_14
REMARK    7  A    between atoms: C_14  and  C_15
REMARK    8  A    between atoms: C_15  and  C_16
REMARK    9  A    between atoms: C_16  and  C_17
REMARK   10  A    between atoms: C_19  and  C_20
REMARK   11  A    between atoms: C_21  and  C_22
REMARK   12  A    between atoms: C_22  and  C_23
REMARK   13  A    between atoms: C_23  and  C_24
REMARK   14  A    between atoms: C_24  and  C_27
REMARK   15  A    between atoms: N_26  and  C_29
REMARK   16  A    between atoms: C_29  and  C_30
REMARK   17  A    between atoms: C_30  and  O_31
REMARK                            x       y       z     vdW  Elec       q    Type
REMARK                         _______ _______ _______ _____ _____    ______ ____
ROOT
ATOM      1  O   UNL     1       1.510   4.140   0.182  0.00  0.00    -0.296 OA
ATOM      2  C   UNL     1       2.992   0.932   0.123  0.00  0.00    +0.056 C 
ATOM      3  C   UNL     1       1.704   1.737  -0.103  0.00  0.00    +0.068 C 
ATOM      4  C   UNL     1       4.085   1.800  -0.515  0.00  0.00    +0.122 C 
ATOM      5  C   UNL     1       3.720   3.229  -0.117  0.00  0.00    +0.094 C 
ATOM      6  C   UNL     1       2.220   3.157   0.013  0.00  0.00    +0.153 C 
ENDROOT
BRANCH   4   7
ATOM      7  O   UNL     1       5.356   1.448   0.007  0.00  0.00    -0.384 OA
ATOM      8  H   UNL     1       5.572   0.539  -0.255  0.00  0.00    +0.210 HD
ENDBRANCH   4   7
BRANCH   2   9
ATOM      9  C   UNL     1       2.923  -0.441  -0.465  0.00  0.00    -0.026 C 
ATOM     10  C   UNL     1       3.090  -1.566   0.246  0.00  0.00    -0.002 C 
BRANCH  10  11
ATOM     11  C   UNL     1       3.021  -2.945  -0.349  0.00  0.00    +0.132 C 
BRANCH  11  12
ATOM     12  O   UNL     1       4.294  -3.572  -0.180  0.00  0.00    -0.380 OA
ATOM     13  H   UNL     1       4.979  -3.030  -0.601  0.00  0.00    +0.211 HD
ENDBRANCH  11  12
BRANCH  11  14
ATOM     14  C   UNL     1       1.975  -3.838   0.333  0.00  0.00    +0.034 C 
BRANCH  14  15
ATOM     15  C   UNL     1       0.565  -3.239   0.314  0.00  0.00    +0.003 C 
BRANCH  15  16
ATOM     16  C   UNL     1      -0.466  -4.090   1.062  0.00  0.00    +0.000 C 
BRANCH  16  17
ATOM     17  C   UNL     1      -1.888  -3.531   0.986  0.00  0.00    +0.000 C 
ATOM     18  C   UNL     1      -2.869  -4.405   1.752  0.00  0.00    +0.000 C 
ENDBRANCH  16  17
ENDBRANCH  15  16
ENDBRANCH  14  15
ENDBRANCH  11  14
ENDBRANCH  10  11
ENDBRANCH   2   9
BRANCH   3  19
ATOM     19  C   UNL     1       0.615   1.429   0.910  0.00  0.00    +0.033 C 
BRANCH  19  20
ATOM     20  C   UNL     1      -0.699   2.028   0.502  0.00  0.00    -0.030 C 
ATOM     21  C   UNL     1      -1.621   2.467   1.372  0.00  0.00    -0.031 C 
BRANCH  21  22
ATOM     22  C   UNL     1      -2.936   3.066   0.963  0.00  0.00    +0.026 C 
BRANCH  22  23
ATOM     23  C   UNL     1      -4.110   2.263   1.531  0.00  0.00    +0.014 C 
BRANCH  23  24
ATOM     24  C   UNL     1      -4.063   0.793   1.113  0.00  0.00    +0.085 C 
BRANCH  24  27
ATOM     25  O   UNL     1      -4.829   1.323  -1.122  0.00  0.00    -0.275 OA
ATOM     26  N   UNL     1      -3.510  -0.561  -0.796  0.00  0.00    -0.302 N 
ATOM     27  C   UNL     1      -4.187   0.578  -0.387  0.00  0.00    +0.223 C 
ATOM     28  H   UNL     1      -3.026  -1.087  -0.119  0.00  0.00    +0.150 HD
BRANCH  26  29
ATOM     29  C   UNL     1      -3.481  -1.013  -2.168  0.00  0.00    +0.121 C 
BRANCH  29  30
ATOM     30  C   UNL     1      -2.311  -0.416  -2.927  0.00  0.00    +0.158 C 
BRANCH  30  31
ATOM     31  O   UNL     1      -1.096  -0.774  -2.280  0.00  0.00    -0.380 OA
ATOM     32  H   UNL     1      -0.347  -0.393  -2.764  0.00  0.00    +0.211 HD
ENDBRANCH  30  31
ENDBRANCH  29  30
ENDBRANCH  26  29
ENDBRANCH  24  27
ENDBRANCH  23  24
ENDBRANCH  22  23
ENDBRANCH  21  22
ENDBRANCH  19  20
ENDBRANCH   3  19
TORSDOF 17
