REMARK  Name = 137638243
REMARK  10 active torsions:
REMARK  status: ('A' for Active; 'I' for Inactive)
REMARK    1  A    between atoms: C_8  and  O_22
REMARK    2  A    between atoms: C_10  and  C_26
REMARK    3  A    between atoms: C_11  and  O_24
REMARK    4  A    between atoms: C_15  and  C_29
REMARK    5  A    between atoms: C_20  and  C_32
REMARK    6  A    between atoms: C_26  and  O_27
REMARK    7  A    between atoms: C_29  and  O_30
REMARK    8  A    between atoms: C_32  and  O_33
REMARK    9  A    between atoms: C_32  and  C_35
REMARK   10  A    between atoms: C_35  and  O_36
REMARK                            x       y       z     vdW  Elec       q    Type
REMARK                         _______ _______ _______ _____ _____    ______ ____
ROOT
ATOM      1  O   UNL     1       1.210   0.719   0.847  0.00  0.00    -0.358 OA
ATOM      2  O   UNL     1      -2.580  -0.338   0.476  0.00  0.00    -0.450 OA
ATOM      3  O   UNL     1      -3.113   0.922  -1.380  0.00  0.00    -0.250 OA
ATOM      4  C   UNL     1       2.143   0.979  -1.313  0.00  0.00    +0.059 C 
ATOM      5  C   UNL     1       0.813   0.673  -0.563  0.00  0.00    +0.099 C 
ATOM      6  C   UNL     1       2.661   2.095  -0.402  0.00  0.00    +0.056 C 
ATOM      7  C   UNL     1       2.490   1.390   0.945  0.00  0.00    +0.146 C 
ATOM      8  C   UNL     1       3.235  -0.132  -1.328  0.00  0.00    +0.118 C 
ATOM      9  C   UNL     1      -0.241   1.876  -0.744  0.00  0.00    +0.060 C 
ATOM     10  C   UNL     1       3.508  -0.766   0.055  0.00  0.00    +0.086 C 
ATOM     11  C   UNL     1       3.557   0.306   1.165  0.00  0.00    +0.142 C 
ATOM     12  C   UNL     1       1.789   3.317  -0.471  0.00  0.00    -0.028 C 
ATOM     13  C   UNL     1       0.132  -0.653  -0.919  0.00  0.00    +0.026 C 
ATOM     14  C   UNL     1       0.465   3.216  -0.644  0.00  0.00    -0.028 C 
ATOM     15  C   UNL     1      -1.489   1.769   0.225  0.00  0.00    +0.135 C 
ATOM     16  C   UNL     1      -0.259  -1.497   0.060  0.00  0.00    +0.006 C 
ATOM     17  C   UNL     1      -0.262  -0.849  -2.364  0.00  0.00    +0.002 C 
ATOM     18  C   UNL     1      -2.507   0.769  -0.325  0.00  0.00    +0.319 C 
ATOM     19  C   UNL     1      -1.438  -2.452  -0.021  0.00  0.00    +0.043 C 
ATOM     20  C   UNL     1      -2.749  -1.614  -0.203  0.00  0.00    +0.198 C 
ATOM     21  C   UNL     1      -1.445  -3.336   1.232  0.00  0.00    +0.004 C 
ENDROOT
BRANCH   8  22
ATOM     22  O   UNL     1       2.930  -1.137  -2.289  0.00  0.00    -0.384 OA
ATOM     23  H   UNL     1       2.762  -0.722  -3.149  0.00  0.00    +0.210 HD
ENDBRANCH   8  22
BRANCH  11  24
ATOM     24  O   UNL     1       4.841   0.912   1.272  0.00  0.00    -0.382 OA
ATOM     25  H   UNL     1       4.826   1.576   1.979  0.00  0.00    +0.210 HD
ENDBRANCH  11  24
BRANCH  10  26
ATOM     26  C   UNL     1       4.762  -1.645   0.029  0.00  0.00    +0.147 C 
BRANCH  26  27
ATOM     27  O   UNL     1       4.955  -2.181   1.323  0.00  0.00    -0.351 OA
ATOM     28  C   UNL     1       6.108  -3.015   1.383  0.00  0.00    +0.174 C 
ENDBRANCH  26  27
ENDBRANCH  10  26
BRANCH  15  29
ATOM     29  C   UNL     1      -2.259   3.076   0.442  0.00  0.00    +0.154 C 
BRANCH  29  30
ATOM     30  O   UNL     1      -3.309   2.826   1.355  0.00  0.00    -0.351 OA
ATOM     31  C   UNL     1      -4.078   3.997   1.611  0.00  0.00    +0.174 C 
ENDBRANCH  29  30
ENDBRANCH  15  29
BRANCH  20  32
ATOM     32  C   UNL     1      -4.025  -2.264   0.313  0.00  0.00    +0.180 C 
BRANCH  32  33
ATOM     33  O   UNL     1      -4.199  -3.520  -0.343  0.00  0.00    -0.379 OA
ATOM     34  H   UNL     1      -3.429  -4.084  -0.170  0.00  0.00    +0.211 HD
ENDBRANCH  32  33
BRANCH  32  35
ATOM     35  C   UNL     1      -5.246  -1.401   0.025  0.00  0.00    +0.170 C 
BRANCH  35  36
ATOM     36  O   UNL     1      -6.401  -2.044   0.553  0.00  0.00    -0.379 OA
ATOM     37  H   UNL     1      -7.184  -1.500   0.374  0.00  0.00    +0.211 HD
ENDBRANCH  35  36
ENDBRANCH  32  35
ENDBRANCH  20  32
TORSDOF 10
