REMARK  Name = 137661660
REMARK  5 active torsions:
REMARK  status: ('A' for Active; 'I' for Inactive)
REMARK    1  A    between atoms: C_5  and  O_21
REMARK    2  A    between atoms: C_10  and  O_23
REMARK    3  A    between atoms: C_14  and  O_25
REMARK    4  A    between atoms: C_16  and  O_27
REMARK    5  A    between atoms: C_17  and  O_29
REMARK                            x       y       z     vdW  Elec       q    Type
REMARK                         _______ _______ _______ _____ _____    ______ ____
ROOT
ATOM      1  O   UNL     1       4.306   1.334  -0.986  0.00  0.00    -0.289 OA
ATOM      2  O   UNL     1      -4.403   1.475  -0.288  0.00  0.00    -0.286 OA
ATOM      3  C   UNL     1       1.669   0.156   1.147  0.00  0.00    +0.061 C 
ATOM      4  C   UNL     1       1.156  -1.066   0.307  0.00  0.00    +0.088 C 
ATOM      5  C   UNL     1       3.189   0.322   0.904  0.00  0.00    +0.176 C 
ATOM      6  C   UNL     1      -0.367  -1.057   0.240  0.00  0.00    +0.019 C 
ATOM      7  C   UNL     1       0.910   1.431   0.776  0.00  0.00    -0.020 C 
ATOM      8  C   UNL     1       1.434  -0.095   2.655  0.00  0.00    +0.008 C 
ATOM      9  C   UNL     1      -1.060   0.164   0.168  0.00  0.00    +0.008 C 
ATOM     10  C   UNL     1       1.761  -1.125  -1.096  0.00  0.00    +0.123 C 
ATOM     11  C   UNL     1      -0.353   1.455   0.304  0.00  0.00    +0.030 C 
ATOM     12  C   UNL     1       3.488   0.517  -0.570  0.00  0.00    +0.203 C 
ATOM     13  C   UNL     1       2.792  -0.381  -1.517  0.00  0.00    +0.073 C 
ATOM     14  C   UNL     1      -1.085  -2.262   0.187  0.00  0.00    +0.138 C 
ATOM     15  C   UNL     1      -2.452   0.161  -0.015  0.00  0.00    +0.073 C 
ATOM     16  C   UNL     1      -1.071   2.692   0.027  0.00  0.00    +0.142 C 
ATOM     17  C   UNL     1      -3.156  -1.045  -0.074  0.00  0.00    +0.140 C 
ATOM     18  C   UNL     1      -2.471  -2.253   0.038  0.00  0.00    +0.073 C 
ATOM     19  C   UNL     1      -3.184   1.443  -0.169  0.00  0.00    +0.202 C 
ATOM     20  C   UNL     1      -2.393   2.700  -0.197  0.00  0.00    +0.079 C 
ENDROOT
BRANCH   5  21
ATOM     21  O   UNL     1       3.724   1.404   1.648  0.00  0.00    -0.377 OA
ATOM     22  H   UNL     1       3.531   1.275   2.590  0.00  0.00    +0.211 HD
ENDBRANCH   5  21
BRANCH  10  23
ATOM     23  O   UNL     1       1.161  -2.037  -1.951  0.00  0.00    -0.475 OA
ATOM     24  C   UNL     1       1.789  -3.297  -1.849  0.00  0.00    +0.252 C 
ENDBRANCH  10  23
BRANCH  14  25
ATOM     25  O   UNL     1      -0.451  -3.467   0.268  0.00  0.00    -0.472 OA
ATOM     26  C   UNL     1      -0.277  -4.019   1.571  0.00  0.00    +0.252 C 
ENDBRANCH  14  25
BRANCH  16  27
ATOM     27  O   UNL     1      -0.319   3.849   0.008  0.00  0.00    -0.471 OA
ATOM     28  C   UNL     1       0.171   4.104  -1.292  0.00  0.00    +0.252 C 
ENDBRANCH  16  27
BRANCH  17  29
ATOM     29  O   UNL     1      -4.508  -1.103  -0.243  0.00  0.00    -0.505 OA
ATOM     30  H   UNL     1      -5.004  -0.312  -0.322  0.00  0.00    +0.292 HD
ENDBRANCH  17  29
TORSDOF 5
