REMARK  Name = 137630424
REMARK  5 active torsions:
REMARK  status: ('A' for Active; 'I' for Inactive)
REMARK    1  A    between atoms: C_3  and  O_18
REMARK    2  A    between atoms: C_6  and  O_20
REMARK    3  A    between atoms: C_14  and  O_22
REMARK    4  A    between atoms: C_15  and  O_24
REMARK    5  A    between atoms: C_16  and  O_26
REMARK                            x       y       z     vdW  Elec       q    Type
REMARK                         _______ _______ _______ _____ _____    ______ ____
ROOT
ATOM      1  O   UNL     1       0.068   2.550  -0.007  0.00  0.00    -0.287 OA
ATOM      2  O   UNL     1      -0.359  -2.769  -0.259  0.00  0.00    -0.287 OA
ATOM      3  C   UNL     1      -3.913   0.884  -0.010  0.00  0.00    +0.095 C 
ATOM      4  C   UNL     1      -3.952  -0.435  -0.794  0.00  0.00    +0.061 C 
ATOM      5  C   UNL     1      -2.560   1.590  -0.218  0.00  0.00    +0.056 C 
ATOM      6  C   UNL     1      -2.799  -1.374  -0.407  0.00  0.00    +0.138 C 
ATOM      7  C   UNL     1      -1.364   0.665  -0.171  0.00  0.00    +0.021 C 
ATOM      8  C   UNL     1      -1.473  -0.673  -0.238  0.00  0.00    +0.043 C 
ATOM      9  C   UNL     1      -5.067   1.796  -0.432  0.00  0.00    +0.030 C 
ATOM     10  C   UNL     1      -0.036   1.329  -0.042  0.00  0.00    +0.195 C 
ATOM     11  C   UNL     1      -0.267  -1.549  -0.182  0.00  0.00    +0.197 C 
ATOM     12  C   UNL     1       1.163   0.476   0.040  0.00  0.00    +0.081 C 
ATOM     13  C   UNL     1       1.051  -0.910  -0.028  0.00  0.00    +0.079 C 
ATOM     14  C   UNL     1       2.423   1.069   0.185  0.00  0.00    +0.171 C 
ATOM     15  C   UNL     1       2.200  -1.708   0.049  0.00  0.00    +0.140 C 
ATOM     16  C   UNL     1       3.566   0.273   0.262  0.00  0.00    +0.175 C 
ATOM     17  C   UNL     1       3.454  -1.114   0.194  0.00  0.00    +0.077 C 
ENDROOT
BRANCH   3  18
ATOM     18  O   UNL     1      -4.082   0.597   1.382  0.00  0.00    -0.386 OA
ATOM     19  H   UNL     1      -3.364   0.018   1.682  0.00  0.00    +0.210 HD
ENDBRANCH   3  18
BRANCH   6  20
ATOM     20  O   UNL     1      -3.107  -2.039   0.818  0.00  0.00    -0.380 OA
ATOM     21  H   UNL     1      -3.958  -2.497   0.732  0.00  0.00    +0.211 HD
ENDBRANCH   6  20
BRANCH  14  22
ATOM     22  O   UNL     1       2.589   2.422   0.260  0.00  0.00    -0.503 OA
ATOM     23  H   UNL     1       1.844   2.989   0.212  0.00  0.00    +0.292 HD
ENDBRANCH  14  22
BRANCH  15  24
ATOM     24  O   UNL     1       2.161  -3.070  -0.011  0.00  0.00    -0.505 OA
ATOM     25  H   UNL     1       1.340  -3.511  -0.108  0.00  0.00    +0.292 HD
ENDBRANCH  15  24
BRANCH  16  26
ATOM     26  O   UNL     1       4.799   0.835   0.403  0.00  0.00    -0.468 OA
ATOM     27  C   UNL     1       5.506   1.154  -0.793  0.00  0.00    +0.253 C 
ENDBRANCH  16  26
TORSDOF 5
