13767334
  -OEChem-03292013303D

 42 45  0     0  0  0  0  0  0999 V2000
   -1.9303    1.3330    0.1643 O   0  0  0  0  0  0  0  0  0  0  0  0
   -4.5423   -2.6300    0.2546 O   0  0  0  0  0  0  0  0  0  0  0  0
    0.5398    5.3363    0.0532 O   0  0  0  0  0  0  0  0  0  0  0  0
    3.0120   -0.9225   -2.8495 O   0  0  0  0  0  0  0  0  0  0  0  0
    0.8141   -0.9383   -2.2707 O   0  0  0  0  0  0  0  0  0  0  0  0
   -4.7902    0.4008   -1.3073 N   0  0  0  0  0  0  0  0  0  0  0  0
    0.5310   -0.1142    0.4042 C   0  0  0  0  0  0  0  0  0  0  0  0
   -0.7898   -0.7931    0.3677 C   0  0  0  0  0  0  0  0  0  0  0  0
   -1.9531   -0.0327    0.2492 C   0  0  0  0  0  0  0  0  0  0  0  0
    0.5446    1.2440    0.3177 C   0  0  0  0  0  0  0  0  0  0  0  0
   -3.2143   -0.6356    0.2109 C   0  0  0  0  0  0  0  0  0  0  0  0
    1.7960   -0.8470    0.5280 C   0  0  0  0  0  0  0  0  0  0  0  0
   -0.7134    1.9984    0.1943 C   0  0  0  0  0  0  0  0  0  0  0  0
   -0.9194   -2.1896    0.4482 C   0  0  0  0  0  0  0  0  0  0  0  0
   -3.3253   -2.0203    0.2915 C   0  0  0  0  0  0  0  0  0  0  0  0
    1.7937    2.0185    0.3417 C   0  0  0  0  0  0  0  0  0  0  0  0
   -4.4487    0.2000    0.0825 C   0  0  0  0  0  0  0  0  0  0  0  0
   -2.1775   -2.7975    0.4103 C   0  0  0  0  0  0  0  0  0  0  0  0
    2.4878   -1.2824   -0.5961 C   0  0  0  0  0  0  0  0  0  0  0  0
   -0.7189    3.3365    0.1085 C   0  0  0  0  0  0  0  0  0  0  0  0
    2.2881   -1.0963    1.8043 C   0  0  0  0  0  0  0  0  0  0  0  0
    1.8085    3.3543    0.2569 C   0  0  0  0  0  0  0  0  0  0  0  0
    0.5434    4.1129    0.1337 C   0  0  0  0  0  0  0  0  0  0  0  0
    3.6878   -1.9767   -0.4424 C   0  0  0  0  0  0  0  0  0  0  0  0
    3.4880   -1.7906    1.9580 C   0  0  0  0  0  0  0  0  0  0  0  0
    4.1880   -2.2308    0.8347 C   0  0  0  0  0  0  0  0  0  0  0  0
    2.0002   -1.0371   -1.9485 C   0  0  0  0  0  0  0  0  0  0  0  0
   -0.0484   -2.8335    0.5409 H   0  0  0  0  0  0  0  0  0  0  0  0
    2.7507    1.5160    0.4294 H   0  0  0  0  0  0  0  0  0  0  0  0
   -5.2926   -0.2687    0.6024 H   0  0  0  0  0  0  0  0  0  0  0  0
   -4.3262    1.1699    0.5780 H   0  0  0  0  0  0  0  0  0  0  0  0
   -2.2430   -3.8805    0.4742 H   0  0  0  0  0  0  0  0  0  0  0  0
   -1.6444    3.8952    0.0175 H   0  0  0  0  0  0  0  0  0  0  0  0
    1.7547   -0.7612    2.6905 H   0  0  0  0  0  0  0  0  0  0  0  0
    2.7376    3.9121    0.2754 H   0  0  0  0  0  0  0  0  0  0  0  0
    4.2510   -2.3460   -1.2955 H   0  0  0  0  0  0  0  0  0  0  0  0
    3.8769   -1.9894    2.9524 H   0  0  0  0  0  0  0  0  0  0  0  0
    5.1206   -2.7743    0.9549 H   0  0  0  0  0  0  0  0  0  0  0  0
   -4.9388   -0.4947   -1.7705 H   0  0  0  0  0  0  0  0  0  0  0  0
   -4.0249    0.8607   -1.7984 H   0  0  0  0  0  0  0  0  0  0  0  0
   -4.4180   -3.5922    0.3226 H   0  0  0  0  0  0  0  0  0  0  0  0
    2.6765   -0.7567   -3.7563 H   0  0  0  0  0  0  0  0  0  0  0  0
  1  9  1  0  0  0  0
  1 13  1  0  0  0  0
  2 15  1  0  0  0  0
  2 41  1  0  0  0  0
  3 23  2  0  0  0  0
  4 27  1  0  0  0  0
  4 42  1  0  0  0  0
  5 27  2  0  0  0  0
  6 17  1  0  0  0  0
  6 39  1  0  0  0  0
  6 40  1  0  0  0  0
  7  8  1  0  0  0  0
  7 10  2  0  0  0  0
  7 12  1  0  0  0  0
  8  9  2  0  0  0  0
  8 14  1  0  0  0  0
  9 11  1  0  0  0  0
 10 13  1  0  0  0  0
 10 16  1  0  0  0  0
 11 15  2  0  0  0  0
 11 17  1  0  0  0  0
 12 19  1  0  0  0  0
 12 21  2  0  0  0  0
 13 20  2  0  0  0  0
 14 18  2  0  0  0  0
 14 28  1  0  0  0  0
 15 18  1  0  0  0  0
 16 22  2  0  0  0  0
 16 29  1  0  0  0  0
 17 30  1  0  0  0  0
 17 31  1  0  0  0  0
 18 32  1  0  0  0  0
 19 24  2  0  0  0  0
 19 27  1  0  0  0  0
 20 23  1  0  0  0  0
 20 33  1  0  0  0  0
 21 25  1  0  0  0  0
 21 34  1  0  0  0  0
 22 23  1  0  0  0  0
 22 35  1  0  0  0  0
 24 26  1  0  0  0  0
 24 36  1  0  0  0  0
 25 26  2  0  0  0  0
 25 37  1  0  0  0  0
 26 38  1  0  0  0  0
M  END
> <PUBCHEM_COMPOUND_CID>
13767334

> <PUBCHEM_CONFORMER_RMSD>
0.6

> <PUBCHEM_CONFORMER_DIVERSEORDER>
1
2

> <PUBCHEM_MMFF94_PARTIAL_CHARGES>
39
1 -0.16
11 -0.14
12 0.03
13 0.08
14 -0.15
15 0.08
16 -0.15
17 0.41
18 -0.15
19 0.09
2 -0.53
20 -0.14
21 -0.15
22 -0.14
23 0.54
24 -0.15
25 -0.15
26 -0.15
27 0.63
28 0.15
29 0.15
3 -0.57
32 0.15
33 0.15
34 0.15
35 0.15
36 0.15
37 0.15
38 0.15
39 0.36
4 -0.65
40 0.36
41 0.45
42 0.5
5 -0.57
6 -0.99
7 -0.06
8 0.03
9 0.08

> <PUBCHEM_EFFECTIVE_ROTOR_COUNT>
3

> <PUBCHEM_PHARMACOPHORE_FEATURES>
12
1 1 acceptor
1 2 donor
1 3 acceptor
1 4 acceptor
1 5 acceptor
1 6 cation
1 6 donor
3 4 5 27 anion
6 1 7 8 9 10 13 rings
6 10 13 16 20 22 23 rings
6 12 19 21 24 25 26 rings
6 8 9 11 14 15 18 rings

> <PUBCHEM_HEAVY_ATOM_COUNT>
27

> <PUBCHEM_ATOM_DEF_STEREO_COUNT>
0

> <PUBCHEM_ATOM_UDEF_STEREO_COUNT>
0

> <PUBCHEM_BOND_DEF_STEREO_COUNT>
0

> <PUBCHEM_BOND_UDEF_STEREO_COUNT>
0

> <PUBCHEM_ISOTOPIC_ATOM_COUNT>
0

> <PUBCHEM_COMPONENT_COUNT>
1

> <PUBCHEM_CACTVS_TAUTO_COUNT>
5

> <PUBCHEM_CONFORMER_ID>
00D212A600000001

> <PUBCHEM_MMFF94_ENERGY>
94.9831

> <PUBCHEM_FEATURE_SELFOVERLAP>
61.01

> <PUBCHEM_SHAPE_FINGERPRINT>
10411042 1 18409727352693162099
107951 10 17181101449421372540
1100329 8 18338797793741136561
11578080 2 17532067506242145724
11640471 11 17174937166429050492
12160290 23 17765454053237446745
12236239 1 17604153610431733170
12363563 72 18411981347387940723
12553582 1 18267601138354864331
12788726 201 18118983407239797486
13009979 54 17969229936622750762
13140716 1 18410573959861975209
133893 2 18124054548140876193
138480 1 18337668719235848456
14022347 108 18267603328814650051
14223421 5 17975695309880601115
14787075 74 18114748230769094250
14790565 3 17907314147234113376
15475509 8 17770249097130365573
16752209 62 18118969091961053163
16945 1 18338802191370500355
17980427 23 17912895530253840945
1813 80 18200603501238797857
19591789 44 17115799812927265897
20600515 1 18342453703798454417
20642791 13 17986097514323536121
20905425 154 18411703209943703816
21133665 82 17835251421696905388
21285901 2 17844529903036020463
21421861 104 17975977879958337387
21524375 3 17333373896508582497
22182313 1 17898000472999325111
23184049 29 18408881832556392866
23366157 5 18043528528409418577
23419403 2 17535427652758472734
23557571 272 17985549953432556390
23559900 14 18412544306189785426
3052486 1 18049729516144500233
3091708 16 9642455833052160800
3298306 158 17835532887397203644
3380486 77 18337667508255511731
460360 51 18334021618287803913
48014 12 15300340635054575948
57527293 21 17916000444297415802
59755656 215 18048034370442344629
6138700 20 18194975269358883812
7364860 26 18123191461340167107
81228 2 18056492646595000961
9709674 26 18192710270762389011
9841814 1 18338244872151021739

> <PUBCHEM_SHAPE_MULTIPOLES>
521.32
7.05
4.99
1.56
4.26
7.81
1.01
-6.39
0.12
-0.3
-0.78
-1.82
-0.9
0.16

> <PUBCHEM_SHAPE_SELFOVERLAP>
1175.7

> <PUBCHEM_SHAPE_VOLUME>
271.7

> <PUBCHEM_COORDINATE_TYPE>
2
5
10

$$$$
