REMARK  Name = 137699420
REMARK  5 active torsions:
REMARK  status: ('A' for Active; 'I' for Inactive)
REMARK    1  A    between atoms: N_2  and  C1*_17
REMARK    2  A    between atoms: C_9  and  O_26
REMARK    3  A    between atoms: C3*_19  and  O3*_21
REMARK    4  A    between atoms: C4*_20  and  C5*_23
REMARK    5  A    between atoms: C5*_23  and  O5*_24
REMARK                            x       y       z     vdW  Elec       q    Type
REMARK                         _______ _______ _______ _____ _____    ______ ____
ROOT
ATOM      1  O   UNL     1      -2.468   2.925   0.070  0.00  0.00    -0.272 OA
ATOM      2  N   UNL     1       1.590   1.361  -0.321  0.00  0.00    -0.247 N 
ATOM      3  N   UNL     1      -2.312   0.573   0.077  0.00  0.00    -0.167 N 
ATOM      4  N   UNL     1       0.338   3.131   0.367  0.00  0.00    -0.181 NA
ATOM      5  N   UNL     1      -0.116  -0.380  -0.296  0.00  0.00    -0.325 NA
ATOM      6  N   UNL     1      -1.892  -1.773  -0.124  0.00  0.00    -0.199 NA
ATOM      7  C   UNL     1       0.385   0.776  -0.036  0.00  0.00    +0.200 C 
ATOM      8  C   UNL     1      -0.403   1.858   0.663  0.00  0.00    +0.219 C 
ATOM      9  C   UNL     1      -3.753   0.373   0.016  0.00  0.00    +0.206 C 
ATOM     10  C   UNL     1      -1.825   1.891   0.213  0.00  0.00    +0.264 C 
ATOM     11  C   UNL     1      -4.104  -0.958   0.660  0.00  0.00    +0.077 C 
ATOM     12  C   UNL     1       1.477   2.706  -0.117  0.00  0.00    +0.188 C 
ATOM     13  C   UNL     1      -3.323  -2.074  -0.028  0.00  0.00    +0.120 C 
ATOM     14  C   UNL     1      -1.472  -0.554  -0.087  0.00  0.00    +0.152 C 
ATOM     15  C   UNL     1      -3.480  -3.392   0.722  0.00  0.00    +0.027 C 
ENDROOT
BRANCH   2  17
ATOM     16  O4* UNL     1       2.476  -0.704  -1.050  0.00  0.00    -0.335 OA
ATOM     17  C1* UNL     1       2.689   0.715  -0.999  0.00  0.00    +0.197 C 
ATOM     18  C2* UNL     1       3.995   0.944  -0.248  0.00  0.00    +0.083 C 
ATOM     19  C3* UNL     1       4.113  -0.297   0.610  0.00  0.00    +0.144 C 
ATOM     20  C4* UNL     1       3.522  -1.358  -0.308  0.00  0.00    +0.173 C 
BRANCH  19  21
ATOM     21  O3* UNL     1       3.338  -0.117   1.788  0.00  0.00    -0.382 OA
ATOM     22  H3* UNL     1       3.747   0.565   2.343  0.00  0.00    +0.210 HD
ENDBRANCH  19  21
BRANCH  20  23
ATOM     23  C5* UNL     1       2.954  -2.586   0.380  0.00  0.00    +0.169 C 
BRANCH  23  24
ATOM     24  O5* UNL     1       2.437  -3.466  -0.605  0.00  0.00    -0.379 OA
ATOM     25  H5* UNL     1       2.072  -4.254  -0.175  0.00  0.00    +0.211 HD
ENDBRANCH  23  24
ENDBRANCH  20  23
ENDBRANCH   2  17
BRANCH   9  26
ATOM     26  O   UNL     1      -4.164   0.405  -1.347  0.00  0.00    -0.366 OA
ATOM     27  H   UNL     1      -3.930   1.262  -1.735  0.00  0.00    +0.212 HD
ENDBRANCH   9  26
TORSDOF 5
