137699607
  -OEChem-03292013293D

 65 65  0     1  0  0  0  0  0999 V2000
    5.3556    1.4480    0.0069 O   0  0  0  0  0  0  0  0  0  0  0  0
    1.5096    4.1401    0.1820 O   0  0  0  0  0  0  0  0  0  0  0  0
    4.2936   -3.5716   -0.1800 O   0  0  0  0  0  0  0  0  0  0  0  0
   -4.8289    1.3233   -1.1223 O   0  0  0  0  0  0  0  0  0  0  0  0
   -1.0962   -0.7738   -2.2798 O   0  0  0  0  0  0  0  0  0  0  0  0
   -3.5102   -0.5612   -0.7956 N   0  0  0  0  0  0  0  0  0  0  0  0
    2.9921    0.9320    0.1228 C   0  0  2  0  0  0  0  0  0  0  0  0
    1.7035    1.7371   -0.1034 C   0  0  2  0  0  0  0  0  0  0  0  0
    4.0845    1.8005   -0.5155 C   0  0  1  0  0  0  0  0  0  0  0  0
    3.7195    3.2287   -0.1172 C   0  0  0  0  0  0  0  0  0  0  0  0
    2.2199    3.1567    0.0129 C   0  0  0  0  0  0  0  0  0  0  0  0
    0.6149    1.4292    0.9096 C   0  0  0  0  0  0  0  0  0  0  0  0
    2.9231   -0.4413   -0.4646 C   0  0  0  0  0  0  0  0  0  0  0  0
    3.0898   -1.5663    0.2460 C   0  0  0  0  0  0  0  0  0  0  0  0
   -0.6993    2.0280    0.5022 C   0  0  0  0  0  0  0  0  0  0  0  0
    3.0207   -2.9450   -0.3487 C   0  0  2  0  0  0  0  0  0  0  0  0
    1.9746   -3.8376    0.3329 C   0  0  0  0  0  0  0  0  0  0  0  0
   -1.6210    2.4674    1.3719 C   0  0  0  0  0  0  0  0  0  0  0  0
    0.5651   -3.2388    0.3140 C   0  0  0  0  0  0  0  0  0  0  0  0
   -2.9357    3.0662    0.9626 C   0  0  0  0  0  0  0  0  0  0  0  0
   -0.4663   -4.0896    1.0624 C   0  0  0  0  0  0  0  0  0  0  0  0
   -4.1099    2.2627    1.5306 C   0  0  0  0  0  0  0  0  0  0  0  0
   -1.8878   -3.5313    0.9857 C   0  0  0  0  0  0  0  0  0  0  0  0
   -4.0634    0.7930    1.1134 C   0  0  0  0  0  0  0  0  0  0  0  0
   -2.8687   -4.4055    1.7524 C   0  0  0  0  0  0  0  0  0  0  0  0
   -4.1874    0.5784   -0.3865 C   0  0  0  0  0  0  0  0  0  0  0  0
   -3.4813   -1.0133   -2.1678 C   0  0  0  0  0  0  0  0  0  0  0  0
   -2.3105   -0.4163   -2.9270 C   0  0  0  0  0  0  0  0  0  0  0  0
    3.1966    0.8564    1.2015 H   0  0  0  0  0  0  0  0  0  0  0  0
    1.3487    1.6031   -1.1345 H   0  0  0  0  0  0  0  0  0  0  0  0
    4.1037    1.6912   -1.6070 H   0  0  0  0  0  0  0  0  0  0  0  0
    4.0082    3.9427   -0.8925 H   0  0  0  0  0  0  0  0  0  0  0  0
    4.1603    3.5166    0.8418 H   0  0  0  0  0  0  0  0  0  0  0  0
    0.4729    0.3436    0.9708 H   0  0  0  0  0  0  0  0  0  0  0  0
    0.9043    1.7793    1.9082 H   0  0  0  0  0  0  0  0  0  0  0  0
    2.7226   -0.5154   -1.5311 H   0  0  0  0  0  0  0  0  0  0  0  0
    6.0041    2.0721   -0.3613 H   0  0  0  0  0  0  0  0  0  0  0  0
    3.2956   -1.4994    1.3118 H   0  0  0  0  0  0  0  0  0  0  0  0
   -0.9256    2.0623   -0.5611 H   0  0  0  0  0  0  0  0  0  0  0  0
    2.8122   -2.9047   -1.4243 H   0  0  0  0  0  0  0  0  0  0  0  0
    1.9693   -4.8211   -0.1542 H   0  0  0  0  0  0  0  0  0  0  0  0
    2.2778   -4.0286    1.3713 H   0  0  0  0  0  0  0  0  0  0  0  0
   -1.4131    2.4191    2.4380 H   0  0  0  0  0  0  0  0  0  0  0  0
    0.5679   -2.2410    0.7668 H   0  0  0  0  0  0  0  0  0  0  0  0
    0.2444   -3.1142   -0.7276 H   0  0  0  0  0  0  0  0  0  0  0  0
   -3.0150    3.1382   -0.1282 H   0  0  0  0  0  0  0  0  0  0  0  0
   -2.9869    4.0920    1.3462 H   0  0  0  0  0  0  0  0  0  0  0  0
   -0.4574   -5.1060    0.6493 H   0  0  0  0  0  0  0  0  0  0  0  0
   -0.1645   -4.1733    2.1139 H   0  0  0  0  0  0  0  0  0  0  0  0
   -5.0479    2.7201    1.1938 H   0  0  0  0  0  0  0  0  0  0  0  0
   -4.1038    2.3217    2.6262 H   0  0  0  0  0  0  0  0  0  0  0  0
    4.9519   -3.0337   -0.6528 H   0  0  0  0  0  0  0  0  0  0  0  0
   -1.9080   -2.5173    1.4010 H   0  0  0  0  0  0  0  0  0  0  0  0
   -2.2035   -3.4644   -0.0614 H   0  0  0  0  0  0  0  0  0  0  0  0
   -3.1622    0.3058    1.5013 H   0  0  0  0  0  0  0  0  0  0  0  0
   -4.9138    0.2720    1.5712 H   0  0  0  0  0  0  0  0  0  0  0  0
   -2.8925   -5.4205    1.3431 H   0  0  0  0  0  0  0  0  0  0  0  0
   -2.5954   -4.4671    2.8106 H   0  0  0  0  0  0  0  0  0  0  0  0
   -3.8784   -3.9883    1.6859 H   0  0  0  0  0  0  0  0  0  0  0  0
   -3.0022   -1.1117   -0.1111 H   0  0  0  0  0  0  0  0  0  0  0  0
   -4.4252   -0.7538   -2.6577 H   0  0  0  0  0  0  0  0  0  0  0  0
   -3.3916   -2.1040   -2.1311 H   0  0  0  0  0  0  0  0  0  0  0  0
   -2.2863   -0.7961   -3.9528 H   0  0  0  0  0  0  0  0  0  0  0  0
   -2.3763    0.6764   -2.9529 H   0  0  0  0  0  0  0  0  0  0  0  0
   -0.3721   -0.3652   -2.7841 H   0  0  0  0  0  0  0  0  0  0  0  0
  1  9  1  0  0  0  0
  1 37  1  0  0  0  0
  2 11  2  0  0  0  0
  3 16  1  0  0  0  0
  3 52  1  0  0  0  0
  4 26  2  0  0  0  0
  5 28  1  0  0  0  0
  5 65  1  0  0  0  0
  6 26  1  0  0  0  0
  6 27  1  0  0  0  0
  6 60  1  0  0  0  0
  7  8  1  0  0  0  0
  7  9  1  0  0  0  0
  7 13  1  0  0  0  0
  7 29  1  0  0  0  0
  8 11  1  0  0  0  0
  8 12  1  0  0  0  0
  8 30  1  0  0  0  0
  9 10  1  0  0  0  0
  9 31  1  0  0  0  0
 10 11  1  0  0  0  0
 10 32  1  0  0  0  0
 10 33  1  0  0  0  0
 12 15  1  0  0  0  0
 12 34  1  0  0  0  0
 12 35  1  0  0  0  0
 13 14  2  0  0  0  0
 13 36  1  0  0  0  0
 14 16  1  0  0  0  0
 14 38  1  0  0  0  0
 15 18  2  0  0  0  0
 15 39  1  0  0  0  0
 16 17  1  0  0  0  0
 16 40  1  0  0  0  0
 17 19  1  0  0  0  0
 17 41  1  0  0  0  0
 17 42  1  0  0  0  0
 18 20  1  0  0  0  0
 18 43  1  0  0  0  0
 19 21  1  0  0  0  0
 19 44  1  0  0  0  0
 19 45  1  0  0  0  0
 20 22  1  0  0  0  0
 20 46  1  0  0  0  0
 20 47  1  0  0  0  0
 21 23  1  0  0  0  0
 21 48  1  0  0  0  0
 21 49  1  0  0  0  0
 22 24  1  0  0  0  0
 22 50  1  0  0  0  0
 22 51  1  0  0  0  0
 23 25  1  0  0  0  0
 23 53  1  0  0  0  0
 23 54  1  0  0  0  0
 24 26  1  0  0  0  0
 24 55  1  0  0  0  0
 24 56  1  0  0  0  0
 25 57  1  0  0  0  0
 25 58  1  0  0  0  0
 25 59  1  0  0  0  0
 27 28  1  0  0  0  0
 27 61  1  0  0  0  0
 27 62  1  0  0  0  0
 28 63  1  0  0  0  0
 28 64  1  0  0  0  0
M  END
> <PUBCHEM_COMPOUND_CID>
137699607

> <PUBCHEM_CONFORMER_RMSD>
1.8

> <PUBCHEM_CONFORMER_DIVERSEORDER>
2
23
29
79
69
47
18
33
89
20
73
5
56
76
63
36
58
34
11
54
25
42
71
75
21
39
15
37
26
83
22
50
55
46
13
14
59
65
81
44
35
32
53
66
1
24
60
48
4
51
52
82
61
57
12
10
70
43
16
27
49
8
3
86
87
28
45
78
38
72
7
67
77
41
17
85
84
40
19
80
6
31
88
30
64
74
68
62
9

> <PUBCHEM_MMFF94_PARTIAL_CHARGES>
30
1 -0.68
10 0.06
11 0.45
12 0.14
13 -0.29
14 -0.29
15 -0.29
16 0.42
18 -0.29
2 -0.57
20 0.14
24 0.06
26 0.57
27 0.3
28 0.28
3 -0.68
36 0.15
37 0.4
38 0.15
39 0.15
4 -0.57
43 0.15
5 -0.68
52 0.4
6 -0.73
60 0.37
65 0.4
7 0.14
8 0.06
9 0.28

> <PUBCHEM_EFFECTIVE_ROTOR_COUNT>
15.8

> <PUBCHEM_PHARMACOPHORE_FEATURES>
13
1 1 acceptor
1 1 donor
1 2 acceptor
1 25 hydrophobe
1 3 acceptor
1 3 donor
1 4 acceptor
1 5 acceptor
1 5 donor
1 6 donor
4 17 19 21 23 hydrophobe
4 18 20 22 24 hydrophobe
5 7 8 9 10 11 rings

> <PUBCHEM_HEAVY_ATOM_COUNT>
28

> <PUBCHEM_ATOM_DEF_STEREO_COUNT>
1

> <PUBCHEM_ATOM_UDEF_STEREO_COUNT>
3

> <PUBCHEM_BOND_DEF_STEREO_COUNT>
2

> <PUBCHEM_BOND_UDEF_STEREO_COUNT>
0

> <PUBCHEM_ISOTOPIC_ATOM_COUNT>
0

> <PUBCHEM_COMPONENT_COUNT>
1

> <PUBCHEM_CACTVS_TAUTO_COUNT>
-1

> <PUBCHEM_CONFORMER_ID>
0835211700000002

> <PUBCHEM_MMFF94_ENERGY>
23.0578

> <PUBCHEM_FEATURE_SELFOVERLAP>
65.977

> <PUBCHEM_SHAPE_FINGERPRINT>
13402501 40 17760086615639100451
14117953 113 17409091292504646965
15403338 16 17976257933732746295
20764821 26 17907291409760760827
3882209 13 16311589499206933651
4409770 3 17545311347390363280
463206 1 17904215732013789971
5309563 4 17472711221193199394

> <PUBCHEM_SHAPE_MULTIPOLES>
541.9
9.46
6.91
1.81
0.21
5.58
1.32
-3.31
0.93
1.91
-3.25
-2.86
0.54
-0.26

> <PUBCHEM_SHAPE_SELFOVERLAP>
1058.861

> <PUBCHEM_SHAPE_VOLUME>
325.5

> <PUBCHEM_COORDINATE_TYPE>
2
5
10

$$$$
