REMARK  Name = 13767334
REMARK  6 active torsions:
REMARK  status: ('A' for Active; 'I' for Inactive)
REMARK    1  A    between atoms: C_3  and  C_16
REMARK    2  A    between atoms: C_7  and  C_28
REMARK    3  A    between atoms: C_10  and  O_26
REMARK    4  A    between atoms: C_17  and  C_23
REMARK    5  A    between atoms: C_23  and  O_24
REMARK    6  A    between atoms: C_28  and  N_29
REMARK                            x       y       z     vdW  Elec       q    Type
REMARK                         _______ _______ _______ _____ _____    ______ ____
ROOT
ATOM      1  O   UNL     1      -1.930   1.333   0.164  0.00  0.00    -0.474 OA
ATOM      2  O   UNL     1       0.540   5.336   0.053  0.00  0.00    -0.291 OA
ATOM      3  C   UNL     1       0.531  -0.114   0.404  0.00  0.00    +0.002 C 
ATOM      4  C   UNL     1      -0.790  -0.793   0.368  0.00  0.00    +0.021 C 
ATOM      5  C   UNL     1      -1.953  -0.033   0.249  0.00  0.00    +0.207 C 
ATOM      6  C   UNL     1       0.545   1.244   0.318  0.00  0.00    +0.030 C 
ATOM      7  C   UNL     1      -3.214  -0.636   0.211  0.00  0.00    +0.011 C 
ATOM      8  C   UNL     1      -0.713   1.998   0.194  0.00  0.00    +0.124 C 
ATOM      9  C   UNL     1      -0.919  -2.190   0.448  0.00  0.00    +0.003 C 
ATOM     10  C   UNL     1      -3.325  -2.020   0.291  0.00  0.00    +0.127 C 
ATOM     11  C   UNL     1       1.794   2.018   0.342  0.00  0.00    +0.006 C 
ATOM     12  C   UNL     1      -2.178  -2.797   0.410  0.00  0.00    +0.036 C 
ATOM     13  C   UNL     1      -0.719   3.337   0.108  0.00  0.00    +0.133 C 
ATOM     14  C   UNL     1       1.808   3.354   0.257  0.00  0.00    +0.038 C 
ATOM     15  C   UNL     1       0.543   4.113   0.134  0.00  0.00    +0.181 C 
ENDROOT
BRANCH   3  16
ATOM     16  C   UNL     1       1.796  -0.847   0.528  0.00  0.00    +0.006 C 
ATOM     17  C   UNL     1       2.488  -1.282  -0.596  0.00  0.00    +0.075 C 
ATOM     18  C   UNL     1       2.288  -1.096   1.804  0.00  0.00    +0.000 C 
ATOM     19  C   UNL     1       3.688  -1.977  -0.442  0.00  0.00    +0.006 C 
ATOM     20  C   UNL     1       3.488  -1.791   1.958  0.00  0.00    +0.000 C 
ATOM     21  C   UNL     1       4.188  -2.231   0.835  0.00  0.00    +0.000 C 
BRANCH  17  23
ATOM     22  O   UNL     1       0.814  -0.938  -2.271  0.00  0.00    -0.245 OA
ATOM     23  C   UNL     1       2.000  -1.037  -1.948  0.00  0.00    +0.338 C 
BRANCH  23  24
ATOM     24  O   UNL     1       3.012  -0.922  -2.849  0.00  0.00    -0.477 OA
ATOM     25  H   UNL     1       3.902  -1.003  -2.567  0.00  0.00    +0.295 HD
ENDBRANCH  23  24
ENDBRANCH  17  23
ENDBRANCH   3  16
BRANCH  10  26
ATOM     26  O   UNL     1      -4.542  -2.630   0.255  0.00  0.00    -0.506 OA
ATOM     27  H   UNL     1      -5.322  -2.116   0.175  0.00  0.00    +0.292 HD
ENDBRANCH  10  26
BRANCH   7  28
ATOM     28  C   UNL     1      -4.449   0.200   0.083  0.00  0.00    -0.056 C 
BRANCH  28  29
ATOM     29  N   UNL     1      -4.790   0.401  -1.307  0.00  0.00    +0.383 N 
ATOM     30  H   UNL     1      -5.633   0.972  -1.371  0.00  0.00    -0.089 HD
ATOM     31  H   UNL     1      -4.957  -0.503  -1.750  0.00  0.00    -0.089 HD
ATOM     32  H   UNL     1      -4.021   0.875  -1.781  0.00  0.00    -0.089 HD
ENDBRANCH  28  29
ENDBRANCH   7  28
TORSDOF 6
