137699420
  -OEChem-03292013293D

 43 46  0     1  0  0  0  0  0999 V2000
    2.4759   -0.7043   -1.0497 O   0  0  0  0  0  0  0  0  0  0  0  0
    3.3378   -0.1166    1.7883 O   0  0  0  0  0  0  0  0  0  0  0  0
   -4.1638    0.4049   -1.3466 O   0  0  0  0  0  0  0  0  0  0  0  0
    2.4371   -3.4659   -0.6053 O   0  0  0  0  0  0  0  0  0  0  0  0
   -2.4684    2.9252    0.0695 O   0  0  0  0  0  0  0  0  0  0  0  0
    1.5899    1.3613   -0.3205 N   0  0  0  0  0  0  0  0  0  0  0  0
   -2.3118    0.5734    0.0768 N   0  0  0  0  0  0  0  0  0  0  0  0
    0.3381    3.1313    0.3668 N   0  0  0  0  0  0  0  0  0  0  0  0
   -0.1157   -0.3797   -0.2965 N   0  0  0  0  0  0  0  0  0  0  0  0
   -1.8917   -1.7727   -0.1236 N   0  0  0  0  0  0  0  0  0  0  0  0
    2.6886    0.7153   -0.9990 C   0  0  1  0  0  0  0  0  0  0  0  0
    3.9947    0.9442   -0.2478 C   0  0  0  0  0  0  0  0  0  0  0  0
    4.1129   -0.2971    0.6099 C   0  0  2  0  0  0  0  0  0  0  0  0
    3.5220   -1.3583   -0.3080 C   0  0  1  0  0  0  0  0  0  0  0  0
    0.3848    0.7761   -0.0362 C   0  0  0  0  0  0  0  0  0  0  0  0
   -0.4034    1.8577    0.6626 C   0  0  2  0  0  0  0  0  0  0  0  0
   -3.7534    0.3730    0.0164 C   0  0  2  0  0  0  0  0  0  0  0  0
   -1.8253    1.8913    0.2127 C   0  0  0  0  0  0  0  0  0  0  0  0
    2.9542   -2.5859    0.3798 C   0  0  0  0  0  0  0  0  0  0  0  0
   -4.1044   -0.9584    0.6601 C   0  0  0  0  0  0  0  0  0  0  0  0
    1.4770    2.7057   -0.1171 C   0  0  0  0  0  0  0  0  0  0  0  0
   -3.3229   -2.0741   -0.0282 C   0  0  2  0  0  0  0  0  0  0  0  0
   -1.4720   -0.5541   -0.0866 C   0  0  0  0  0  0  0  0  0  0  0  0
   -3.4804   -3.3923    0.7221 C   0  0  0  0  0  0  0  0  0  0  0  0
    2.7525    1.0905   -2.0263 H   0  0  0  0  0  0  0  0  0  0  0  0
    4.0330    1.8764    0.3229 H   0  0  0  0  0  0  0  0  0  0  0  0
    4.8201    0.9543   -0.9706 H   0  0  0  0  0  0  0  0  0  0  0  0
    5.1404   -0.5279    0.9056 H   0  0  0  0  0  0  0  0  0  0  0  0
    4.2656   -1.6638   -1.0554 H   0  0  0  0  0  0  0  0  0  0  0  0
   -0.3818    1.6785    1.7448 H   0  0  0  0  0  0  0  0  0  0  0  0
   -4.2613    1.1924    0.5367 H   0  0  0  0  0  0  0  0  0  0  0  0
   -5.1791   -1.1562    0.5738 H   0  0  0  0  0  0  0  0  0  0  0  0
   -3.8540   -0.9243    1.7282 H   0  0  0  0  0  0  0  0  0  0  0  0
    2.1257   -2.3203    1.0442 H   0  0  0  0  0  0  0  0  0  0  0  0
    3.7268   -3.1075    0.9526 H   0  0  0  0  0  0  0  0  0  0  0  0
    2.3106    3.3482   -0.4358 H   0  0  0  0  0  0  0  0  0  0  0  0
   -3.7067   -2.2176   -1.0460 H   0  0  0  0  0  0  0  0  0  0  0  0
    3.7367    0.6136    2.2917 H   0  0  0  0  0  0  0  0  0  0  0  0
   -3.0750   -3.3224    1.7377 H   0  0  0  0  0  0  0  0  0  0  0  0
   -2.9419   -4.1964    0.2087 H   0  0  0  0  0  0  0  0  0  0  0  0
   -4.5345   -3.6799    0.7919 H   0  0  0  0  0  0  0  0  0  0  0  0
   -5.1234    0.2494   -1.3661 H   0  0  0  0  0  0  0  0  0  0  0  0
    2.0818   -4.2413   -0.1384 H   0  0  0  0  0  0  0  0  0  0  0  0
  1 11  1  0  0  0  0
  1 14  1  0  0  0  0
  2 13  1  0  0  0  0
  2 38  1  0  0  0  0
  3 17  1  0  0  0  0
  3 42  1  0  0  0  0
  4 19  1  0  0  0  0
  4 43  1  0  0  0  0
  5 18  2  0  0  0  0
  6 11  1  0  0  0  0
  6 15  1  0  0  0  0
  6 21  1  0  0  0  0
  7 17  1  0  0  0  0
  7 18  1  0  0  0  0
  7 23  1  0  0  0  0
  8 16  1  0  0  0  0
  8 21  2  0  0  0  0
  9 15  2  0  0  0  0
  9 23  1  0  0  0  0
 10 22  1  0  0  0  0
 10 23  2  0  0  0  0
 11 12  1  0  0  0  0
 11 25  1  0  0  0  0
 12 13  1  0  0  0  0
 12 26  1  0  0  0  0
 12 27  1  0  0  0  0
 13 14  1  0  0  0  0
 13 28  1  0  0  0  0
 14 19  1  0  0  0  0
 14 29  1  0  0  0  0
 15 16  1  0  0  0  0
 16 18  1  0  0  0  0
 16 30  1  0  0  0  0
 17 20  1  0  0  0  0
 17 31  1  0  0  0  0
 19 34  1  0  0  0  0
 19 35  1  0  0  0  0
 20 22  1  0  0  0  0
 20 32  1  0  0  0  0
 20 33  1  0  0  0  0
 21 36  1  0  0  0  0
 22 24  1  0  0  0  0
 22 37  1  0  0  0  0
 24 39  1  0  0  0  0
 24 40  1  0  0  0  0
 24 41  1  0  0  0  0
M  END
> <PUBCHEM_COMPOUND_CID>
137699420

> <PUBCHEM_CONFORMER_RMSD>
0.6

> <PUBCHEM_CONFORMER_DIVERSEORDER>
1
47
73
58
29
109
133
80
16
39
124
18
48
71
130
49
121
81
55
132
63
97
131
21
68
34
31
67
86
118
102
62
4
32
123
5
87
54
120
85
72
52
103
82
113
44
15
129
89
101
99
46
69
35
22
116
53
65
64
100
40
125
28
6
119
37
106
24
108
94
93
75
43
45
57
127
20
79
126
95
90
78
3
117
59
33
13
104
23
107
14
77
50
56
105
38
12
42
112
98
7
74
92
41
128
122
25
9
26
70
19
2
84
110
114
115
36
8
60
27
11
91
10
66
17
83
51
61
111
76
88
30
96

> <PUBCHEM_MMFF94_PARTIAL_CHARGES>
25
1 -0.56
10 -0.7
11 0.65
13 0.28
14 0.28
15 0.44
16 0.37
17 0.58
18 0.57
19 0.28
2 -0.68
21 0.44
22 0.25
23 0.72
3 -0.68
36 0.06
38 0.4
4 -0.68
42 0.4
43 0.4
5 -0.57
6 -0.47
7 -0.42
8 -0.7
9 -0.66

> <PUBCHEM_EFFECTIVE_ROTOR_COUNT>
3.8

> <PUBCHEM_PHARMACOPHORE_FEATURES>
14
1 1 acceptor
1 2 acceptor
1 2 donor
1 3 acceptor
1 3 donor
1 4 acceptor
1 4 donor
1 5 acceptor
3 6 8 21 cation
3 6 9 15 cation
5 1 11 12 13 14 rings
5 6 8 15 16 21 rings
6 7 10 17 20 22 23 rings
6 7 9 15 16 18 23 rings

> <PUBCHEM_HEAVY_ATOM_COUNT>
24

> <PUBCHEM_ATOM_DEF_STEREO_COUNT>
2

> <PUBCHEM_ATOM_UDEF_STEREO_COUNT>
4

> <PUBCHEM_BOND_DEF_STEREO_COUNT>
0

> <PUBCHEM_BOND_UDEF_STEREO_COUNT>
0

> <PUBCHEM_ISOTOPIC_ATOM_COUNT>
0

> <PUBCHEM_COMPONENT_COUNT>
1

> <PUBCHEM_CACTVS_TAUTO_COUNT>
-1

> <PUBCHEM_CONFORMER_ID>
0835205C00000001

> <PUBCHEM_MMFF94_ENERGY>
73.7836

> <PUBCHEM_FEATURE_SELFOVERLAP>
71.513

> <PUBCHEM_SHAPE_FINGERPRINT>
10366900 7 17988916782358691256
10616163 171 18411706482365853158
10967382 1 18411704278994492998
1100329 8 17690283707637440763
12422481 6 18052563005581926689
12506688 2 18340772636250105912
12553582 1 18411990181908405919
13140716 1 18197783399995409161
14178342 30 18337946797457579514
14251757 5 16828143364782520294
14790565 3 17690288530723301068
14866123 147 17403180296302335723
15422964 175 18412260602071962966
16752209 62 18337665304990107401
16945 1 18411985771198967749
17492 89 18408608067115258178
19591789 44 17690568481186432185
20626108 58 17750219456662298370
21267235 1 18339091414647521942
21279426 13 18193272997577750397
21421861 104 18334866029842183378
221490 88 18192157211569497849
2255824 54 18046634670285794636
23184049 29 18411422825329224956
23557571 272 18201439121649568352
23559900 14 18411698777400070460
314173 41 18339654420113589420
339767 52 18336814355920029570
34934 24 18341889705846554374
5104073 3 18197223753040429769
5309563 4 17904774623698454715
58807428 26 17405722375770426985
9709674 26 18270403763492747374

> <PUBCHEM_SHAPE_MULTIPOLES>
439.66
8.33
3.79
0.95
1.16
0.92
0.08
4.02
0.24
0.58
0.31
-0.31
0.08
0.36

> <PUBCHEM_SHAPE_SELFOVERLAP>
953.625

> <PUBCHEM_SHAPE_VOLUME>
238.1

> <PUBCHEM_COORDINATE_TYPE>
2
5
10

$$$$
