137661660
  -OEChem-03292013293D

 48 51  0     1  0  0  0  0  0999 V2000
    3.7238    1.4040    1.6483 O   0  0  0  0  0  0  0  0  0  0  0  0
    1.1609   -2.0373   -1.9511 O   0  0  0  0  0  0  0  0  0  0  0  0
   -0.4508   -3.4669    0.2677 O   0  0  0  0  0  0  0  0  0  0  0  0
    4.3061    1.3337   -0.9859 O   0  0  0  0  0  0  0  0  0  0  0  0
   -0.3186    3.8488    0.0084 O   0  0  0  0  0  0  0  0  0  0  0  0
   -4.5075   -1.1025   -0.2430 O   0  0  0  0  0  0  0  0  0  0  0  0
   -4.4032    1.4753   -0.2885 O   0  0  0  0  0  0  0  0  0  0  0  0
    1.6685    0.1564    1.1467 C   0  0  1  0  0  0  0  0  0  0  0  0
    1.1557   -1.0664    0.3068 C   0  0  1  0  0  0  0  0  0  0  0  0
    3.1895    0.3218    0.9041 C   0  0  1  0  0  0  0  0  0  0  0  0
   -0.3672   -1.0571    0.2405 C   0  0  0  0  0  0  0  0  0  0  0  0
    0.9097    1.4313    0.7759 C   0  0  0  0  0  0  0  0  0  0  0  0
    1.4339   -0.0954    2.6552 C   0  0  0  0  0  0  0  0  0  0  0  0
   -1.0596    0.1640    0.1679 C   0  0  0  0  0  0  0  0  0  0  0  0
    1.7608   -1.1255   -1.0960 C   0  0  0  0  0  0  0  0  0  0  0  0
   -0.3534    1.4554    0.3044 C   0  0  0  0  0  0  0  0  0  0  0  0
    3.4880    0.5174   -0.5698 C   0  0  0  0  0  0  0  0  0  0  0  0
    2.7922   -0.3805   -1.5170 C   0  0  0  0  0  0  0  0  0  0  0  0
   -1.0848   -2.2617    0.1867 C   0  0  0  0  0  0  0  0  0  0  0  0
   -2.4518    0.1614   -0.0151 C   0  0  0  0  0  0  0  0  0  0  0  0
   -1.0710    2.6917    0.0270 C   0  0  0  0  0  0  0  0  0  0  0  0
   -3.1564   -1.0449   -0.0739 C   0  0  0  0  0  0  0  0  0  0  0  0
   -2.4711   -2.2532    0.0380 C   0  0  0  0  0  0  0  0  0  0  0  0
   -3.1842    1.4430   -0.1693 C   0  0  0  0  0  0  0  0  0  0  0  0
   -2.3926    2.7000   -0.1970 C   0  0  0  0  0  0  0  0  0  0  0  0
    1.7886   -3.2975   -1.8491 C   0  0  0  0  0  0  0  0  0  0  0  0
   -0.2768   -4.0189    1.5705 C   0  0  0  0  0  0  0  0  0  0  0  0
    0.1712    4.1036   -1.2923 C   0  0  0  0  0  0  0  0  0  0  0  0
    1.4927   -1.9693    0.8310 H   0  0  0  0  0  0  0  0  0  0  0  0
    3.7207   -0.5831    1.2275 H   0  0  0  0  0  0  0  0  0  0  0  0
    1.4302    2.3680    0.9643 H   0  0  0  0  0  0  0  0  0  0  0  0
    1.9871   -0.9787    2.9946 H   0  0  0  0  0  0  0  0  0  0  0  0
    0.3757   -0.2646    2.8846 H   0  0  0  0  0  0  0  0  0  0  0  0
    1.7635    0.7548    3.2639 H   0  0  0  0  0  0  0  0  0  0  0  0
    3.1650   -0.4363   -2.5331 H   0  0  0  0  0  0  0  0  0  0  0  0
    4.6902    1.3844    1.5420 H   0  0  0  0  0  0  0  0  0  0  0  0
   -3.0171   -3.1927   -0.0069 H   0  0  0  0  0  0  0  0  0  0  0  0
   -2.9282    3.6230   -0.3911 H   0  0  0  0  0  0  0  0  0  0  0  0
    1.1632   -4.0340   -2.3626 H   0  0  0  0  0  0  0  0  0  0  0  0
    1.9209   -3.6287   -0.8138 H   0  0  0  0  0  0  0  0  0  0  0  0
    2.7629   -3.2793   -2.3500 H   0  0  0  0  0  0  0  0  0  0  0  0
   -4.8886   -0.2127   -0.2805 H   0  0  0  0  0  0  0  0  0  0  0  0
    0.4127   -4.8641    1.4950 H   0  0  0  0  0  0  0  0  0  0  0  0
   -1.2359   -4.3826    1.9521 H   0  0  0  0  0  0  0  0  0  0  0  0
    0.1435   -3.2848    2.2652 H   0  0  0  0  0  0  0  0  0  0  0  0
    0.7698    5.0189   -1.2567 H   0  0  0  0  0  0  0  0  0  0  0  0
    0.8188    3.2952   -1.6497 H   0  0  0  0  0  0  0  0  0  0  0  0
   -0.6482    4.2676   -2.0013 H   0  0  0  0  0  0  0  0  0  0  0  0
  1 10  1  0  0  0  0
  1 36  1  0  0  0  0
  2 15  1  0  0  0  0
  2 26  1  0  0  0  0
  3 19  1  0  0  0  0
  3 27  1  0  0  0  0
  4 17  2  0  0  0  0
  5 21  1  0  0  0  0
  5 28  1  0  0  0  0
  6 22  1  0  0  0  0
  6 42  1  0  0  0  0
  7 24  2  0  0  0  0
  8  9  1  0  0  0  0
  8 10  1  0  0  0  0
  8 12  1  0  0  0  0
  8 13  1  0  0  0  0
  9 11  1  0  0  0  0
  9 15  1  0  0  0  0
  9 29  1  0  0  0  0
 10 17  1  0  0  0  0
 10 30  1  0  0  0  0
 11 14  1  0  0  0  0
 11 19  2  0  0  0  0
 12 16  2  0  0  0  0
 12 31  1  0  0  0  0
 13 32  1  0  0  0  0
 13 33  1  0  0  0  0
 13 34  1  0  0  0  0
 14 16  1  0  0  0  0
 14 20  2  0  0  0  0
 15 18  2  0  0  0  0
 16 21  1  0  0  0  0
 17 18  1  0  0  0  0
 18 35  1  0  0  0  0
 19 23  1  0  0  0  0
 20 22  1  0  0  0  0
 20 24  1  0  0  0  0
 21 25  2  0  0  0  0
 22 23  2  0  0  0  0
 23 37  1  0  0  0  0
 24 25  1  0  0  0  0
 25 38  1  0  0  0  0
 26 39  1  0  0  0  0
 26 40  1  0  0  0  0
 26 41  1  0  0  0  0
 27 43  1  0  0  0  0
 27 44  1  0  0  0  0
 27 45  1  0  0  0  0
 28 46  1  0  0  0  0
 28 47  1  0  0  0  0
 28 48  1  0  0  0  0
M  END
> <PUBCHEM_COMPOUND_CID>
137661660

> <PUBCHEM_CONFORMER_RMSD>
0.8

> <PUBCHEM_CONFORMER_DIVERSEORDER>
1
2

> <PUBCHEM_MMFF94_PARTIAL_CHARGES>
33
1 -0.68
10 0.34
11 -0.14
12 -0.29
14 0.03
15 -0.06
16 -0.03
17 0.49
18 -0.14
19 0.08
2 -0.36
20 0.09
21 0.08
22 0.08
23 -0.15
24 0.47
25 -0.14
26 0.28
27 0.28
28 0.28
3 -0.36
31 0.15
35 0.15
36 0.4
37 0.15
38 0.15
4 -0.57
42 0.45
5 -0.36
6 -0.53
7 -0.57
8 0.14
9 0.28

> <PUBCHEM_EFFECTIVE_ROTOR_COUNT>
3.2

> <PUBCHEM_PHARMACOPHORE_FEATURES>
12
1 1 acceptor
1 1 donor
1 2 acceptor
1 3 acceptor
1 4 acceptor
1 5 acceptor
1 6 donor
1 7 acceptor
6 11 14 19 20 22 23 rings
6 14 16 20 21 24 25 rings
6 8 9 10 15 17 18 rings
6 8 9 11 12 14 16 rings

> <PUBCHEM_HEAVY_ATOM_COUNT>
28

> <PUBCHEM_ATOM_DEF_STEREO_COUNT>
3

> <PUBCHEM_ATOM_UDEF_STEREO_COUNT>
0

> <PUBCHEM_BOND_DEF_STEREO_COUNT>
0

> <PUBCHEM_BOND_UDEF_STEREO_COUNT>
0

> <PUBCHEM_ISOTOPIC_ATOM_COUNT>
0

> <PUBCHEM_COMPONENT_COUNT>
1

> <PUBCHEM_CACTVS_TAUTO_COUNT>
-1

> <PUBCHEM_CONFORMER_ID>
08348CDC00000001

> <PUBCHEM_MMFF94_ENERGY>
103.7324

> <PUBCHEM_FEATURE_SELFOVERLAP>
61.07

> <PUBCHEM_SHAPE_FINGERPRINT>
10165383 225 17619370713689214212
10498660 4 18336544924242899293
10863032 1 18272094842192741166
10906281 52 18267596877952885513
10967382 1 18266170643978789857
1100329 8 18046618190696389355
11640471 11 17240773920907796734
12035758 1 18195816390720362611
12035759 4 15601479728012488326
12156800 1 14524135732347600481
12553582 1 18265331896752719635
13140716 1 18266455413058221371
13965767 371 17533492331319619308
14790565 3 18266754488986036265
14955137 171 18191896511872396393
15210252 30 18115032905138212605
15324884 4 17913501400280018830
16945 1 18191300692027466722
17093844 170 18341329994156296117
17492 54 18117572935611471636
18981168 100 17611741210956601733
19319366 153 17386559301147560058
19591789 44 17836942100742764281
20028762 73 18055633065533370751
20600515 1 18338502153339583632
20691752 17 18338246980948016475
20715895 44 16957290995700790349
20905425 154 18126846001863074023
22149856 69 17257079374055611285
229495 10 16606094847893763128
2334 1 18411698773046918603
23557571 272 18341614888539027720
23559900 14 18342182116284826006
238 59 17916005876871213637
2748010 2 18340768148520971427
3380486 77 18117254017230719571
350125 39 17400926293603002601
3524813 1 17917713538962540038
70251023 43 17768817464234757335
81228 2 18340221738075124681
9925002 15 17121118670198246556

> <PUBCHEM_SHAPE_MULTIPOLES>
535.14
5.9
4.71
1.63
1.32
0.09
0.31
-1.47
-0.91
1.14
-0.65
-1.73
0.57
0.9

> <PUBCHEM_SHAPE_SELFOVERLAP>
1190.418

> <PUBCHEM_SHAPE_VOLUME>
282.9

> <PUBCHEM_COORDINATE_TYPE>
2
5
10

$$$$
