137706187
  -OEChem-03292013293D

 66 68  0     1  0  0  0  0  0999 V2000
   -0.1468   -1.7232   -2.8878 O   0  0  0  0  0  0  0  0  0  0  0  0
    1.6099   -0.1428   -1.5578 O   0  0  0  0  0  0  0  0  0  0  0  0
   -3.6891   -1.0194   -0.4753 O   0  0  0  0  0  0  0  0  0  0  0  0
   -1.6016   -2.1335   -0.4101 O   0  0  0  0  0  0  0  0  0  0  0  0
   -2.3661    3.3494    0.4287 O   0  0  0  0  0  0  0  0  0  0  0  0
    2.9085    1.7400   -1.8684 O   0  0  0  0  0  0  0  0  0  0  0  0
   -3.2423   -3.6726    0.0986 O   0  0  0  0  0  0  0  0  0  0  0  0
    3.5876    0.9157    1.0995 O   0  0  0  0  0  0  0  0  0  0  0  0
   -2.1826    4.5846    2.3724 O   0  0  0  0  0  0  0  0  0  0  0  0
    2.6317   -1.1636    1.4149 O   0  0  0  0  0  0  0  0  0  0  0  0
   -0.5643   -0.3856   -2.6035 C   0  0  2  0  0  0  0  0  0  0  0  0
   -1.8600   -0.1963   -1.8669 C   0  0  2  0  0  0  0  0  0  0  0  0
   -0.4965   -0.9087   -4.0155 C   0  0  0  0  0  0  0  0  0  0  0  0
    0.4674    0.5554   -2.0311 C   0  0  1  0  0  0  0  0  0  0  0  0
   -1.4939    0.7589   -0.7529 C   0  0  0  0  0  0  0  0  0  0  0  0
   -2.5236   -1.4174   -1.2316 C   0  0  2  0  0  0  0  0  0  0  0  0
   -0.2317    1.2010   -0.8599 C   0  0  0  0  0  0  0  0  0  0  0  0
   -2.4996    0.9750    0.2547 C   0  0  0  0  0  0  0  0  0  0  0  0
   -3.5274    0.1073    0.3047 C   0  0  0  0  0  0  0  0  0  0  0  0
   -2.3822    2.1469    1.1774 C   0  0  0  0  0  0  0  0  0  0  0  0
    2.7767    0.5716   -1.5270 C   0  0  0  0  0  0  0  0  0  0  0  0
   -2.0981   -3.2518    0.2009 C   0  0  0  0  0  0  0  0  0  0  0  0
    3.9024   -0.2796   -0.9833 C   0  0  0  0  0  0  0  0  0  0  0  0
    4.5803    0.3376    0.2493 C   0  0  0  0  0  0  0  0  0  0  0  0
   -1.0155   -3.8703    1.0597 C   0  0  0  0  0  0  0  0  0  0  0  0
   -0.4378   -2.8956    2.0977 C   0  0  0  0  0  0  0  0  0  0  0  0
    5.5286    1.4589   -0.1875 C   0  0  0  0  0  0  0  0  0  0  0  0
    5.3497   -0.6986    1.0701 C   0  0  0  0  0  0  0  0  0  0  0  0
   -2.2615    4.5068    1.1538 C   0  0  0  0  0  0  0  0  0  0  0  0
   -1.5200   -2.3930    3.0566 C   0  0  0  0  0  0  0  0  0  0  0  0
    0.6799   -3.5763    2.8904 C   0  0  0  0  0  0  0  0  0  0  0  0
   -2.2573    5.6910    0.2353 C   0  0  0  0  0  0  0  0  0  0  0  0
    2.6739    0.0430    1.6139 C   0  0  0  0  0  0  0  0  0  0  0  0
    1.7016    0.7853    2.4797 C   0  0  0  0  0  0  0  0  0  0  0  0
   -2.5804    0.3099   -2.5251 H   0  0  0  0  0  0  0  0  0  0  0  0
   -1.4216   -1.1377   -4.5282 H   0  0  0  0  0  0  0  0  0  0  0  0
    0.3082   -0.5706   -4.6551 H   0  0  0  0  0  0  0  0  0  0  0  0
    0.7251    1.3109   -2.7835 H   0  0  0  0  0  0  0  0  0  0  0  0
   -2.8634   -2.0896   -2.0296 H   0  0  0  0  0  0  0  0  0  0  0  0
    0.2548    1.8782   -0.1733 H   0  0  0  0  0  0  0  0  0  0  0  0
   -4.3643    0.2043    0.9834 H   0  0  0  0  0  0  0  0  0  0  0  0
   -1.4609    2.0625    1.7677 H   0  0  0  0  0  0  0  0  0  0  0  0
   -3.2273    2.1724    1.8769 H   0  0  0  0  0  0  0  0  0  0  0  0
    3.5070   -1.2790   -0.7687 H   0  0  0  0  0  0  0  0  0  0  0  0
    4.6248   -0.4381   -1.7937 H   0  0  0  0  0  0  0  0  0  0  0  0
   -1.4462   -4.7461    1.5604 H   0  0  0  0  0  0  0  0  0  0  0  0
   -0.2300   -4.2396    0.3899 H   0  0  0  0  0  0  0  0  0  0  0  0
   -0.0113   -2.0270    1.5827 H   0  0  0  0  0  0  0  0  0  0  0  0
    4.8279   -1.6501    1.1995 H   0  0  0  0  0  0  0  0  0  0  0  0
    6.2956   -0.9499    0.5754 H   0  0  0  0  0  0  0  0  0  0  0  0
    5.5856   -0.3172    2.0704 H   0  0  0  0  0  0  0  0  0  0  0  0
    4.9930    2.2970   -0.6430 H   0  0  0  0  0  0  0  0  0  0  0  0
    6.0469    1.8792    0.6829 H   0  0  0  0  0  0  0  0  0  0  0  0
    6.2859    1.1006   -0.8925 H   0  0  0  0  0  0  0  0  0  0  0  0
   -2.2964   -1.8339    2.5258 H   0  0  0  0  0  0  0  0  0  0  0  0
    1.1228   -2.8818    3.6122 H   0  0  0  0  0  0  0  0  0  0  0  0
    1.4778   -3.9161    2.2217 H   0  0  0  0  0  0  0  0  0  0  0  0
    0.3056   -4.4457    3.4416 H   0  0  0  0  0  0  0  0  0  0  0  0
   -1.0892   -1.7210    3.8068 H   0  0  0  0  0  0  0  0  0  0  0  0
   -2.0005   -3.2241    3.5841 H   0  0  0  0  0  0  0  0  0  0  0  0
   -1.4034    5.6292   -0.4439 H   0  0  0  0  0  0  0  0  0  0  0  0
   -2.1680    6.6077    0.8252 H   0  0  0  0  0  0  0  0  0  0  0  0
   -3.1942    5.7272   -0.3260 H   0  0  0  0  0  0  0  0  0  0  0  0
    2.1470    0.9617    3.4614 H   0  0  0  0  0  0  0  0  0  0  0  0
    0.7901    0.1922    2.5934 H   0  0  0  0  0  0  0  0  0  0  0  0
    1.4266    1.7353    2.0142 H   0  0  0  0  0  0  0  0  0  0  0  0
  1 11  1  0  0  0  0
  1 13  1  0  0  0  0
  2 14  1  0  0  0  0
  2 21  1  0  0  0  0
  3 16  1  0  0  0  0
  3 19  1  0  0  0  0
  4 16  1  0  0  0  0
  4 22  1  0  0  0  0
  5 20  1  0  0  0  0
  5 29  1  0  0  0  0
  6 21  2  0  0  0  0
  7 22  2  0  0  0  0
  8 24  1  0  0  0  0
  8 33  1  0  0  0  0
  9 29  2  0  0  0  0
 10 33  2  0  0  0  0
 11 12  1  0  0  0  0
 11 13  1  0  0  0  0
 11 14  1  0  0  0  0
 12 15  1  0  0  0  0
 12 16  1  0  0  0  0
 12 35  1  0  0  0  0
 13 36  1  0  0  0  0
 13 37  1  0  0  0  0
 14 17  1  0  0  0  0
 14 38  1  0  0  0  0
 15 17  2  0  0  0  0
 15 18  1  0  0  0  0
 16 39  1  0  0  0  0
 17 40  1  0  0  0  0
 18 19  2  0  0  0  0
 18 20  1  0  0  0  0
 19 41  1  0  0  0  0
 20 42  1  0  0  0  0
 20 43  1  0  0  0  0
 21 23  1  0  0  0  0
 22 25  1  0  0  0  0
 23 24  1  0  0  0  0
 23 44  1  0  0  0  0
 23 45  1  0  0  0  0
 24 27  1  0  0  0  0
 24 28  1  0  0  0  0
 25 26  1  0  0  0  0
 25 46  1  0  0  0  0
 25 47  1  0  0  0  0
 26 30  1  0  0  0  0
 26 31  1  0  0  0  0
 26 48  1  0  0  0  0
 27 52  1  0  0  0  0
 27 53  1  0  0  0  0
 27 54  1  0  0  0  0
 28 49  1  0  0  0  0
 28 50  1  0  0  0  0
 28 51  1  0  0  0  0
 29 32  1  0  0  0  0
 30 55  1  0  0  0  0
 30 59  1  0  0  0  0
 30 60  1  0  0  0  0
 31 56  1  0  0  0  0
 31 57  1  0  0  0  0
 31 58  1  0  0  0  0
 32 61  1  0  0  0  0
 32 62  1  0  0  0  0
 32 63  1  0  0  0  0
 33 34  1  0  0  0  0
 34 64  1  0  0  0  0
 34 65  1  0  0  0  0
 34 66  1  0  0  0  0
M  END
> <PUBCHEM_COMPOUND_CID>
137706187

> <PUBCHEM_CONFORMER_RMSD>
1.2

> <PUBCHEM_CONFORMER_DIVERSEORDER>
1
92
100
133
149
152
117
114
184
89
151
111
187
88
106
76
36
138
135
186
160
10
194
49
63
165
78
116
26
189
45
107
62
19
193
61
102
170
94
171
122
98
85
166
14
72
180
182
181
163
11
109
68
124
141
95
65
162
79
185
153
93
119
188
157
173
74
137
126
43
178
87
148
42
192
86
161
9
174
67
69
132
164
16
125
101
29
44
12
147
190
134
146
73
5
121
145
140
96
103
90
127
91
131
66
71
168
21
136
32
130
110
8
142
22
37
4
183
40
82
120
104
112
54
3
81
50
75
77
53
18
60
59
177
70
118
83
58
108
35
57
31
150
7
25
17
139
156
128
46
154
169
191
2
6
24
155
52
179
39
176
20
27
80
167
143
129
38
172
34
28
113
97
33
41
144
175
56
195
47
48
123
159
105
13
64
23
15
51
99
115
84
158
55
30

> <PUBCHEM_MMFF94_PARTIAL_CHARGES>
33
1 -0.3
10 -0.57
11 -0.04
12 0.23
13 -0.05
14 0.51
15 -0.14
16 0.56
17 -0.29
18 -0.14
19 -0.07
2 -0.43
20 0.42
21 0.66
22 0.66
23 0.06
24 0.28
25 0.06
29 0.66
3 -0.36
32 0.06
33 0.66
34 0.06
36 0.1
37 0.1
4 -0.43
40 0.15
41 0.15
5 -0.43
6 -0.57
7 -0.57
8 -0.43
9 -0.57

> <PUBCHEM_EFFECTIVE_ROTOR_COUNT>
14

> <PUBCHEM_PHARMACOPHORE_FEATURES>
10
1 1 acceptor
1 10 acceptor
1 3 acceptor
1 6 acceptor
1 7 acceptor
1 9 acceptor
3 24 27 28 hydrophobe
3 26 30 31 hydrophobe
5 11 12 14 15 17 rings
6 3 12 15 16 18 19 rings

> <PUBCHEM_HEAVY_ATOM_COUNT>
34

> <PUBCHEM_ATOM_DEF_STEREO_COUNT>
2

> <PUBCHEM_ATOM_UDEF_STEREO_COUNT>
2

> <PUBCHEM_BOND_DEF_STEREO_COUNT>
0

> <PUBCHEM_BOND_UDEF_STEREO_COUNT>
0

> <PUBCHEM_ISOTOPIC_ATOM_COUNT>
0

> <PUBCHEM_COMPONENT_COUNT>
1

> <PUBCHEM_CACTVS_TAUTO_COUNT>
-1

> <PUBCHEM_CONFORMER_ID>
08353ACB00000001

> <PUBCHEM_MMFF94_ENERGY>
69.0453

> <PUBCHEM_FEATURE_SELFOVERLAP>
50.844

> <PUBCHEM_SHAPE_FINGERPRINT>
10305334 12 18121776123983158626
10439779 11 15599205925293023905
107951 10 18199750232681022161
12156800 1 17467123696364229883
12788726 201 18265070165783042021
14028597 1 18408882902847203179
14114206 34 18195777817402662252
14279260 333 18269549461029631746
14840074 17 16732700562558798758
16067690 210 18342454884999363424
17974551 9 18199753531664597606
20600515 1 17686007985995540008
20775438 99 15958350059950889098
3493558 16 15618624511714115966
35225 105 18338781394970132443
376196 1 17628642942306111340
4616759 239 18045206388224384752
463206 1 16371843139998535078
469060 322 17486771054309040927
50150288 127 17540870260769600936
56638632 33 17973721682013465229
57527452 28 17458341996231078707

> <PUBCHEM_SHAPE_MULTIPOLES>
641.01
7.57
5.81
3.46
11.3
3.75
-1.35
3.19
1.41
-7.64
5.1
-0.23
-1.25
-2.12

> <PUBCHEM_SHAPE_SELFOVERLAP>
1336.966

> <PUBCHEM_SHAPE_VOLUME>
362.8

> <PUBCHEM_COORDINATE_TYPE>
2
5
10

$$$$
