REMARK  Name = 137795376
REMARK  13 active torsions:
REMARK  status: ('A' for Active; 'I' for Inactive)
REMARK    1  A    between atoms: C_1  and  C_4
REMARK    2  A    between atoms: C_1  and  C_19
REMARK    3  A    between atoms: C_1  and  C_35
REMARK    4  A    between atoms: C_3  and  C_9
REMARK    5  A    between atoms: C_11  and  C_14
REMARK    6  A    between atoms: C_14  and  C_15
REMARK    7  A    between atoms: C_15  and  C_17
REMARK    8  A    between atoms: C_20  and  O_25
REMARK    9  A    between atoms: C_21  and  O_27
REMARK   10  A    between atoms: C_22  and  C_34
REMARK   11  A    between atoms: C_23  and  C_32
REMARK   12  A    between atoms: C_24  and  O_29
REMARK   13  A    between atoms: C_35  and  C_36
REMARK                            x       y       z     vdW  Elec       q    Type
REMARK                         _______ _______ _______ _____ _____    ______ ____
ROOT
ATOM      1  C   UNL     1       0.419  -0.878   0.632  0.00  0.00    +0.029 C 
ENDROOT
BRANCH   1   4
ATOM      2  O   UNL     1      -2.736  -4.012  -1.334  0.00  0.00    -0.296 OA
ATOM      3  C   UNL     1      -1.595  -2.135  -0.297  0.00  0.00    +0.058 C 
ATOM      4  C   UNL     1      -0.104  -1.759  -0.509  0.00  0.00    +0.011 C 
ATOM      5  C   UNL     1       0.588  -3.139  -0.484  0.00  0.00    +0.008 C 
ATOM      6  C   UNL     1      -1.686  -3.472  -1.007  0.00  0.00    +0.150 C 
ATOM      7  C   UNL     1      -0.329  -4.071  -1.269  0.00  0.00    +0.065 C 
ATOM      8  C   UNL     1       0.174  -1.054  -1.851  0.00  0.00    +0.001 C 
BRANCH   3   9
ATOM      9  C   UNL     1      -2.597  -1.131  -0.772  0.00  0.00    +0.007 C 
ATOM     10  C   UNL     1      -4.013  -1.071  -0.223  0.00  0.00    +0.000 C 
ATOM     11  C   UNL     1      -2.999   0.012   0.122  0.00  0.00    +0.001 C 
ATOM     12  C   UNL     1      -5.163  -0.683  -1.119  0.00  0.00    +0.000 C 
ATOM     13  C   UNL     1      -4.397  -2.106   0.806  0.00  0.00    +0.000 C 
BRANCH  11  14
ATOM     14  C   UNL     1      -3.085   1.395  -0.427  0.00  0.00    +0.008 C 
BRANCH  14  15
ATOM     15  C   UNL     1      -3.913   2.317   0.468  0.00  0.00    +0.065 C 
BRANCH  15  17
ATOM     16  O   UNL     1      -3.444   4.093  -1.103  0.00  0.00    -0.296 OA
ATOM     17  C   UNL     1      -3.979   3.741  -0.053  0.00  0.00    +0.151 C 
ATOM     18  C   UNL     1      -4.747   4.722   0.794  0.00  0.00    +0.072 C 
ENDBRANCH  15  17
ENDBRANCH  14  15
ENDBRANCH  11  14
ENDBRANCH   3   9
ENDBRANCH   1   4
BRANCH   1  19
ATOM     19  C   UNL     1       1.589  -0.034   0.155  0.00  0.00    +0.045 A 
ATOM     20  C   UNL     1       2.771  -0.650  -0.257  0.00  0.00    +0.139 A 
ATOM     21  C   UNL     1       1.481   1.356   0.128  0.00  0.00    +0.139 A 
ATOM     22  C   UNL     1       3.845   0.125  -0.695  0.00  0.00    +0.109 A 
ATOM     23  C   UNL     1       2.555   2.131  -0.310  0.00  0.00    +0.109 A 
ATOM     24  C   UNL     1       3.737   1.515  -0.721  0.00  0.00    +0.146 A 
BRANCH  20  25
ATOM     25  O   UNL     1       2.873  -2.010  -0.228  0.00  0.00    -0.506 OA
ATOM     26  H   UNL     1       2.150  -2.529   0.066  0.00  0.00    +0.292 HD
ENDBRANCH  20  25
BRANCH  21  27
ATOM     27  O   UNL     1       0.323   1.956   0.531  0.00  0.00    -0.506 OA
ATOM     28  H   UNL     1      -0.398   1.434   0.825  0.00  0.00    +0.292 HD
ENDBRANCH  21  27
BRANCH  24  29
ATOM     29  O   UNL     1       4.788   2.273  -1.150  0.00  0.00    -0.505 OA
ATOM     30  H   UNL     1       5.582   1.859  -1.426  0.00  0.00    +0.292 HD
ENDBRANCH  24  29
BRANCH  23  32
ATOM     31  O   UNL     1       1.423   4.184   0.011  0.00  0.00    -0.283 OA
ATOM     32  C   UNL     1       2.441   3.585  -0.339  0.00  0.00    +0.240 C 
ENDBRANCH  23  32
BRANCH  22  34
ATOM     33  O   UNL     1       6.187   0.011  -1.010  0.00  0.00    -0.283 OA
ATOM     34  C   UNL     1       5.081  -0.520  -1.124  0.00  0.00    +0.240 C 
ENDBRANCH  22  34
ENDBRANCH   1  19
BRANCH   1  35
ATOM     35  C   UNL     1       0.757  -1.757   1.858  0.00  0.00    +0.005 C 
BRANCH  35  36
ATOM     36  C   UNL     1       0.806  -1.016   3.212  0.00  0.00    +0.000 C 
ATOM     37  C   UNL     1       1.856   0.096   3.231  0.00  0.00    +0.000 C 
ATOM     38  C   UNL     1       1.097  -2.016   4.335  0.00  0.00    +0.000 C 
ENDBRANCH  35  36
ENDBRANCH   1  35
TORSDOF 13
