137705851
  -OEChem-03292013293D

 32 33  0     1  0  0  0  0  0999 V2000
    1.4704    1.1103    0.7057 S   0  0  0  0  0  0  0  0  0  0  0  0
   -1.2934    1.1304    0.8670 O   0  0  0  0  0  0  0  0  0  0  0  0
   -1.4102   -2.7950   -0.6037 O   0  0  0  0  0  0  0  0  0  0  0  0
   -2.7464   -1.4487    1.3505 O   0  0  0  0  0  0  0  0  0  0  0  0
   -2.8242    2.8917   -0.6313 O   0  0  0  0  0  0  0  0  0  0  0  0
    1.1448   -1.1957   -0.4387 N   0  0  0  0  0  0  0  0  0  0  0  0
    3.4232   -0.4118   -0.3006 N   0  0  0  0  0  0  0  0  0  0  0  0
   -0.1455   -0.8634    0.1291 C   0  0  2  0  0  0  0  0  0  0  0  0
   -1.3616   -1.3733   -0.6232 C   0  0  2  0  0  0  0  0  0  0  0  0
   -2.6226   -0.8148    0.0689 C   0  0  2  0  0  0  0  0  0  0  0  0
   -0.1901    0.6630    0.1082 C   0  0  2  0  0  0  0  0  0  0  0  0
   -2.5607    0.7122    0.3106 C   0  0  2  0  0  0  0  0  0  0  0  0
   -2.8943    1.5139   -0.9467 C   0  0  0  0  0  0  0  0  0  0  0  0
    2.1536   -0.3211   -0.1070 C   0  0  0  0  0  0  0  0  0  0  0  0
    4.1935    0.7228    0.1923 C   0  0  0  0  0  0  0  0  0  0  0  0
    5.6634    0.4793   -0.0812 C   0  0  0  0  0  0  0  0  0  0  0  0
   -0.1727   -1.2520    1.1573 H   0  0  0  0  0  0  0  0  0  0  0  0
   -1.3265   -1.0555   -1.6720 H   0  0  0  0  0  0  0  0  0  0  0  0
   -3.5180   -1.0930   -0.4983 H   0  0  0  0  0  0  0  0  0  0  0  0
   -0.2412    1.0574   -0.9130 H   0  0  0  0  0  0  0  0  0  0  0  0
   -3.2940    0.9836    1.0804 H   0  0  0  0  0  0  0  0  0  0  0  0
    1.3185   -2.1050   -0.8522 H   0  0  0  0  0  0  0  0  0  0  0  0
   -3.9085    1.2837   -1.2892 H   0  0  0  0  0  0  0  0  0  0  0  0
   -2.2009    1.3161   -1.7682 H   0  0  0  0  0  0  0  0  0  0  0  0
   -2.2197   -3.0663   -1.0693 H   0  0  0  0  0  0  0  0  0  0  0  0
   -3.5827   -1.1486    1.7456 H   0  0  0  0  0  0  0  0  0  0  0  0
   -3.0526    3.3832   -1.4386 H   0  0  0  0  0  0  0  0  0  0  0  0
    3.9269    1.6532   -0.3243 H   0  0  0  0  0  0  0  0  0  0  0  0
    4.0957    0.8452    1.2782 H   0  0  0  0  0  0  0  0  0  0  0  0
    6.0089   -0.4323    0.4180 H   0  0  0  0  0  0  0  0  0  0  0  0
    5.8475    0.3602   -1.1543 H   0  0  0  0  0  0  0  0  0  0  0  0
    6.2672    1.3178    0.2794 H   0  0  0  0  0  0  0  0  0  0  0  0
  1 11  1  0  0  0  0
  1 14  1  0  0  0  0
  2 11  1  0  0  0  0
  2 12  1  0  0  0  0
  3  9  1  0  0  0  0
  3 25  1  0  0  0  0
  4 10  1  0  0  0  0
  4 26  1  0  0  0  0
  5 13  1  0  0  0  0
  5 27  1  0  0  0  0
  6  8  1  0  0  0  0
  6 14  1  0  0  0  0
  6 22  1  0  0  0  0
  7 14  2  0  0  0  0
  7 15  1  0  0  0  0
  8  9  1  0  0  0  0
  8 11  1  0  0  0  0
  8 17  1  0  0  0  0
  9 10  1  0  0  0  0
  9 18  1  0  0  0  0
 10 12  1  0  0  0  0
 10 19  1  0  0  0  0
 11 20  1  0  0  0  0
 12 13  1  0  0  0  0
 12 21  1  0  0  0  0
 13 23  1  0  0  0  0
 13 24  1  0  0  0  0
 15 16  1  0  0  0  0
 15 28  1  0  0  0  0
 15 29  1  0  0  0  0
 16 30  1  0  0  0  0
 16 31  1  0  0  0  0
 16 32  1  0  0  0  0
M  END
> <PUBCHEM_COMPOUND_CID>
137705851

> <PUBCHEM_CONFORMER_RMSD>
0.6

> <PUBCHEM_CONFORMER_DIVERSEORDER>
1
18
12
8
19
16
11
2
17
4
9
6
7
3
14
10
13
15
5

> <PUBCHEM_MMFF94_PARTIAL_CHARGES>
19
1 -0.37
10 0.28
11 0.51
12 0.28
13 0.28
14 0.64
15 0.25
2 -0.56
22 0.4
25 0.4
26 0.4
27 0.4
3 -0.68
4 -0.68
5 -0.68
6 -0.82
7 -0.7
8 0.37
9 0.28

> <PUBCHEM_EFFECTIVE_ROTOR_COUNT>
3.2

> <PUBCHEM_PHARMACOPHORE_FEATURES>
11
1 2 acceptor
1 3 acceptor
1 3 donor
1 4 acceptor
1 4 donor
1 5 acceptor
1 5 donor
1 6 donor
3 6 7 14 cation
5 1 6 8 11 14 rings
6 2 8 9 10 11 12 rings

> <PUBCHEM_HEAVY_ATOM_COUNT>
16

> <PUBCHEM_ATOM_DEF_STEREO_COUNT>
2

> <PUBCHEM_ATOM_UDEF_STEREO_COUNT>
3

> <PUBCHEM_BOND_DEF_STEREO_COUNT>
0

> <PUBCHEM_BOND_UDEF_STEREO_COUNT>
0

> <PUBCHEM_ISOTOPIC_ATOM_COUNT>
0

> <PUBCHEM_COMPONENT_COUNT>
1

> <PUBCHEM_CACTVS_TAUTO_COUNT>
-1

> <PUBCHEM_CONFORMER_ID>
0835397B00000001

> <PUBCHEM_MMFF94_ENERGY>
50.3569

> <PUBCHEM_FEATURE_SELFOVERLAP>
55.903

> <PUBCHEM_SHAPE_FINGERPRINT>
10014705 185 18408318895941826732
10608611 8 18341888628026417600
10680689 15 18410577327237452594
11132069 177 18272930557525224296
11543360 7 13110954358253240104
12138202 97 18341043038869725351
12186901 62 18411705391549278196
12403814 3 18336553814703577313
12500047 106 18411973642332409340
13024252 1 16950281836563766891
13214271 11 18260830405869765524
14508225 48 18053928822013504271
15775835 57 18261672567125415456
16945 1 18341042012414843379
1741750 31 18338233739358354817
17834072 33 11599716308127115746
17844478 74 18263373623678412747
18186145 218 18271818865259524484
200 152 16774072985930030477
20510252 161 18272656731341968649
20645477 56 18413392033606564760
20645477 70 17417537908823037750
20871999 31 18272358785371588013
21339142 126 18338799034564314831
21339142 51 18272087223137354208
21524375 3 18046614625968465933
22926399 65 18411134710728836908
2306618 200 18272375295188840265
23402539 116 18271237335304318567
23419403 2 16341140394721861355
23493267 7 18260825969047366240
23557571 272 18410019827418500476
23559900 14 18131071499080815358
25 1 17979912714394039421
2748010 2 18198074589966649159
4175511 318 18411981355840459164
559249 180 18335694985070689930
573450 72 18261096479653000218
6333449 129 18343018895534802217

> <PUBCHEM_SHAPE_MULTIPOLES>
299.68
7.73
2.23
0.91
12.02
0.06
0.1
2.12
-0.45
-2.61
-0.46
-0.51
0.02
0.69

> <PUBCHEM_SHAPE_SELFOVERLAP>
600.456

> <PUBCHEM_SHAPE_VOLUME>
178.4

> <PUBCHEM_COORDINATE_TYPE>
2
5
10

$$$$
