REMARK  Name = 137705073
REMARK  9 active torsions:
REMARK  status: ('A' for Active; 'I' for Inactive)
REMARK    1  A    between atoms: N_1  and  C_33
REMARK    2  A    between atoms: C_6  and  O_21
REMARK    3  A    between atoms: C_8  and  O_23
REMARK    4  A    between atoms: C_9  and  O_25
REMARK    5  A    between atoms: C_10  and  C_35
REMARK    6  A    between atoms: C_11  and  O_27
REMARK    7  A    between atoms: C_14  and  O_29
REMARK    8  A    between atoms: C_18  and  O_31
REMARK    9  A    between atoms: C_35  and  O_36
REMARK                            x       y       z     vdW  Elec       q    Type
REMARK                         _______ _______ _______ _____ _____    ______ ____
ROOT
ATOM      1  N   UNL     1      -1.343   2.003  -0.512  0.00  0.00    +0.390 N 
ATOM      2  C   UNL     1      -0.261   0.317   1.009  0.00  0.00    +0.013 C 
ATOM      3  C   UNL     1      -1.468  -0.616   0.543  0.00  0.00    +0.030 C 
ATOM      4  C   UNL     1      -0.166   1.115  -0.368  0.00  0.00    -0.026 C 
ATOM      5  C   UNL     1       1.083  -0.507   1.303  0.00  0.00    +0.005 C 
ATOM      6  C   UNL     1      -0.033  -0.077  -1.421  0.00  0.00    +0.119 C 
ATOM      7  C   UNL     1       1.678  -1.072   0.017  0.00  0.00    +0.054 C 
ATOM      8  C   UNL     1       1.416  -0.698  -1.430  0.00  0.00    +0.115 C 
ATOM      9  C   UNL     1      -1.004  -1.164  -0.849  0.00  0.00    +0.140 C 
ATOM     10  C   UNL     1      -2.794   0.227   0.473  0.00  0.00    +0.011 C 
ATOM     11  C   UNL     1      -0.637   1.218   2.233  0.00  0.00    +0.109 C 
ATOM     12  C   UNL     1       2.420   0.321   1.756  0.00  0.00    +0.005 C 
ATOM     13  C   UNL     1       3.591  -0.098   0.715  0.00  0.00    +0.055 C 
ATOM     14  C   UNL     1       3.123  -1.490   0.313  0.00  0.00    +0.120 C 
ATOM     15  C   UNL     1       2.635   0.273  -1.859  0.00  0.00    +0.059 C 
ATOM     16  C   UNL     1      -2.627   1.311  -0.628  0.00  0.00    -0.075 C 
ATOM     17  C   UNL     1      -3.103   0.913   1.838  0.00  0.00    +0.003 C 
ATOM     18  C   UNL     1       3.643   0.727  -0.662  0.00  0.00    +0.120 C 
ATOM     19  C   UNL     1      -1.976   0.842   2.843  0.00  0.00    +0.029 C 
ATOM     20  H   UNL     1      -1.383   2.487   0.384  0.00  0.00    -0.080 HD
ENDROOT
BRANCH   6  21
ATOM     21  O   UNL     1      -0.346   0.330  -2.739  0.00  0.00    -0.384 OA
ATOM     22  H   UNL     1       0.291   1.000  -3.030  0.00  0.00    +0.210 HD
ENDBRANCH   6  21
BRANCH   8  23
ATOM     23  O   UNL     1       1.498  -1.813  -2.318  0.00  0.00    -0.384 OA
ATOM     24  H   UNL     1       0.787  -2.442  -2.113  0.00  0.00    +0.210 HD
ENDBRANCH   8  23
BRANCH   9  25
ATOM     25  O   UNL     1      -2.046  -1.461  -1.758  0.00  0.00    -0.351 OA
ATOM     26  C   UNL     1      -1.615  -2.352  -2.782  0.00  0.00    +0.174 C 
ENDBRANCH   9  25
BRANCH  11  27
ATOM     27  O   UNL     1       0.306   1.118   3.300  0.00  0.00    -0.385 OA
ATOM     28  H   UNL     1       1.190   1.348   2.973  0.00  0.00    +0.210 HD
ENDBRANCH  11  27
BRANCH  14  29
ATOM     29  O   UNL     1       3.241  -2.378   1.413  0.00  0.00    -0.353 OA
ATOM     30  C   UNL     1       3.260  -3.736   0.991  0.00  0.00    +0.174 C 
ENDBRANCH  14  29
BRANCH  18  31
ATOM     31  O   UNL     1       3.446   2.113  -0.403  0.00  0.00    -0.353 OA
ATOM     32  C   UNL     1       4.560   2.678   0.272  0.00  0.00    +0.174 C 
ENDBRANCH  18  31
BRANCH   1  33
ATOM     33  C   UNL     1      -1.178   3.026  -1.537  0.00  0.00    -0.077 C 
ATOM     34  C   UNL     1      -2.267   4.080  -1.440  0.00  0.00    -0.025 C 
ENDBRANCH   1  33
BRANCH  10  35
ATOM     35  C   UNL     1      -4.040  -0.630   0.149  0.00  0.00    +0.140 C 
BRANCH  35  36
ATOM     36  O   UNL     1      -3.942  -1.827   0.886  0.00  0.00    -0.351 OA
ATOM     37  C   UNL     1      -5.052  -2.691   0.652  0.00  0.00    +0.174 C 
ENDBRANCH  35  36
ENDBRANCH  10  35
TORSDOF 9
