REMARK  Name = 137796782
REMARK  7 active torsions:
REMARK  status: ('A' for Active; 'I' for Inactive)
REMARK    1  A    between atoms: S_1  and  C_5
REMARK    2  A    between atoms: S_1  and  N_17
REMARK    3  A    between atoms: C_7  and  O_11
REMARK    4  A    between atoms: C_8  and  C_14
REMARK    5  A    between atoms: C_14  and  O_15
REMARK    6  A    between atoms: N_17  and  C_21
REMARK    7  A    between atoms: C_22  and  C_27
REMARK                            x       y       z     vdW  Elec       q    Type
REMARK                         _______ _______ _______ _____ _____    ______ ____
ROOT
ATOM      1  S   UNL     1      -1.527   1.394   2.133  0.00  0.00    +0.077 S 
ATOM      2  O   UNL     1      -2.613   2.087   2.801  0.00  0.00    -0.150 OA
ATOM      3  O   UNL     1      -0.582   0.616   2.911  0.00  0.00    -0.150 OA
ENDROOT
BRANCH   1   5
ATOM      4 CL   UNL     1      -5.162   0.391  -1.835  0.00  0.00    -0.079 Cl
ATOM      5  C   UNL     1      -2.264   0.313   0.941  0.00  0.00    +0.160 C 
ATOM      6  C   UNL     1      -1.788  -0.994   0.827  0.00  0.00    +0.030 C 
ATOM      7  C   UNL     1      -3.306   0.749   0.123  0.00  0.00    +0.163 C 
ATOM      8  C   UNL     1      -2.354  -1.863  -0.105  0.00  0.00    +0.078 C 
ATOM      9  C   UNL     1      -3.872  -0.120  -0.809  0.00  0.00    +0.093 C 
ATOM     10  C   UNL     1      -3.397  -1.427  -0.923  0.00  0.00    +0.021 C 
BRANCH   7  11
ATOM     11  O   UNL     1      -3.768   2.028   0.239  0.00  0.00    -0.503 OA
ATOM     12  H   UNL     1      -3.385   2.609   0.867  0.00  0.00    +0.292 HD
ENDBRANCH   7  11
BRANCH   8  14
ATOM     13  O   UNL     1      -2.546  -4.194  -0.572  0.00  0.00    -0.245 OA
ATOM     14  C   UNL     1      -1.857  -3.225  -0.224  0.00  0.00    +0.341 C 
BRANCH  14  15
ATOM     15  O   UNL     1      -0.530  -3.306   0.097  0.00  0.00    -0.441 OA
ATOM     16  C   UNL     1       0.077  -4.600   0.018  0.00  0.00    +0.256 C 
ENDBRANCH  14  15
ENDBRANCH   8  14
ENDBRANCH   1   5
BRANCH   1  17
ATOM     17  N   UNL     1      -0.686   2.510   1.126  0.00  0.00    -0.213 N 
ATOM     18  H   UNL     1      -0.827   3.480   1.226  0.00  0.00    +0.174 HD
BRANCH  17  21
ATOM     19  F   UNL     1      -1.187   2.775  -1.608  0.00  0.00    -0.203 F 
ATOM     20  F   UNL     1       2.829   0.542  -2.705  0.00  0.00    -0.204 F 
ATOM     21  C   UNL     1       0.218   2.004   0.144  0.00  0.00    +0.092 C 
ATOM     22  C   UNL     1       2.273   0.862  -0.414  0.00  0.00    +0.029 C 
ATOM     23  C   UNL     1       1.388   1.357   0.543  0.00  0.00    +0.020 C 
ATOM     24  C   UNL     1      -0.066   2.156  -1.213  0.00  0.00    +0.157 C 
ATOM     25  C   UNL     1       1.988   1.013  -1.772  0.00  0.00    +0.142 C 
ATOM     26  C   UNL     1       0.819   1.660  -2.171  0.00  0.00    +0.061 C 
BRANCH  22  27
ATOM     27  C   UNL     1       3.485   0.191   0.004  0.00  0.00    +0.002 C 
ATOM     28  C   UNL     1       3.410  -0.960   0.789  0.00  0.00    +0.000 C 
ATOM     29  C   UNL     1       4.728   0.696  -0.377  0.00  0.00    +0.000 C 
ATOM     30  C   UNL     1       4.578  -1.606   1.192  0.00  0.00    +0.000 C 
ATOM     31  C   UNL     1       5.896   0.050   0.027  0.00  0.00    +0.000 C 
ATOM     32  C   UNL     1       5.821  -1.101   0.812  0.00  0.00    +0.000 C 
ENDBRANCH  22  27
ENDBRANCH  17  21
ENDBRANCH   1  17
TORSDOF 7
