REMARK  Name = 137706174
REMARK  8 active torsions:
REMARK  status: ('A' for Active; 'I' for Inactive)
REMARK    1  A    between atoms: N_1  and  C_14
REMARK    2  A    between atoms: N_1  and  O_26
REMARK    3  A    between atoms: C_5  and  O_20
REMARK    4  A    between atoms: C_9  and  O_22
REMARK    5  A    between atoms: C_19  and  O_24
REMARK    6  A    between atoms: O_26  and  C_27
REMARK    7  A    between atoms: C_27  and  C_29
REMARK    8  A    between atoms: C_29  and  O_30
REMARK                            x       y       z     vdW  Elec       q    Type
REMARK                         _______ _______ _______ _____ _____    ______ ____
ROOT
ATOM      1  C   UNL     1       0.441   2.918   0.496  0.00  0.00    +0.027 C 
ATOM      2  C   UNL     1       0.668   1.393   0.223  0.00  0.00    +0.005 C 
ATOM      3  C   UNL     1       0.050   0.912  -1.113  0.00  0.00    +0.006 C 
ATOM      4  C   UNL     1       1.868   3.529   0.493  0.00  0.00    +0.137 C 
ATOM      5  C   UNL     1      -1.456   1.264  -1.232  0.00  0.00    +0.022 C 
ATOM      6  C   UNL     1      -0.496   3.556  -0.551  0.00  0.00    +0.003 C 
ATOM      7  C   UNL     1       2.197   1.183   0.274  0.00  0.00    +0.032 C 
ATOM      8  C   UNL     1       2.736   2.391   1.024  0.00  0.00    +0.137 C 
ATOM      9  C   UNL     1      -1.751   2.715  -0.772  0.00  0.00    +0.004 C 
ATOM     10  C   UNL     1      -0.169   3.096   1.909  0.00  0.00    +0.002 C 
ATOM     11  C   UNL     1       0.275  -0.578  -1.373  0.00  0.00    +0.025 C 
ATOM     12  C   UNL     1      -2.380   0.240  -0.579  0.00  0.00    -0.025 C 
ATOM     13  C   UNL     1      -0.521  -1.417  -0.406  0.00  0.00    +0.125 C 
ATOM     14  C   UNL     1      -1.924  -1.022  -0.160  0.00  0.00    -0.005 C 
ATOM     15  C   UNL     1      -3.751   0.523  -0.429  0.00  0.00    -0.001 C 
ATOM     16  C   UNL     1      -2.793  -1.935   0.454  0.00  0.00    +0.033 C 
ATOM     17  C   UNL     1      -4.619  -0.389   0.175  0.00  0.00    +0.036 C 
ATOM     18  C   UNL     1      -4.137  -1.612   0.626  0.00  0.00    +0.133 C 
ENDROOT
BRANCH   4  19
ATOM     19  O   UNL     1       2.279   3.857  -0.833  0.00  0.00    -0.382 OA
ATOM     20  H   UNL     1       1.729   4.580  -1.173  0.00  0.00    +0.210 HD
ENDBRANCH   4  19
BRANCH   8  21
ATOM     21  O   UNL     1       4.111   2.587   0.762  0.00  0.00    -0.382 OA
ATOM     22  H   UNL     1       4.426   3.362   1.253  0.00  0.00    +0.210 HD
ENDBRANCH   8  21
BRANCH  18  23
ATOM     23  O   UNL     1      -4.982  -2.501   1.217  0.00  0.00    -0.506 OA
ATOM     24  H   UNL     1      -4.657  -3.325   1.521  0.00  0.00    +0.292 HD
ENDBRANCH  18  23
BRANCH  13  25
ATOM     25  N   UNL     1       0.000  -2.461   0.153  0.00  0.00    -0.080 NA
BRANCH  25  26
ATOM     26  O   UNL     1       1.329  -2.569  -0.273  0.00  0.00    -0.254 OA
BRANCH  26  27
ATOM     27  C   UNL     1       1.894  -3.715   0.345  0.00  0.00    +0.277 C 
BRANCH  27  29
ATOM     28  O   UNL     1       3.921  -3.146  -0.869  0.00  0.00    -0.247 OA
ATOM     29  C   UNL     1       3.326  -3.872  -0.086  0.00  0.00    +0.347 C 
BRANCH  29  30
ATOM     30  O   UNL     1       3.884  -4.948   0.523  0.00  0.00    -0.478 OA
ATOM     31  H   UNL     1       3.375  -5.467   1.115  0.00  0.00    +0.295 HD
ENDBRANCH  29  30
ENDBRANCH  27  29
ENDBRANCH  26  27
ENDBRANCH  25  26
ENDBRANCH  13  25
TORSDOF 8
