REMARK  Name = 137704512
REMARK  6 active torsions:
REMARK  status: ('A' for Active; 'I' for Inactive)
REMARK    1  A    between atoms: C_8  and  C_14
REMARK    2  A    between atoms: C_14  and  C_15
REMARK    3  A    between atoms: C_15  and  C_16
REMARK    4  A    between atoms: C_16  and  C_17
REMARK    5  A    between atoms: C_17  and  C_19
REMARK    6  A    between atoms: C_19  and  O_20
REMARK                            x       y       z     vdW  Elec       q    Type
REMARK                         _______ _______ _______ _____ _____    ______ ____
ROOT
ATOM      1  S   UNL     1       2.303   1.705  -0.386  0.00  0.00    -0.008 S 
ATOM      2  O   UNL     1       2.284   3.140  -0.197  0.00  0.00    -0.173 OA
ATOM      3  O   UNL     1       2.385   1.099  -1.699  0.00  0.00    -0.173 OA
ATOM      4  O   UNL     1       2.600  -3.030  -1.119  0.00  0.00    -0.253 OA
ATOM      5  N   UNL     1       1.282  -1.453   0.003  0.00  0.00    -0.287 N 
ATOM      6  N   UNL     1       3.508  -1.436   0.337  0.00  0.00    -0.287 N 
ATOM      7  C   UNL     1       1.482  -0.400   0.978  0.00  0.00    +0.114 C 
ATOM      8  C   UNL     1       0.961   0.973   0.530  0.00  0.00    +0.149 C 
ATOM      9  C   UNL     1       3.022  -0.339   1.148  0.00  0.00    +0.116 C 
ATOM     10  C   UNL     1       3.566   1.000   0.646  0.00  0.00    +0.172 C 
ATOM     11  C   UNL     1       2.478  -2.084  -0.353  0.00  0.00    +0.301 C 
ATOM     12  H   UNL     1       0.403  -1.697  -0.367  0.00  0.00    +0.151 HD
ATOM     13  H   UNL     1       4.456  -1.696   0.279  0.00  0.00    +0.151 HD
ENDROOT
BRANCH   8  14
ATOM     14  C   UNL     1      -0.347   0.973  -0.239  0.00  0.00    +0.025 C 
BRANCH  14  15
ATOM     15  C   UNL     1      -1.520   0.373   0.543  0.00  0.00    +0.002 C 
BRANCH  15  16
ATOM     16  C   UNL     1      -2.874   0.397  -0.172  0.00  0.00    +0.012 C 
BRANCH  16  17
ATOM     17  C   UNL     1      -4.018  -0.160   0.674  0.00  0.00    +0.109 C 
BRANCH  17  19
ATOM     18  O   UNL     1      -5.473   0.171  -1.250  0.00  0.00    -0.250 OA
ATOM     19  C   UNL     1      -5.317  -0.207  -0.098  0.00  0.00    +0.314 C 
BRANCH  19  20
ATOM     20  O   UNL     1      -6.323  -0.724   0.656  0.00  0.00    -0.480 OA
ATOM     21  H   UNL     1      -6.155  -1.000   1.536  0.00  0.00    +0.295 HD
ENDBRANCH  19  20
ENDBRANCH  17  19
ENDBRANCH  16  17
ENDBRANCH  15  16
ENDBRANCH  14  15
ENDBRANCH   8  14
TORSDOF 6
