REMARK  Name = 137706187
REMARK  13 active torsions:
REMARK  status: ('A' for Active; 'I' for Inactive)
REMARK    1  A    between atoms: C_6  and  O_12
REMARK    2  A    between atoms: C_8  and  O_23
REMARK    3  A    between atoms: C_10  and  C_30
REMARK    4  A    between atoms: O_12  and  C_14
REMARK    5  A    between atoms: C_14  and  C_15
REMARK    6  A    between atoms: C_15  and  C_16
REMARK    7  A    between atoms: C_16  and  O_19
REMARK    8  A    between atoms: O_19  and  C_21
REMARK    9  A    between atoms: O_23  and  C_25
REMARK   10  A    between atoms: C_25  and  C_26
REMARK   11  A    between atoms: C_26  and  C_27
REMARK   12  A    between atoms: C_30  and  O_31
REMARK   13  A    between atoms: O_31  and  C_33
REMARK                            x       y       z     vdW  Elec       q    Type
REMARK                         _______ _______ _______ _____ _____    ______ ____
ROOT
ATOM      1  O   UNL     1      -0.147  -1.723  -2.888  0.00  0.00    -0.349 OA
ATOM      2  O   UNL     1      -3.689  -1.019  -0.475  0.00  0.00    -0.440 OA
ATOM      3  C   UNL     1      -0.564  -0.386  -2.603  0.00  0.00    +0.171 C 
ATOM      4  C   UNL     1      -1.860  -0.196  -1.867  0.00  0.00    +0.138 C 
ATOM      5  C   UNL     1      -0.496  -0.909  -4.016  0.00  0.00    +0.174 C 
ATOM      6  C   UNL     1       0.467   0.555  -2.031  0.00  0.00    +0.218 C 
ATOM      7  C   UNL     1      -1.494   0.759  -0.753  0.00  0.00    -0.011 C 
ATOM      8  C   UNL     1      -2.524  -1.417  -1.232  0.00  0.00    +0.349 C 
ATOM      9  C   UNL     1      -0.232   1.201  -0.860  0.00  0.00    +0.015 C 
ATOM     10  C   UNL     1      -2.500   0.975   0.255  0.00  0.00    +0.055 C 
ATOM     11  C   UNL     1      -3.527   0.107   0.305  0.00  0.00    +0.175 C 
ENDROOT
BRANCH   6  12
ATOM     12  O   UNL     1       1.610  -0.143  -1.558  0.00  0.00    -0.445 OA
BRANCH  12  14
ATOM     13  O   UNL     1       2.909   1.740  -1.868  0.00  0.00    -0.250 OA
ATOM     14  C   UNL     1       2.777   0.572  -1.527  0.00  0.00    +0.321 C 
BRANCH  14  15
ATOM     15  C   UNL     1       3.902  -0.280  -0.983  0.00  0.00    +0.149 C 
BRANCH  15  16
ATOM     16  C   UNL     1       4.580   0.338   0.249  0.00  0.00    +0.147 C 
ATOM     17  C   UNL     1       5.529   1.459  -0.188  0.00  0.00    +0.044 C 
ATOM     18  C   UNL     1       5.350  -0.699   1.070  0.00  0.00    +0.044 C 
BRANCH  16  19
ATOM     19  O   UNL     1       3.588   0.916   1.099  0.00  0.00    -0.455 OA
BRANCH  19  21
ATOM     20  O   UNL     1       2.632  -1.164   1.415  0.00  0.00    -0.250 OA
ATOM     21  C   UNL     1       2.674   0.043   1.614  0.00  0.00    +0.317 C 
ATOM     22  C   UNL     1       1.702   0.785   2.480  0.00  0.00    +0.121 C 
ENDBRANCH  19  21
ENDBRANCH  16  19
ENDBRANCH  15  16
ENDBRANCH  14  15
ENDBRANCH  12  14
ENDBRANCH   6  12
BRANCH   8  23
ATOM     23  O   UNL     1      -1.602  -2.134  -0.410  0.00  0.00    -0.413 OA
BRANCH  23  25
ATOM     24  O   UNL     1      -3.242  -3.673   0.099  0.00  0.00    -0.250 OA
ATOM     25  C   UNL     1      -2.098  -3.252   0.201  0.00  0.00    +0.319 C 
BRANCH  25  26
ATOM     26  C   UNL     1      -1.016  -3.870   1.060  0.00  0.00    +0.110 C 
BRANCH  26  27
ATOM     27  C   UNL     1      -0.438  -2.896   2.098  0.00  0.00    +0.011 C 
ATOM     28  C   UNL     1      -1.520  -2.393   3.057  0.00  0.00    +0.001 C 
ATOM     29  C   UNL     1       0.680  -3.576   2.890  0.00  0.00    +0.001 C 
ENDBRANCH  26  27
ENDBRANCH  25  26
ENDBRANCH  23  25
ENDBRANCH   8  23
BRANCH  10  30
ATOM     30  C   UNL     1      -2.382   2.147   1.177  0.00  0.00    +0.238 C 
BRANCH  30  31
ATOM     31  O   UNL     1      -2.366   3.349   0.429  0.00  0.00    -0.443 OA
BRANCH  31  33
ATOM     32  O   UNL     1      -2.183   4.585   2.372  0.00  0.00    -0.250 OA
ATOM     33  C   UNL     1      -2.261   4.507   1.154  0.00  0.00    +0.318 C 
ATOM     34  C   UNL     1      -2.257   5.691   0.235  0.00  0.00    +0.121 C 
ENDBRANCH  31  33
ENDBRANCH  30  31
ENDBRANCH  10  30
TORSDOF 13
