REMARK  Name = 137705851
REMARK  6 active torsions:
REMARK  status: ('A' for Active; 'I' for Inactive)
REMARK    1  A    between atoms: N_4  and  C_10
REMARK    2  A    between atoms: N_4  and  C_16
REMARK    3  A    between atoms: C_6  and  O_12
REMARK    4  A    between atoms: C_7  and  O_14
REMARK    5  A    between atoms: C_9  and  C_18
REMARK    6  A    between atoms: C_18  and  O_19
REMARK                            x       y       z     vdW  Elec       q    Type
REMARK                         _______ _______ _______ _____ _____    ______ ____
ROOT
ATOM      1  S   UNL     1       1.470   1.110   0.706  0.00  0.00    -0.078 S 
ATOM      2  O   UNL     1      -1.293   1.130   0.867  0.00  0.00    -0.341 OA
ATOM      3  N   UNL     1       1.145  -1.196  -0.439  0.00  0.00    -0.272 NA
ATOM      4  C   UNL     1      -0.145  -0.863   0.129  0.00  0.00    +0.123 C 
ATOM      5  C   UNL     1      -1.362  -1.373  -0.623  0.00  0.00    +0.157 C 
ATOM      6  C   UNL     1      -2.623  -0.815   0.069  0.00  0.00    +0.168 C 
ATOM      7  C   UNL     1      -0.190   0.663   0.108  0.00  0.00    +0.182 C 
ATOM      8  C   UNL     1      -2.561   0.712   0.311  0.00  0.00    +0.175 C 
ATOM      9  C   UNL     1       2.154  -0.321  -0.107  0.00  0.00    +0.181 C 
ATOM     10  H   UNL     1       1.288  -1.982  -1.014  0.00  0.00    +0.125 HD
ENDROOT
BRANCH   5  11
ATOM     11  O   UNL     1      -1.410  -2.795  -0.604  0.00  0.00    -0.380 OA
ATOM     12  H   UNL     1      -0.619  -3.152  -1.038  0.00  0.00    +0.211 HD
ENDBRANCH   5  11
BRANCH   6  13
ATOM     13  O   UNL     1      -2.746  -1.449   1.351  0.00  0.00    -0.379 OA
ATOM     14  H   UNL     1      -2.788  -2.411   1.233  0.00  0.00    +0.211 HD
ENDBRANCH   6  13
BRANCH   9  15
ATOM     15  N   UNL     1       3.423  -0.412  -0.301  0.00  0.00    -0.194 NA
BRANCH  15  16
ATOM     16  C   UNL     1       4.194   0.723   0.192  0.00  0.00    +0.091 C 
ATOM     17  C   UNL     1       5.663   0.479  -0.081  0.00  0.00    +0.020 C 
ENDBRANCH  15  16
ENDBRANCH   9  15
BRANCH   8  18
ATOM     18  C   UNL     1      -2.894   1.514  -0.947  0.00  0.00    +0.169 C 
BRANCH  18  19
ATOM     19  O   UNL     1      -2.824   2.892  -0.631  0.00  0.00    -0.379 OA
ATOM     20  H   UNL     1      -3.034   3.415  -1.421  0.00  0.00    +0.211 HD
ENDBRANCH  18  19
ENDBRANCH   8  18
TORSDOF 6
