REMARK  Name = 137796089
REMARK  11 active torsions:
REMARK  status: ('A' for Active; 'I' for Inactive)
REMARK    1  A    between atoms: C_6  and  O_12
REMARK    2  A    between atoms: C_9  and  O_16
REMARK    3  A    between atoms: C_10  and  C_23
REMARK    4  A    between atoms: O_12  and  C_14
REMARK    5  A    between atoms: O_16  and  C_18
REMARK    6  A    between atoms: C_18  and  C_19
REMARK    7  A    between atoms: C_19  and  C_20
REMARK    8  A    between atoms: C_23  and  O_24
REMARK    9  A    between atoms: O_24  and  C_26
REMARK   10  A    between atoms: C_26  and  C_27
REMARK   11  A    between atoms: C_27  and  C_28
REMARK                            x       y       z     vdW  Elec       q    Type
REMARK                         _______ _______ _______ _____ _____    ______ ____
ROOT
ATOM      1  O   UNL     1       2.158   2.625   0.396  0.00  0.00    -0.350 OA
ATOM      2  O   UNL     1       2.477  -0.990  -2.074  0.00  0.00    -0.440 OA
ATOM      3  C   UNL     1       1.312   2.410  -0.736  0.00  0.00    +0.164 C 
ATOM      4  C   UNL     1       1.448   1.112  -1.458  0.00  0.00    +0.119 C 
ATOM      5  C   UNL     1       0.134   0.398  -1.094  0.00  0.00    +0.038 C 
ATOM      6  C   UNL     1      -0.155   2.726  -0.556  0.00  0.00    +0.196 C 
ATOM      7  C   UNL     1       2.375   3.477  -0.740  0.00  0.00    +0.173 C 
ATOM      8  C   UNL     1      -0.879   1.541  -1.246  0.00  0.00    +0.051 C 
ATOM      9  C   UNL     1       2.610   0.165  -1.211  0.00  0.00    +0.345 C 
ATOM     10  C   UNL     1       0.049  -0.856  -1.908  0.00  0.00    +0.036 C 
ATOM     11  C   UNL     1       1.194  -1.435  -2.317  0.00  0.00    +0.171 C 
ENDROOT
BRANCH   6  12
ATOM     12  O   UNL     1      -0.508   2.741   0.823  0.00  0.00    -0.450 OA
BRANCH  12  14
ATOM     13  O   UNL     1      -2.284   4.148   0.370  0.00  0.00    -0.250 OA
ATOM     14  C   UNL     1      -1.599   3.497   1.148  0.00  0.00    +0.318 C 
ATOM     15  C   UNL     1      -1.850   3.419   2.624  0.00  0.00    +0.121 C 
ENDBRANCH  12  14
ENDBRANCH   6  12
BRANCH   9  16
ATOM     16  O   UNL     1       2.666  -0.234   0.156  0.00  0.00    -0.414 OA
BRANCH  16  18
ATOM     17  O   UNL     1       4.501  -1.555  -0.296  0.00  0.00    -0.250 OA
ATOM     18  C   UNL     1       3.670  -1.105   0.480  0.00  0.00    +0.319 C 
BRANCH  18  19
ATOM     19  C   UNL     1       3.569  -1.458   1.949  0.00  0.00    +0.110 C 
BRANCH  19  20
ATOM     20  C   UNL     1       2.201  -2.039   2.338  0.00  0.00    +0.011 C 
ATOM     21  C   UNL     1       1.897  -3.322   1.560  0.00  0.00    +0.001 C 
ATOM     22  C   UNL     1       2.161  -2.324   3.841  0.00  0.00    +0.001 C 
ENDBRANCH  19  20
ENDBRANCH  18  19
ENDBRANCH  16  18
ENDBRANCH   9  16
BRANCH  10  23
ATOM     23  C   UNL     1      -1.300  -1.437  -2.190  0.00  0.00    +0.234 C 
BRANCH  23  24
ATOM     24  O   UNL     1      -1.974  -1.705  -0.973  0.00  0.00    -0.444 OA
BRANCH  24  26
ATOM     25  O   UNL     1      -3.797  -2.502  -2.140  0.00  0.00    -0.250 OA
ATOM     26  C   UNL     1      -3.231  -2.244  -1.086  0.00  0.00    +0.317 C 
BRANCH  26  27
ATOM     27  C   UNL     1      -3.827  -2.434   0.292  0.00  0.00    +0.110 C 
BRANCH  27  28
ATOM     28  C   UNL     1      -3.870  -1.137   1.115  0.00  0.00    +0.011 C 
ATOM     29  C   UNL     1      -4.437  -1.419   2.508  0.00  0.00    +0.001 C 
ATOM     30  C   UNL     1      -4.711  -0.062   0.422  0.00  0.00    +0.001 C 
ENDBRANCH  27  28
ENDBRANCH  26  27
ENDBRANCH  24  26
ENDBRANCH  23  24
ENDBRANCH  10  23
TORSDOF 11
