REMARK  Name = 137706510
REMARK  10 active torsions:
REMARK  status: ('A' for Active; 'I' for Inactive)
REMARK    1  A    between atoms: C_4  and  O_17
REMARK    2  A    between atoms: C_9  and  C_30
REMARK    3  A    between atoms: C_12  and  O_26
REMARK    4  A    between atoms: O_17  and  C_19
REMARK    5  A    between atoms: C_19  and  C_20
REMARK    6  A    between atoms: C_22  and  C_23
REMARK    7  A    between atoms: C_23  and  O_24
REMARK    8  A    between atoms: O_26  and  C_28
REMARK    9  A    between atoms: C_30  and  O_31
REMARK   10  A    between atoms: O_31  and  C_33
REMARK                            x       y       z     vdW  Elec       q    Type
REMARK                         _______ _______ _______ _____ _____    ______ ____
ROOT
ATOM      1  O   UNL     1       0.726  -2.660  -2.189  0.00  0.00    -0.449 OA
ATOM      2  O   UNL     1      -0.435  -2.942  -4.156  0.00  0.00    -0.245 OA
ATOM      3  C   UNL     1      -0.124  -0.566  -1.486  0.00  0.00    +0.109 C 
ATOM      4  C   UNL     1      -0.896   0.247  -0.418  0.00  0.00    +0.181 C 
ATOM      5  C   UNL     1       0.531  -1.867  -1.006  0.00  0.00    +0.177 C 
ATOM      6  C   UNL     1      -0.061   0.852   0.741  0.00  0.00    +0.069 C 
ATOM      7  C   UNL     1      -0.900  -1.113  -2.643  0.00  0.00    +0.060 C 
ATOM      8  C   UNL     1       1.861  -1.564  -0.386  0.00  0.00    +0.048 C 
ATOM      9  C   UNL     1       1.186   1.633   0.378  0.00  0.00    -0.001 C 
ATOM     10  C   UNL     1       2.200  -1.737   0.905  0.00  0.00    +0.044 C 
ATOM     11  C   UNL     1      -0.222  -2.340  -3.120  0.00  0.00    +0.337 C 
ATOM     12  C   UNL     1       3.339  -0.931   1.504  0.00  0.00    +0.173 C 
ATOM     13  C   UNL     1       2.831   0.447   1.987  0.00  0.00    +0.069 C 
ATOM     14  C   UNL     1       2.414   1.415   0.899  0.00  0.00    -0.027 C 
ATOM     15  C   UNL     1      -2.018  -0.671  -3.222  0.00  0.00    +0.002 C 
ATOM     16  C   UNL     1       1.421  -2.560   1.896  0.00  0.00    +0.004 C 
ENDROOT
BRANCH   4  17
ATOM     17  O   UNL     1      -1.892  -0.574   0.202  0.00  0.00    -0.449 OA
BRANCH  17  19
ATOM     18  O   UNL     1      -3.240   1.269   0.495  0.00  0.00    -0.245 OA
ATOM     19  C   UNL     1      -3.017   0.073   0.612  0.00  0.00    +0.337 C 
BRANCH  19  20
ATOM     20  C   UNL     1      -3.953  -0.909   1.240  0.00  0.00    +0.052 C 
ATOM     21  C   UNL     1      -3.370  -2.124   1.899  0.00  0.00    +0.038 C 
ATOM     22  C   UNL     1      -5.263  -0.623   1.132  0.00  0.00    +0.007 C 
BRANCH  22  23
ATOM     23  C   UNL     1      -6.410  -1.419   1.673  0.00  0.00    +0.163 C 
BRANCH  23  24
ATOM     24  O   UNL     1      -7.136  -0.604   2.585  0.00  0.00    -0.377 OA
ATOM     25  H   UNL     1      -7.883  -1.107   2.945  0.00  0.00    +0.211 HD
ENDBRANCH  23  24
ENDBRANCH  22  23
ENDBRANCH  19  20
ENDBRANCH  17  19
ENDBRANCH   4  17
BRANCH  12  26
ATOM     26  O   UNL     1       4.423  -0.745   0.596  0.00  0.00    -0.452 OA
BRANCH  26  28
ATOM     27  O   UNL     1       5.912  -0.696   2.361  0.00  0.00    -0.250 OA
ATOM     28  C   UNL     1       5.660  -0.642   1.165  0.00  0.00    +0.317 C 
ATOM     29  C   UNL     1       6.694  -0.450   0.097  0.00  0.00    +0.121 C 
ENDBRANCH  26  28
ENDBRANCH  12  26
BRANCH   9  30
ATOM     30  C   UNL     1       0.983   2.758  -0.606  0.00  0.00    +0.231 C 
BRANCH  30  31
ATOM     31  O   UNL     1       0.038   3.670  -0.087  0.00  0.00    -0.444 OA
BRANCH  31  33
ATOM     32  O   UNL     1       0.234   4.989  -1.974  0.00  0.00    -0.250 OA
ATOM     33  C   UNL     1      -0.252   4.754  -0.876  0.00  0.00    +0.318 C 
ATOM     34  C   UNL     1      -1.264   5.630  -0.201  0.00  0.00    +0.121 C 
ENDBRANCH  31  33
ENDBRANCH  30  31
ENDBRANCH   9  30
TORSDOF 10
