137796414
  -OEChem-03292013293D

 41 42  0     1  0  0  0  0  0999 V2000
   -2.2332    1.1698   -0.5720 O   0  0  0  0  0  0  0  0  0  0  0  0
   -3.8892   -0.7054    2.1356 O   0  0  0  0  0  0  0  0  0  0  0  0
   -4.1889   -2.4568   -0.0979 O   0  0  0  0  0  0  0  0  0  0  0  0
   -0.4531   -0.3851   -0.7830 O   0  0  0  0  0  0  0  0  0  0  0  0
   -3.8035   -0.6343   -2.1656 O   0  0  0  0  0  0  0  0  0  0  0  0
   -2.0886    3.0906    1.3724 O   0  0  0  0  0  0  0  0  0  0  0  0
    0.4588    1.7175   -0.9995 O   0  0  0  0  0  0  0  0  0  0  0  0
    3.1574    1.4621   -1.3132 O   0  0  0  0  0  0  0  0  0  0  0  0
    5.4110    0.2929   -0.2193 O   0  0  0  0  0  0  0  0  0  0  0  0
   -3.6462   -0.2854    0.7952 C   0  0  2  0  0  0  0  0  0  0  0  0
   -3.1436   -1.4924    0.0021 C   0  0  2  0  0  0  0  0  0  0  0  0
   -2.5975    0.8353    0.7711 C   0  0  2  0  0  0  0  0  0  0  0  0
   -2.6838   -1.0758   -1.3961 C   0  0  2  0  0  0  0  0  0  0  0  0
   -1.6866    0.0789   -1.3208 C   0  0  1  0  0  0  0  0  0  0  0  0
   -3.1126    2.1145    1.4250 C   0  0  0  0  0  0  0  0  0  0  0  0
    0.5373    0.5421   -0.6776 C   0  0  0  0  0  0  0  0  0  0  0  0
    1.7656   -0.0654   -0.1060 C   0  0  0  0  0  0  0  0  0  0  0  0
    3.0296    0.4173   -0.4455 C   0  0  0  0  0  0  0  0  0  0  0  0
    1.6425   -1.1337    0.7826 C   0  0  0  0  0  0  0  0  0  0  0  0
    4.1703   -0.1683    0.1032 C   0  0  0  0  0  0  0  0  0  0  0  0
    2.7834   -1.7192    1.3313 C   0  0  0  0  0  0  0  0  0  0  0  0
    4.0473   -1.2366    0.9916 C   0  0  0  0  0  0  0  0  0  0  0  0
    6.5234   -0.3626    0.3864 C   0  0  0  0  0  0  0  0  0  0  0  0
   -4.6007    0.0611    0.3818 H   0  0  0  0  0  0  0  0  0  0  0  0
   -2.3187   -1.9727    0.5431 H   0  0  0  0  0  0  0  0  0  0  0  0
   -1.6923    0.5279    1.3112 H   0  0  0  0  0  0  0  0  0  0  0  0
   -2.2519   -1.9424   -1.9097 H   0  0  0  0  0  0  0  0  0  0  0  0
   -1.5020    0.4553   -2.3348 H   0  0  0  0  0  0  0  0  0  0  0  0
   -3.3868    1.9463    2.4708 H   0  0  0  0  0  0  0  0  0  0  0  0
   -3.9783    2.5081    0.8821 H   0  0  0  0  0  0  0  0  0  0  0  0
   -3.0417   -0.9849    2.5220 H   0  0  0  0  0  0  0  0  0  0  0  0
   -3.8455   -3.2077   -0.6116 H   0  0  0  0  0  0  0  0  0  0  0  0
   -3.4825   -0.4285   -3.0601 H   0  0  0  0  0  0  0  0  0  0  0  0
   -2.4380    3.8960    1.7904 H   0  0  0  0  0  0  0  0  0  0  0  0
    0.6716   -1.5230    1.0775 H   0  0  0  0  0  0  0  0  0  0  0  0
    2.6866   -2.5489    2.0256 H   0  0  0  0  0  0  0  0  0  0  0  0
    4.8875   -1.7401    1.4571 H   0  0  0  0  0  0  0  0  0  0  0  0
    2.2925    1.7259   -1.6645 H   0  0  0  0  0  0  0  0  0  0  0  0
    6.5891   -1.4124    0.0808 H   0  0  0  0  0  0  0  0  0  0  0  0
    6.5179   -0.2443    1.4754 H   0  0  0  0  0  0  0  0  0  0  0  0
    7.4283    0.1322    0.0182 H   0  0  0  0  0  0  0  0  0  0  0  0
  1 12  1  0  0  0  0
  1 14  1  0  0  0  0
  2 10  1  0  0  0  0
  2 31  1  0  0  0  0
  3 11  1  0  0  0  0
  3 32  1  0  0  0  0
  4 14  1  0  0  0  0
  4 16  1  0  0  0  0
  5 13  1  0  0  0  0
  5 33  1  0  0  0  0
  6 15  1  0  0  0  0
  6 34  1  0  0  0  0
  7 16  2  0  0  0  0
  8 18  1  0  0  0  0
  8 38  1  0  0  0  0
  9 20  1  0  0  0  0
  9 23  1  0  0  0  0
 10 11  1  0  0  0  0
 10 12  1  0  0  0  0
 10 24  1  0  0  0  0
 11 13  1  0  0  0  0
 11 25  1  0  0  0  0
 12 15  1  0  0  0  0
 12 26  1  0  0  0  0
 13 14  1  0  0  0  0
 13 27  1  0  0  0  0
 14 28  1  0  0  0  0
 15 29  1  0  0  0  0
 15 30  1  0  0  0  0
 16 17  1  0  0  0  0
 17 18  2  0  0  0  0
 17 19  1  0  0  0  0
 18 20  1  0  0  0  0
 19 21  2  0  0  0  0
 19 35  1  0  0  0  0
 20 22  2  0  0  0  0
 21 22  1  0  0  0  0
 21 36  1  0  0  0  0
 22 37  1  0  0  0  0
 23 39  1  0  0  0  0
 23 40  1  0  0  0  0
 23 41  1  0  0  0  0
M  END
> <PUBCHEM_COMPOUND_CID>
137796414

> <PUBCHEM_CONFORMER_RMSD>
1.2

> <PUBCHEM_CONFORMER_DIVERSEORDER>
1
32
50
6
25
69
58
24
2
7
89
43
52
17
40
4
66
16
20
48
42
55
71
34
80
73
61
22
67
23
76
10
8
19
30
29
70
21
53
3
54
44
13
37
75
83
45
51
12
63
27
81
65
47
18
57
26
15
72
38
31
82
86
11
28
33
84
60
74
5
49
56
39
41
14
85
77
59
78
36
46
35
64
9
87
62
68
88
79

> <PUBCHEM_MMFF94_PARTIAL_CHARGES>
31
1 -0.56
10 0.28
11 0.28
12 0.28
13 0.28
14 0.56
15 0.28
16 0.63
17 0.09
18 0.08
19 -0.15
2 -0.68
20 0.08
21 -0.15
22 -0.15
23 0.28
3 -0.68
31 0.4
32 0.4
33 0.4
34 0.4
35 0.15
36 0.15
37 0.15
38 0.45
4 -0.43
5 -0.68
6 -0.68
7 -0.57
8 -0.53
9 -0.36

> <PUBCHEM_EFFECTIVE_ROTOR_COUNT>
6.2

> <PUBCHEM_PHARMACOPHORE_FEATURES>
14
1 1 acceptor
1 2 acceptor
1 2 donor
1 3 acceptor
1 3 donor
1 5 acceptor
1 5 donor
1 6 acceptor
1 6 donor
1 7 acceptor
1 8 donor
1 9 acceptor
6 1 10 11 12 13 14 rings
6 17 18 19 20 21 22 rings

> <PUBCHEM_HEAVY_ATOM_COUNT>
23

> <PUBCHEM_ATOM_DEF_STEREO_COUNT>
0

> <PUBCHEM_ATOM_UDEF_STEREO_COUNT>
5

> <PUBCHEM_BOND_DEF_STEREO_COUNT>
0

> <PUBCHEM_BOND_UDEF_STEREO_COUNT>
0

> <PUBCHEM_ISOTOPIC_ATOM_COUNT>
0

> <PUBCHEM_COMPONENT_COUNT>
1

> <PUBCHEM_CACTVS_TAUTO_COUNT>
-1

> <PUBCHEM_CONFORMER_ID>
08369B3E00000001

> <PUBCHEM_MMFF94_ENERGY>
75.314

> <PUBCHEM_FEATURE_SELFOVERLAP>
71.078

> <PUBCHEM_SHAPE_FINGERPRINT>
10366900 7 17988911284695472915
11315181 36 18408317804803530980
11552529 35 18411416215491003979
11578080 2 18194935583022708061
11615757 297 18187363250868004886
12107183 9 17763465011233514394
12236239 1 18411699889527373532
12596599 1 18261673666669159570
12596602 18 18271525411355320434
12633257 1 17274829060184719209
12788726 201 18271797987703021521
13224815 77 17385724669017019226
13862211 1 17822282488762124538
14386348 63 16298107570688290210
14849402 71 18267305516674545168
15375462 189 18335425694008570225
15788980 27 14417851428206292114
17349148 13 17603304852174465968
17780758 139 18410293609770862066
17844677 252 17632574964213207976
200 152 18261384581389896863
20645477 70 17677595510994164158
2306618 200 18335133181599067845
23402539 116 18410291411111486198
23419403 2 15551021370815248809
23557571 272 16271926034436412749
23559900 14 16805593802592158620
312423 11 18411426141339539212
5104073 3 18114734933471322584
602551 16 17346311648407081406
7097593 13 18192995911308399810
90316 7 18130796668012589825
9849439 229 17125660314762886385

> <PUBCHEM_SHAPE_MULTIPOLES>
420.51
11.23
2.12
1.64
12.18
0.75
0.02
-2.37
1.76
-2.16
0.68
-1.64
0.08
-1.87

> <PUBCHEM_SHAPE_SELFOVERLAP>
887.038

> <PUBCHEM_SHAPE_VOLUME>
234.1

> <PUBCHEM_COORDINATE_TYPE>
2
5
10

$$$$
