137796089
  -OEChem-03292013293D

 62 64  0     1  0  0  0  0  0999 V2000
    2.1580    2.6252    0.3963 O   0  0  0  0  0  0  0  0  0  0  0  0
   -0.5081    2.7409    0.8226 O   0  0  0  0  0  0  0  0  0  0  0  0
    2.4771   -0.9896   -2.0740 O   0  0  0  0  0  0  0  0  0  0  0  0
    2.6657   -0.2336    0.1556 O   0  0  0  0  0  0  0  0  0  0  0  0
   -1.9738   -1.7053   -0.9726 O   0  0  0  0  0  0  0  0  0  0  0  0
   -2.2838    4.1477    0.3705 O   0  0  0  0  0  0  0  0  0  0  0  0
    4.5014   -1.5549   -0.2964 O   0  0  0  0  0  0  0  0  0  0  0  0
   -3.7966   -2.5024   -2.1398 O   0  0  0  0  0  0  0  0  0  0  0  0
    1.3120    2.4105   -0.7359 C   0  0  1  0  0  0  0  0  0  0  0  0
    1.4480    1.1122   -1.4577 C   0  0  2  0  0  0  0  0  0  0  0  0
    0.1338    0.3976   -1.0940 C   0  0  1  0  0  0  0  0  0  0  0  0
   -0.1553    2.7261   -0.5559 C   0  0  1  0  0  0  0  0  0  0  0  0
    2.3754    3.4766   -0.7397 C   0  0  0  0  0  0  0  0  0  0  0  0
   -0.8794    1.5411   -1.2457 C   0  0  0  0  0  0  0  0  0  0  0  0
    2.6097    0.1647   -1.2110 C   0  0  2  0  0  0  0  0  0  0  0  0
    0.0486   -0.8563   -1.9080 C   0  0  0  0  0  0  0  0  0  0  0  0
    1.1942   -1.4354   -2.3167 C   0  0  0  0  0  0  0  0  0  0  0  0
   -1.2998   -1.4367   -2.1899 C   0  0  0  0  0  0  0  0  0  0  0  0
   -1.5994    3.4968    1.1483 C   0  0  0  0  0  0  0  0  0  0  0  0
    3.6703   -1.1051    0.4805 C   0  0  0  0  0  0  0  0  0  0  0  0
   -1.8504    3.4186    2.6238 C   0  0  0  0  0  0  0  0  0  0  0  0
    3.5694   -1.4578    1.9492 C   0  0  0  0  0  0  0  0  0  0  0  0
   -3.2307   -2.2440   -1.0863 C   0  0  0  0  0  0  0  0  0  0  0  0
    2.2013   -2.0395    2.3381 C   0  0  0  0  0  0  0  0  0  0  0  0
   -3.8266   -2.4338    0.2924 C   0  0  0  0  0  0  0  0  0  0  0  0
    1.8973   -3.3225    1.5604 C   0  0  0  0  0  0  0  0  0  0  0  0
    2.1606   -2.3236    3.8408 C   0  0  0  0  0  0  0  0  0  0  0  0
   -3.8702   -1.1369    1.1152 C   0  0  0  0  0  0  0  0  0  0  0  0
   -4.4373   -1.4187    2.5080 C   0  0  0  0  0  0  0  0  0  0  0  0
   -4.7113   -0.0622    0.4219 C   0  0  0  0  0  0  0  0  0  0  0  0
    1.4398    1.3515   -2.5337 H   0  0  0  0  0  0  0  0  0  0  0  0
    0.1292    0.1023   -0.0335 H   0  0  0  0  0  0  0  0  0  0  0  0
   -0.4023    3.6734   -1.0497 H   0  0  0  0  0  0  0  0  0  0  0  0
    3.2726    3.3131   -1.3221 H   0  0  0  0  0  0  0  0  0  0  0  0
    2.0726    4.5118   -0.6511 H   0  0  0  0  0  0  0  0  0  0  0  0
   -1.0432    1.7638   -2.3072 H   0  0  0  0  0  0  0  0  0  0  0  0
   -1.8414    1.3001   -0.7836 H   0  0  0  0  0  0  0  0  0  0  0  0
    3.5509    0.6657   -1.4675 H   0  0  0  0  0  0  0  0  0  0  0  0
    1.2301   -2.3417   -2.9064 H   0  0  0  0  0  0  0  0  0  0  0  0
   -1.2084   -2.3676   -2.7630 H   0  0  0  0  0  0  0  0  0  0  0  0
   -1.8840   -0.7265   -2.7873 H   0  0  0  0  0  0  0  0  0  0  0  0
   -2.0646    2.3851    2.9077 H   0  0  0  0  0  0  0  0  0  0  0  0
   -2.7159    4.0370    2.8780 H   0  0  0  0  0  0  0  0  0  0  0  0
   -0.9811    3.7958    3.1682 H   0  0  0  0  0  0  0  0  0  0  0  0
    4.3656   -2.1778    2.1750 H   0  0  0  0  0  0  0  0  0  0  0  0
    3.7871   -0.5504    2.5249 H   0  0  0  0  0  0  0  0  0  0  0  0
    1.4142   -1.3098    2.1107 H   0  0  0  0  0  0  0  0  0  0  0  0
   -3.2383   -3.2036    0.8057 H   0  0  0  0  0  0  0  0  0  0  0  0
   -4.8390   -2.8369    0.1659 H   0  0  0  0  0  0  0  0  0  0  0  0
    2.3442   -1.4083    4.4134 H   0  0  0  0  0  0  0  0  0  0  0  0
    1.1802   -2.7114    4.1370 H   0  0  0  0  0  0  0  0  0  0  0  0
    1.8389   -3.1325    0.4841 H   0  0  0  0  0  0  0  0  0  0  0  0
    2.9179   -3.0612    4.1278 H   0  0  0  0  0  0  0  0  0  0  0  0
    0.9344   -3.7431    1.8699 H   0  0  0  0  0  0  0  0  0  0  0  0
    2.6677   -4.0823    1.7303 H   0  0  0  0  0  0  0  0  0  0  0  0
   -2.8525   -0.7454    1.2371 H   0  0  0  0  0  0  0  0  0  0  0  0
   -5.7377   -0.4066    0.2556 H   0  0  0  0  0  0  0  0  0  0  0  0
   -4.7548    0.8471    1.0313 H   0  0  0  0  0  0  0  0  0  0  0  0
   -4.2849    0.2152   -0.5473 H   0  0  0  0  0  0  0  0  0  0  0  0
   -5.4629   -1.7992    2.4515 H   0  0  0  0  0  0  0  0  0  0  0  0
   -3.8275   -2.1626    3.0315 H   0  0  0  0  0  0  0  0  0  0  0  0
   -4.4466   -0.5076    3.1157 H   0  0  0  0  0  0  0  0  0  0  0  0
  1  9  1  0  0  0  0
  1 13  1  0  0  0  0
  2 12  1  0  0  0  0
  2 19  1  0  0  0  0
  3 15  1  0  0  0  0
  3 17  1  0  0  0  0
  4 15  1  0  0  0  0
  4 20  1  0  0  0  0
  5 18  1  0  0  0  0
  5 23  1  0  0  0  0
  6 19  2  0  0  0  0
  7 20  2  0  0  0  0
  8 23  2  0  0  0  0
  9 10  1  0  0  0  0
  9 12  1  0  0  0  0
  9 13  1  0  0  0  0
 10 11  1  0  0  0  0
 10 15  1  0  0  0  0
 10 31  1  0  0  0  0
 11 14  1  0  0  0  0
 11 16  1  0  0  0  0
 11 32  1  0  0  0  0
 12 14  1  0  0  0  0
 12 33  1  0  0  0  0
 13 34  1  0  0  0  0
 13 35  1  0  0  0  0
 14 36  1  0  0  0  0
 14 37  1  0  0  0  0
 15 38  1  0  0  0  0
 16 17  2  0  0  0  0
 16 18  1  0  0  0  0
 17 39  1  0  0  0  0
 18 40  1  0  0  0  0
 18 41  1  0  0  0  0
 19 21  1  0  0  0  0
 20 22  1  0  0  0  0
 21 42  1  0  0  0  0
 21 43  1  0  0  0  0
 21 44  1  0  0  0  0
 22 24  1  0  0  0  0
 22 45  1  0  0  0  0
 22 46  1  0  0  0  0
 23 25  1  0  0  0  0
 24 26  1  0  0  0  0
 24 27  1  0  0  0  0
 24 47  1  0  0  0  0
 25 28  1  0  0  0  0
 25 48  1  0  0  0  0
 25 49  1  0  0  0  0
 26 52  1  0  0  0  0
 26 54  1  0  0  0  0
 26 55  1  0  0  0  0
 27 50  1  0  0  0  0
 27 51  1  0  0  0  0
 27 53  1  0  0  0  0
 28 29  1  0  0  0  0
 28 30  1  0  0  0  0
 28 56  1  0  0  0  0
 29 60  1  0  0  0  0
 29 61  1  0  0  0  0
 29 62  1  0  0  0  0
 30 57  1  0  0  0  0
 30 58  1  0  0  0  0
 30 59  1  0  0  0  0
M  END
> <PUBCHEM_COMPOUND_CID>
137796089

> <PUBCHEM_CONFORMER_RMSD>
1

> <PUBCHEM_CONFORMER_DIVERSEORDER>
1
50
115
69
80
87
143
55
34
155
164
118
101
144
157
137
89
95
77
114
86
150
148
16
165
140
163
106
7
74
94
107
105
24
47
91
128
10
96
172
79
45
130
46
84
103
136
25
82
93
169
127
102
110
138
11
70
71
92
145
59
99
168
21
36
156
81
111
109
56
174
123
162
41
112
52
6
166
149
135
75
53
104
159
15
73
167
83
51
22
42
146
158
122
98
154
117
67
14
119
62
49
152
64
3
161
141
33
134
20
48
126
9
139
54
147
63
132
65
44
40
97
8
76
32
170
4
120
160
90
85
23
88
12
133
26
116
125
100
2
19
72
38
113
57
18
108
173
129
151
39
30
131
153
28
31
43
68
27
78
58
5
60
61
171
121
142
13
35
17
66
29
37
124

> <PUBCHEM_MMFF94_PARTIAL_CHARGES>
26
1 -0.3
10 0.09
11 0.14
12 0.38
13 -0.05
15 0.56
16 -0.28
17 -0.07
18 0.42
19 0.66
2 -0.43
20 0.66
21 0.06
22 0.06
23 0.66
25 0.06
3 -0.36
34 0.1
35 0.1
39 0.15
4 -0.43
5 -0.43
6 -0.57
7 -0.57
8 -0.57
9 -0.04

> <PUBCHEM_EFFECTIVE_ROTOR_COUNT>
12.2

> <PUBCHEM_PHARMACOPHORE_FEATURES>
9
1 1 acceptor
1 3 acceptor
1 6 acceptor
1 7 acceptor
1 8 acceptor
3 24 26 27 hydrophobe
3 28 29 30 hydrophobe
5 9 10 11 12 14 rings
6 3 10 11 15 16 17 rings

> <PUBCHEM_HEAVY_ATOM_COUNT>
30

> <PUBCHEM_ATOM_DEF_STEREO_COUNT>
3

> <PUBCHEM_ATOM_UDEF_STEREO_COUNT>
2

> <PUBCHEM_BOND_DEF_STEREO_COUNT>
0

> <PUBCHEM_BOND_UDEF_STEREO_COUNT>
0

> <PUBCHEM_ISOTOPIC_ATOM_COUNT>
0

> <PUBCHEM_COMPONENT_COUNT>
1

> <PUBCHEM_CACTVS_TAUTO_COUNT>
-1

> <PUBCHEM_CONFORMER_ID>
083699F900000001

> <PUBCHEM_MMFF94_ENERGY>
56.852

> <PUBCHEM_FEATURE_SELFOVERLAP>
45.749

> <PUBCHEM_SHAPE_FINGERPRINT>
10305334 12 15969004237397252376
11387372 6 17396689892587124442
12160290 23 17624374673053713940
12633257 1 18270693055710798503
12788726 201 18339943548711653829
13140716 1 18201717392269635333
13583140 156 18187365488973403095
13615921 28 18261118503997712267
13761468 95 14251424026482473002
13965767 371 17774165732961680960
14251757 17 15574705868531049003
14705955 166 17201635541649156209
14790565 3 17407412789315947221
15403338 16 18187375341844866227
18681886 176 16840232988854633167
19734167 9 17556876731829170481
20775530 9 16952791892524182098
21421861 104 18339094768616261329
345986 75 18189313737357008747
3493558 16 15478464761190565248
35225 105 17910941461920861955
392239 28 17973411530041065258

> <PUBCHEM_SHAPE_MULTIPOLES>
570.43
7.51
5.21
3.22
4.96
4.35
-1.57
-5.74
-2.36
0.59
-2.86
-0.08
-2.02
-3.09

> <PUBCHEM_SHAPE_SELFOVERLAP>
1173.631

> <PUBCHEM_SHAPE_VOLUME>
328.2

> <PUBCHEM_COORDINATE_TYPE>
2
5
10

$$$$
