REMARK  Name = 137706306
REMARK  5 active torsions:
REMARK  status: ('A' for Active; 'I' for Inactive)
REMARK    1  A    between atoms: C_7  and  O_23
REMARK    2  A    between atoms: C_8  and  O_25
REMARK    3  A    between atoms: C_9  and  O_27
REMARK    4  A    between atoms: C_11  and  O_29
REMARK    5  A    between atoms: O_29  and  C_31
REMARK                            x       y       z     vdW  Elec       q    Type
REMARK                         _______ _______ _______ _____ _____    ______ ____
ROOT
ATOM      1  O   UNL     1      -0.548  -1.701   1.719  0.00  0.00    -0.332 OA
ATOM      2  O   UNL     1      -2.355  -0.676  -2.171  0.00  0.00    -0.291 OA
ATOM      3  C   UNL     1       0.885  -0.053   0.541  0.00  0.00    +0.067 C 
ATOM      4  C   UNL     1      -1.640  -0.251   0.148  0.00  0.00    +0.129 C 
ATOM      5  C   UNL     1      -0.418   0.722   0.067  0.00  0.00    +0.020 C 
ATOM      6  C   UNL     1       1.170  -1.171  -0.543  0.00  0.00    +0.038 C 
ATOM      7  C   UNL     1      -1.143  -1.683   0.405  0.00  0.00    +0.217 C 
ATOM      8  C   UNL     1      -0.052  -2.132  -0.592  0.00  0.00    +0.162 C 
ATOM      9  C   UNL     1      -2.690   0.273   1.177  0.00  0.00    +0.126 C 
ATOM     10  C   UNL     1       2.619  -1.805  -0.569  0.00  0.00    +0.003 C 
ATOM     11  C   UNL     1       2.087   0.908   0.703  0.00  0.00    +0.171 C 
ATOM     12  C   UNL     1       0.514  -0.746   1.873  0.00  0.00    +0.148 C 
ATOM     13  C   UNL     1      -0.689   2.062   0.802  0.00  0.00    +0.001 C 
ATOM     14  C   UNL     1      -3.195   1.559   0.508  0.00  0.00    +0.053 C 
ATOM     15  C   UNL     1      -2.458  -0.053  -1.128  0.00  0.00    +0.175 C 
ATOM     16  C   UNL     1      -2.098   2.634   0.561  0.00  0.00    +0.007 C 
ATOM     17  C   UNL     1       3.674  -0.680  -0.421  0.00  0.00    +0.004 C 
ATOM     18  C   UNL     1       3.429   0.192   0.807  0.00  0.00    +0.044 C 
ATOM     19  C   UNL     1      -3.402   1.082  -0.910  0.00  0.00    +0.015 C 
ATOM     20  C   UNL     1       2.932  -2.878   0.498  0.00  0.00    +0.000 C 
ATOM     21  C   UNL     1       2.850  -2.470  -1.949  0.00  0.00    +0.000 C 
ATOM     22  C   UNL     1      -4.284   1.502  -1.817  0.00  0.00    -0.002 C 
ENDROOT
BRANCH   7  23
ATOM     23  O   UNL     1      -2.240  -2.593   0.354  0.00  0.00    -0.361 OA
ATOM     24  H   UNL     1      -2.924  -2.310   0.981  0.00  0.00    +0.213 HD
ENDBRANCH   7  23
BRANCH   8  25
ATOM     25  O   UNL     1       0.274  -3.486  -0.304  0.00  0.00    -0.380 OA
ATOM     26  H   UNL     1       0.959  -3.791  -0.920  0.00  0.00    +0.211 HD
ENDBRANCH   8  25
BRANCH   9  27
ATOM     27  O   UNL     1      -3.768  -0.638   1.375  0.00  0.00    -0.384 OA
ATOM     28  H   UNL     1      -3.435  -1.445   1.798  0.00  0.00    +0.210 HD
ENDBRANCH   9  27
BRANCH  11  29
ATOM     29  O   UNL     1       2.153   1.787  -0.426  0.00  0.00    -0.452 OA
BRANCH  29  31
ATOM     30  O   UNL     1       3.061   3.442   0.905  0.00  0.00    -0.250 OA
ATOM     31  C   UNL     1       2.664   3.025  -0.175  0.00  0.00    +0.317 C 
ATOM     32  C   UNL     1       2.672   3.829  -1.440  0.00  0.00    +0.121 C 
ENDBRANCH  29  31
ENDBRANCH  11  29
TORSDOF 5
