REMARK  Name = 137796414
REMARK  10 active torsions:
REMARK  status: ('A' for Active; 'I' for Inactive)
REMARK    1  A    between atoms: C_2  and  O_7
REMARK    2  A    between atoms: C_3  and  O_9
REMARK    3  A    between atoms: C_4  and  C_26
REMARK    4  A    between atoms: C_5  and  O_11
REMARK    5  A    between atoms: C_6  and  O_13
REMARK    6  A    between atoms: O_13  and  C_15
REMARK    7  A    between atoms: C_15  and  C_16
REMARK    8  A    between atoms: C_17  and  O_22
REMARK    9  A    between atoms: C_19  and  O_24
REMARK   10  A    between atoms: C_26  and  O_27
REMARK                            x       y       z     vdW  Elec       q    Type
REMARK                         _______ _______ _______ _____ _____    ______ ____
ROOT
ATOM      1  O   UNL     1      -2.233   1.170  -0.572  0.00  0.00    -0.316 OA
ATOM      2  C   UNL     1      -3.646  -0.285   0.795  0.00  0.00    +0.169 C 
ATOM      3  C   UNL     1      -3.144  -1.492   0.002  0.00  0.00    +0.173 C 
ATOM      4  C   UNL     1      -2.598   0.835   0.771  0.00  0.00    +0.177 C 
ATOM      5  C   UNL     1      -2.684  -1.076  -1.396  0.00  0.00    +0.211 C 
ATOM      6  C   UNL     1      -1.687   0.079  -1.321  0.00  0.00    +0.321 C 
ENDROOT
BRANCH   2   7
ATOM      7  O   UNL     1      -3.889  -0.705   2.136  0.00  0.00    -0.379 OA
ATOM      8  H   UNL     1      -4.553  -1.413   2.137  0.00  0.00    +0.211 HD
ENDBRANCH   2   7
BRANCH   3   9
ATOM      9  O   UNL     1      -4.189  -2.457  -0.098  0.00  0.00    -0.379 OA
ATOM     10  H   UNL     1      -4.476  -2.716   0.792  0.00  0.00    +0.211 HD
ENDBRANCH   3   9
BRANCH   5  11
ATOM     11  O   UNL     1      -3.804  -0.634  -2.166  0.00  0.00    -0.377 OA
ATOM     12  H   UNL     1      -4.454  -1.351  -2.230  0.00  0.00    +0.211 HD
ENDBRANCH   5  11
BRANCH   6  13
ATOM     13  O   UNL     1      -0.453  -0.385  -0.783  0.00  0.00    -0.419 OA
BRANCH  13  15
ATOM     14  O   UNL     1       0.459   1.718  -1.000  0.00  0.00    -0.245 OA
ATOM     15  C   UNL     1       0.537   0.542  -0.678  0.00  0.00    +0.346 C 
BRANCH  15  16
ATOM     16  C   UNL     1       1.766  -0.065  -0.106  0.00  0.00    +0.112 C 
ATOM     17  C   UNL     1       3.030   0.417  -0.446  0.00  0.00    +0.174 C 
ATOM     18  C   UNL     1       1.643  -1.134   0.783  0.00  0.00    +0.010 C 
ATOM     19  C   UNL     1       4.170  -0.168   0.103  0.00  0.00    +0.172 C 
ATOM     20  C   UNL     1       2.783  -1.719   1.331  0.00  0.00    +0.004 C 
ATOM     21  C   UNL     1       4.047  -1.237   0.992  0.00  0.00    +0.040 C 
BRANCH  17  22
ATOM     22  O   UNL     1       3.157   1.462  -1.313  0.00  0.00    -0.503 OA
ATOM     23  H   UNL     1       2.394   1.859  -1.684  0.00  0.00    +0.292 HD
ENDBRANCH  17  22
BRANCH  19  24
ATOM     24  O   UNL     1       5.411   0.293  -0.219  0.00  0.00    -0.468 OA
ATOM     25  C   UNL     1       6.523  -0.363   0.386  0.00  0.00    +0.253 C 
ENDBRANCH  19  24
ENDBRANCH  15  16
ENDBRANCH  13  15
ENDBRANCH   6  13
BRANCH   4  26
ATOM     26  C   UNL     1      -3.113   2.115   1.425  0.00  0.00    +0.169 C 
BRANCH  26  27
ATOM     27  O   UNL     1      -2.089   3.091   1.372  0.00  0.00    -0.379 OA
ATOM     28  H   UNL     1      -2.402   3.911   1.785  0.00  0.00    +0.211 HD
ENDBRANCH  26  27
ENDBRANCH   4  26
TORSDOF 10
