REMARK  Name = 137705737
REMARK  5 active torsions:
REMARK  status: ('A' for Active; 'I' for Inactive)
REMARK    1  A    between atoms: C_7  and  C_23
REMARK    2  A    between atoms: C_8  and  O_32
REMARK    3  A    between atoms: C_13  and  O_28
REMARK    4  A    between atoms: C_20  and  O_30
REMARK    5  A    between atoms: O_32  and  C_34
REMARK                            x       y       z     vdW  Elec       q    Type
REMARK                         _______ _______ _______ _____ _____    ______ ____
ROOT
ATOM      1  O   UNL     1      -0.265  -1.753  -2.021  0.00  0.00    -0.352 OA
ATOM      2  C   UNL     1       0.142  -0.569  -1.315  0.00  0.00    +0.121 C 
ATOM      3  C   UNL     1      -0.889   0.546  -1.242  0.00  0.00    +0.033 C 
ATOM      4  C   UNL     1       1.607  -0.212  -1.407  0.00  0.00    +0.028 C 
ATOM      5  C   UNL     1      -0.401  -1.760  -0.593  0.00  0.00    +0.180 C 
ATOM      6  C   UNL     1       1.986   0.763  -0.255  0.00  0.00    +0.005 C 
ATOM      7  C   UNL     1      -2.224  -0.214  -0.897  0.00  0.00    +0.070 C 
ATOM      8  C   UNL     1      -1.762  -1.433  -0.061  0.00  0.00    +0.202 C 
ATOM      9  C   UNL     1       3.510   1.181  -0.291  0.00  0.00    +0.023 C 
ATOM     10  C   UNL     1      -0.455   1.520  -0.121  0.00  0.00    +0.003 C 
ATOM     11  C   UNL     1       1.008   1.964  -0.243  0.00  0.00    +0.000 C 
ATOM     12  C   UNL     1       2.535  -1.435  -1.449  0.00  0.00    +0.005 C 
ATOM     13  C   UNL     1       4.405  -0.112  -0.316  0.00  0.00    +0.091 C 
ATOM     14  C   UNL     1      -1.033   1.276  -2.585  0.00  0.00    +0.003 C 
ATOM     15  C   UNL     1       4.008  -1.051  -1.467  0.00  0.00    +0.027 C 
ATOM     16  C   UNL     1       3.911   2.039   0.949  0.00  0.00    +0.005 C 
ATOM     17  C   UNL     1       4.370  -0.864   1.036  0.00  0.00    +0.056 C 
ATOM     18  C   UNL     1       3.806   2.070  -1.531  0.00  0.00    +0.002 C 
ATOM     19  C   UNL     1       3.866   1.277   2.268  0.00  0.00    +0.029 C 
ATOM     20  C   UNL     1       4.741   0.031   2.219  0.00  0.00    +0.113 C 
ENDROOT
BRANCH   7  23
ATOM     21  O   UNL     1      -4.367   1.491   1.749  0.00  0.00    -0.418 OA
ATOM     22  O   UNL     1      -6.203   2.811   1.515  0.00  0.00    -0.244 OA
ATOM     23  C   UNL     1      -3.284   0.593  -0.215  0.00  0.00    +0.019 C 
ATOM     24  C   UNL     1      -4.268   1.261  -1.027  0.00  0.00    +0.006 C 
ATOM     25  C   UNL     1      -3.374   0.734   1.111  0.00  0.00    +0.179 C 
ATOM     26  C   UNL     1      -5.235   1.995  -0.468  0.00  0.00    +0.082 C 
ATOM     27  C   UNL     1      -5.316   2.138   1.001  0.00  0.00    +0.346 C 
ENDBRANCH   7  23
BRANCH  13  28
ATOM     28  O   UNL     1       5.777   0.225  -0.584  0.00  0.00    -0.387 OA
ATOM     29  H   UNL     1       5.834   0.699  -1.428  0.00  0.00    +0.210 HD
ENDBRANCH  13  28
BRANCH  20  30
ATOM     30  O   UNL     1       4.561  -0.691   3.434  0.00  0.00    -0.384 OA
ATOM     31  H   UNL     1       5.111  -1.489   3.421  0.00  0.00    +0.210 HD
ENDBRANCH  20  30
BRANCH   8  32
ATOM     32  O   UNL     1      -2.646  -2.527  -0.252  0.00  0.00    -0.449 OA
BRANCH  32  34
ATOM     33  O   UNL     1      -2.103  -3.356   1.835  0.00  0.00    -0.250 OA
ATOM     34  C   UNL     1      -2.722  -3.421   0.782  0.00  0.00    +0.318 C 
ATOM     35  C   UNL     1      -3.687  -4.516   0.442  0.00  0.00    +0.121 C 
ENDBRANCH  32  34
ENDBRANCH   8  32
TORSDOF 5
