REMARK  Name = 137705752
REMARK  5 active torsions:
REMARK  status: ('A' for Active; 'I' for Inactive)
REMARK    1  A    between atoms: C_7  and  O_25
REMARK    2  A    between atoms: C_11  and  O_27
REMARK    3  A    between atoms: C_14  and  O_29
REMARK    4  A    between atoms: C_16  and  O_31
REMARK    5  A    between atoms: C_17  and  O_33
REMARK                            x       y       z     vdW  Elec       q    Type
REMARK                         _______ _______ _______ _____ _____    ______ ____
ROOT
ATOM      1  O   UNL     1       2.093   0.664   2.287  0.00  0.00    -0.353 OA
ATOM      2  O   UNL     1       0.816  -2.547  -0.470  0.00  0.00    -0.450 OA
ATOM      3  O   UNL     1       2.333  -3.022  -2.112  0.00  0.00    -0.247 OA
ATOM      4  O   UNL     1      -4.452   0.841  -2.053  0.00  0.00    -0.289 OA
ATOM      5  C   UNL     1       0.722  -0.372   0.719  0.00  0.00    +0.094 C 
ATOM      6  C   UNL     1      -0.162   0.960   0.615  0.00  0.00    +0.040 C 
ATOM      7  C   UNL     1       2.192  -0.356   0.215  0.00  0.00    +0.153 C 
ATOM      8  C   UNL     1      -1.737   0.724   0.437  0.00  0.00    +0.038 C 
ATOM      9  C   UNL     1       2.651   0.907   0.919  0.00  0.00    +0.145 C 
ATOM     10  C   UNL     1      -0.017  -1.458  -0.043  0.00  0.00    +0.174 C 
ATOM     11  C   UNL     1       0.556   2.044  -0.191  0.00  0.00    +0.140 C 
ATOM     12  C   UNL     1       1.071  -0.401   2.208  0.00  0.00    +0.148 C 
ATOM     13  C   UNL     1      -2.146  -0.662   1.083  0.00  0.00    +0.025 C 
ATOM     14  C   UNL     1       2.005   2.204   0.337  0.00  0.00    +0.164 C 
ATOM     15  C   UNL     1      -1.285  -1.882   0.657  0.00  0.00    +0.048 C 
ATOM     16  C   UNL     1       2.266  -0.729  -1.261  0.00  0.00    +0.237 C 
ATOM     17  C   UNL     1      -2.271   0.804  -1.019  0.00  0.00    +0.172 C 
ATOM     18  C   UNL     1      -2.436   1.865   1.257  0.00  0.00    +0.003 C 
ATOM     19  C   UNL     1       4.166   1.079   1.087  0.00  0.00    +0.035 C 
ATOM     20  C   UNL     1      -3.609  -1.007   0.865  0.00  0.00    -0.041 C 
ATOM     21  C   UNL     1       1.817  -2.204  -1.360  0.00  0.00    +0.347 C 
ATOM     22  C   UNL     1      -3.740   0.415  -1.143  0.00  0.00    +0.199 C 
ATOM     23  C   UNL     1      -4.329  -0.519  -0.155  0.00  0.00    +0.031 C 
ATOM     24  C   UNL     1      -4.230  -1.942   1.867  0.00  0.00    +0.026 C 
ENDROOT
BRANCH   7  25
ATOM     25  O   UNL     1       2.981  -1.452   0.798  0.00  0.00    -0.381 OA
ATOM     26  H   UNL     1       3.021  -1.344   1.761  0.00  0.00    +0.210 HD
ENDBRANCH   7  25
BRANCH  11  27
ATOM     27  O   UNL     1       0.535   1.746  -1.576  0.00  0.00    -0.382 OA
ATOM     28  H   UNL     1      -0.384   1.653  -1.873  0.00  0.00    +0.210 HD
ENDBRANCH  11  27
BRANCH  14  29
ATOM     29  O   UNL     1       2.793   2.777  -0.703  0.00  0.00    -0.380 OA
ATOM     30  H   UNL     1       3.706   2.886  -0.394  0.00  0.00    +0.211 HD
ENDBRANCH  14  29
BRANCH  16  31
ATOM     31  O   UNL     1       3.596  -0.607  -1.733  0.00  0.00    -0.373 OA
ATOM     32  H   UNL     1       3.877   0.319  -1.670  0.00  0.00    +0.211 HD
ENDBRANCH  16  31
BRANCH  17  33
ATOM     33  O   UNL     1      -2.179   2.130  -1.530  0.00  0.00    -0.377 OA
ATOM     34  H   UNL     1      -1.259   2.433  -1.477  0.00  0.00    +0.211 HD
ENDBRANCH  17  33
TORSDOF 5
