137705737
  -OEChem-03292013293D

 67 72  0     1  0  0  0  0  0999 V2000
   -0.2647   -1.7530   -2.0211 O   0  0  0  0  0  0  0  0  0  0  0  0
   -2.6459   -2.5268   -0.2516 O   0  0  0  0  0  0  0  0  0  0  0  0
    5.7770    0.2248   -0.5841 O   0  0  0  0  0  0  0  0  0  0  0  0
    4.5605   -0.6911    3.4340 O   0  0  0  0  0  0  0  0  0  0  0  0
   -4.3672    1.4908    1.7488 O   0  0  0  0  0  0  0  0  0  0  0  0
   -2.1034   -3.3557    1.8355 O   0  0  0  0  0  0  0  0  0  0  0  0
   -6.2027    2.8114    1.5154 O   0  0  0  0  0  0  0  0  0  0  0  0
    0.1421   -0.5694   -1.3149 C   0  0  2  0  0  0  0  0  0  0  0  0
   -0.8890    0.5461   -1.2420 C   0  0  1  0  0  0  0  0  0  0  0  0
    1.6073   -0.2123   -1.4075 C   0  0  1  0  0  0  0  0  0  0  0  0
   -0.4007   -1.7602   -0.5928 C   0  0  1  0  0  0  0  0  0  0  0  0
    1.9857    0.7633   -0.2549 C   0  0  1  0  0  0  0  0  0  0  0  0
   -2.2244   -0.2144   -0.8968 C   0  0  1  0  0  0  0  0  0  0  0  0
   -1.7620   -1.4327   -0.0606 C   0  0  1  0  0  0  0  0  0  0  0  0
    3.5101    1.1805   -0.2914 C   0  0  2  0  0  0  0  0  0  0  0  0
   -0.4550    1.5198   -0.1209 C   0  0  0  0  0  0  0  0  0  0  0  0
    1.0077    1.9645   -0.2433 C   0  0  0  0  0  0  0  0  0  0  0  0
    2.5354   -1.4350   -1.4489 C   0  0  0  0  0  0  0  0  0  0  0  0
    4.4048   -0.1117   -0.3159 C   0  0  1  0  0  0  0  0  0  0  0  0
   -1.0329    1.2760   -2.5848 C   0  0  0  0  0  0  0  0  0  0  0  0
    4.0085   -1.0513   -1.4673 C   0  0  0  0  0  0  0  0  0  0  0  0
    3.9114    2.0386    0.9486 C   0  0  0  0  0  0  0  0  0  0  0  0
   -3.2840    0.5931   -0.2155 C   0  0  0  0  0  0  0  0  0  0  0  0
    4.3705   -0.8640    1.0357 C   0  0  0  0  0  0  0  0  0  0  0  0
    3.8057    2.0699   -1.5308 C   0  0  0  0  0  0  0  0  0  0  0  0
    3.8665    1.2768    2.2681 C   0  0  0  0  0  0  0  0  0  0  0  0
    4.7414    0.0314    2.2185 C   0  0  1  0  0  0  0  0  0  0  0  0
   -4.2681    1.2609   -1.0269 C   0  0  0  0  0  0  0  0  0  0  0  0
   -3.3742    0.7339    1.1110 C   0  0  0  0  0  0  0  0  0  0  0  0
   -2.7221   -3.4207    0.7818 C   0  0  0  0  0  0  0  0  0  0  0  0
   -5.2352    1.9947   -0.4677 C   0  0  0  0  0  0  0  0  0  0  0  0
   -3.6872   -4.5157    0.4415 C   0  0  0  0  0  0  0  0  0  0  0  0
   -5.3160    2.1376    1.0011 C   0  0  0  0  0  0  0  0  0  0  0  0
    1.7343    0.3127   -2.3623 H   0  0  0  0  0  0  0  0  0  0  0  0
    0.2125   -2.4089    0.0079 H   0  0  0  0  0  0  0  0  0  0  0  0
    1.8048    0.2219    0.6831 H   0  0  0  0  0  0  0  0  0  0  0  0
   -2.6543   -0.6232   -1.8254 H   0  0  0  0  0  0  0  0  0  0  0  0
   -1.6392   -1.1923    0.9991 H   0  0  0  0  0  0  0  0  0  0  0  0
   -0.5592    1.0417    0.8609 H   0  0  0  0  0  0  0  0  0  0  0  0
   -1.0958    2.4097   -0.1137 H   0  0  0  0  0  0  0  0  0  0  0  0
    1.1236    2.5690   -1.1483 H   0  0  0  0  0  0  0  0  0  0  0  0
    1.2212    2.6210    0.6058 H   0  0  0  0  0  0  0  0  0  0  0  0
    2.3183   -2.0356   -2.3410 H   0  0  0  0  0  0  0  0  0  0  0  0
    2.3484   -2.0920   -0.5931 H   0  0  0  0  0  0  0  0  0  0  0  0
   -1.3460    0.5875   -3.3779 H   0  0  0  0  0  0  0  0  0  0  0  0
   -0.0886    1.7211   -2.9131 H   0  0  0  0  0  0  0  0  0  0  0  0
   -1.7730    2.0803   -2.5243 H   0  0  0  0  0  0  0  0  0  0  0  0
    4.6186   -1.9639   -1.4347 H   0  0  0  0  0  0  0  0  0  0  0  0
    4.2535   -0.5897   -2.4325 H   0  0  0  0  0  0  0  0  0  0  0  0
    3.2885    2.9357    1.0277 H   0  0  0  0  0  0  0  0  0  0  0  0
    4.9363    2.4115    0.8121 H   0  0  0  0  0  0  0  0  0  0  0  0
    5.0733   -1.7079    1.0154 H   0  0  0  0  0  0  0  0  0  0  0  0
    3.3880   -1.3104    1.2264 H   0  0  0  0  0  0  0  0  0  0  0  0
    3.5308    1.5868   -2.4717 H   0  0  0  0  0  0  0  0  0  0  0  0
    4.8698    2.3234   -1.5977 H   0  0  0  0  0  0  0  0  0  0  0  0
    3.2673    3.0220   -1.4788 H   0  0  0  0  0  0  0  0  0  0  0  0
    4.2084    1.9279    3.0824 H   0  0  0  0  0  0  0  0  0  0  0  0
    2.8355    1.0098    2.5291 H   0  0  0  0  0  0  0  0  0  0  0  0
    5.7965    0.3227    2.1582 H   0  0  0  0  0  0  0  0  0  0  0  0
    6.3006   -0.5945   -0.5684 H   0  0  0  0  0  0  0  0  0  0  0  0
   -4.2191    1.1622   -2.1061 H   0  0  0  0  0  0  0  0  0  0  0  0
   -2.7231    0.3222    1.8665 H   0  0  0  0  0  0  0  0  0  0  0  0
    5.1273   -1.4801    3.3924 H   0  0  0  0  0  0  0  0  0  0  0  0
   -5.9799    2.5002   -1.0715 H   0  0  0  0  0  0  0  0  0  0  0  0
   -3.7418   -5.2230    1.2739 H   0  0  0  0  0  0  0  0  0  0  0  0
   -3.3426   -5.0495   -0.4477 H   0  0  0  0  0  0  0  0  0  0  0  0
   -4.6819   -4.0940    0.2766 H   0  0  0  0  0  0  0  0  0  0  0  0
  1  8  1  0  0  0  0
  1 11  1  0  0  0  0
  2 14  1  0  0  0  0
  2 30  1  0  0  0  0
  3 19  1  0  0  0  0
  3 60  1  0  0  0  0
  4 27  1  0  0  0  0
  4 63  1  0  0  0  0
  5 29  1  0  0  0  0
  5 33  1  0  0  0  0
  6 30  2  0  0  0  0
  7 33  2  0  0  0  0
  8  9  1  0  0  0  0
  8 10  1  0  0  0  0
  8 11  1  0  0  0  0
  9 13  1  0  0  0  0
  9 16  1  0  0  0  0
  9 20  1  0  0  0  0
 10 12  1  0  0  0  0
 10 18  1  0  0  0  0
 10 34  1  0  0  0  0
 11 14  1  0  0  0  0
 11 35  1  0  0  0  0
 12 15  1  0  0  0  0
 12 17  1  0  0  0  0
 12 36  1  0  0  0  0
 13 14  1  0  0  0  0
 13 23  1  0  0  0  0
 13 37  1  0  0  0  0
 14 38  1  0  0  0  0
 15 19  1  0  0  0  0
 15 22  1  0  0  0  0
 15 25  1  0  0  0  0
 16 17  1  0  0  0  0
 16 39  1  0  0  0  0
 16 40  1  0  0  0  0
 17 41  1  0  0  0  0
 17 42  1  0  0  0  0
 18 21  1  0  0  0  0
 18 43  1  0  0  0  0
 18 44  1  0  0  0  0
 19 21  1  0  0  0  0
 19 24  1  0  0  0  0
 20 45  1  0  0  0  0
 20 46  1  0  0  0  0
 20 47  1  0  0  0  0
 21 48  1  0  0  0  0
 21 49  1  0  0  0  0
 22 26  1  0  0  0  0
 22 50  1  0  0  0  0
 22 51  1  0  0  0  0
 23 28  1  0  0  0  0
 23 29  2  0  0  0  0
 24 27  1  0  0  0  0
 24 52  1  0  0  0  0
 24 53  1  0  0  0  0
 25 54  1  0  0  0  0
 25 55  1  0  0  0  0
 25 56  1  0  0  0  0
 26 27  1  0  0  0  0
 26 57  1  0  0  0  0
 26 58  1  0  0  0  0
 27 59  1  0  0  0  0
 28 31  2  0  0  0  0
 28 61  1  0  0  0  0
 29 62  1  0  0  0  0
 30 32  1  0  0  0  0
 31 33  1  0  0  0  0
 31 64  1  0  0  0  0
 32 65  1  0  0  0  0
 32 66  1  0  0  0  0
 32 67  1  0  0  0  0
M  END
> <PUBCHEM_COMPOUND_CID>
137705737

> <PUBCHEM_CONFORMER_RMSD>
0.8

> <PUBCHEM_CONFORMER_DIVERSEORDER>
1
25
37
36
34
17
24
10
30
39
23
35
13
38
12
21
31
4
5
16
6
28
19
3
20
14
11
15
32
29
27
8
26
7
18
33
2
9
22

> <PUBCHEM_MMFF94_PARTIAL_CHARGES>
28
1 -0.3
10 0.09
11 -0.05
13 0.14
14 0.38
19 0.28
2 -0.43
23 -0.14
27 0.28
28 -0.15
29 -0.07
3 -0.68
30 0.66
31 -0.14
32 0.06
33 0.71
35 0.1
4 -0.68
5 -0.23
6 -0.57
60 0.4
61 0.15
62 0.15
63 0.4
64 0.15
7 -0.57
8 -0.04
9 0.09

> <PUBCHEM_EFFECTIVE_ROTOR_COUNT>
5.2

> <PUBCHEM_PHARMACOPHORE_FEATURES>
12
1 1 acceptor
1 3 acceptor
1 3 donor
1 4 acceptor
1 4 donor
1 6 acceptor
1 7 acceptor
6 1 8 9 11 13 14 rings
6 10 12 15 18 19 21 rings
6 15 19 22 24 26 27 rings
6 5 23 28 29 31 33 rings
6 8 9 10 12 16 17 rings

> <PUBCHEM_HEAVY_ATOM_COUNT>
33

> <PUBCHEM_ATOM_DEF_STEREO_COUNT>
6

> <PUBCHEM_ATOM_UDEF_STEREO_COUNT>
4

> <PUBCHEM_BOND_DEF_STEREO_COUNT>
0

> <PUBCHEM_BOND_UDEF_STEREO_COUNT>
0

> <PUBCHEM_ISOTOPIC_ATOM_COUNT>
0

> <PUBCHEM_COMPONENT_COUNT>
1

> <PUBCHEM_CACTVS_TAUTO_COUNT>
-1

> <PUBCHEM_CONFORMER_ID>
0835390900000001

> <PUBCHEM_MMFF94_ENERGY>
111.3639

> <PUBCHEM_FEATURE_SELFOVERLAP>
61.074

> <PUBCHEM_SHAPE_FINGERPRINT>
10319926 262 18413103974883170626
10906281 52 18129681711102279349
11089746 13 16630522899976906732
11135926 11 15502378963533425994
11552529 35 18264211489924607579
11763715 3 17022904596647556454
12422481 6 17386841717001461707
12633257 1 18260821596955177308
12788726 201 17975137848631945307
13004483 165 17978516656997549159
13140716 1 18411983576639205566
13224815 77 18270104847086013628
13583140 156 17346322634727585438
13692114 37 18343582958887651511
13726171 33 18193299574561610492
14705955 166 18126554858825154282
15238133 3 18202284684746566352
15537594 2 17312821572228296594
16728300 4 16951395517436378441
19246450 95 17683776857970265928
20511986 3 17559103269590011325
20554085 129 18264483989279623593
21033648 29 17775279495665426602
21049683 118 18339351977723972259
21421861 104 17894910681783993514
21703447 108 17832701657861310897
21792965 301 15189417031487536011
22182313 1 17916607434428363095
22907989 373 10663255725709143878
23559900 14 18340775862430071718
2838139 119 16845007888898064961
3388396 114 11455023931596536050
34797466 226 14692563321658593941
376196 1 17916303832228340965
4340502 62 18342745066296379605
460360 51 18041837436465398125
474 4 18059861610653008389
495365 180 17203602671315265916
5081480 168 15480734041806280024
5104073 3 18337385050142701312
57527293 21 18040714805487909012
6086070 43 16630527324019581286
9981440 41 17775278366242229183

> <PUBCHEM_SHAPE_MULTIPOLES>
638.04
12.32
3.66
2.34
1.1
3.82
0.99
-5.4
6.06
6.04
1.09
-1.95
-0.12
-0.23

> <PUBCHEM_SHAPE_SELFOVERLAP>
1391.056

> <PUBCHEM_SHAPE_VOLUME>
344.3

> <PUBCHEM_COORDINATE_TYPE>
2
5
10

$$$$
