13783
  -OEChem-03292013323D

 41 41  0     1  0  0  0  0  0999 V2000
    1.2372   -0.3532   -0.7573 O   0  0  0  0  0  0  0  0  0  0  0  0
    3.3860   -0.6232   -0.1510 O   0  0  0  0  0  0  0  0  0  0  0  0
   -1.0846   -3.6840   -0.5456 O   0  5  0  0  0  0  0  0  0  0  0  0
    0.8714   -2.7722   -0.9477 O   0  0  0  0  0  0  0  0  0  0  0  0
   -4.6008    1.2056    0.9458 O   0  5  0  0  0  0  0  0  0  0  0  0
   -4.8294   -0.9688    0.7485 O   0  0  0  0  0  0  0  0  0  0  0  0
    1.7752   -0.6144    1.4976 O   0  0  0  0  0  0  0  0  0  0  0  0
   -0.3359   -2.6814   -0.6223 N   0  3  0  0  0  0  0  0  0  0  0  0
   -4.1299    0.0711    0.6894 N   0  3  0  0  0  0  0  0  0  0  0  0
    0.2131    2.2303   -0.1864 C   0  0  1  0  0  0  0  0  0  0  0  0
   -0.6378    0.9741   -0.1131 C   0  0  0  0  0  0  0  0  0  0  0  0
   -0.3027    3.2570   -1.2154 C   0  0  0  0  0  0  0  0  0  0  0  0
    0.3252    2.8865    1.1951 C   0  0  0  0  0  0  0  0  0  0  0  0
   -0.0776   -0.2552   -0.4037 C   0  0  0  0  0  0  0  0  0  0  0  0
   -1.9662    1.1035    0.2480 C   0  0  0  0  0  0  0  0  0  0  0  0
   -0.4126    2.6879   -2.6248 C   0  0  0  0  0  0  0  0  0  0  0  0
   -0.8745   -1.3977   -0.3311 C   0  0  0  0  0  0  0  0  0  0  0  0
   -2.7630   -0.0390    0.3206 C   0  0  0  0  0  0  0  0  0  0  0  0
   -2.2172   -1.2897    0.0311 C   0  0  0  0  0  0  0  0  0  0  0  0
    4.4064   -0.1554    0.7371 C   0  0  0  0  0  0  0  0  0  0  0  0
    2.1105   -0.5394    0.3222 C   0  0  0  0  0  0  0  0  0  0  0  0
    4.1411    1.3022    1.0814 C   0  0  0  0  0  0  0  0  0  0  0  0
    5.7659   -0.3447    0.0816 C   0  0  0  0  0  0  0  0  0  0  0  0
    1.2359    1.9808   -0.4917 H   0  0  0  0  0  0  0  0  0  0  0  0
    0.3842    4.1125   -1.2397 H   0  0  0  0  0  0  0  0  0  0  0  0
   -1.2802    3.6557   -0.9184 H   0  0  0  0  0  0  0  0  0  0  0  0
   -0.6344    3.2781    1.5491 H   0  0  0  0  0  0  0  0  0  0  0  0
    1.0302    3.7246    1.1642 H   0  0  0  0  0  0  0  0  0  0  0  0
    0.6908    2.1727    1.9416 H   0  0  0  0  0  0  0  0  0  0  0  0
   -2.3775    2.0840    0.4695 H   0  0  0  0  0  0  0  0  0  0  0  0
   -1.1794    1.9103   -2.6911 H   0  0  0  0  0  0  0  0  0  0  0  0
    0.5419    2.2633   -2.9517 H   0  0  0  0  0  0  0  0  0  0  0  0
   -0.6868    3.4815   -3.3274 H   0  0  0  0  0  0  0  0  0  0  0  0
   -2.8411   -2.1786    0.0888 H   0  0  0  0  0  0  0  0  0  0  0  0
    4.3845   -0.7629    1.6506 H   0  0  0  0  0  0  0  0  0  0  0  0
    4.9702    1.7238    1.6592 H   0  0  0  0  0  0  0  0  0  0  0  0
    3.2338    1.4310    1.6784 H   0  0  0  0  0  0  0  0  0  0  0  0
    4.0121    1.9019    0.1734 H   0  0  0  0  0  0  0  0  0  0  0  0
    6.5763   -0.0183    0.7404 H   0  0  0  0  0  0  0  0  0  0  0  0
    5.9234   -1.3986   -0.1714 H   0  0  0  0  0  0  0  0  0  0  0  0
    5.8280    0.2165   -0.8573 H   0  0  0  0  0  0  0  0  0  0  0  0
  1 14  1  0  0  0  0
  1 21  1  0  0  0  0
  2 20  1  0  0  0  0
  2 21  1  0  0  0  0
  3  8  1  0  0  0  0
  4  8  2  0  0  0  0
  5  9  1  0  0  0  0
  6  9  2  0  0  0  0
  7 21  2  0  0  0  0
  8 17  1  0  0  0  0
  9 18  1  0  0  0  0
 10 11  1  0  0  0  0
 10 12  1  0  0  0  0
 10 13  1  0  0  0  0
 10 24  1  0  0  0  0
 11 14  2  0  0  0  0
 11 15  1  0  0  0  0
 12 16  1  0  0  0  0
 12 25  1  0  0  0  0
 12 26  1  0  0  0  0
 13 27  1  0  0  0  0
 13 28  1  0  0  0  0
 13 29  1  0  0  0  0
 14 17  1  0  0  0  0
 15 18  2  0  0  0  0
 15 30  1  0  0  0  0
 16 31  1  0  0  0  0
 16 32  1  0  0  0  0
 16 33  1  0  0  0  0
 17 19  2  0  0  0  0
 18 19  1  0  0  0  0
 19 34  1  0  0  0  0
 20 22  1  0  0  0  0
 20 23  1  0  0  0  0
 20 35  1  0  0  0  0
 22 36  1  0  0  0  0
 22 37  1  0  0  0  0
 22 38  1  0  0  0  0
 23 39  1  0  0  0  0
 23 40  1  0  0  0  0
 23 41  1  0  0  0  0
M  CHG  4   3  -1   5  -1   8   1   9   1
M  END
> <PUBCHEM_COMPOUND_CID>
13783

> <PUBCHEM_CONFORMER_RMSD>
0.8

> <PUBCHEM_CONFORMER_DIVERSEORDER>
2
17
24
21
18
28
5
11
12
14
20
4
3
26
27
9
1
22
15
10
6
16
7
13
23
19
8
25

> <PUBCHEM_MMFF94_PARTIAL_CHARGES>
20
1 -0.23
10 0.14
11 -0.14
14 0.08
15 -0.15
17 0.13
18 0.13
19 -0.15
2 -0.43
20 0.28
21 0.87
3 -0.52
30 0.15
34 0.15
4 -0.52
5 -0.52
6 -0.52
7 -0.57
8 0.91
9 0.91

> <PUBCHEM_EFFECTIVE_ROTOR_COUNT>
8

> <PUBCHEM_PHARMACOPHORE_FEATURES>
10
1 13 hydrophobe
1 16 hydrophobe
1 3 acceptor
1 3 anion
1 4 acceptor
1 5 acceptor
1 5 anion
1 6 acceptor
3 20 22 23 hydrophobe
6 11 14 15 17 18 19 rings

> <PUBCHEM_HEAVY_ATOM_COUNT>
23

> <PUBCHEM_ATOM_DEF_STEREO_COUNT>
0

> <PUBCHEM_ATOM_UDEF_STEREO_COUNT>
1

> <PUBCHEM_BOND_DEF_STEREO_COUNT>
0

> <PUBCHEM_BOND_UDEF_STEREO_COUNT>
0

> <PUBCHEM_ISOTOPIC_ATOM_COUNT>
0

> <PUBCHEM_COMPONENT_COUNT>
1

> <PUBCHEM_CACTVS_TAUTO_COUNT>
1

> <PUBCHEM_CONFORMER_ID>
000035D700000002

> <PUBCHEM_MMFF94_ENERGY>
74.5163

> <PUBCHEM_FEATURE_SELFOVERLAP>
50.91

> <PUBCHEM_SHAPE_FINGERPRINT>
10493431 412 18272650190006627979
10906281 52 18189638072033866481
1100329 8 18269556202961831915
11680986 33 17906720750414831051
12011746 2 18342170059868546577
12236239 1 17894917325961302182
12403814 3 18334002900482814896
12633257 1 18201708575165668890
13140716 1 18196660816093540883
14178342 30 18269011820964414699
14223421 5 17976259041058841856
14787075 74 17604153717694444394
14790565 3 18341902887059754456
14943834 7 17760652864068759239
14955137 171 18339094785985748979
15042514 8 18410292536362016258
15163728 17 13901372350453977321
15420108 30 18130503012519267831
1601671 61 18338522945692832281
16945 1 18272084977180311389
1813 80 17677039261168696948
19784866 170 18339646629185300267
20028762 73 17987519393765777367
20510252 161 18199186196369958880
20600515 1 18341059596032091548
20671657 1 18047199819473571933
20691752 17 17680126750201995112
21029758 27 18260269671945622893
21033648 29 18130495397220317745
21330990 113 18340492149132054912
2297311 6 18341060631788849838
23184049 59 18410575119207563633
23402539 116 18273207599526285214
23419403 2 15901145493512868019
23559900 14 17978509732908309830
23598288 3 17753300142246145890
25147074 1 17981334692371978055
2748010 2 18050580547330276647
3250762 1 17545321882617891431
350125 39 18124040018572526886
394222 165 17389422412241313388
59755656 215 18199755752378947846
81228 2 17610928706661217537
9981440 41 17331629663250713384

> <PUBCHEM_SHAPE_MULTIPOLES>
422.28
7.88
3.59
1.39
5.29
0.21
-0.55
-1.38
3.6
-1.11
-1.63
-0.1
1.03
0.31

> <PUBCHEM_SHAPE_SELFOVERLAP>
874.518

> <PUBCHEM_SHAPE_VOLUME>
240.7

> <PUBCHEM_COORDINATE_TYPE>
2
5
10

$$$$
