13783814
  -OEChem-03292013303D

 67 70  0     1  0  0  0  0  0999 V2000
   -3.4955    1.2587   -2.1096 O   0  0  0  0  0  0  0  0  0  0  0  0
   -1.6505    2.4820    0.7776 O   0  0  0  0  0  0  0  0  0  0  0  0
   -4.0244   -1.1678   -0.1936 O   0  0  0  0  0  0  0  0  0  0  0  0
   -4.9773    1.0335    0.7137 O   0  0  0  0  0  0  0  0  0  0  0  0
    0.7861   -1.6195   -0.3085 O   0  0  0  0  0  0  0  0  0  0  0  0
    2.7570    0.3439   -0.1391 O   0  0  0  0  0  0  0  0  0  0  0  0
   -4.4668   -2.1775    1.8366 O   0  0  0  0  0  0  0  0  0  0  0  0
    1.4142   -3.2589    1.1933 O   0  0  0  0  0  0  0  0  0  0  0  0
    4.2419    1.3414   -1.5951 O   0  0  0  0  0  0  0  0  0  0  0  0
   -1.8893    0.0067   -0.6514 C   0  0  1  0  0  0  0  0  0  0  0  0
   -2.4597    1.3301   -1.1174 C   0  0  2  0  0  0  0  0  0  0  0  0
   -0.4987    0.3586    0.0707 C   0  0  2  0  0  0  0  0  0  0  0  0
   -2.8517    2.0472    0.1304 C   0  0  1  0  0  0  0  0  0  0  0  0
   -2.9976   -0.3845    0.4095 C   0  0  1  0  0  0  0  0  0  0  0  0
   -2.3087    1.9783   -2.4720 C   0  0  0  0  0  0  0  0  0  0  0  0
   -3.5757    0.9582    0.9418 C   0  0  2  0  0  0  0  0  0  0  0  0
   -0.7468    1.4366    1.1860 C   0  0  1  0  0  0  0  0  0  0  0  0
   -1.7488   -1.0456   -1.7587 C   0  0  0  0  0  0  0  0  0  0  0  0
    0.5386    0.9495   -0.9416 C   0  0  0  0  0  0  0  0  0  0  0  0
    0.1164   -0.9155    0.7099 C   0  0  0  0  0  0  0  0  0  0  0  0
    1.8539    1.4347   -0.3062 C   0  0  1  0  0  0  0  0  0  0  0  0
    0.4974    2.1357    1.6646 C   0  0  0  0  0  0  0  0  0  0  0  0
    1.6755    2.1253    1.0199 C   0  0  0  0  0  0  0  0  0  0  0  0
   -4.6808   -2.0267    0.6413 C   0  0  0  0  0  0  0  0  0  0  0  0
    2.8798    2.8309    1.5757 C   0  0  0  0  0  0  0  0  0  0  0  0
    1.4026   -2.7894    0.0635 C   0  0  0  0  0  0  0  0  0  0  0  0
   -5.7263   -2.7786   -0.1254 C   0  0  0  0  0  0  0  0  0  0  0  0
    3.9244    0.4258   -0.8483 C   0  0  0  0  0  0  0  0  0  0  0  0
    2.0704   -3.4268   -1.1172 C   0  0  0  0  0  0  0  0  0  0  0  0
    4.7496   -0.8176   -0.5940 C   0  0  0  0  0  0  0  0  0  0  0  0
    6.1557   -0.5098   -0.0561 C   0  0  0  0  0  0  0  0  0  0  0  0
    6.9421   -1.8090    0.1283 C   0  0  0  0  0  0  0  0  0  0  0  0
    6.0931    0.2498    1.2714 C   0  0  0  0  0  0  0  0  0  0  0  0
   -3.4799    2.9227   -0.0621 H   0  0  0  0  0  0  0  0  0  0  0  0
   -2.5468   -0.9405    1.2347 H   0  0  0  0  0  0  0  0  0  0  0  0
   -1.6552    1.5238   -3.2045 H   0  0  0  0  0  0  0  0  0  0  0  0
   -2.3762    3.0568   -2.5347 H   0  0  0  0  0  0  0  0  0  0  0  0
   -3.4051    1.0630    2.0182 H   0  0  0  0  0  0  0  0  0  0  0  0
   -1.1760    0.9457    2.0683 H   0  0  0  0  0  0  0  0  0  0  0  0
   -0.9888   -0.7748   -2.4961 H   0  0  0  0  0  0  0  0  0  0  0  0
   -2.6807   -1.1698   -2.3219 H   0  0  0  0  0  0  0  0  0  0  0  0
   -1.4974   -2.0279   -1.3475 H   0  0  0  0  0  0  0  0  0  0  0  0
    0.0940    1.8296   -1.4202 H   0  0  0  0  0  0  0  0  0  0  0  0
    0.7673    0.2527   -1.7548 H   0  0  0  0  0  0  0  0  0  0  0  0
    0.8393   -0.6543    1.4916 H   0  0  0  0  0  0  0  0  0  0  0  0
   -0.6332   -1.5610    1.1736 H   0  0  0  0  0  0  0  0  0  0  0  0
    2.2551    2.1842   -1.0009 H   0  0  0  0  0  0  0  0  0  0  0  0
    0.4098    2.6730    2.6064 H   0  0  0  0  0  0  0  0  0  0  0  0
   -5.2788    1.9004    1.0349 H   0  0  0  0  0  0  0  0  0  0  0  0
    3.6424    2.1049    1.8686 H   0  0  0  0  0  0  0  0  0  0  0  0
    2.6343    3.4270    2.4611 H   0  0  0  0  0  0  0  0  0  0  0  0
    3.3057    3.5101    0.8303 H   0  0  0  0  0  0  0  0  0  0  0  0
   -6.4570   -2.0787   -0.5383 H   0  0  0  0  0  0  0  0  0  0  0  0
   -6.2445   -3.4677    0.5475 H   0  0  0  0  0  0  0  0  0  0  0  0
   -5.2549   -3.3587   -0.9227 H   0  0  0  0  0  0  0  0  0  0  0  0
    2.5303   -2.6629   -1.7494 H   0  0  0  0  0  0  0  0  0  0  0  0
    2.8620   -4.0955   -0.7682 H   0  0  0  0  0  0  0  0  0  0  0  0
    1.3340   -3.9946   -1.6903 H   0  0  0  0  0  0  0  0  0  0  0  0
    4.8070   -1.3670   -1.5410 H   0  0  0  0  0  0  0  0  0  0  0  0
    4.2205   -1.4675    0.1140 H   0  0  0  0  0  0  0  0  0  0  0  0
    6.6881    0.1167   -0.7826 H   0  0  0  0  0  0  0  0  0  0  0  0
    7.9593   -1.6023    0.4771 H   0  0  0  0  0  0  0  0  0  0  0  0
    7.0185   -2.3536   -0.8188 H   0  0  0  0  0  0  0  0  0  0  0  0
    6.4598   -2.4665    0.8597 H   0  0  0  0  0  0  0  0  0  0  0  0
    5.6652    1.2464    1.1314 H   0  0  0  0  0  0  0  0  0  0  0  0
    7.0966    0.3853    1.6892 H   0  0  0  0  0  0  0  0  0  0  0  0
    5.4878   -0.2854    2.0108 H   0  0  0  0  0  0  0  0  0  0  0  0
  1 11  1  0  0  0  0
  1 15  1  0  0  0  0
  2 13  1  0  0  0  0
  2 17  1  0  0  0  0
  3 14  1  0  0  0  0
  3 24  1  0  0  0  0
  4 16  1  0  0  0  0
  4 49  1  0  0  0  0
  5 20  1  0  0  0  0
  5 26  1  0  0  0  0
  6 21  1  0  0  0  0
  6 28  1  0  0  0  0
  7 24  2  0  0  0  0
  8 26  2  0  0  0  0
  9 28  2  0  0  0  0
 10 11  1  0  0  0  0
 10 12  1  0  0  0  0
 10 14  1  0  0  0  0
 10 18  1  0  0  0  0
 11 13  1  0  0  0  0
 11 15  1  0  0  0  0
 12 17  1  0  0  0  0
 12 19  1  0  0  0  0
 12 20  1  0  0  0  0
 13 16  1  0  0  0  0
 13 34  1  0  0  0  0
 14 16  1  0  0  0  0
 14 35  1  0  0  0  0
 15 36  1  0  0  0  0
 15 37  1  0  0  0  0
 16 38  1  0  0  0  0
 17 22  1  0  0  0  0
 17 39  1  0  0  0  0
 18 40  1  0  0  0  0
 18 41  1  0  0  0  0
 18 42  1  0  0  0  0
 19 21  1  0  0  0  0
 19 43  1  0  0  0  0
 19 44  1  0  0  0  0
 20 45  1  0  0  0  0
 20 46  1  0  0  0  0
 21 23  1  0  0  0  0
 21 47  1  0  0  0  0
 22 23  2  0  0  0  0
 22 48  1  0  0  0  0
 23 25  1  0  0  0  0
 24 27  1  0  0  0  0
 25 50  1  0  0  0  0
 25 51  1  0  0  0  0
 25 52  1  0  0  0  0
 26 29  1  0  0  0  0
 27 53  1  0  0  0  0
 27 54  1  0  0  0  0
 27 55  1  0  0  0  0
 28 30  1  0  0  0  0
 29 56  1  0  0  0  0
 29 57  1  0  0  0  0
 29 58  1  0  0  0  0
 30 31  1  0  0  0  0
 30 59  1  0  0  0  0
 30 60  1  0  0  0  0
 31 32  1  0  0  0  0
 31 33  1  0  0  0  0
 31 61  1  0  0  0  0
 32 62  1  0  0  0  0
 32 63  1  0  0  0  0
 32 64  1  0  0  0  0
 33 65  1  0  0  0  0
 33 66  1  0  0  0  0
 33 67  1  0  0  0  0
M  END
> <PUBCHEM_COMPOUND_CID>
13783814

> <PUBCHEM_CONFORMER_RMSD>
1

> <PUBCHEM_CONFORMER_DIVERSEORDER>
1
4
8
5
2
3
7
6
10
9

> <PUBCHEM_MMFF94_PARTIAL_CHARGES>
31
1 -0.3
10 0.09
11 -0.04
13 0.38
14 0.28
15 -0.05
16 0.28
17 0.42
2 -0.56
20 0.28
21 0.42
22 -0.29
23 -0.28
24 0.66
25 0.14
26 0.66
27 0.06
28 0.66
29 0.06
3 -0.43
30 0.06
36 0.1
37 0.1
4 -0.68
48 0.15
49 0.4
5 -0.43
6 -0.43
7 -0.57
8 -0.57
9 -0.57

> <PUBCHEM_EFFECTIVE_ROTOR_COUNT>
10.4

> <PUBCHEM_PHARMACOPHORE_FEATURES>
10
1 1 acceptor
1 2 acceptor
1 4 acceptor
1 4 donor
1 7 acceptor
1 8 acceptor
1 9 acceptor
3 31 32 33 hydrophobe
6 12 17 19 21 22 23 rings
8 2 10 11 12 13 14 16 17 rings

> <PUBCHEM_HEAVY_ATOM_COUNT>
33

> <PUBCHEM_ATOM_DEF_STEREO_COUNT>
8

> <PUBCHEM_ATOM_UDEF_STEREO_COUNT>
0

> <PUBCHEM_BOND_DEF_STEREO_COUNT>
0

> <PUBCHEM_BOND_UDEF_STEREO_COUNT>
0

> <PUBCHEM_ISOTOPIC_ATOM_COUNT>
0

> <PUBCHEM_COMPONENT_COUNT>
1

> <PUBCHEM_CACTVS_TAUTO_COUNT>
1

> <PUBCHEM_CONFORMER_ID>
00D2530600000001

> <PUBCHEM_MMFF94_ENERGY>
101.9003

> <PUBCHEM_FEATURE_SELFOVERLAP>
50.757

> <PUBCHEM_SHAPE_FINGERPRINT>
10190108 129 18261962946319034499
11578080 2 17315345921728459773
12166972 35 18333456435299385796
13140716 1 18201716309969635232
13583140 156 18343298154830900773
13782708 43 18335140933571977146
14223421 5 18409442592625041171
14713325 29 18187081707003473973
14787075 74 18337401516446303886
14955137 171 18273497862385813754
15064986 96 17274277045598328615
15209289 33 18341054102721238890
15324884 4 17901642068073992493
15927050 60 17768527545383620714
16945 1 18271792489522942529
17349148 13 18336834100512371548
19591789 44 18270683198322912987
20028762 73 17987801946098621846
23559900 14 18408598189001421409
3383291 50 18410852188371586954
350125 39 18410013277170958357
392239 28 18201172034739362443
469060 322 18261125066216921633
5104073 3 17917719036199342233
56638632 33 17899118439474033226
59755656 215 18334570227134167219
6081469 158 18334291016249131199
6669772 16 18126835222212280696
9896288 288 17557998247191199056

> <PUBCHEM_SHAPE_MULTIPOLES>
626.3
12.42
3.63
1.73
10.89
1.79
0.53
6.15
-1.32
-0.49
-0.73
-0.8
-0.65
1.38

> <PUBCHEM_SHAPE_SELFOVERLAP>
1321.851

> <PUBCHEM_SHAPE_VOLUME>
347.9

> <PUBCHEM_COORDINATE_TYPE>
2
5
10

$$$$
