REMARK  Name = 13783081
REMARK  10 active torsions:
REMARK  status: ('A' for Active; 'I' for Inactive)
REMARK    1  A    between atoms: N_2  and  CA_21
REMARK    2  A    between atoms: C_3  and  CA_5
REMARK    3  A    between atoms: CA_5  and  N_6
REMARK    4  A    between atoms: CA_5  and  CB_10
REMARK    5  A    between atoms: CB_10  and  CG_12
REMARK    6  A    between atoms: CA_21  and  C_23
REMARK    7  A    between atoms: CA_21  and  CB_26
REMARK    8  A    between atoms: C_23  and  O_24
REMARK    9  A    between atoms: CB_26  and  CG_27
REMARK   10  A    between atoms: CZ_32  and  OH_33
REMARK                            x       y       z     vdW  Elec       q    Type
REMARK                         _______ _______ _______ _____ _____    ______ ____
ROOT
ATOM      1  O   TRP A   1       0.497  -0.582   1.763  0.00  0.00    -0.277 OA
ATOM      2  N   TYR A   2       0.485   0.236  -0.406  0.00  0.00    -0.298 N 
ATOM      3  C   TRP A   1       0.316  -0.747   0.558  0.00  0.00    +0.203 C 
ATOM      4  H   TYR A   2       0.317   0.013  -1.350  0.00  0.00    +0.150 HD
ENDROOT
BRANCH   3   5
ATOM      5  CA  TRP A   1      -0.155  -2.073  -0.031  0.00  0.00    +0.017 C 
BRANCH   5   6
ATOM      6  N   TRP A   1       0.893  -3.054   0.254  0.00  0.00    +0.388 N 
ATOM      7  H1  TRP A   1       0.621  -3.962  -0.124  0.00  0.00    -0.089 HD
ATOM      8  H2  TRP A   1       1.022  -3.131   1.263  0.00  0.00    -0.089 HD
ATOM      9  H3  TRP A   1       1.767  -2.754  -0.179  0.00  0.00    -0.089 HD
ENDBRANCH   5   6
BRANCH   5  10
ATOM     10  CB  TRP A   1      -1.491  -2.509   0.591  0.00  0.00    +0.015 C 
BRANCH  10  12
ATOM     11  NE1 TRP A   1      -4.375  -1.459  -1.387  0.00  0.00    -0.312 N 
ATOM     12  CG  TRP A   1      -2.683  -1.849  -0.045  0.00  0.00    -0.008 C 
ATOM     13  CD2 TRP A   1      -3.261  -0.632   0.361  0.00  0.00    +0.011 C 
ATOM     14  CE2 TRP A   1      -4.334  -0.403  -0.504  0.00  0.00    +0.048 C 
ATOM     15  CD1 TRP A   1      -3.368  -2.345  -1.111  0.00  0.00    +0.058 C 
ATOM     16  CE3 TRP A   1      -2.994   0.310   1.374  0.00  0.00    +0.001 C 
ATOM     17  CZ2 TRP A   1      -5.156   0.725  -0.406  0.00  0.00    +0.015 C 
ATOM     18  CZ3 TRP A   1      -3.808   1.443   1.485  0.00  0.00    +0.000 C 
ATOM     19  CH2 TRP A   1      -4.871   1.646   0.607  0.00  0.00    +0.001 C 
ATOM     20  HE1 TRP A   1      -5.033  -1.561  -2.112  0.00  0.00    +0.152 HD
ENDBRANCH  10  12
ENDBRANCH   5  10
ENDBRANCH   3   5
BRANCH   2  21
ATOM     21  CA  TYR A   2       0.901   1.576  -0.067  0.00  0.00    +0.176 C 
BRANCH  21  23
ATOM     22  OXT TYR A   2      -0.092   3.781  -0.127  0.00  0.00    -0.248 OA
ATOM     23  C   TYR A   2      -0.184   2.589  -0.400  0.00  0.00    +0.332 C 
BRANCH  23  24
ATOM     24  O   TYR A   2      -1.266   2.075  -1.033  0.00  0.00    -0.479 OA
ATOM     25  H   TYR A   2      -1.305   1.160  -1.227  0.00  0.00    +0.295 HD
ENDBRANCH  23  24
ENDBRANCH  21  23
BRANCH  21  26
ATOM     26  CB  TYR A   2       2.204   1.949  -0.786  0.00  0.00    +0.057 C 
BRANCH  26  27
ATOM     27  CG  TYR A   2       3.342   1.008  -0.470  0.00  0.00    -0.020 C 
ATOM     28  CD1 TYR A   2       4.170   1.281   0.607  0.00  0.00    -0.001 C 
ATOM     29  CD2 TYR A   2       3.537  -0.112  -1.263  0.00  0.00    -0.001 C 
ATOM     30  CE1 TYR A   2       5.221   0.412   0.899  0.00  0.00    +0.036 C 
ATOM     31  CE2 TYR A   2       4.588  -0.981  -0.971  0.00  0.00    +0.036 C 
ATOM     32  CZ  TYR A   2       5.430  -0.719   0.111  0.00  0.00    +0.134 C 
BRANCH  32  33
ATOM     33  OH  TYR A   2       6.455  -1.567   0.396  0.00  0.00    -0.506 OA
ATOM     34  HH  TYR A   2       7.021  -1.391   1.122  0.00  0.00    +0.292 HD
ENDBRANCH  32  33
ENDBRANCH  26  27
ENDBRANCH  21  26
ENDBRANCH   2  21
TORSDOF 10
