REMARK  Name = 13783814
REMARK  10 active torsions:
REMARK  status: ('A' for Active; 'I' for Inactive)
REMARK    1  A    between atoms: C_5  and  C_30
REMARK    2  A    between atoms: C_7  and  O_19
REMARK    3  A    between atoms: C_9  and  O_17
REMARK    4  A    between atoms: C_13  and  O_23
REMARK    5  A    between atoms: O_19  and  C_21
REMARK    6  A    between atoms: O_23  and  C_25
REMARK    7  A    between atoms: C_25  and  C_26
REMARK    8  A    between atoms: C_26  and  C_27
REMARK    9  A    between atoms: C_30  and  O_31
REMARK   10  A    between atoms: O_31  and  C_33
REMARK                            x       y       z     vdW  Elec       q    Type
REMARK                         _______ _______ _______ _____ _____    ______ ____
ROOT
ATOM      1  O   UNL     1      -3.495   1.259  -2.110  0.00  0.00    -0.351 OA
ATOM      2  O   UNL     1      -1.651   2.482   0.778  0.00  0.00    -0.349 OA
ATOM      3  C   UNL     1      -1.889   0.007  -0.651  0.00  0.00    +0.073 C 
ATOM      4  C   UNL     1      -2.460   1.330  -1.117  0.00  0.00    +0.151 C 
ATOM      5  C   UNL     1      -0.499   0.359   0.071  0.00  0.00    +0.079 C 
ATOM      6  C   UNL     1      -2.852   2.047   0.130  0.00  0.00    +0.173 C 
ATOM      7  C   UNL     1      -2.998  -0.385   0.409  0.00  0.00    +0.200 C 
ATOM      8  C   UNL     1      -2.309   1.978  -2.472  0.00  0.00    +0.172 C 
ATOM      9  C   UNL     1      -3.576   0.958   0.942  0.00  0.00    +0.180 C 
ATOM     10  C   UNL     1      -0.747   1.437   1.186  0.00  0.00    +0.140 C 
ATOM     11  C   UNL     1      -1.749  -1.046  -1.759  0.00  0.00    +0.006 C 
ATOM     12  C   UNL     1       0.539   0.950  -0.942  0.00  0.00    +0.054 C 
ATOM     13  C   UNL     1       1.854   1.435  -0.306  0.00  0.00    +0.187 C 
ATOM     14  C   UNL     1       0.497   2.136   1.665  0.00  0.00    -0.002 C 
ATOM     15  C   UNL     1       1.675   2.125   1.020  0.00  0.00    -0.007 C 
ATOM     16  C   UNL     1       2.880   2.831   1.576  0.00  0.00    +0.030 C 
ENDROOT
BRANCH   9  17
ATOM     17  O   UNL     1      -4.977   1.034   0.714  0.00  0.00    -0.379 OA
ATOM     18  H   UNL     1      -5.315   1.877   1.053  0.00  0.00    +0.211 HD
ENDBRANCH   9  17
BRANCH   7  19
ATOM     19  O   UNL     1      -4.024  -1.168  -0.194  0.00  0.00    -0.450 OA
BRANCH  19  21
ATOM     20  O   UNL     1      -4.467  -2.178   1.837  0.00  0.00    -0.250 OA
ATOM     21  C   UNL     1      -4.681  -2.027   0.641  0.00  0.00    +0.318 C 
ATOM     22  C   UNL     1      -5.726  -2.779  -0.125  0.00  0.00    +0.121 C 
ENDBRANCH  19  21
ENDBRANCH   7  19
BRANCH  13  23
ATOM     23  O   UNL     1       2.757   0.344  -0.139  0.00  0.00    -0.448 OA
BRANCH  23  25
ATOM     24  O   UNL     1       4.242   1.341  -1.595  0.00  0.00    -0.250 OA
ATOM     25  C   UNL     1       3.924   0.426  -0.848  0.00  0.00    +0.317 C 
BRANCH  25  26
ATOM     26  C   UNL     1       4.750  -0.818  -0.594  0.00  0.00    +0.110 C 
BRANCH  26  27
ATOM     27  C   UNL     1       6.156  -0.510  -0.056  0.00  0.00    +0.011 C 
ATOM     28  C   UNL     1       6.942  -1.809   0.128  0.00  0.00    +0.001 C 
ATOM     29  C   UNL     1       6.093   0.250   1.271  0.00  0.00    +0.001 C 
ENDBRANCH  26  27
ENDBRANCH  25  26
ENDBRANCH  23  25
ENDBRANCH  13  23
BRANCH   5  30
ATOM     30  C   UNL     1       0.116  -0.915   0.710  0.00  0.00    +0.211 C 
BRANCH  30  31
ATOM     31  O   UNL     1       0.786  -1.619  -0.308  0.00  0.00    -0.448 OA
BRANCH  31  33
ATOM     32  O   UNL     1       1.414  -3.259   1.193  0.00  0.00    -0.250 OA
ATOM     33  C   UNL     1       1.403  -2.789   0.064  0.00  0.00    +0.318 C 
ATOM     34  C   UNL     1       2.070  -3.427  -1.117  0.00  0.00    +0.121 C 
ENDBRANCH  31  33
ENDBRANCH  30  31
ENDBRANCH   5  30
TORSDOF 10
