REMARK  Name = 13783
REMARK  8 active torsions:
REMARK  status: ('A' for Active; 'I' for Inactive)
REMARK    1  A    between atoms: C_1  and  C_13
REMARK    2  A    between atoms: C_2  and  O_17
REMARK    3  A    between atoms: C_4  and  N_9
REMARK    4  A    between atoms: C_5  and  N_12
REMARK    5  A    between atoms: C_13  and  C_15
REMARK    6  A    between atoms: O_17  and  C_19
REMARK    7  A    between atoms: C_19  and  O_20
REMARK    8  A    between atoms: O_20  and  C_21
REMARK                            x       y       z     vdW  Elec       q    Type
REMARK                         _______ _______ _______ _____ _____    ______ ____
ROOT
ATOM      1  C   UNL     1      -0.638   0.974  -0.113  0.00  0.00    +0.016 C 
ATOM      2  C   UNL     1      -0.078  -0.255  -0.404  0.00  0.00    +0.170 C 
ATOM      3  C   UNL     1      -1.966   1.103   0.248  0.00  0.00    +0.023 C 
ATOM      4  C   UNL     1      -0.875  -1.398  -0.331  0.00  0.00    +0.179 C 
ATOM      5  C   UNL     1      -2.763  -0.039   0.321  0.00  0.00    +0.144 C 
ATOM      6  C   UNL     1      -2.217  -1.290   0.031  0.00  0.00    +0.051 C 
ENDROOT
BRANCH   4   9
ATOM      7  O   UNL     1      -1.085  -3.684  -0.546  0.00  0.00    -0.126 OA
ATOM      8  O   UNL     1       0.871  -2.772  -0.948  0.00  0.00    -0.126 OA
ATOM      9  N   UNL     1      -0.336  -2.681  -0.622  0.00  0.00    +0.061 N 
ENDBRANCH   4   9
BRANCH   5  12
ATOM     10  O   UNL     1      -4.601   1.206   0.946  0.00  0.00    -0.126 OA
ATOM     11  O   UNL     1      -4.829  -0.969   0.749  0.00  0.00    -0.126 OA
ATOM     12  N   UNL     1      -4.130   0.071   0.689  0.00  0.00    +0.058 N 
ENDBRANCH   5  12
BRANCH   1  13
ATOM     13  C   UNL     1       0.213   2.230  -0.186  0.00  0.00    +0.025 C 
ATOM     14  C   UNL     1       0.325   2.886   1.195  0.00  0.00    +0.005 C 
BRANCH  13  15
ATOM     15  C   UNL     1      -0.303   3.257  -1.215  0.00  0.00    +0.004 C 
ATOM     16  C   UNL     1      -0.413   2.688  -2.625  0.00  0.00    +0.000 C 
ENDBRANCH  13  15
ENDBRANCH   1  13
BRANCH   2  17
ATOM     17  O   UNL     1       1.237  -0.353  -0.757  0.00  0.00    -0.392 OA
BRANCH  17  19
ATOM     18  O   UNL     1       1.775  -0.614   1.498  0.00  0.00    -0.202 OA
ATOM     19  C   UNL     1       2.111  -0.539   0.322  0.00  0.00    +0.516 C 
BRANCH  19  20
ATOM     20  O   UNL     1       3.386  -0.623  -0.151  0.00  0.00    -0.422 OA
BRANCH  20  21
ATOM     21  C   UNL     1       4.406  -0.155   0.737  0.00  0.00    +0.173 C 
ATOM     22  C   UNL     1       4.141   1.302   1.081  0.00  0.00    +0.047 C 
ATOM     23  C   UNL     1       5.766  -0.345   0.082  0.00  0.00    +0.047 C 
ENDBRANCH  20  21
ENDBRANCH  19  20
ENDBRANCH  17  19
ENDBRANCH   2  17
TORSDOF 8
