REMARK  Name = 13797589
REMARK  8 active torsions:
REMARK  status: ('A' for Active; 'I' for Inactive)
REMARK    1  A    between atoms: C_5  and  C_28
REMARK    2  A    between atoms: C_7  and  O_17
REMARK    3  A    between atoms: C_9  and  O_19
REMARK    4  A    between atoms: C_13  and  O_21
REMARK    5  A    between atoms: O_21  and  C_23
REMARK    6  A    between atoms: C_23  and  C_24
REMARK    7  A    between atoms: C_24  and  C_25
REMARK    8  A    between atoms: C_28  and  O_29
REMARK                            x       y       z     vdW  Elec       q    Type
REMARK                         _______ _______ _______ _____ _____    ______ ____
ROOT
ATOM      1  O   UNL     1       3.438  -1.496   1.795  0.00  0.00    -0.351 OA
ATOM      2  O   UNL     1       2.269   1.707   0.503  0.00  0.00    -0.349 OA
ATOM      3  C   UNL     1       1.774  -1.057  -0.026  0.00  0.00    +0.060 C 
ATOM      4  C   UNL     1       2.566  -0.545   1.163  0.00  0.00    +0.149 C 
ATOM      5  C   UNL     1       0.581  -0.008  -0.238  0.00  0.00    +0.064 C 
ATOM      6  C   UNL     1       3.253   0.681   0.670  0.00  0.00    +0.172 C 
ATOM      7  C   UNL     1       2.859  -0.885  -1.170  0.00  0.00    +0.142 C 
ATOM      8  C   UNL     1       2.411  -0.925   2.616  0.00  0.00    +0.172 C 
ATOM      9  C   UNL     1       3.859   0.180  -0.650  0.00  0.00    +0.167 C 
ATOM     10  C   UNL     1       1.191   1.427  -0.409  0.00  0.00    +0.139 C 
ATOM     11  C   UNL     1       1.291  -2.506   0.115  0.00  0.00    +0.005 C 
ATOM     12  C   UNL     1      -0.387   0.025   0.991  0.00  0.00    +0.053 C 
ATOM     13  C   UNL     1      -1.482   1.104   0.917  0.00  0.00    +0.187 C 
ATOM     14  C   UNL     1       0.201   2.547  -0.228  0.00  0.00    -0.002 C 
ATOM     15  C   UNL     1      -1.009   2.415   0.342  0.00  0.00    -0.007 C 
ATOM     16  C   UNL     1      -1.941   3.586   0.472  0.00  0.00    +0.030 C 
ENDROOT
BRANCH   7  17
ATOM     17  O   UNL     1       3.575  -2.103  -1.379  0.00  0.00    -0.382 OA
ATOM     18  H   UNL     1       2.967  -2.784  -1.705  0.00  0.00    +0.210 HD
ENDBRANCH   7  17
BRANCH   9  19
ATOM     19  O   UNL     1       4.067   1.230  -1.574  0.00  0.00    -0.379 OA
ATOM     20  H   UNL     1       4.697   1.868  -1.203  0.00  0.00    +0.211 HD
ENDBRANCH   9  19
BRANCH  13  21
ATOM     21  O   UNL     1      -2.582   0.602   0.160  0.00  0.00    -0.448 OA
BRANCH  21  23
ATOM     22  O   UNL     1      -3.109  -0.991   1.742  0.00  0.00    -0.250 OA
ATOM     23  C   UNL     1      -3.102  -0.590   0.587  0.00  0.00    +0.317 C 
BRANCH  23  24
ATOM     24  C   UNL     1      -3.634  -1.355  -0.606  0.00  0.00    +0.110 C 
BRANCH  24  25
ATOM     25  C   UNL     1      -5.132  -1.119  -0.856  0.00  0.00    +0.011 C 
ATOM     26  C   UNL     1      -5.971  -1.507   0.364  0.00  0.00    +0.001 C 
ATOM     27  C   UNL     1      -5.378   0.350  -1.207  0.00  0.00    +0.001 C 
ENDBRANCH  24  25
ENDBRANCH  23  24
ENDBRANCH  21  23
ENDBRANCH  13  21
BRANCH   5  28
ATOM     28  C   UNL     1      -0.246  -0.377  -1.500  0.00  0.00    +0.140 C 
BRANCH  28  29
ATOM     29  O   UNL     1       0.637  -0.391  -2.595  0.00  0.00    -0.382 OA
ATOM     30  H   UNL     1       0.149  -0.620  -3.401  0.00  0.00    +0.210 HD
ENDBRANCH  28  29
ENDBRANCH   5  28
TORSDOF 8
