REMARK  Name = 138059746
REMARK  6 active torsions:
REMARK  status: ('A' for Active; 'I' for Inactive)
REMARK    1  A    between atoms: C_16  and  O_20
REMARK    2  A    between atoms: O_20  and  C_22
REMARK    3  A    between atoms: C_22  and  C_23
REMARK    4  A    between atoms: C_23  and  C_24
REMARK    5  A    between atoms: C_24  and  C_26
REMARK    6  A    between atoms: C_26  and  O_27
REMARK                            x       y       z     vdW  Elec       q    Type
REMARK                         _______ _______ _______ _____ _____    ______ ____
ROOT
ATOM      1  O   UNL     1       2.950  -0.668  -0.730  0.00  0.00    -0.218 OA
ATOM      2  O   UNL     1       1.642  -2.406  -1.156  0.00  0.00    -0.306 OA
ATOM      3  O   UNL     1      -0.230  -0.755  -0.447  0.00  0.00    -0.293 OA
ATOM      4  O   UNL     1       2.275  -1.609   0.591  0.00  0.00    -0.197 OA
ATOM      5  C   UNL     1       2.026   0.252  -0.451  0.00  0.00    +0.178 C 
ATOM      6  C   UNL     1       2.977   0.434   0.905  0.00  0.00    +0.033 C 
ATOM      7  C   UNL     1       1.582   1.509  -1.161  0.00  0.00    +0.039 C 
ATOM      8  C   UNL     1       3.730   1.780   0.996  0.00  0.00    +0.003 C 
ATOM      9  C   UNL     1       1.035  -0.914  -1.070  0.00  0.00    +0.268 C 
ATOM     10  C   UNL     1       2.528   2.696  -0.982  0.00  0.00    +0.003 C 
ATOM     11  C   UNL     1       0.120   1.744  -0.636  0.00  0.00    +0.073 C 
ATOM     12  C   UNL     1       4.260  -0.858   1.074  0.00  0.00    +0.008 C 
ATOM     13  C   UNL     1       2.903   2.947   0.468  0.00  0.00    +0.000 C 
ATOM     14  C   UNL     1       2.506  -2.765  -0.037  0.00  0.00    +0.221 C 
ATOM     15  C   UNL     1       4.042  -2.413   0.216  0.00  0.00    +0.059 C 
ATOM     16  C   UNL     1      -0.810   0.499  -0.855  0.00  0.00    +0.292 C 
ATOM     17  C   UNL     1       4.188   2.063   2.429  0.00  0.00    +0.000 C 
ATOM     18  C   UNL     1      -0.531   2.988  -1.253  0.00  0.00    +0.007 C 
ATOM     19  C   UNL     1       1.978  -3.960   0.717  0.00  0.00    +0.064 C 
ENDROOT
BRANCH  16  20
ATOM     20  O   UNL     1      -2.022   0.711  -0.129  0.00  0.00    -0.424 OA
BRANCH  20  22
ATOM     21  O   UNL     1      -3.109  -0.796  -1.495  0.00  0.00    -0.250 OA
ATOM     22  C   UNL     1      -3.103  -0.007  -0.560  0.00  0.00    +0.319 C 
BRANCH  22  23
ATOM     23  C   UNL     1      -4.295   0.333   0.309  0.00  0.00    +0.121 C 
BRANCH  23  24
ATOM     24  C   UNL     1      -5.537  -0.481  -0.033  0.00  0.00    +0.121 C 
BRANCH  24  26
ATOM     25  O   UNL     1      -6.618   0.684   1.787  0.00  0.00    -0.250 OA
ATOM     26  C   UNL     1      -6.682  -0.149   0.892  0.00  0.00    +0.314 C 
BRANCH  26  27
ATOM     27  O   UNL     1      -7.803  -0.858   0.612  0.00  0.00    -0.480 OA
ATOM     28  H   UNL     1      -7.799  -1.485  -0.085  0.00  0.00    +0.295 HD
ENDBRANCH  26  27
ENDBRANCH  24  26
ENDBRANCH  23  24
ENDBRANCH  22  23
ENDBRANCH  20  22
ENDBRANCH  16  20
TORSDOF 6
