13802
  -OEChem-03292013323D

 62 65  0     1  0  0  0  0  0999 V2000
    2.3046    0.6445   -1.2924 F   0  0  0  0  0  0  0  0  0  0  0  0
   -3.3769    1.4778   -1.7307 O   0  0  0  0  0  0  0  0  0  0  0  0
    0.6893   -2.3858   -0.8958 O   0  0  0  0  0  0  0  0  0  0  0  0
   -2.9075    0.6192    1.5562 O   0  0  0  0  0  0  0  0  0  0  0  0
   -4.5583   -1.3640    0.8069 O   0  0  0  0  0  0  0  0  0  0  0  0
    6.9606   -0.5157   -0.3203 O   0  0  0  0  0  0  0  0  0  0  0  0
   -5.6963   -2.6435   -0.7439 O   0  0  0  0  0  0  0  0  0  0  0  0
   -1.0344    0.9627   -1.1038 C   0  0  2  0  0  0  0  0  0  0  0  0
   -0.0439    1.7477   -0.1891 C   0  0  2  0  0  0  0  0  0  0  0  0
    0.9498    0.8582    0.6024 C   0  0  1  0  0  0  0  0  0  0  0  0
    1.6722   -0.1538   -0.3463 C   0  0  1  0  0  0  0  0  0  0  0  0
   -2.4596    1.4313   -0.6477 C   0  0  1  0  0  0  0  0  0  0  0  0
   -0.9128    2.6413    0.7151 C   0  0  0  0  0  0  0  0  0  0  0  0
   -0.8161   -0.5547   -0.9788 C   0  0  0  0  0  0  0  0  0  0  0  0
   -2.2080    2.8322   -0.0681 C   0  0  2  0  0  0  0  0  0  0  0  0
    0.6408   -0.9913   -1.1722 C   0  0  2  0  0  0  0  0  0  0  0  0
    2.8423   -0.9452    0.3666 C   0  0  1  0  0  0  0  0  0  0  0  0
    1.9505    1.7662    1.3482 C   0  0  0  0  0  0  0  0  0  0  0  0
   -0.7832    1.3744   -2.5790 C   0  0  0  0  0  0  0  0  0  0  0  0
    3.0408    0.9829    2.0610 C   0  0  0  0  0  0  0  0  0  0  0  0
    3.7361    0.0759    1.0823 C   0  0  0  0  0  0  0  0  0  0  0  0
   -3.1074    0.5013    0.3482 C   0  0  0  0  0  0  0  0  0  0  0  0
   -3.3286    3.4268    0.7771 C   0  0  0  0  0  0  0  0  0  0  0  0
    2.3461   -1.9480    1.4367 C   0  0  0  0  0  0  0  0  0  0  0  0
    3.6435   -1.7381   -0.6596 C   0  0  0  0  0  0  0  0  0  0  0  0
    5.0523    0.2114    0.8571 C   0  0  0  0  0  0  0  0  0  0  0  0
   -4.0072   -0.5730   -0.2247 C   0  0  0  0  0  0  0  0  0  0  0  0
    4.9536   -1.6065   -0.8909 C   0  0  0  0  0  0  0  0  0  0  0  0
    5.7544   -0.6301   -0.1318 C   0  0  0  0  0  0  0  0  0  0  0  0
   -5.3953   -2.3765    0.4115 C   0  0  0  0  0  0  0  0  0  0  0  0
   -5.9013   -3.1274    1.6057 C   0  0  0  0  0  0  0  0  0  0  0  0
    0.5499    2.4253   -0.8202 H   0  0  0  0  0  0  0  0  0  0  0  0
    0.3896    0.2913    1.3574 H   0  0  0  0  0  0  0  0  0  0  0  0
   -1.0821    2.1789    1.6928 H   0  0  0  0  0  0  0  0  0  0  0  0
   -0.4248    3.6050    0.9009 H   0  0  0  0  0  0  0  0  0  0  0  0
   -1.4336   -1.0929   -1.7088 H   0  0  0  0  0  0  0  0  0  0  0  0
   -1.1378   -0.9188    0.0043 H   0  0  0  0  0  0  0  0  0  0  0  0
   -2.0335    3.5308   -0.8982 H   0  0  0  0  0  0  0  0  0  0  0  0
    0.9013   -0.8968   -2.2324 H   0  0  0  0  0  0  0  0  0  0  0  0
    1.4240    2.3783    2.0898 H   0  0  0  0  0  0  0  0  0  0  0  0
    2.4154    2.4653    0.6400 H   0  0  0  0  0  0  0  0  0  0  0  0
   -0.9989    2.4360   -2.7426 H   0  0  0  0  0  0  0  0  0  0  0  0
    0.2587    1.2135   -2.8746 H   0  0  0  0  0  0  0  0  0  0  0  0
   -1.4120    0.7965   -3.2655 H   0  0  0  0  0  0  0  0  0  0  0  0
    2.6129    0.3954    2.8812 H   0  0  0  0  0  0  0  0  0  0  0  0
    3.7417    1.6883    2.5238 H   0  0  0  0  0  0  0  0  0  0  0  0
   -4.2815    3.4140    0.2395 H   0  0  0  0  0  0  0  0  0  0  0  0
   -3.4676    2.9226    1.7364 H   0  0  0  0  0  0  0  0  0  0  0  0
   -3.0977    4.4729    1.0086 H   0  0  0  0  0  0  0  0  0  0  0  0
    2.0482   -2.9130    1.0148 H   0  0  0  0  0  0  0  0  0  0  0  0
    3.1397   -2.1813    2.1593 H   0  0  0  0  0  0  0  0  0  0  0  0
    1.4961   -1.5619    2.0075 H   0  0  0  0  0  0  0  0  0  0  0  0
   -4.1472    2.0067   -1.4631 H   0  0  0  0  0  0  0  0  0  0  0  0
    3.1210   -2.4877   -1.2478 H   0  0  0  0  0  0  0  0  0  0  0  0
    0.2264   -2.5494   -0.0572 H   0  0  0  0  0  0  0  0  0  0  0  0
    5.6489    0.9513    1.3804 H   0  0  0  0  0  0  0  0  0  0  0  0
   -3.4481   -1.2104   -0.9115 H   0  0  0  0  0  0  0  0  0  0  0  0
   -4.8394   -0.0935   -0.7502 H   0  0  0  0  0  0  0  0  0  0  0  0
    5.4587   -2.2146   -1.6323 H   0  0  0  0  0  0  0  0  0  0  0  0
   -6.4640   -2.4527    2.2556 H   0  0  0  0  0  0  0  0  0  0  0  0
   -5.0618   -3.5719    2.1461 H   0  0  0  0  0  0  0  0  0  0  0  0
   -6.5674   -3.9294    1.2749 H   0  0  0  0  0  0  0  0  0  0  0  0
  1 11  1  0  0  0  0
  2 12  1  0  0  0  0
  2 53  1  0  0  0  0
  3 16  1  0  0  0  0
  3 55  1  0  0  0  0
  4 22  2  0  0  0  0
  5 27  1  0  0  0  0
  5 30  1  0  0  0  0
  6 29  2  0  0  0  0
  7 30  2  0  0  0  0
  8  9  1  0  0  0  0
  8 12  1  0  0  0  0
  8 14  1  0  0  0  0
  8 19  1  0  0  0  0
  9 10  1  0  0  0  0
  9 13  1  0  0  0  0
  9 32  1  0  0  0  0
 10 11  1  0  0  0  0
 10 18  1  0  0  0  0
 10 33  1  0  0  0  0
 11 16  1  0  0  0  0
 11 17  1  0  0  0  0
 12 15  1  0  0  0  0
 12 22  1  0  0  0  0
 13 15  1  0  0  0  0
 13 34  1  0  0  0  0
 13 35  1  0  0  0  0
 14 16  1  0  0  0  0
 14 36  1  0  0  0  0
 14 37  1  0  0  0  0
 15 23  1  0  0  0  0
 15 38  1  0  0  0  0
 16 39  1  0  0  0  0
 17 21  1  0  0  0  0
 17 24  1  0  0  0  0
 17 25  1  0  0  0  0
 18 20  1  0  0  0  0
 18 40  1  0  0  0  0
 18 41  1  0  0  0  0
 19 42  1  0  0  0  0
 19 43  1  0  0  0  0
 19 44  1  0  0  0  0
 20 21  1  0  0  0  0
 20 45  1  0  0  0  0
 20 46  1  0  0  0  0
 21 26  2  0  0  0  0
 22 27  1  0  0  0  0
 23 47  1  0  0  0  0
 23 48  1  0  0  0  0
 23 49  1  0  0  0  0
 24 50  1  0  0  0  0
 24 51  1  0  0  0  0
 24 52  1  0  0  0  0
 25 28  2  0  0  0  0
 25 54  1  0  0  0  0
 26 29  1  0  0  0  0
 26 56  1  0  0  0  0
 27 57  1  0  0  0  0
 27 58  1  0  0  0  0
 28 29  1  0  0  0  0
 28 59  1  0  0  0  0
 30 31  1  0  0  0  0
 31 60  1  0  0  0  0
 31 61  1  0  0  0  0
 31 62  1  0  0  0  0
M  END
> <PUBCHEM_COMPOUND_CID>
13802

> <PUBCHEM_CONFORMER_RMSD>
0.8

> <PUBCHEM_CONFORMER_DIVERSEORDER>
1
11
28
72
94
100
12
68
53
13
19
106
96
51
25
61
44
65
81
20
21
101
29
79
27
40
104
7
48
69
4
97
103
108
10
52
18
66
64
107
3
82
30
57
32
55
50
22
75
58
37
88
111
71
46
8
59
77
54
49
36
62
17
70
109
89
60
24
34
84
105
80
16
99
42
15
43
91
76
92
5
67
56
38
26
83
110
6
90
47
93
23
14
73
35
45
74
102
33
9
39
2
98
85
31
78
41
95
63
87
86

> <PUBCHEM_MMFF94_PARTIAL_CHARGES>
26
1 -0.34
11 0.34
12 0.34
16 0.28
17 0.28
2 -0.68
20 0.14
21 -0.28
22 0.45
25 -0.29
26 -0.14
27 0.34
28 -0.14
29 0.54
3 -0.68
30 0.66
31 0.06
4 -0.57
5 -0.43
53 0.4
54 0.15
55 0.4
56 0.15
59 0.15
6 -0.57
7 -0.57

> <PUBCHEM_EFFECTIVE_ROTOR_COUNT>
5.4

> <PUBCHEM_PHARMACOPHORE_FEATURES>
11
1 2 acceptor
1 2 donor
1 3 acceptor
1 3 donor
1 4 acceptor
1 6 acceptor
1 7 acceptor
5 8 9 12 13 15 rings
6 10 11 17 18 20 21 rings
6 17 21 25 26 28 29 rings
6 8 9 10 11 14 16 rings

> <PUBCHEM_HEAVY_ATOM_COUNT>
31

> <PUBCHEM_ATOM_DEF_STEREO_COUNT>
5

> <PUBCHEM_ATOM_UDEF_STEREO_COUNT>
3

> <PUBCHEM_BOND_DEF_STEREO_COUNT>
0

> <PUBCHEM_BOND_UDEF_STEREO_COUNT>
0

> <PUBCHEM_ISOTOPIC_ATOM_COUNT>
0

> <PUBCHEM_COMPONENT_COUNT>
1

> <PUBCHEM_CACTVS_TAUTO_COUNT>
6

> <PUBCHEM_CONFORMER_ID>
000035EA00000001

> <PUBCHEM_MMFF94_ENERGY>
106.3548

> <PUBCHEM_FEATURE_SELFOVERLAP>
55.929

> <PUBCHEM_SHAPE_FINGERPRINT>
10076449 9 17988656211752915550
10366900 7 18127394675281977645
11115154 58 15285626730212764343
11552529 35 18336263432006951281
11578080 2 17539405427565843980
11796584 16 17604136138958200395
12035758 1 17775275080908804602
12422481 6 17560805459138064431
12633257 1 18059309660321764217
13224815 77 18264201422811357560
13544653 18 18336262440264988687
13583140 156 17845929632893695077
13631057 29 18260547826875755547
13782708 43 18411982421631268778
13947930 73 17608098877554852443
14068700 675 18040719216429591783
14363568 33 17988354992263484712
14787075 74 18261675960502896946
14950920 106 16916788534907521067
14955137 171 17775008977213799448
15238133 3 13039190338004327474
15510800 12 18117558642715087115
17138139 8 17168700972209279787
17980427 26 17042875799785813029
18608769 82 18271241720687434406
18769570 83 11455892459935294818
200 152 15285361686973526420
20028762 73 17917146238324339295
20511986 3 12396584078823799120
20775530 9 18261387906042997027
21033648 29 17774421799270578088
21054139 6 17822010900473172738
21756936 100 12319735865093778301
21796203 349 17977418184608947483
23559900 14 18409440363226434341
23569914 152 13121886681893466394
2747138 104 18338802320393547346
3004659 81 17531242920130138403
350125 39 18343865536921357548
392239 28 18342462542957265595
4015057 19 13912612670778373927
463206 1 18117842320846308523
469060 322 17603868879489432399
5104073 3 18200585879235961450
57527293 21 17750516170409886764

> <PUBCHEM_SHAPE_MULTIPOLES>
595.48
12.57
3.36
1.74
1.8
0.02
-0.2
-9.97
2.32
-5.54
0.73
-0.2
0.22
1.68

> <PUBCHEM_SHAPE_SELFOVERLAP>
1285.866

> <PUBCHEM_SHAPE_VOLUME>
327.3

> <PUBCHEM_COORDINATE_TYPE>
2
5
10

$$$$
