REMARK  Name = 13802
REMARK  6 active torsions:
REMARK  status: ('A' for Active; 'I' for Inactive)
REMARK    1  A    between atoms: C_7  and  O_23
REMARK    2  A    between atoms: C_7  and  C_28
REMARK    3  A    between atoms: C_11  and  O_25
REMARK    4  A    between atoms: C_28  and  C_29
REMARK    5  A    between atoms: C_29  and  O_30
REMARK    6  A    between atoms: O_30  and  C_32
REMARK                            x       y       z     vdW  Elec       q    Type
REMARK                         _______ _______ _______ _____ _____    ______ ____
ROOT
ATOM      1  F   UNL     1       2.305   0.644  -1.292  0.00  0.00    -0.237 F 
ATOM      2  O   UNL     1       6.961  -0.516  -0.320  0.00  0.00    -0.287 OA
ATOM      3  C   UNL     1      -1.034   0.963  -1.104  0.00  0.00    +0.032 C 
ATOM      4  C   UNL     1      -0.044   1.748  -0.189  0.00  0.00    +0.005 C 
ATOM      5  C   UNL     1       0.950   0.858   0.602  0.00  0.00    +0.033 C 
ATOM      6  C   UNL     1       1.672  -0.154  -0.346  0.00  0.00    +0.164 C 
ATOM      7  C   UNL     1      -2.460   1.431  -0.648  0.00  0.00    +0.142 C 
ATOM      8  C   UNL     1      -0.913   2.641   0.715  0.00  0.00    +0.003 C 
ATOM      9  C   UNL     1      -0.816  -0.555  -0.979  0.00  0.00    +0.035 C 
ATOM     10  C   UNL     1      -2.208   2.832  -0.068  0.00  0.00    +0.032 C 
ATOM     11  C   UNL     1       0.641  -0.991  -1.172  0.00  0.00    +0.141 C 
ATOM     12  C   UNL     1       2.842  -0.945   0.367  0.00  0.00    +0.064 C 
ATOM     13  C   UNL     1       1.950   1.766   1.348  0.00  0.00    +0.007 C 
ATOM     14  C   UNL     1      -0.783   1.374  -2.579  0.00  0.00    +0.003 C 
ATOM     15  C   UNL     1       3.041   0.983   2.061  0.00  0.00    +0.023 C 
ATOM     16  C   UNL     1       3.736   0.076   1.082  0.00  0.00    -0.035 C 
ATOM     17  C   UNL     1      -3.329   3.427   0.777  0.00  0.00    +0.003 C 
ATOM     18  C   UNL     1       2.346  -1.948   1.437  0.00  0.00    +0.011 C 
ATOM     19  C   UNL     1       3.643  -1.738  -0.660  0.00  0.00    -0.017 C 
ATOM     20  C   UNL     1       5.052   0.211   0.857  0.00  0.00    +0.034 C 
ATOM     21  C   UNL     1       4.954  -1.607  -0.891  0.00  0.00    +0.038 C 
ATOM     22  C   UNL     1       5.754  -0.630  -0.132  0.00  0.00    +0.195 C 
ENDROOT
BRANCH   7  23
ATOM     23  O   UNL     1      -3.377   1.478  -1.731  0.00  0.00    -0.380 OA
ATOM     24  H   UNL     1      -3.031   2.062  -2.423  0.00  0.00    +0.211 HD
ENDBRANCH   7  23
BRANCH  11  25
ATOM     25  O   UNL     1       0.689  -2.386  -0.896  0.00  0.00    -0.382 OA
ATOM     26  H   UNL     1       1.598  -2.706  -1.007  0.00  0.00    +0.210 HD
ENDBRANCH  11  25
BRANCH   7  28
ATOM     27  O   UNL     1      -2.908   0.619   1.556  0.00  0.00    -0.290 OA
ATOM     28  C   UNL     1      -3.107   0.501   0.348  0.00  0.00    +0.218 C 
BRANCH  28  29
ATOM     29  C   UNL     1      -4.007  -0.573  -0.225  0.00  0.00    +0.274 C 
BRANCH  29  30
ATOM     30  O   UNL     1      -4.558  -1.364   0.807  0.00  0.00    -0.440 OA
BRANCH  30  32
ATOM     31  O   UNL     1      -5.696  -2.643  -0.744  0.00  0.00    -0.250 OA
ATOM     32  C   UNL     1      -5.395  -2.377   0.411  0.00  0.00    +0.318 C 
ATOM     33  C   UNL     1      -5.901  -3.127   1.606  0.00  0.00    +0.121 C 
ENDBRANCH  30  32
ENDBRANCH  29  30
ENDBRANCH  28  29
ENDBRANCH   7  28
TORSDOF 6
