138059609
  -OEChem-03292013293D

 31 33  0     0  0  0  0  0  0999 V2000
    4.5675   -0.9005    0.6359 S   0  0  0  0  0  0  0  0  0  0  0  0
   -0.1624   -0.4960   -0.2129 O   0  0  0  0  0  0  0  0  0  0  0  0
    1.8123    1.3868   -0.7210 O   0  0  0  0  0  0  0  0  0  0  0  0
   -3.0278   -2.1346    1.4745 O   0  5  0  0  0  0  0  0  0  0  0  0
   -1.6090   -0.7489    2.4156 O   0  0  0  0  0  0  0  0  0  0  0  0
    3.9786    1.5397    0.1156 N   0  0  0  0  0  0  0  0  0  0  0  0
   -2.5124   -0.9982    1.5844 N   0  3  0  0  0  0  0  0  0  0  0  0
    6.1372    1.2463    1.0037 N   0  0  0  0  0  0  0  0  0  0  0  0
   -1.2778   -0.5132   -0.9888 C   0  0  0  0  0  0  0  0  0  0  0  0
   -2.3814    0.2885   -0.5078 C   0  0  0  0  0  0  0  0  0  0  0  0
    0.7490   -1.2973   -0.8246 C   0  0  0  0  0  0  0  0  0  0  0  0
   -1.0886   -1.3167   -2.0892 C   0  0  0  0  0  0  0  0  0  0  0  0
   -2.9701    0.0482    0.7335 C   0  0  0  0  0  0  0  0  0  0  0  0
    0.2275   -1.8260   -1.9825 C   0  0  0  0  0  0  0  0  0  0  0  0
   -2.8560    1.3210   -1.3167 C   0  0  0  0  0  0  0  0  0  0  0  0
    2.0399   -1.5137   -0.2892 C   0  0  0  0  0  0  0  0  0  0  0  0
    3.0052   -0.5752   -0.0186 C   0  0  0  0  0  0  0  0  0  0  0  0
   -4.0333    0.8406    1.1663 C   0  0  0  0  0  0  0  0  0  0  0  0
   -3.9193    2.1134   -0.8840 C   0  0  0  0  0  0  0  0  0  0  0  0
   -4.5080    1.8733    0.3574 C   0  0  0  0  0  0  0  0  0  0  0  0
    2.8246    0.8792   -0.2618 C   0  0  0  0  0  0  0  0  0  0  0  0
    5.0043    0.7834    0.6103 C   0  0  0  0  0  0  0  0  0  0  0  0
   -1.8062   -1.5146   -2.8730 H   0  0  0  0  0  0  0  0  0  0  0  0
    0.7262   -2.4952   -2.6700 H   0  0  0  0  0  0  0  0  0  0  0  0
    2.2998   -2.5573   -0.1160 H   0  0  0  0  0  0  0  0  0  0  0  0
   -2.4092    1.5259   -2.2869 H   0  0  0  0  0  0  0  0  0  0  0  0
   -4.5030    0.6659    2.1313 H   0  0  0  0  0  0  0  0  0  0  0  0
   -4.2886    2.9178   -1.5134 H   0  0  0  0  0  0  0  0  0  0  0  0
   -5.3359    2.4903    0.6942 H   0  0  0  0  0  0  0  0  0  0  0  0
    4.0593    2.5474    0.0286 H   0  0  0  0  0  0  0  0  0  0  0  0
    6.7213    0.4672    1.3265 H   0  0  0  0  0  0  0  0  0  0  0  0
  1 17  1  0  0  0  0
  1 22  1  0  0  0  0
  2  9  1  0  0  0  0
  2 11  1  0  0  0  0
  3 21  2  0  0  0  0
  4  7  1  0  0  0  0
  5  7  2  0  0  0  0
  6 21  1  0  0  0  0
  6 22  1  0  0  0  0
  6 30  1  0  0  0  0
  7 13  1  0  0  0  0
  8 22  2  0  0  0  0
  8 31  1  0  0  0  0
  9 10  1  0  0  0  0
  9 12  2  0  0  0  0
 10 13  1  0  0  0  0
 10 15  2  0  0  0  0
 11 14  2  0  0  0  0
 11 16  1  0  0  0  0
 12 14  1  0  0  0  0
 12 23  1  0  0  0  0
 13 18  2  0  0  0  0
 14 24  1  0  0  0  0
 15 19  1  0  0  0  0
 15 26  1  0  0  0  0
 16 17  2  0  0  0  0
 16 25  1  0  0  0  0
 17 21  1  0  0  0  0
 18 20  1  0  0  0  0
 18 27  1  0  0  0  0
 19 20  2  0  0  0  0
 19 28  1  0  0  0  0
 20 29  1  0  0  0  0
M  CHG  2   4  -1   7   1
M  END
> <PUBCHEM_COMPOUND_CID>
138059609

> <PUBCHEM_CONFORMER_RMSD>
0.6

> <PUBCHEM_CONFORMER_DIVERSEORDER>
2
38
34
19
22
37
20
29
31
39
10
27
40
17
8
33
18
7
35
30
36
24
26
1
14
9
32
28
25
16
23
21
12
3
15
4
11
13
5
6

> <PUBCHEM_MMFF94_PARTIAL_CHARGES>
31
1 -0.24
10 0.05
11 0.09
12 -0.15
13 0.13
14 -0.15
15 -0.15
16 -0.11
17 0.12
18 -0.15
19 -0.15
2 -0.28
20 -0.15
21 0.62
22 0.65
23 0.15
24 0.15
25 0.15
26 0.15
27 0.15
28 0.15
29 0.15
3 -0.57
30 0.37
31 0.4
4 -0.52
5 -0.52
6 -0.49
7 0.91
8 -0.85
9 0.09

> <PUBCHEM_EFFECTIVE_ROTOR_COUNT>
3.4

> <PUBCHEM_PHARMACOPHORE_FEATURES>
10
1 2 acceptor
1 3 acceptor
1 4 acceptor
1 4 anion
1 5 acceptor
1 6 donor
1 8 donor
5 1 6 17 21 22 rings
5 2 9 11 12 14 rings
6 10 13 15 18 19 20 rings

> <PUBCHEM_HEAVY_ATOM_COUNT>
22

> <PUBCHEM_ATOM_DEF_STEREO_COUNT>
0

> <PUBCHEM_ATOM_UDEF_STEREO_COUNT>
0

> <PUBCHEM_BOND_DEF_STEREO_COUNT>
1

> <PUBCHEM_BOND_UDEF_STEREO_COUNT>
0

> <PUBCHEM_ISOTOPIC_ATOM_COUNT>
0

> <PUBCHEM_COMPONENT_COUNT>
1

> <PUBCHEM_CACTVS_TAUTO_COUNT>
-1

> <PUBCHEM_CONFORMER_ID>
083A9F5900000002

> <PUBCHEM_MMFF94_ENERGY>
56.5656

> <PUBCHEM_FEATURE_SELFOVERLAP>
50.873

> <PUBCHEM_SHAPE_FINGERPRINT>
10498660 4 16917345926682150506
11370993 144 17749384819962796426
11552529 35 17532375464129900930
11640471 11 17346315951605336375
12403259 118 18336547208917554804
12633257 1 17458067079294849964
12670546 177 11600003262933658104
12788726 201 17628889477840349254
13083527 12 17975994364422315175
13544653 18 11602825691996834094
13583140 156 18410571829315388706
13675066 3 18409165524326948364
13994607 96 17060342946135369555
14178342 30 17240777180746276787
14251758 9 18271523096980052726
14341114 176 17967537835508640404
14341114 328 17530973500973601548
15183329 4 17346609556629870844
15188451 53 16443354204080436217
15238133 3 17896047559274220012
15342168 16 17703515389685771421
1813 80 13912613714550397702
18219364 16 18131355236503016601
18927931 339 12757419515372108544
19377110 9 14129065824869024230
193927 3 11746935339754762472
204376 136 17917710180002904295
20600515 1 17676500401892334197
20871999 31 12103848959849829270
21033648 29 17459748116936754773
21033650 10 13901922098200552722
21475661 188 17833270822838703101
21756936 100 18118411868011421092
23419403 2 11954171450498821623
235170 7 11815892353857044216
23559900 14 17824843147262076526
27216 239 18411699898386411373
283562 15 17843948458991190727
2838139 119 18197485247555582941
2871803 45 10663809776416630916
350125 39 17916858157639473039
351380 3 12685098059807549040
3737641 26 14491017269983546736
394222 165 17844239619388003223
4028521 119 15554447370856902817
474 4 17774441568757095463
5104073 3 18339907304305589258
5924683 9 18114181990417420571
59755656 520 16558482966438428838
602551 16 16226048903515213010
633830 44 16486154810903767711
7970288 3 12829214372970171528

> <PUBCHEM_SHAPE_MULTIPOLES>
418.18
10.7
2.14
1.77
9.68
0.26
-0.61
-7.45
-2.58
-0.08
0.57
-1.84
0.58
0.75

> <PUBCHEM_SHAPE_SELFOVERLAP>
911.013

> <PUBCHEM_SHAPE_VOLUME>
229.6

> <PUBCHEM_COORDINATE_TYPE>
2
5
10

$$$$
