REMARK  Name = 138107194
REMARK  6 active torsions:
REMARK  status: ('A' for Active; 'I' for Inactive)
REMARK    1  A    between atoms: C_3  and  O_25
REMARK    2  A    between atoms: C_6  and  O_21
REMARK    3  A    between atoms: C_13  and  O_23
REMARK    4  A    between atoms: C_16  and  C_29
REMARK    5  A    between atoms: O_25  and  C_27
REMARK    6  A    between atoms: C_29  and  O_30
REMARK                            x       y       z     vdW  Elec       q    Type
REMARK                         _______ _______ _______ _____ _____    ______ ____
ROOT
ATOM      1  O   UNL     1       3.529  -1.030  -2.240  0.00  0.00    -0.289 OA
ATOM      2  C   UNL     1      -1.303   1.026   0.052  0.00  0.00    +0.046 C 
ATOM      3  C   UNL     1      -2.284  -0.112   0.097  0.00  0.00    +0.136 C 
ATOM      4  C   UNL     1      -2.781   1.315   0.310  0.00  0.00    +0.037 C 
ATOM      5  C   UNL     1      -0.228   1.087   1.121  0.00  0.00    +0.050 C 
ATOM      6  C   UNL     1       0.420  -0.324   1.459  0.00  0.00    +0.098 C 
ATOM      7  C   UNL     1      -2.035  -1.113   1.181  0.00  0.00    +0.042 C 
ATOM      8  C   UNL     1      -0.549  -1.539   1.162  0.00  0.00    +0.029 C 
ATOM      9  C   UNL     1      -3.538   1.985  -0.818  0.00  0.00    +0.004 C 
ATOM     10  C   UNL     1      -3.281   1.755   1.664  0.00  0.00    +0.004 C 
ATOM     11  C   UNL     1       1.849  -0.468   0.852  0.00  0.00    +0.079 C 
ATOM     12  C   UNL     1       0.700   2.270   0.896  0.00  0.00    -0.030 C 
ATOM     13  C   UNL     1       1.968  -0.082  -0.633  0.00  0.00    +0.152 C 
ATOM     14  C   UNL     1      -0.414  -2.735   2.120  0.00  0.00    +0.003 C 
ATOM     15  C   UNL     1       2.393   1.372  -0.827  0.00  0.00    +0.059 C 
ATOM     16  C   UNL     1       1.761   2.415   0.077  0.00  0.00    -0.017 C 
ATOM     17  C   UNL     1       2.534  -1.807   0.921  0.00  0.00    -0.023 C 
ATOM     18  C   UNL     1       2.984  -1.077  -1.147  0.00  0.00    +0.193 C 
ATOM     19  C   UNL     1       3.202  -2.166  -0.179  0.00  0.00    +0.011 C 
ATOM     20  C   UNL     1       4.046  -3.351  -0.438  0.00  0.00    +0.034 C 
ENDROOT
BRANCH   6  21
ATOM     21  O   UNL     1       0.646  -0.302   2.891  0.00  0.00    -0.386 OA
ATOM     22  H   UNL     1      -0.204  -0.214   3.350  0.00  0.00    +0.210 HD
ENDBRANCH   6  21
BRANCH  13  23
ATOM     23  O   UNL     1       0.818  -0.396  -1.401  0.00  0.00    -0.379 OA
ATOM     24  H   UNL     1       0.090   0.193  -1.149  0.00  0.00    +0.211 HD
ENDBRANCH  13  23
BRANCH   3  25
ATOM     25  O   UNL     1      -2.596  -0.719  -1.174  0.00  0.00    -0.456 OA
BRANCH  25  27
ATOM     26  O   UNL     1      -4.784  -1.088  -0.544  0.00  0.00    -0.250 OA
ATOM     27  C   UNL     1      -3.877  -1.162  -1.362  0.00  0.00    +0.317 C 
ATOM     28  C   UNL     1      -4.022  -1.756  -2.730  0.00  0.00    +0.121 C 
ENDBRANCH  25  27
ENDBRANCH   3  25
BRANCH  16  29
ATOM     29  C   UNL     1       2.455   3.756   0.007  0.00  0.00    +0.159 C 
BRANCH  29  30
ATOM     30  O   UNL     1       2.389   4.246  -1.315  0.00  0.00    -0.378 OA
ATOM     31  H   UNL     1       2.834   5.107  -1.363  0.00  0.00    +0.211 HD
ENDBRANCH  29  30
ENDBRANCH  16  29
TORSDOF 6
