REMARK  Name = 138114793
REMARK  5 active torsions:
REMARK  status: ('A' for Active; 'I' for Inactive)
REMARK    1  A    between atoms: C_8  and  O_25
REMARK    2  A    between atoms: C_9  and  O_27
REMARK    3  A    between atoms: C_14  and  O_29
REMARK    4  A    between atoms: C_16  and  O_31
REMARK    5  A    between atoms: C_17  and  O_33
REMARK                            x       y       z     vdW  Elec       q    Type
REMARK                         _______ _______ _______ _____ _____    ______ ____
ROOT
ATOM      1  O   UNL     1      -1.846  -1.562   1.899  0.00  0.00    -0.332 OA
ATOM      2  O   UNL     1      -1.098   2.628   0.865  0.00  0.00    -0.450 OA
ATOM      3  O   UNL     1      -2.961   3.506  -0.099  0.00  0.00    -0.247 OA
ATOM      4  O   UNL     1       3.779  -0.958  -2.410  0.00  0.00    -0.289 OA
ATOM      5  C   UNL     1      -0.856   0.247   0.803  0.00  0.00    +0.098 C 
ATOM      6  C   UNL     1       0.179  -0.878   1.026  0.00  0.00    +0.065 C 
ATOM      7  C   UNL     1       1.616  -0.724   0.466  0.00  0.00    +0.040 C 
ATOM      8  C   UNL     1      -1.897   0.131  -0.422  0.00  0.00    +0.146 C 
ATOM      9  C   UNL     1      -0.770  -2.060   1.016  0.00  0.00    +0.213 C 
ATOM     10  C   UNL     1      -0.139   1.586   0.696  0.00  0.00    +0.174 C 
ATOM     11  C   UNL     1       2.199   0.612   1.137  0.00  0.00    +0.025 C 
ATOM     12  C   UNL     1      -1.668  -0.113   2.061  0.00  0.00    +0.151 C 
ATOM     13  C   UNL     1       1.112   1.677   1.555  0.00  0.00    +0.048 C 
ATOM     14  C   UNL     1      -1.312  -2.361  -0.399  0.00  0.00    +0.182 C 
ATOM     15  C   UNL     1      -1.587  -1.116  -1.228  0.00  0.00    +0.014 C 
ATOM     16  C   UNL     1       1.796  -0.744  -1.070  0.00  0.00    +0.172 C 
ATOM     17  C   UNL     1      -2.004   1.512  -1.131  0.00  0.00    +0.238 C 
ATOM     18  C   UNL     1       2.469  -1.922   1.001  0.00  0.00    +0.003 C 
ATOM     19  C   UNL     1       3.409   1.187   0.406  0.00  0.00    -0.041 C 
ATOM     20  C   UNL     1      -2.091   2.642  -0.087  0.00  0.00    +0.347 C 
ATOM     21  C   UNL     1       3.213  -0.401  -1.472  0.00  0.00    +0.199 C 
ATOM     22  C   UNL     1       3.889   0.705  -0.752  0.00  0.00    +0.031 C 
ATOM     23  C   UNL     1      -1.527  -1.169  -2.569  0.00  0.00    -0.004 C 
ATOM     24  C   UNL     1       4.164   2.287   1.110  0.00  0.00    +0.026 C 
ENDROOT
BRANCH   8  25
ATOM     25  O   UNL     1      -3.246  -0.111   0.057  0.00  0.00    -0.380 OA
ATOM     26  H   UNL     1      -3.277  -0.963   0.520  0.00  0.00    +0.211 HD
ENDBRANCH   8  25
BRANCH   9  27
ATOM     27  O   UNL     1      -0.173  -3.217   1.580  0.00  0.00    -0.362 OA
ATOM     28  H   UNL     1       0.160  -3.008   2.467  0.00  0.00    +0.213 HD
ENDBRANCH   9  27
BRANCH  14  29
ATOM     29  O   UNL     1      -2.507  -3.135  -0.283  0.00  0.00    -0.376 OA
ATOM     30  H   UNL     1      -2.329  -3.928   0.246  0.00  0.00    +0.211 HD
ENDBRANCH  14  29
BRANCH  16  31
ATOM     31  O   UNL     1       1.028   0.182  -1.810  0.00  0.00    -0.377 OA
ATOM     32  H   UNL     1       0.086   0.046  -1.621  0.00  0.00    +0.211 HD
ENDBRANCH  16  31
BRANCH  17  33
ATOM     33  O   UNL     1      -3.169   1.568  -1.946  0.00  0.00    -0.372 OA
ATOM     34  H   UNL     1      -3.132   0.863  -2.611  0.00  0.00    +0.211 HD
ENDBRANCH  17  33
TORSDOF 5
