138113897
  -OEChem-03292013293D

 56 58  0     1  0  0  0  0  0999 V2000
   -0.9803   -0.5552    0.3991 O   0  0  0  0  0  0  0  0  0  0  0  0
    3.0357   -2.3936   -0.1072 O   0  0  0  0  0  0  0  0  0  0  0  0
    0.7244   -3.7156   -0.2255 O   0  0  0  0  0  0  0  0  0  0  0  0
   -0.3212   -0.5039   -2.5907 O   0  0  0  0  0  0  0  0  0  0  0  0
   -1.8064   -3.3463   -1.5178 O   0  0  0  0  0  0  0  0  0  0  0  0
    1.7800   -0.6019    2.1112 O   0  0  0  0  0  0  0  0  0  0  0  0
   -2.1085    0.5726    2.5171 O   0  0  0  0  0  0  0  0  0  0  0  0
   -4.5989    1.0362   -0.1311 O   0  0  0  0  0  0  0  0  0  0  0  0
    1.5817   -1.0195   -1.3272 N   0  0  0  0  0  0  0  0  0  0  0  0
   -0.4939   -1.6213   -0.4267 C   0  0  2  0  0  0  0  0  0  0  0  0
    0.6179   -2.3957    0.2996 C   0  0  2  0  0  0  0  0  0  0  0  0
    1.8741   -1.5974   -0.0466 C   0  0  1  0  0  0  0  0  0  0  0  0
    0.2161   -0.9815   -1.6032 C   0  0  0  0  0  0  0  0  0  0  0  0
   -1.7331   -2.4012   -0.7482 C   0  0  0  0  0  0  0  0  0  0  0  0
   -2.3361   -0.8027    0.6021 C   0  0  0  0  0  0  0  0  0  0  0  0
   -2.8759   -1.8526   -0.0196 C   0  0  0  0  0  0  0  0  0  0  0  0
    2.1294   -0.4938    0.9380 C   0  0  0  0  0  0  0  0  0  0  0  0
   -3.0240    0.1671    1.4990 C   0  0  2  0  0  0  0  0  0  0  0  0
   -4.2397   -2.4176   -0.0693 C   0  0  0  0  0  0  0  0  0  0  0  0
    2.8176    0.7447    0.4758 C   0  0  0  0  0  0  0  0  0  0  0  0
   -3.5871    1.4215    0.7987 C   0  0  1  0  0  0  0  0  0  0  0  0
    3.3599   -2.9623    1.1594 C   0  0  0  0  0  0  0  0  0  0  0  0
    2.1754    1.9786    0.5786 C   0  0  0  0  0  0  0  0  0  0  0  0
    4.1029    0.6700   -0.0610 C   0  0  0  0  0  0  0  0  0  0  0  0
   -2.5527    2.2217    0.0529 C   0  0  0  0  0  0  0  0  0  0  0  0
    2.8184    3.1378    0.1446 C   0  0  0  0  0  0  0  0  0  0  0  0
    4.7461    1.8292   -0.4949 C   0  0  0  0  0  0  0  0  0  0  0  0
   -2.2948    3.5153    0.2982 C   0  0  0  0  0  0  0  0  0  0  0  0
    4.1038    3.0632   -0.3921 C   0  0  0  0  0  0  0  0  0  0  0  0
   -1.2662    4.3162   -0.4437 C   0  0  0  0  0  0  0  0  0  0  0  0
   -1.8646    4.9880   -1.6697 C   0  0  0  0  0  0  0  0  0  0  0  0
    0.4280   -2.4768    1.3752 H   0  0  0  0  0  0  0  0  0  0  0  0
    2.2840   -0.6352   -1.9515 H   0  0  0  0  0  0  0  0  0  0  0  0
   -3.8493   -0.3484    2.0056 H   0  0  0  0  0  0  0  0  0  0  0  0
   -0.0577   -4.2128    0.0684 H   0  0  0  0  0  0  0  0  0  0  0  0
   -4.6137   -2.4229   -1.0979 H   0  0  0  0  0  0  0  0  0  0  0  0
   -4.9440   -1.8426    0.5385 H   0  0  0  0  0  0  0  0  0  0  0  0
   -4.2399   -3.4471    0.3023 H   0  0  0  0  0  0  0  0  0  0  0  0
   -4.0678    2.0516    1.5577 H   0  0  0  0  0  0  0  0  0  0  0  0
    4.1230   -3.7269    0.9825 H   0  0  0  0  0  0  0  0  0  0  0  0
    2.5159   -3.4544    1.6487 H   0  0  0  0  0  0  0  0  0  0  0  0
    3.8100   -2.2183    1.8231 H   0  0  0  0  0  0  0  0  0  0  0  0
   -2.5881    1.1575    3.1281 H   0  0  0  0  0  0  0  0  0  0  0  0
    1.1725    2.0476    0.9921 H   0  0  0  0  0  0  0  0  0  0  0  0
    4.6244   -0.2792   -0.1414 H   0  0  0  0  0  0  0  0  0  0  0  0
   -2.0061    1.7230   -0.7437 H   0  0  0  0  0  0  0  0  0  0  0  0
   -4.9765    1.8474   -0.5126 H   0  0  0  0  0  0  0  0  0  0  0  0
    2.3175    4.0983    0.2235 H   0  0  0  0  0  0  0  0  0  0  0  0
    5.7476    1.7715   -0.9110 H   0  0  0  0  0  0  0  0  0  0  0  0
   -2.8523    4.0360    1.0725 H   0  0  0  0  0  0  0  0  0  0  0  0
    4.6045    3.9658   -0.7298 H   0  0  0  0  0  0  0  0  0  0  0  0
   -0.4349    3.6724   -0.7544 H   0  0  0  0  0  0  0  0  0  0  0  0
   -0.8433    5.0697    0.2301 H   0  0  0  0  0  0  0  0  0  0  0  0
   -2.6830    5.6611   -1.3924 H   0  0  0  0  0  0  0  0  0  0  0  0
   -1.1014    5.5791   -2.1860 H   0  0  0  0  0  0  0  0  0  0  0  0
   -2.2552    4.2495   -2.3781 H   0  0  0  0  0  0  0  0  0  0  0  0
  1 10  1  0  0  0  0
  1 15  1  0  0  0  0
  2 12  1  0  0  0  0
  2 22  1  0  0  0  0
  3 11  1  0  0  0  0
  3 35  1  0  0  0  0
  4 13  2  0  0  0  0
  5 14  2  0  0  0  0
  6 17  2  0  0  0  0
  7 18  1  0  0  0  0
  7 43  1  0  0  0  0
  8 21  1  0  0  0  0
  8 47  1  0  0  0  0
  9 12  1  0  0  0  0
  9 13  1  0  0  0  0
  9 33  1  0  0  0  0
 10 11  1  0  0  0  0
 10 13  1  0  0  0  0
 10 14  1  0  0  0  0
 11 12  1  0  0  0  0
 11 32  1  0  0  0  0
 12 17  1  0  0  0  0
 14 16  1  0  0  0  0
 15 16  2  0  0  0  0
 15 18  1  0  0  0  0
 16 19  1  0  0  0  0
 17 20  1  0  0  0  0
 18 21  1  0  0  0  0
 18 34  1  0  0  0  0
 19 36  1  0  0  0  0
 19 37  1  0  0  0  0
 19 38  1  0  0  0  0
 20 23  2  0  0  0  0
 20 24  1  0  0  0  0
 21 25  1  0  0  0  0
 21 39  1  0  0  0  0
 22 40  1  0  0  0  0
 22 41  1  0  0  0  0
 22 42  1  0  0  0  0
 23 26  1  0  0  0  0
 23 44  1  0  0  0  0
 24 27  2  0  0  0  0
 24 45  1  0  0  0  0
 25 28  2  3  0  0  0
 25 46  1  0  0  0  0
 26 29  2  0  0  0  0
 26 48  1  0  0  0  0
 27 29  1  0  0  0  0
 27 49  1  0  0  0  0
 28 30  1  0  0  0  0
 28 50  1  0  0  0  0
 29 51  1  0  0  0  0
 30 31  1  0  0  0  0
 30 52  1  0  0  0  0
 30 53  1  0  0  0  0
 31 54  1  0  0  0  0
 31 55  1  0  0  0  0
 31 56  1  0  0  0  0
M  END
> <PUBCHEM_COMPOUND_CID>
138113897

> <PUBCHEM_CONFORMER_RMSD>
1

> <PUBCHEM_CONFORMER_DIVERSEORDER>
1
57
19
151
61
125
10
67
132
94
69
47
139
92
126
45
174
27
163
128
175
182
4
107
77
71
135
120
58
131
20
13
83
39
158
74
37
82
117
165
161
9
23
96
80
81
54
142
59
6
2
26
159
60
73
65
186
147
181
53
68
51
105
38
185
72
164
152
118
115
155
162
25
130
87
17
86
177
91
95
52
63
153
160
48
46
41
112
28
171
110
49
79
55
16
29
15
172
103
98
35
184
141
136
134
137
5
154
145
75
114
104
42
146
180
148
33
36
76
50
31
106
32
150
88
109
43
178
85
11
84
119
22
14
24
113
140
78
149
12
102
138
124
34
18
168
111
133
89
44
166
8
143
127
90
30
129
170
123
64
101
173
157
7
3
122
179
100
176
169
40
70
144
116
56
62
97
99
66
183
93
167
121
21
156
108

> <PUBCHEM_MMFF94_PARTIAL_CHARGES>
41
1 -0.36
10 0.4
11 0.28
12 0.64
13 0.57
14 0.49
15 -0.06
16 -0.12
17 0.42
18 0.42
19 0.14
2 -0.56
20 0.09
21 0.42
22 0.28
23 -0.15
24 -0.15
25 -0.29
26 -0.15
27 -0.15
28 -0.29
29 -0.15
3 -0.68
30 0.14
33 0.37
35 0.4
4 -0.57
43 0.4
44 0.15
45 0.15
46 0.15
47 0.4
48 0.15
49 0.15
5 -0.57
50 0.15
51 0.15
6 -0.57
7 -0.68
8 -0.68
9 -0.73

> <PUBCHEM_EFFECTIVE_ROTOR_COUNT>
7.8

> <PUBCHEM_PHARMACOPHORE_FEATURES>
16
1 1 acceptor
1 2 acceptor
1 3 acceptor
1 3 donor
1 31 hydrophobe
1 4 acceptor
1 5 acceptor
1 6 acceptor
1 7 acceptor
1 7 donor
1 8 acceptor
1 8 donor
1 9 donor
5 1 10 14 15 16 rings
5 9 10 11 12 13 rings
6 20 23 24 26 27 29 rings

> <PUBCHEM_HEAVY_ATOM_COUNT>
31

> <PUBCHEM_ATOM_DEF_STEREO_COUNT>
2

> <PUBCHEM_ATOM_UDEF_STEREO_COUNT>
3

> <PUBCHEM_BOND_DEF_STEREO_COUNT>
0

> <PUBCHEM_BOND_UDEF_STEREO_COUNT>
1

> <PUBCHEM_ISOTOPIC_ATOM_COUNT>
0

> <PUBCHEM_COMPONENT_COUNT>
1

> <PUBCHEM_CACTVS_TAUTO_COUNT>
-1

> <PUBCHEM_CONFORMER_ID>
083B736900000001

> <PUBCHEM_MMFF94_ENERGY>
80.2734

> <PUBCHEM_FEATURE_SELFOVERLAP>
81.243

> <PUBCHEM_SHAPE_FINGERPRINT>
10006869 2 18413101780144060327
10498660 4 18339080492245202665
10670039 82 18265625445315588020
10871710 139 18195531617213997213
11578080 2 17822558448145928189
12156800 1 12047560162441185153
12173636 292 17908983558709666062
12403260 363 18196644091358722411
12539773 59 17052764197031806681
12633257 1 18196659497100438915
12712778 12 14594604974524215537
13122387 1 17977667502527806480
13140716 1 18338812134652281395
13583140 156 18188224091263889307
14251751 93 17987244493982147100
14251757 17 16842797977894844476
14787075 74 17907292509494655667
14955137 171 17830467428500552395
17093844 170 16753242412088693032
17921350 177 18048601417462393296
17974551 9 16809281362723046985
19930381 70 14664145786503185688
20764821 26 17979361862910271397
22907989 373 17917709162538584485
23559900 14 17846226500944063231
238 59 18051673470172772317
392239 28 17976552928428534179
469060 322 18193840581172896505
5081480 168 17127649412880149748

> <PUBCHEM_SHAPE_MULTIPOLES>
586.03
7.72
5.89
1.59
2.39
5.06
-0.06
2.39
0.94
-1.23
-1.79
-0.5
-0.1
-0.8

> <PUBCHEM_SHAPE_SELFOVERLAP>
1260.415

> <PUBCHEM_SHAPE_VOLUME>
323.7

> <PUBCHEM_COORDINATE_TYPE>
2
5
10

$$$$
