138108177
  -OEChem-03292013293D

 63 67  0     1  0  0  0  0  0999 V2000
   -2.5531    3.1200   -0.0357 O   0  0  0  0  0  0  0  0  0  0  0  0
   -2.4680   -0.2470    1.8156 O   0  0  0  0  0  0  0  0  0  0  0  0
   -0.1129    3.0888   -0.6405 O   0  0  0  0  0  0  0  0  0  0  0  0
   -2.0340   -2.1628   -0.3185 O   0  0  0  0  0  0  0  0  0  0  0  0
    2.5141   -0.6909   -2.5362 O   0  0  0  0  0  0  0  0  0  0  0  0
    3.8651   -2.0881    1.1154 O   0  0  0  0  0  0  0  0  0  0  0  0
   -0.8384   -3.8718    0.6748 O   0  0  0  0  0  0  0  0  0  0  0  0
   -0.9744    1.3763    0.9626 C   0  0  2  0  0  0  0  0  0  0  0  0
   -1.8155    0.1104    0.5370 C   0  0  2  0  0  0  0  0  0  0  0  0
    1.3041   -0.4420   -0.3737 C   0  0  1  0  0  0  0  0  0  0  0  0
   -2.0931    2.4204    1.1281 C   0  0  2  0  0  0  0  0  0  0  0  0
    1.0968    1.0876   -0.7555 C   0  0  1  0  0  0  0  0  0  0  0  0
   -2.9949    0.6608   -0.3602 C   0  0  0  0  0  0  0  0  0  0  0  0
   -3.3038    1.9809    0.3452 C   0  0  2  0  0  0  0  0  0  0  0  0
    0.2805    1.9933    0.2185 C   0  0  1  0  0  0  0  0  0  0  0  0
   -1.0930   -1.2055    0.1894 C   0  0  2  0  0  0  0  0  0  0  0  0
    0.0601   -1.2320   -0.7973 C   0  0  0  0  0  0  0  0  0  0  0  0
    2.5481   -0.9173   -1.1399 C   0  0  2  0  0  0  0  0  0  0  0  0
    3.6100   -0.0958   -0.3333 C   0  0  2  0  0  0  0  0  0  0  0  0
    1.7925   -0.7958    1.0935 C   0  0  0  0  0  0  0  0  0  0  0  0
    3.3687   -0.7534    1.0491 C   0  0  1  0  0  0  0  0  0  0  0  0
    2.3850    1.8352   -1.3943 C   0  0  0  0  0  0  0  0  0  0  0  0
    3.7901    1.2002   -1.1234 C   0  0  0  0  0  0  0  0  0  0  0  0
   -2.6443    0.9723   -1.8324 C   0  0  0  0  0  0  0  0  0  0  0  0
   -4.2204   -0.2623   -0.3892 C   0  0  0  0  0  0  0  0  0  0  0  0
    1.1643    2.6641    1.3002 C   0  0  0  0  0  0  0  0  0  0  0  0
    3.9769    0.0544    2.1836 C   0  0  0  0  0  0  0  0  0  0  0  0
   -1.7766   -3.4599    0.0060 C   0  0  0  0  0  0  0  0  0  0  0  0
   -2.8339   -4.3402   -0.5884 C   0  0  0  0  0  0  0  0  0  0  0  0
   -0.6220    1.1558    1.9804 H   0  0  0  0  0  0  0  0  0  0  0  0
   -2.2031    2.8662    2.1033 H   0  0  0  0  0  0  0  0  0  0  0  0
    0.4524    1.0478   -1.6486 H   0  0  0  0  0  0  0  0  0  0  0  0
   -4.2851    2.0956    0.7780 H   0  0  0  0  0  0  0  0  0  0  0  0
   -0.7093   -1.5973    1.1393 H   0  0  0  0  0  0  0  0  0  0  0  0
    0.3661   -2.2750   -0.9574 H   0  0  0  0  0  0  0  0  0  0  0  0
   -0.2915   -0.9236   -1.7901 H   0  0  0  0  0  0  0  0  0  0  0  0
    2.6951   -1.9991   -1.0205 H   0  0  0  0  0  0  0  0  0  0  0  0
    4.5777   -0.5596   -0.5972 H   0  0  0  0  0  0  0  0  0  0  0  0
    1.3765   -0.1141    1.8335 H   0  0  0  0  0  0  0  0  0  0  0  0
    1.4761   -1.8100    1.3665 H   0  0  0  0  0  0  0  0  0  0  0  0
    2.4294    2.8962   -1.1368 H   0  0  0  0  0  0  0  0  0  0  0  0
    2.2413    1.8428   -2.4847 H   0  0  0  0  0  0  0  0  0  0  0  0
    4.3199    1.0497   -2.0719 H   0  0  0  0  0  0  0  0  0  0  0  0
    4.3938    1.8972   -0.5310 H   0  0  0  0  0  0  0  0  0  0  0  0
   -4.0642   -1.1557   -0.9993 H   0  0  0  0  0  0  0  0  0  0  0  0
   -2.4371    0.0505   -2.3863 H   0  0  0  0  0  0  0  0  0  0  0  0
   -1.7670    1.6131   -1.9323 H   0  0  0  0  0  0  0  0  0  0  0  0
   -3.4745    1.4841   -2.3335 H   0  0  0  0  0  0  0  0  0  0  0  0
   -5.0800    0.2643   -0.8232 H   0  0  0  0  0  0  0  0  0  0  0  0
   -4.5346   -0.5770    0.6109 H   0  0  0  0  0  0  0  0  0  0  0  0
    0.5915    3.4398    1.8242 H   0  0  0  0  0  0  0  0  0  0  0  0
    2.0356    3.1816    0.8911 H   0  0  0  0  0  0  0  0  0  0  0  0
    1.5194    1.9589    2.0519 H   0  0  0  0  0  0  0  0  0  0  0  0
   -1.7815   -0.4761    2.4648 H   0  0  0  0  0  0  0  0  0  0  0  0
    0.6166    3.7237   -0.7231 H   0  0  0  0  0  0  0  0  0  0  0  0
    5.0710    0.0206    2.1345 H   0  0  0  0  0  0  0  0  0  0  0  0
    3.6922   -0.3630    3.1556 H   0  0  0  0  0  0  0  0  0  0  0  0
    3.6676    1.1024    2.1522 H   0  0  0  0  0  0  0  0  0  0  0  0
    3.3706   -0.9764   -2.8972 H   0  0  0  0  0  0  0  0  0  0  0  0
    3.6225   -2.4540    1.9831 H   0  0  0  0  0  0  0  0  0  0  0  0
   -2.8251   -4.2463   -1.6772 H   0  0  0  0  0  0  0  0  0  0  0  0
   -3.8127   -4.0671   -0.1859 H   0  0  0  0  0  0  0  0  0  0  0  0
   -2.6278   -5.3820   -0.3266 H   0  0  0  0  0  0  0  0  0  0  0  0
  1 11  1  0  0  0  0
  1 14  1  0  0  0  0
  2  9  1  0  0  0  0
  2 54  1  0  0  0  0
  3 15  1  0  0  0  0
  3 55  1  0  0  0  0
  4 16  1  0  0  0  0
  4 28  1  0  0  0  0
  5 18  1  0  0  0  0
  5 59  1  0  0  0  0
  6 21  1  0  0  0  0
  6 60  1  0  0  0  0
  7 28  2  0  0  0  0
  8  9  1  0  0  0  0
  8 11  1  0  0  0  0
  8 15  1  0  0  0  0
  8 30  1  0  0  0  0
  9 13  1  0  0  0  0
  9 16  1  0  0  0  0
 10 12  1  0  0  0  0
 10 17  1  0  0  0  0
 10 18  1  0  0  0  0
 10 20  1  0  0  0  0
 11 14  1  0  0  0  0
 11 31  1  0  0  0  0
 12 15  1  0  0  0  0
 12 22  1  0  0  0  0
 12 32  1  0  0  0  0
 13 14  1  0  0  0  0
 13 24  1  0  0  0  0
 13 25  1  0  0  0  0
 14 33  1  0  0  0  0
 15 26  1  0  0  0  0
 16 17  1  0  0  0  0
 16 34  1  0  0  0  0
 17 35  1  0  0  0  0
 17 36  1  0  0  0  0
 18 19  1  0  0  0  0
 18 37  1  0  0  0  0
 19 21  1  0  0  0  0
 19 23  1  0  0  0  0
 19 38  1  0  0  0  0
 20 21  1  0  0  0  0
 20 39  1  0  0  0  0
 20 40  1  0  0  0  0
 21 27  1  0  0  0  0
 22 23  1  0  0  0  0
 22 41  1  0  0  0  0
 22 42  1  0  0  0  0
 23 43  1  0  0  0  0
 23 44  1  0  0  0  0
 24 46  1  0  0  0  0
 24 47  1  0  0  0  0
 24 48  1  0  0  0  0
 25 45  1  0  0  0  0
 25 49  1  0  0  0  0
 25 50  1  0  0  0  0
 26 51  1  0  0  0  0
 26 52  1  0  0  0  0
 26 53  1  0  0  0  0
 27 56  1  0  0  0  0
 27 57  1  0  0  0  0
 27 58  1  0  0  0  0
 28 29  1  0  0  0  0
 29 61  1  0  0  0  0
 29 62  1  0  0  0  0
 29 63  1  0  0  0  0
M  END
> <PUBCHEM_COMPOUND_CID>
138108177

> <PUBCHEM_CONFORMER_RMSD>
0.8

> <PUBCHEM_CONFORMER_DIVERSEORDER>
1

> <PUBCHEM_MMFF94_PARTIAL_CHARGES>
24
1 -0.3
11 -0.05
13 0.09
14 -0.05
15 0.28
16 0.28
18 0.28
2 -0.68
21 0.28
28 0.66
29 0.06
3 -0.68
31 0.1
33 0.1
4 -0.43
5 -0.68
54 0.4
55 0.4
59 0.4
6 -0.68
60 0.4
7 -0.57
8 0.09
9 0.28

> <PUBCHEM_EFFECTIVE_ROTOR_COUNT>
4

> <PUBCHEM_PHARMACOPHORE_FEATURES>
14
1 1 acceptor
1 2 acceptor
1 2 donor
1 3 acceptor
1 3 donor
1 5 acceptor
1 5 donor
1 6 acceptor
1 6 donor
1 7 acceptor
3 13 24 25 hydrophobe
6 1 8 9 11 13 14 rings
7 8 9 10 12 15 16 17 rings
8 10 12 18 19 20 21 22 23 rings

> <PUBCHEM_HEAVY_ATOM_COUNT>
29

> <PUBCHEM_ATOM_DEF_STEREO_COUNT>
11

> <PUBCHEM_ATOM_UDEF_STEREO_COUNT>
0

> <PUBCHEM_BOND_DEF_STEREO_COUNT>
0

> <PUBCHEM_BOND_UDEF_STEREO_COUNT>
0

> <PUBCHEM_ISOTOPIC_ATOM_COUNT>
0

> <PUBCHEM_COMPONENT_COUNT>
1

> <PUBCHEM_CACTVS_TAUTO_COUNT>
-1

> <PUBCHEM_CONFORMER_ID>
083B5D1100000001

> <PUBCHEM_MMFF94_ENERGY>
204.3799

> <PUBCHEM_FEATURE_SELFOVERLAP>
71.089

> <PUBCHEM_SHAPE_FINGERPRINT>
10863032 1 17458922482198307344
1100329 8 18339071692411036283
11578080 2 17606932205068976132
11640471 11 17822589260447076420
12156800 1 15974049556648179327
12553582 1 18122632922413857811
12788726 201 18337957921228301187
13083527 12 17763724878018813754
13140716 1 18198621236424538627
13224815 77 18272091535221345612
13583140 156 17313396650684331248
14081887 123 18269542991964254530
14178342 30 18053948346750611385
14223421 5 18053945340093688216
14790565 3 18268447784369157601
14955137 171 15101850623791955609
16728300 4 17534605037561884179
16752209 62 18337961090623515133
16945 1 18343309175194697160
17349148 13 18343012268569082860
20511986 3 17749936817881709064
20600515 1 18340480063616128408
20691752 17 18196107546447590181
20715895 44 17756416072400962485
20775438 99 17769908476154131247
20905425 154 17981046632556131972
21033648 29 18125418840455539824
21421861 104 17904199578895205283
21452121 199 17907853251585934179
22149856 69 17908724843388098441
23184049 29 18195242441234200923
2334 1 17766003083391368993
23419403 2 17548368998742517653
23557571 272 18202283623841651858
23559900 14 17985554351605674932
2748010 2 18052281508660678927
2818148 4 17837241476636469999
4066623 53 17618743245470251143
70251023 43 17907316677212099250
81228 2 18272098222617300907
9709674 26 18201452379902342780

> <PUBCHEM_SHAPE_MULTIPOLES>
555.72
6.81
4.2
1.7
2.01
2.77
0.13
0.99
-0.18
-3.82
-0.3
1.28
-0.19
-0.68

> <PUBCHEM_SHAPE_SELFOVERLAP>
1194.252

> <PUBCHEM_SHAPE_VOLUME>
305.8

> <PUBCHEM_COORDINATE_TYPE>
2
5
10

$$$$
