REMARK  Name = 138113832
REMARK  3 active torsions:
REMARK  status: ('A' for Active; 'I' for Inactive)
REMARK    1  A    between atoms: C_8  and  O_25
REMARK    2  A    between atoms: C_14  and  O_27
REMARK    3  A    between atoms: C_15  and  O_29
REMARK                            x       y       z     vdW  Elec       q    Type
REMARK                         _______ _______ _______ _____ _____    ______ ____
ROOT
ATOM      1  O   UNL     1      -2.195   0.962  -1.948  0.00  0.00    -0.332 OA
ATOM      2  O   UNL     1      -1.132  -2.868  -0.204  0.00  0.00    -0.452 OA
ATOM      3  O   UNL     1      -2.802  -3.838   0.959  0.00  0.00    -0.250 OA
ATOM      4  O   UNL     1       3.571   1.009   2.375  0.00  0.00    -0.289 OA
ATOM      5  C   UNL     1      -1.012  -0.482  -0.467  0.00  0.00    +0.073 C 
ATOM      6  C   UNL     1      -0.116   0.630  -0.999  0.00  0.00    +0.063 C 
ATOM      7  C   UNL     1       1.360   0.641  -0.504  0.00  0.00    +0.040 C 
ATOM      8  C   UNL     1      -1.172   1.714  -1.199  0.00  0.00    +0.213 C 
ATOM      9  C   UNL     1      -0.234  -1.759  -0.198  0.00  0.00    +0.172 C 
ATOM     10  C   UNL     1      -1.760  -0.207   0.867  0.00  0.00    +0.038 C 
ATOM     11  C   UNL     1       1.975  -0.735  -1.068  0.00  0.00    +0.025 C 
ATOM     12  C   UNL     1      -2.041  -0.452  -1.619  0.00  0.00    +0.149 C 
ATOM     13  C   UNL     1       0.955  -1.930  -1.135  0.00  0.00    +0.048 C 
ATOM     14  C   UNL     1      -1.898   2.242   0.049  0.00  0.00    +0.180 C 
ATOM     15  C   UNL     1       1.591   0.710   1.025  0.00  0.00    +0.172 C 
ATOM     16  C   UNL     1      -2.504   1.125   0.879  0.00  0.00    -0.013 C 
ATOM     17  C   UNL     1      -2.615  -1.458   1.207  0.00  0.00    +0.114 C 
ATOM     18  C   UNL     1       2.106   1.828  -1.172  0.00  0.00    +0.003 C 
ATOM     19  C   UNL     1       3.296  -1.140  -0.433  0.00  0.00    -0.041 C 
ATOM     20  C   UNL     1      -2.177  -2.819   0.666  0.00  0.00    +0.317 C 
ATOM     21  C   UNL     1       3.029   0.435   1.432  0.00  0.00    +0.199 C 
ATOM     22  C   UNL     1       3.779  -0.600   0.694  0.00  0.00    +0.031 C 
ATOM     23  C   UNL     1      -3.657   1.336   1.538  0.00  0.00    -0.007 C 
ATOM     24  C   UNL     1       4.123  -2.151  -1.187  0.00  0.00    +0.026 C 
ENDROOT
BRANCH   8  25
ATOM     25  O   UNL     1      -0.717   2.818  -1.965  0.00  0.00    -0.362 OA
ATOM     26  H   UNL     1      -0.257   2.496  -2.756  0.00  0.00    +0.213 HD
ENDBRANCH   8  25
BRANCH  14  27
ATOM     27  O   UNL     1      -1.020   3.000   0.865  0.00  0.00    -0.376 OA
ATOM     28  H   UNL     1      -0.629   3.716   0.341  0.00  0.00    +0.211 HD
ENDBRANCH  14  27
BRANCH  15  29
ATOM     29  O   UNL     1       1.266   1.988   1.543  0.00  0.00    -0.377 OA
ATOM     30  H   UNL     1       0.352   2.209   1.308  0.00  0.00    +0.211 HD
ENDBRANCH  15  29
TORSDOF 3
