REMARK  Name = 138112823
REMARK  5 active torsions:
REMARK  status: ('A' for Active; 'I' for Inactive)
REMARK    1  A    between atoms: C_5  and  O_23
REMARK    2  A    between atoms: C_15  and  O_25
REMARK    3  A    between atoms: C_16  and  O_27
REMARK    4  A    between atoms: C_20  and  O_29
REMARK    5  A    between atoms: C_21  and  O_31
REMARK                            x       y       z     vdW  Elec       q    Type
REMARK                         _______ _______ _______ _____ _____    ______ ____
ROOT
ATOM      1  O   UNL     1      -0.412  -1.877  -2.250  0.00  0.00    -0.289 OA
ATOM      2  O   UNL     1      -3.619   2.693   0.526  0.00  0.00    -0.431 OA
ATOM      3  O   UNL     1      -4.863   0.930  -0.546  0.00  0.00    -0.435 OA
ATOM      4  C   UNL     1       0.446  -3.051   0.691  0.00  0.00    +0.036 C 
ATOM      5  C   UNL     1      -0.847  -3.086  -0.174  0.00  0.00    +0.143 C 
ATOM      6  C   UNL     1       0.588  -1.785   1.567  0.00  0.00    +0.029 C 
ATOM      7  C   UNL     1       1.333  -0.678   0.848  0.00  0.00    -0.016 C 
ATOM      8  C   UNL     1      -0.902  -1.881  -1.124  0.00  0.00    +0.197 C 
ATOM      9  C   UNL     1       0.683   0.322   0.093  0.00  0.00    +0.036 C 
ATOM     10  C   UNL     1       0.578  -4.299   1.582  0.00  0.00    +0.003 C 
ATOM     11  C   UNL     1      -1.546  -0.638  -0.656  0.00  0.00    +0.043 C 
ATOM     12  C   UNL     1      -0.783   0.396  -0.057  0.00  0.00    +0.043 C 
ATOM     13  C   UNL     1      -2.132  -3.300   0.632  0.00  0.00    +0.037 C 
ATOM     14  C   UNL     1       2.741  -0.681   0.928  0.00  0.00    +0.036 C 
ATOM     15  C   UNL     1      -1.464   1.554   0.372  0.00  0.00    +0.176 C 
ATOM     16  C   UNL     1       1.479   1.294  -0.551  0.00  0.00    +0.171 C 
ATOM     17  C   UNL     1      -2.926  -0.516  -0.873  0.00  0.00    +0.043 C 
ATOM     18  C   UNL     1      -2.829   1.642   0.173  0.00  0.00    +0.210 C 
ATOM     19  C   UNL     1      -3.539   0.637  -0.438  0.00  0.00    +0.180 C 
ATOM     20  C   UNL     1       3.502   0.291   0.284  0.00  0.00    +0.175 C 
ATOM     21  C   UNL     1       2.870   1.280  -0.456  0.00  0.00    +0.206 C 
ATOM     22  C   UNL     1      -4.908   2.233   0.070  0.00  0.00    +0.429 C 
ENDROOT
BRANCH   5  23
ATOM     23  O   UNL     1      -0.720  -4.212  -1.059  0.00  0.00    -0.379 OA
ATOM     24  H   UNL     1       0.086  -4.116  -1.591  0.00  0.00    +0.211 HD
ENDBRANCH   5  23
BRANCH  15  25
ATOM     25  O   UNL     1      -0.826   2.573   1.012  0.00  0.00    -0.468 OA
ATOM     26  C   UNL     1      -0.760   2.503   2.435  0.00  0.00    +0.253 C 
ENDBRANCH  15  25
BRANCH  16  27
ATOM     27  O   UNL     1       0.907   2.254  -1.344  0.00  0.00    -0.503 OA
ATOM     28  H   UNL     1      -0.025   2.295  -1.433  0.00  0.00    +0.292 HD
ENDBRANCH  16  27
BRANCH  20  29
ATOM     29  O   UNL     1       4.860   0.256   0.385  0.00  0.00    -0.468 OA
ATOM     30  C   UNL     1       5.564  -0.498  -0.601  0.00  0.00    +0.253 C 
ENDBRANCH  20  29
BRANCH  21  31
ATOM     31  O   UNL     1       3.612   2.227  -1.099  0.00  0.00    -0.465 OA
ATOM     32  C   UNL     1       3.913   3.416  -0.371  0.00  0.00    +0.253 C 
ENDBRANCH  21  31
TORSDOF 5
