REMARK  Name = 13818792
REMARK  7 active torsions:
REMARK  status: ('A' for Active; 'I' for Inactive)
REMARK    1  A    between atoms: C_5  and  C_25
REMARK    2  A    between atoms: C_7  and  O_21
REMARK    3  A    between atoms: C_9  and  O_17
REMARK    4  A    between atoms: C_13  and  O_19
REMARK    5  A    between atoms: O_21  and  C_23
REMARK    6  A    between atoms: C_25  and  O_26
REMARK    7  A    between atoms: O_26  and  C_28
REMARK                            x       y       z     vdW  Elec       q    Type
REMARK                         _______ _______ _______ _____ _____    ______ ____
ROOT
ATOM      1  O   UNL     1       0.413   1.857   2.505  0.00  0.00    -0.351 OA
ATOM      2  O   UNL     1      -0.031   2.474  -0.441  0.00  0.00    -0.349 OA
ATOM      3  C   UNL     1       0.662  -0.010   0.773  0.00  0.00    +0.073 C 
ATOM      4  C   UNL     1       1.044   1.340   1.344  0.00  0.00    +0.151 C 
ATOM      5  C   UNL     1      -0.785   0.138   0.091  0.00  0.00    +0.078 C 
ATOM      6  C   UNL     1       1.239   2.228   0.170  0.00  0.00    +0.173 C 
ATOM      7  C   UNL     1       1.780  -0.105  -0.356  0.00  0.00    +0.200 C 
ATOM      8  C   UNL     1       1.816   1.565   2.626  0.00  0.00    +0.172 C 
ATOM      9  C   UNL     1       2.188   1.361  -0.674  0.00  0.00    +0.180 C 
ATOM     10  C   UNL     1      -0.751   1.328  -0.926  0.00  0.00    +0.140 C 
ATOM     11  C   UNL     1       0.734  -1.165   1.776  0.00  0.00    +0.006 C 
ATOM     12  C   UNL     1      -1.911   0.422   1.140  0.00  0.00    +0.040 C 
ATOM     13  C   UNL     1      -3.299   0.701   0.537  0.00  0.00    +0.129 C 
ATOM     14  C   UNL     1      -2.107   1.836  -1.338  0.00  0.00    -0.003 C 
ATOM     15  C   UNL     1      -3.260   1.544  -0.712  0.00  0.00    -0.020 C 
ATOM     16  C   UNL     1      -4.573   2.082  -1.205  0.00  0.00    +0.029 C 
ENDROOT
BRANCH   9  17
ATOM     17  O   UNL     1       2.113   1.643  -2.058  0.00  0.00    -0.379 OA
ATOM     18  H   UNL     1       2.374   2.564  -2.214  0.00  0.00    +0.211 HD
ENDBRANCH   9  17
BRANCH  13  19
ATOM     19  O   UNL     1      -3.956  -0.538   0.277  0.00  0.00    -0.380 OA
ATOM     20  H   UNL     1      -3.974  -1.071   1.087  0.00  0.00    +0.211 HD
ENDBRANCH  13  19
BRANCH   7  21
ATOM     21  O   UNL     1       2.933  -0.792   0.131  0.00  0.00    -0.450 OA
BRANCH  21  23
ATOM     22  O   UNL     1       4.013  -0.428  -1.878  0.00  0.00    -0.250 OA
ATOM     23  C   UNL     1       3.979  -0.878  -0.741  0.00  0.00    +0.318 C 
ATOM     24  C   UNL     1       5.112  -1.619  -0.098  0.00  0.00    +0.121 C 
ENDBRANCH  21  23
ENDBRANCH   7  21
BRANCH   5  25
ATOM     25  C   UNL     1      -1.165  -1.170  -0.662  0.00  0.00    +0.211 C 
BRANCH  25  26
ATOM     26  O   UNL     1      -1.235  -2.199   0.294  0.00  0.00    -0.448 OA
BRANCH  26  28
ATOM     27  O   UNL     1      -1.792  -3.729  -1.346  0.00  0.00    -0.250 OA
ATOM     28  C   UNL     1      -1.562  -3.448  -0.177  0.00  0.00    +0.318 C 
ATOM     29  C   UNL     1      -1.599  -4.439   0.947  0.00  0.00    +0.121 C 
ENDBRANCH  26  28
ENDBRANCH  25  26
ENDBRANCH   5  25
TORSDOF 7
