REMARK  Name = 138113897
REMARK  10 active torsions:
REMARK  status: ('A' for Active; 'I' for Inactive)
REMARK    1  A    between atoms: C_6  and  O_16
REMARK    2  A    between atoms: C_7  and  O_14
REMARK    3  A    between atoms: C_7  and  C_19
REMARK    4  A    between atoms: C_10  and  C_26
REMARK    5  A    between atoms: C_19  and  C_20
REMARK    6  A    between atoms: C_26  and  O_27
REMARK    7  A    between atoms: C_26  and  C_29
REMARK    8  A    between atoms: C_29  and  O_30
REMARK    9  A    between atoms: C_29  and  C_32
REMARK   10  A    between atoms: C_33  and  C_34
REMARK                            x       y       z     vdW  Elec       q    Type
REMARK                         _______ _______ _______ _____ _____    ______ ____
ROOT
ATOM      1  O   UNL     1      -0.980  -0.555   0.399  0.00  0.00    -0.466 OA
ATOM      2  O   UNL     1      -0.321  -0.504  -2.591  0.00  0.00    -0.271 OA
ATOM      3  O   UNL     1      -1.806  -3.346  -1.518  0.00  0.00    -0.287 OA
ATOM      4  N   UNL     1       1.582  -1.020  -1.327  0.00  0.00    -0.275 N 
ATOM      5  C   UNL     1      -0.494  -1.621  -0.427  0.00  0.00    +0.282 C 
ATOM      6  C   UNL     1       0.618  -2.396   0.300  0.00  0.00    +0.213 C 
ATOM      7  C   UNL     1       1.874  -1.597  -0.047  0.00  0.00    +0.238 C 
ATOM      8  C   UNL     1       0.216  -0.982  -1.603  0.00  0.00    +0.270 C 
ATOM      9  C   UNL     1      -1.733  -2.401  -0.748  0.00  0.00    +0.219 C 
ATOM     10  C   UNL     1      -2.336  -0.803   0.602  0.00  0.00    +0.145 C 
ATOM     11  C   UNL     1      -2.876  -1.853  -0.020  0.00  0.00    +0.049 C 
ATOM     12  C   UNL     1      -4.240  -2.418  -0.069  0.00  0.00    +0.037 C 
ATOM     13  H   UNL     1       2.272  -0.686  -1.945  0.00  0.00    +0.152 HD
ENDROOT
BRANCH   7  14
ATOM     14  O   UNL     1       3.036  -2.394  -0.107  0.00  0.00    -0.331 OA
ATOM     15  C   UNL     1       3.360  -2.962   1.159  0.00  0.00    +0.176 C 
ENDBRANCH   7  14
BRANCH   6  16
ATOM     16  O   UNL     1       0.724  -3.716  -0.226  0.00  0.00    -0.377 OA
ATOM     17  H   UNL     1      -0.075  -4.218  -0.003  0.00  0.00    +0.211 HD
ENDBRANCH   6  16
BRANCH   7  19
ATOM     18  O   UNL     1       1.780  -0.602   2.111  0.00  0.00    -0.287 OA
ATOM     19  C   UNL     1       2.129  -0.494   0.938  0.00  0.00    +0.218 C 
BRANCH  19  20
ATOM     20  C   UNL     1       2.818   0.745   0.476  0.00  0.00    +0.039 C 
ATOM     21  C   UNL     1       2.175   1.979   0.579  0.00  0.00    +0.003 C 
ATOM     22  C   UNL     1       4.103   0.670  -0.061  0.00  0.00    +0.003 C 
ATOM     23  C   UNL     1       2.818   3.138   0.145  0.00  0.00    +0.000 C 
ATOM     24  C   UNL     1       4.746   1.829  -0.495  0.00  0.00    +0.000 C 
ATOM     25  C   UNL     1       4.104   3.063  -0.392  0.00  0.00    +0.000 C 
ENDBRANCH  19  20
ENDBRANCH   7  19
BRANCH  10  26
ATOM     26  C   UNL     1      -3.024   0.167   1.499  0.00  0.00    +0.198 C 
BRANCH  26  27
ATOM     27  O   UNL     1      -2.108   0.573   2.517  0.00  0.00    -0.375 OA
ATOM     28  H   UNL     1      -1.751  -0.212   2.961  0.00  0.00    +0.211 HD
ENDBRANCH  26  27
BRANCH  26  29
ATOM     29  C   UNL     1      -3.587   1.421   0.799  0.00  0.00    +0.166 C 
BRANCH  29  30
ATOM     30  O   UNL     1      -4.599   1.036  -0.131  0.00  0.00    -0.377 OA
ATOM     31  H   UNL     1      -5.279   0.518   0.327  0.00  0.00    +0.211 HD
ENDBRANCH  29  30
BRANCH  29  32
ATOM     32  C   UNL     1      -2.553   2.222   0.053  0.00  0.00    +0.001 C 
ATOM     33  C   UNL     1      -2.295   3.515   0.298  0.00  0.00    -0.028 C 
BRANCH  33  34
ATOM     34  C   UNL     1      -1.266   4.316  -0.444  0.00  0.00    +0.026 C 
ATOM     35  C   UNL     1      -1.865   4.988  -1.670  0.00  0.00    +0.005 C 
ENDBRANCH  33  34
ENDBRANCH  29  32
ENDBRANCH  26  29
ENDBRANCH  10  26
TORSDOF 10
