REMARK  Name = 138112573
REMARK  12 active torsions:
REMARK  status: ('A' for Active; 'I' for Inactive)
REMARK    1  A    between atoms: C_3  and  O_10
REMARK    2  A    between atoms: C_6  and  C_17
REMARK    3  A    between atoms: O_10  and  C_12
REMARK    4  A    between atoms: C_12  and  C_13
REMARK    5  A    between atoms: C_17  and  O_18
REMARK    6  A    between atoms: O_18  and  C_20
REMARK    7  A    between atoms: C_20  and  C_21
REMARK    8  A    between atoms: C_21  and  C_22
REMARK    9  A    between atoms: C_21  and  O_27
REMARK   10  A    between atoms: C_21  and  C_29
REMARK   11  A    between atoms: C_22  and  O_25
REMARK   12  A    between atoms: C_29  and  O_31
REMARK                            x       y       z     vdW  Elec       q    Type
REMARK                         _______ _______ _______ _____ _____    ______ ____
ROOT
ATOM      1  N   UNL     1      -2.711  -2.410  -0.948  0.00  0.00    +0.396 N 
ATOM      2  C   UNL     1      -1.897  -1.420  -0.175  0.00  0.00    +0.006 C 
ATOM      3  C   UNL     1      -2.893  -0.546   0.595  0.00  0.00    +0.152 C 
ATOM      4  C   UNL     1      -4.234  -1.251   0.462  0.00  0.00    +0.019 C 
ATOM      5  C   UNL     1      -4.111  -1.983  -0.863  0.00  0.00    -0.073 C 
ATOM      6  C   UNL     1      -1.008  -2.244   0.708  0.00  0.00    -0.023 C 
ATOM      7  C   UNL     1      -2.469  -3.729  -0.321  0.00  0.00    -0.050 C 
ATOM      8  C   UNL     1      -1.327  -3.537   0.616  0.00  0.00    -0.056 C 
ATOM      9  H   UNL     1      -2.465  -2.471  -1.936  0.00  0.00    -0.079 HD
ENDROOT
BRANCH   3  10
ATOM     10  O   UNL     1      -2.962   0.748  -0.001  0.00  0.00    -0.451 OA
BRANCH  10  12
ATOM     11  O   UNL     1      -1.364   1.530   1.461  0.00  0.00    -0.245 OA
ATOM     12  C   UNL     1      -2.139   1.702   0.531  0.00  0.00    +0.337 C 
BRANCH  12  13
ATOM     13  C   UNL     1      -2.327   2.998  -0.190  0.00  0.00    +0.049 C 
ATOM     14  C   UNL     1      -3.294   3.041  -1.336  0.00  0.00    +0.037 C 
ATOM     15  C   UNL     1      -1.574   4.026   0.243  0.00  0.00    -0.024 C 
ATOM     16  C   UNL     1      -1.570   5.428  -0.278  0.00  0.00    +0.031 C 
ENDBRANCH  12  13
ENDBRANCH  10  12
ENDBRANCH   3  10
BRANCH   6  17
ATOM     17  C   UNL     1       0.076  -1.643   1.527  0.00  0.00    +0.229 C 
BRANCH  17  18
ATOM     18  O   UNL     1       1.002  -0.946   0.688  0.00  0.00    -0.442 OA
BRANCH  18  20
ATOM     19  O   UNL     1       2.690  -1.409   2.175  0.00  0.00    -0.247 OA
ATOM     20  C   UNL     1       2.290  -0.903   1.133  0.00  0.00    +0.346 C 
BRANCH  20  21
ATOM     21  C   UNL     1       3.184  -0.125   0.154  0.00  0.00    +0.225 C 
BRANCH  21  22
ATOM     22  C   UNL     1       2.904   1.414   0.200  0.00  0.00    +0.123 C 
ATOM     23  C   UNL     1       3.772   2.189  -0.809  0.00  0.00    +0.032 C 
ATOM     24  C   UNL     1       3.156   2.000   1.600  0.00  0.00    +0.032 C 
BRANCH  22  25
ATOM     25  O   UNL     1       1.538   1.674  -0.130  0.00  0.00    -0.384 OA
ATOM     26  H   UNL     1       1.344   1.317  -1.011  0.00  0.00    +0.210 HD
ENDBRANCH  22  25
ENDBRANCH  21  22
BRANCH  21  27
ATOM     27  O   UNL     1       4.512  -0.311   0.691  0.00  0.00    -0.373 OA
ATOM     28  H   UNL     1       5.155   0.151   0.132  0.00  0.00    +0.211 HD
ENDBRANCH  21  27
BRANCH  21  29
ATOM     29  C   UNL     1       3.205  -0.780  -1.256  0.00  0.00    +0.152 C 
ATOM     30  C   UNL     1       3.647  -2.234  -1.361  0.00  0.00    +0.035 C 
BRANCH  29  31
ATOM     31  O   UNL     1       1.905  -0.670  -1.853  0.00  0.00    -0.351 OA
ATOM     32  C   UNL     1       1.997  -0.606  -3.265  0.00  0.00    +0.174 C 
ENDBRANCH  29  31
ENDBRANCH  21  29
ENDBRANCH  20  21
ENDBRANCH  18  20
ENDBRANCH  17  18
ENDBRANCH   6  17
TORSDOF 12
