REMARK  Name = 138108177
REMARK  6 active torsions:
REMARK  status: ('A' for Active; 'I' for Inactive)
REMARK    1  A    between atoms: C_3  and  O_22
REMARK    2  A    between atoms: C_9  and  O_24
REMARK    3  A    between atoms: C_10  and  O_30
REMARK    4  A    between atoms: C_12  and  O_26
REMARK    5  A    between atoms: C_15  and  O_28
REMARK    6  A    between atoms: O_30  and  C_32
REMARK                            x       y       z     vdW  Elec       q    Type
REMARK                         _______ _______ _______ _____ _____    ______ ____
ROOT
ATOM      1  O   UNL     1      -2.553   3.120  -0.036  0.00  0.00    -0.354 OA
ATOM      2  C   UNL     1      -0.974   1.376   0.963  0.00  0.00    +0.082 C 
ATOM      3  C   UNL     1      -1.815   0.110   0.537  0.00  0.00    +0.131 C 
ATOM      4  C   UNL     1       1.304  -0.442  -0.374  0.00  0.00    +0.033 C 
ATOM      5  C   UNL     1      -2.093   2.420   1.128  0.00  0.00    +0.147 C 
ATOM      6  C   UNL     1       1.097   1.088  -0.755  0.00  0.00    +0.027 C 
ATOM      7  C   UNL     1      -2.995   0.661  -0.360  0.00  0.00    +0.053 C 
ATOM      8  C   UNL     1      -3.304   1.981   0.345  0.00  0.00    +0.144 C 
ATOM      9  C   UNL     1       0.281   1.993   0.218  0.00  0.00    +0.093 C 
ATOM     10  C   UNL     1      -1.093  -1.206   0.189  0.00  0.00    +0.193 C 
ATOM     11  C   UNL     1       0.060  -1.232  -0.797  0.00  0.00    +0.049 C 
ATOM     12  C   UNL     1       2.548  -0.917  -1.140  0.00  0.00    +0.113 C 
ATOM     13  C   UNL     1       3.610  -0.096  -0.333  0.00  0.00    +0.052 C 
ATOM     14  C   UNL     1       1.792  -0.796   1.093  0.00  0.00    +0.030 C 
ATOM     15  C   UNL     1       3.369  -0.753   1.049  0.00  0.00    +0.091 C 
ATOM     16  C   UNL     1       2.385   1.835  -1.394  0.00  0.00    +0.003 C 
ATOM     17  C   UNL     1       3.790   1.200  -1.123  0.00  0.00    +0.005 C 
ATOM     18  C   UNL     1      -2.644   0.972  -1.832  0.00  0.00    +0.005 C 
ATOM     19  C   UNL     1      -4.220  -0.262  -0.389  0.00  0.00    +0.005 C 
ATOM     20  C   UNL     1       1.164   2.664   1.300  0.00  0.00    +0.029 C 
ATOM     21  C   UNL     1       3.977   0.054   2.184  0.00  0.00    +0.029 C 
ENDROOT
BRANCH   3  22
ATOM     22  O   UNL     1      -2.468  -0.247   1.816  0.00  0.00    -0.383 OA
ATOM     23  H   UNL     1      -2.967   0.515   2.148  0.00  0.00    +0.210 HD
ENDBRANCH   3  22
BRANCH   9  24
ATOM     24  O   UNL     1      -0.113   3.089  -0.640  0.00  0.00    -0.387 OA
ATOM     25  H   UNL     1      -0.676   2.753  -1.355  0.00  0.00    +0.210 HD
ENDBRANCH   9  24
BRANCH  12  26
ATOM     26  O   UNL     1       2.514  -0.691  -2.536  0.00  0.00    -0.384 OA
ATOM     27  H   UNL     1       1.826  -1.245  -2.937  0.00  0.00    +0.210 HD
ENDBRANCH  12  26
BRANCH  15  28
ATOM     28  O   UNL     1       3.865  -2.088   1.115  0.00  0.00    -0.387 OA
ATOM     29  H   UNL     1       3.482  -2.612   0.394  0.00  0.00    +0.210 HD
ENDBRANCH  15  28
BRANCH  10  30
ATOM     30  O   UNL     1      -2.034  -2.163  -0.319  0.00  0.00    -0.450 OA
BRANCH  30  32
ATOM     31  O   UNL     1      -0.838  -3.872   0.675  0.00  0.00    -0.250 OA
ATOM     32  C   UNL     1      -1.777  -3.460   0.006  0.00  0.00    +0.318 C 
ATOM     33  C   UNL     1      -2.834  -4.340  -0.588  0.00  0.00    +0.121 C 
ENDBRANCH  30  32
ENDBRANCH  10  30
TORSDOF 6
