REMARK  Name = 138113521
REMARK  8 active torsions:
REMARK  status: ('A' for Active; 'I' for Inactive)
REMARK    1  A    between atoms: C_1  and  N_2
REMARK    2  A    between atoms: C_1  and  C_6
REMARK    3  A    between atoms: C_1  and  C_14
REMARK    4  A    between atoms: C_1  and  C_17
REMARK    5  A    between atoms: C_7  and  C_10
REMARK    6  A    between atoms: C_10  and  O_11
REMARK    7  A    between atoms: C_14  and  O_15
REMARK    8  A    between atoms: C_17  and  C_19
REMARK                            x       y       z     vdW  Elec       q    Type
REMARK                         _______ _______ _______ _____ _____    ______ ____
ROOT
ATOM      1  C   UNL     1      -1.794   0.835  -0.859  0.00  0.00    +0.047 C 
ENDROOT
BRANCH   1   2
ATOM      2  N   UNL     1      -1.616   2.288  -0.776  0.00  0.00    +0.390 N 
ATOM      3  H   UNL     1      -0.969   2.508  -0.019  0.00  0.00    -0.088 HD
ATOM      4  H   UNL     1      -2.517   2.731  -0.594  0.00  0.00    -0.088 HD
ATOM      5  H   UNL     1      -1.239   2.635  -1.658  0.00  0.00    -0.088 HD
ENDBRANCH   1   2
BRANCH   1   6
ATOM      6  C   UNL     1      -2.382   0.378   0.465  0.00  0.00    +0.003 C 
ATOM      7  C   UNL     1      -2.651  -1.085   0.711  0.00  0.00    +0.097 C 
ATOM      8  C   UNL     1      -3.797  -0.123   0.529  0.00  0.00    +0.010 C 
BRANCH   7  10
ATOM      9  O   UNL     1      -2.547  -1.005   3.069  0.00  0.00    -0.250 OA
ATOM     10  C   UNL     1      -2.386  -1.645   2.041  0.00  0.00    +0.313 C 
BRANCH  10  11
ATOM     11  O   UNL     1      -1.953  -2.928   1.984  0.00  0.00    -0.480 OA
ATOM     12  H   UNL     1      -1.855  -3.353   1.155  0.00  0.00    +0.295 HD
ENDBRANCH  10  11
ENDBRANCH   7  10
ENDBRANCH   1   6
BRANCH   1  14
ATOM     13  O   UNL     1      -2.788  -0.498  -2.649  0.00  0.00    -0.253 OA
ATOM     14  C   UNL     1      -2.771   0.546  -2.006  0.00  0.00    +0.295 C 
BRANCH  14  15
ATOM     15  O   UNL     1      -3.654   1.550  -2.246  0.00  0.00    -0.482 OA
ATOM     16  H   UNL     1      -3.618   2.337  -1.739  0.00  0.00    +0.295 HD
ENDBRANCH  14  15
ENDBRANCH   1  14
BRANCH   1  17
ATOM     17  C   UNL     1      -0.463   0.111  -1.159  0.00  0.00    +0.017 C 
BRANCH  17  19
ATOM     18  O   UNL     1       3.313   0.381  -0.381  0.00  0.00    -0.470 OA
ATOM     19  C   UNL     1       0.460  -0.081   0.051  0.00  0.00    -0.021 C 
ATOM     20  C   UNL     1       1.155   1.215   0.396  0.00  0.00    +0.030 C 
ATOM     21  C   UNL     1       1.452  -1.190  -0.213  0.00  0.00    +0.018 C 
ATOM     22  C   UNL     1       2.522   1.375   0.145  0.00  0.00    +0.139 C 
ATOM     23  C   UNL     1       2.803  -0.895  -0.430  0.00  0.00    +0.210 C 
ATOM     24  C   UNL     1       0.440   2.284   0.956  0.00  0.00    +0.003 C 
ATOM     25  C   UNL     1       1.034  -2.528  -0.263  0.00  0.00    -0.001 C 
ATOM     26  C   UNL     1       3.160   2.586   0.427  0.00  0.00    +0.037 C 
ATOM     27  C   UNL     1       3.716  -1.915  -0.713  0.00  0.00    +0.021 C 
ATOM     28  C   UNL     1       1.078   3.490   1.246  0.00  0.00    +0.000 C 
ATOM     29  C   UNL     1       1.947  -3.547  -0.537  0.00  0.00    -0.000 C 
ATOM     30  C   UNL     1       2.437   3.642   0.978  0.00  0.00    +0.003 C 
ATOM     31  C   UNL     1       3.287  -3.240  -0.766  0.00  0.00    -0.001 C 
ENDBRANCH  17  19
ENDBRANCH   1  17
TORSDOF 8
