138107194
  -OEChem-03292013293D

 58 61  0     1  0  0  0  0  0999 V2000
   -2.5961   -0.7190   -1.1741 O   0  0  0  0  0  0  0  0  0  0  0  0
    0.6456   -0.3024    2.8908 O   0  0  0  0  0  0  0  0  0  0  0  0
    0.8181   -0.3960   -1.4013 O   0  0  0  0  0  0  0  0  0  0  0  0
    3.5289   -1.0296   -2.2405 O   0  0  0  0  0  0  0  0  0  0  0  0
   -4.7844   -1.0883   -0.5444 O   0  0  0  0  0  0  0  0  0  0  0  0
    2.3892    4.2462   -1.3149 O   0  0  0  0  0  0  0  0  0  0  0  0
   -1.3034    1.0262    0.0518 C   0  0  1  0  0  0  0  0  0  0  0  0
   -2.2839   -0.1123    0.0968 C   0  0  1  0  0  0  0  0  0  0  0  0
   -2.7809    1.3152    0.3100 C   0  0  0  0  0  0  0  0  0  0  0  0
   -0.2283    1.0870    1.1214 C   0  0  1  0  0  0  0  0  0  0  0  0
    0.4205   -0.3237    1.4587 C   0  0  2  0  0  0  0  0  0  0  0  0
   -2.0349   -1.1133    1.1809 C   0  0  0  0  0  0  0  0  0  0  0  0
   -0.5492   -1.5393    1.1616 C   0  0  2  0  0  0  0  0  0  0  0  0
   -3.5381    1.9853   -0.8176 C   0  0  0  0  0  0  0  0  0  0  0  0
   -3.2810    1.7554    1.6637 C   0  0  0  0  0  0  0  0  0  0  0  0
    1.8490   -0.4680    0.8522 C   0  0  2  0  0  0  0  0  0  0  0  0
    0.6997    2.2701    0.8957 C   0  0  0  0  0  0  0  0  0  0  0  0
    1.9679   -0.0823   -0.6329 C   0  0  2  0  0  0  0  0  0  0  0  0
   -0.4145   -2.7354    2.1203 C   0  0  0  0  0  0  0  0  0  0  0  0
    2.3925    1.3723   -0.8272 C   0  0  0  0  0  0  0  0  0  0  0  0
    1.7613    2.4151    0.0775 C   0  0  0  0  0  0  0  0  0  0  0  0
    2.5341   -1.8070    0.9206 C   0  0  0  0  0  0  0  0  0  0  0  0
    2.9840   -1.0773   -1.1472 C   0  0  0  0  0  0  0  0  0  0  0  0
   -3.8772   -1.1617   -1.3619 C   0  0  0  0  0  0  0  0  0  0  0  0
    3.2019   -2.1661   -0.1793 C   0  0  0  0  0  0  0  0  0  0  0  0
    2.4554    3.7557    0.0070 C   0  0  0  0  0  0  0  0  0  0  0  0
   -4.0218   -1.7555   -2.7298 C   0  0  0  0  0  0  0  0  0  0  0  0
    4.0457   -3.3513   -0.4379 C   0  0  0  0  0  0  0  0  0  0  0  0
   -0.9216    1.3059   -0.9253 H   0  0  0  0  0  0  0  0  0  0  0  0
   -0.7337    1.3701    2.0540 H   0  0  0  0  0  0  0  0  0  0  0  0
   -2.6759   -1.9893    1.0235 H   0  0  0  0  0  0  0  0  0  0  0  0
   -2.2949   -0.7331    2.1730 H   0  0  0  0  0  0  0  0  0  0  0  0
   -0.3392   -1.9124    0.1520 H   0  0  0  0  0  0  0  0  0  0  0  0
   -4.3521    1.5426    1.7521 H   0  0  0  0  0  0  0  0  0  0  0  0
   -3.1405    2.8356    1.7801 H   0  0  0  0  0  0  0  0  0  0  0  0
   -2.7888    1.2724    2.5093 H   0  0  0  0  0  0  0  0  0  0  0  0
   -4.5984    1.7151   -0.7840 H   0  0  0  0  0  0  0  0  0  0  0  0
   -3.1480    1.7211   -1.8060 H   0  0  0  0  0  0  0  0  0  0  0  0
   -3.4633    3.0741   -0.7221 H   0  0  0  0  0  0  0  0  0  0  0  0
    2.5271    0.1702    1.4419 H   0  0  0  0  0  0  0  0  0  0  0  0
    0.3979    3.1490    1.4682 H   0  0  0  0  0  0  0  0  0  0  0  0
   -0.6836   -2.4612    3.1460 H   0  0  0  0  0  0  0  0  0  0  0  0
    0.5912   -3.1538    2.1338 H   0  0  0  0  0  0  0  0  0  0  0  0
   -1.0858   -3.5459    1.8136 H   0  0  0  0  0  0  0  0  0  0  0  0
    1.1748    0.4846    3.1055 H   0  0  0  0  0  0  0  0  0  0  0  0
    2.2132    1.6688   -1.8688 H   0  0  0  0  0  0  0  0  0  0  0  0
    3.4795    1.4280   -0.6729 H   0  0  0  0  0  0  0  0  0  0  0  0
    2.5781   -2.3837    1.8350 H   0  0  0  0  0  0  0  0  0  0  0  0
    0.9736   -0.1140   -2.3189 H   0  0  0  0  0  0  0  0  0  0  0  0
    3.5065    3.6500    0.2967 H   0  0  0  0  0  0  0  0  0  0  0  0
    1.9983    4.4972    0.6708 H   0  0  0  0  0  0  0  0  0  0  0  0
   -3.3392   -2.6019   -2.8398 H   0  0  0  0  0  0  0  0  0  0  0  0
   -5.0464   -2.1143   -2.8632 H   0  0  0  0  0  0  0  0  0  0  0  0
   -3.8170   -0.9942   -3.4866 H   0  0  0  0  0  0  0  0  0  0  0  0
    3.6426   -3.9327   -1.2730 H   0  0  0  0  0  0  0  0  0  0  0  0
    4.0932   -4.0070    0.4374 H   0  0  0  0  0  0  0  0  0  0  0  0
    5.0673   -3.0490   -0.6883 H   0  0  0  0  0  0  0  0  0  0  0  0
    2.8637    5.0948   -1.3320 H   0  0  0  0  0  0  0  0  0  0  0  0
  1  8  1  0  0  0  0
  1 24  1  0  0  0  0
  2 11  1  0  0  0  0
  2 45  1  0  0  0  0
  3 18  1  0  0  0  0
  3 49  1  0  0  0  0
  4 23  2  0  0  0  0
  5 24  2  0  0  0  0
  6 26  1  0  0  0  0
  6 58  1  0  0  0  0
  7  8  1  0  0  0  0
  7  9  1  0  0  0  0
  7 10  1  0  0  0  0
  7 29  1  0  0  0  0
  8  9  1  0  0  0  0
  8 12  1  0  0  0  0
  9 14  1  0  0  0  0
  9 15  1  0  0  0  0
 10 11  1  0  0  0  0
 10 17  1  0  0  0  0
 10 30  1  0  0  0  0
 11 13  1  0  0  0  0
 11 16  1  0  0  0  0
 12 13  1  0  0  0  0
 12 31  1  0  0  0  0
 12 32  1  0  0  0  0
 13 19  1  0  0  0  0
 13 33  1  0  0  0  0
 14 37  1  0  0  0  0
 14 38  1  0  0  0  0
 14 39  1  0  0  0  0
 15 34  1  0  0  0  0
 15 35  1  0  0  0  0
 15 36  1  0  0  0  0
 16 18  1  0  0  0  0
 16 22  1  0  0  0  0
 16 40  1  0  0  0  0
 17 21  2  0  0  0  0
 17 41  1  0  0  0  0
 18 20  1  0  0  0  0
 18 23  1  0  0  0  0
 19 42  1  0  0  0  0
 19 43  1  0  0  0  0
 19 44  1  0  0  0  0
 20 21  1  0  0  0  0
 20 46  1  0  0  0  0
 20 47  1  0  0  0  0
 21 26  1  0  0  0  0
 22 25  2  0  0  0  0
 22 48  1  0  0  0  0
 23 25  1  0  0  0  0
 24 27  1  0  0  0  0
 25 28  1  0  0  0  0
 26 50  1  0  0  0  0
 26 51  1  0  0  0  0
 27 52  1  0  0  0  0
 27 53  1  0  0  0  0
 27 54  1  0  0  0  0
 28 55  1  0  0  0  0
 28 56  1  0  0  0  0
 28 57  1  0  0  0  0
M  END
> <PUBCHEM_COMPOUND_CID>
138107194

> <PUBCHEM_CONFORMER_RMSD>
0.8

> <PUBCHEM_CONFORMER_DIVERSEORDER>
1
2

> <PUBCHEM_MMFF94_PARTIAL_CHARGES>
32
1 -0.3
10 0.23
11 0.28
12 0.09
14 0.09
15 0.09
16 0.14
17 -0.29
18 0.34
2 -0.68
20 0.14
21 -0.28
22 -0.29
23 0.49
24 0.66
25 -0.12
26 0.42
27 0.06
28 0.14
29 0.1
3 -0.68
4 -0.57
41 0.15
45 0.4
48 0.15
49 0.4
5 -0.57
58 0.4
6 -0.68
7 -0.19
8 0.05
9 -0.19

> <PUBCHEM_EFFECTIVE_ROTOR_COUNT>
3.8

> <PUBCHEM_PHARMACOPHORE_FEATURES>
12
1 2 acceptor
1 2 donor
1 3 acceptor
1 3 donor
1 4 acceptor
1 5 acceptor
1 6 acceptor
1 6 donor
3 9 14 15 hydrophobe
5 16 18 22 23 25 rings
7 10 11 16 17 18 20 21 rings
7 7 8 9 10 11 12 13 rings

> <PUBCHEM_HEAVY_ATOM_COUNT>
28

> <PUBCHEM_ATOM_DEF_STEREO_COUNT>
7

> <PUBCHEM_ATOM_UDEF_STEREO_COUNT>
0

> <PUBCHEM_BOND_DEF_STEREO_COUNT>
0

> <PUBCHEM_BOND_UDEF_STEREO_COUNT>
0

> <PUBCHEM_ISOTOPIC_ATOM_COUNT>
0

> <PUBCHEM_COMPONENT_COUNT>
1

> <PUBCHEM_CACTVS_TAUTO_COUNT>
-1

> <PUBCHEM_CONFORMER_ID>
083B593A00000001

> <PUBCHEM_MMFF94_ENERGY>
82.345

> <PUBCHEM_FEATURE_SELFOVERLAP>
60.937

> <PUBCHEM_SHAPE_FINGERPRINT>
10764073 3 14426497957255810524
10863032 1 17631999876038526162
11578080 2 17680451105577911117
12156800 1 11754463584011006802
12553582 1 18122642569231482180
12788726 201 17758970216679457666
13004483 165 17906168447959448306
13009979 54 17917436367258314664
13149001 5 18041011643304044706
13383661 66 15689298383342970870
14739800 52 12973882666833549503
14955137 171 18047492040236482929
15163728 17 17534070945272204220
1601671 61 17761499084554502465
16945 1 17676771959462224490
17980427 23 18267843108475847776
18981168 100 16515683368494223569
20600515 1 17630040456255644632
20626108 58 18201425935873603670
20691752 17 18187080646125316145
20775438 99 18050266357472660759
20775530 9 16988572259912851543
21452121 199 18059562603266133576
21634736 98 18413389825993439561
22182313 1 17823706463198262123
23419403 2 15663081705346831951
23559900 14 18263360455456291840
238 59 18124596645959386308
2748010 2 17040913738117191049
340366 18 18200878349213242685
404807 78 16676649920976428919
4409770 3 17183627036024960528
463206 1 18191872218978610051
484985 159 14539758388245487422
5262128 65 18342457040935198037
70251023 43 18341039779617684647
81228 2 17765175885976241624
9981440 41 17978504557578557960

> <PUBCHEM_SHAPE_MULTIPOLES>
541.01
7.2
3.98
2.19
3.78
2.97
-0.01
-3.21
4.07
-3.36
0.56
0.81
-1.03
-1.23

> <PUBCHEM_SHAPE_SELFOVERLAP>
1158.987

> <PUBCHEM_SHAPE_VOLUME>
297.8

> <PUBCHEM_COORDINATE_TYPE>
2
5
10

$$$$
