13818792
  -OEChem-03292013303D

 53 56  0     1  0  0  0  0  0999 V2000
    0.4132    1.8572    2.5045 O   0  0  0  0  0  0  0  0  0  0  0  0
   -0.0310    2.4745   -0.4411 O   0  0  0  0  0  0  0  0  0  0  0  0
    2.9328   -0.7919    0.1312 O   0  0  0  0  0  0  0  0  0  0  0  0
    2.1127    1.6427   -2.0575 O   0  0  0  0  0  0  0  0  0  0  0  0
   -1.2354   -2.1992    0.2939 O   0  0  0  0  0  0  0  0  0  0  0  0
   -3.9559   -0.5380    0.2768 O   0  0  0  0  0  0  0  0  0  0  0  0
    4.0129   -0.4278   -1.8782 O   0  0  0  0  0  0  0  0  0  0  0  0
   -1.7919   -3.7288   -1.3457 O   0  0  0  0  0  0  0  0  0  0  0  0
    0.6623   -0.0100    0.7728 C   0  0  1  0  0  0  0  0  0  0  0  0
    1.0443    1.3401    1.3436 C   0  0  1  0  0  0  0  0  0  0  0  0
   -0.7847    0.1381    0.0913 C   0  0  2  0  0  0  0  0  0  0  0  0
    1.2394    2.2283    0.1696 C   0  0  1  0  0  0  0  0  0  0  0  0
    1.7796   -0.1051   -0.3557 C   0  0  1  0  0  0  0  0  0  0  0  0
    1.8159    1.5645    2.6264 C   0  0  0  0  0  0  0  0  0  0  0  0
    2.1877    1.3608   -0.6741 C   0  0  1  0  0  0  0  0  0  0  0  0
   -0.7509    1.3284   -0.9259 C   0  0  1  0  0  0  0  0  0  0  0  0
    0.7337   -1.1651    1.7765 C   0  0  0  0  0  0  0  0  0  0  0  0
   -1.9106    0.4225    1.1402 C   0  0  0  0  0  0  0  0  0  0  0  0
   -1.1648   -1.1697   -0.6618 C   0  0  0  0  0  0  0  0  0  0  0  0
   -3.2993    0.7005    0.5373 C   0  0  1  0  0  0  0  0  0  0  0  0
   -2.1075    1.8362   -1.3377 C   0  0  0  0  0  0  0  0  0  0  0  0
   -3.2600    1.5444   -0.7115 C   0  0  0  0  0  0  0  0  0  0  0  0
    3.9792   -0.8782   -0.7411 C   0  0  0  0  0  0  0  0  0  0  0  0
   -4.5730    2.0823   -1.2054 C   0  0  0  0  0  0  0  0  0  0  0  0
   -1.5617   -3.4482   -0.1772 C   0  0  0  0  0  0  0  0  0  0  0  0
    5.1118   -1.6195   -0.0980 C   0  0  0  0  0  0  0  0  0  0  0  0
   -1.5988   -4.4390    0.9467 C   0  0  0  0  0  0  0  0  0  0  0  0
    1.6880    3.1968    0.4110 H   0  0  0  0  0  0  0  0  0  0  0  0
    1.4333   -0.6397   -1.2429 H   0  0  0  0  0  0  0  0  0  0  0  0
    2.0882    0.7424    3.2711 H   0  0  0  0  0  0  0  0  0  0  0  0
    2.4939    2.4077    2.6816 H   0  0  0  0  0  0  0  0  0  0  0  0
    3.2130    1.5687   -0.3424 H   0  0  0  0  0  0  0  0  0  0  0  0
   -0.2669    0.9942   -1.8510 H   0  0  0  0  0  0  0  0  0  0  0  0
    1.6606   -1.1289    2.3591 H   0  0  0  0  0  0  0  0  0  0  0  0
   -0.0776   -1.1452    2.5081 H   0  0  0  0  0  0  0  0  0  0  0  0
    0.7709   -2.1420    1.2886 H   0  0  0  0  0  0  0  0  0  0  0  0
   -1.6571    1.3182    1.7124 H   0  0  0  0  0  0  0  0  0  0  0  0
   -1.9968   -0.3964    1.8622 H   0  0  0  0  0  0  0  0  0  0  0  0
   -0.4196   -1.4292   -1.4191 H   0  0  0  0  0  0  0  0  0  0  0  0
   -2.1160   -1.0816   -1.1952 H   0  0  0  0  0  0  0  0  0  0  0  0
   -3.8911    1.2158    1.3043 H   0  0  0  0  0  0  0  0  0  0  0  0
   -2.1271    2.4762   -2.2173 H   0  0  0  0  0  0  0  0  0  0  0  0
    2.6961    1.0178   -2.5195 H   0  0  0  0  0  0  0  0  0  0  0  0
   -4.4495    2.7444   -2.0689 H   0  0  0  0  0  0  0  0  0  0  0  0
   -5.0685    2.6578   -0.4168 H   0  0  0  0  0  0  0  0  0  0  0  0
   -5.2342    1.2646   -1.5086 H   0  0  0  0  0  0  0  0  0  0  0  0
   -4.8873   -0.3466    0.0752 H   0  0  0  0  0  0  0  0  0  0  0  0
    4.7922   -2.6320    0.1611 H   0  0  0  0  0  0  0  0  0  0  0  0
    5.4481   -1.0817    0.7920 H   0  0  0  0  0  0  0  0  0  0  0  0
    5.9470   -1.6868   -0.8011 H   0  0  0  0  0  0  0  0  0  0  0  0
   -2.3318   -4.1233    1.6934 H   0  0  0  0  0  0  0  0  0  0  0  0
   -0.6061   -4.5263    1.3949 H   0  0  0  0  0  0  0  0  0  0  0  0
   -1.8964   -5.4174    0.5590 H   0  0  0  0  0  0  0  0  0  0  0  0
  1 10  1  0  0  0  0
  1 14  1  0  0  0  0
  2 12  1  0  0  0  0
  2 16  1  0  0  0  0
  3 13  1  0  0  0  0
  3 23  1  0  0  0  0
  4 15  1  0  0  0  0
  4 43  1  0  0  0  0
  5 19  1  0  0  0  0
  5 25  1  0  0  0  0
  6 20  1  0  0  0  0
  6 47  1  0  0  0  0
  7 23  2  0  0  0  0
  8 25  2  0  0  0  0
  9 10  1  0  0  0  0
  9 11  1  0  0  0  0
  9 13  1  0  0  0  0
  9 17  1  0  0  0  0
 10 12  1  0  0  0  0
 10 14  1  0  0  0  0
 11 16  1  0  0  0  0
 11 18  1  0  0  0  0
 11 19  1  0  0  0  0
 12 15  1  0  0  0  0
 12 28  1  0  0  0  0
 13 15  1  0  0  0  0
 13 29  1  0  0  0  0
 14 30  1  0  0  0  0
 14 31  1  0  0  0  0
 15 32  1  0  0  0  0
 16 21  1  0  0  0  0
 16 33  1  0  0  0  0
 17 34  1  0  0  0  0
 17 35  1  0  0  0  0
 17 36  1  0  0  0  0
 18 20  1  0  0  0  0
 18 37  1  0  0  0  0
 18 38  1  0  0  0  0
 19 39  1  0  0  0  0
 19 40  1  0  0  0  0
 20 22  1  0  0  0  0
 20 41  1  0  0  0  0
 21 22  2  0  0  0  0
 21 42  1  0  0  0  0
 22 24  1  0  0  0  0
 23 26  1  0  0  0  0
 24 44  1  0  0  0  0
 24 45  1  0  0  0  0
 24 46  1  0  0  0  0
 25 27  1  0  0  0  0
 26 48  1  0  0  0  0
 26 49  1  0  0  0  0
 26 50  1  0  0  0  0
 27 51  1  0  0  0  0
 27 52  1  0  0  0  0
 27 53  1  0  0  0  0
M  END
> <PUBCHEM_COMPOUND_CID>
13818792

> <PUBCHEM_CONFORMER_RMSD>
0.8

> <PUBCHEM_CONFORMER_DIVERSEORDER>
1
3
2

> <PUBCHEM_MMFF94_PARTIAL_CHARGES>
29
1 -0.3
10 -0.04
12 0.38
13 0.28
14 -0.05
15 0.28
16 0.42
19 0.28
2 -0.56
20 0.42
21 -0.29
22 -0.28
23 0.66
24 0.14
25 0.66
26 0.06
27 0.06
3 -0.43
30 0.1
31 0.1
4 -0.68
42 0.15
43 0.4
47 0.4
5 -0.43
6 -0.68
7 -0.57
8 -0.57
9 0.09

> <PUBCHEM_EFFECTIVE_ROTOR_COUNT>
6.4

> <PUBCHEM_PHARMACOPHORE_FEATURES>
10
1 1 acceptor
1 2 acceptor
1 4 acceptor
1 4 donor
1 6 acceptor
1 6 donor
1 7 acceptor
1 8 acceptor
6 11 16 18 20 21 22 rings
8 2 9 10 11 12 13 15 16 rings

> <PUBCHEM_HEAVY_ATOM_COUNT>
27

> <PUBCHEM_ATOM_DEF_STEREO_COUNT>
6

> <PUBCHEM_ATOM_UDEF_STEREO_COUNT>
2

> <PUBCHEM_BOND_DEF_STEREO_COUNT>
0

> <PUBCHEM_BOND_UDEF_STEREO_COUNT>
0

> <PUBCHEM_ISOTOPIC_ATOM_COUNT>
0

> <PUBCHEM_COMPONENT_COUNT>
1

> <PUBCHEM_CACTVS_TAUTO_COUNT>
1

> <PUBCHEM_CONFORMER_ID>
00D2DBA800000001

> <PUBCHEM_MMFF94_ENERGY>
101.0741

> <PUBCHEM_FEATURE_SELFOVERLAP>
50.764

> <PUBCHEM_SHAPE_FINGERPRINT>
10863032 1 18268723877239805484
10906281 52 17417823811684261224
10948715 1 15502952808985635220
11578080 2 17914064345479634984
116883 192 18122613118614691407
12715332 25 18411143506457823262
12788726 201 17702388334690961768
13140716 1 18341338889460931586
13149001 5 18201432592929922408
14115302 16 18341905086298670412
14223421 5 17840292642920459713
14790565 3 18265902341282368692
15209289 33 18059297552502936161
16945 1 18341347608033591232
1813 80 16343704284002460028
19591789 44 18335422361483466895
20600515 1 18130521738323438340
229495 10 17683847480043362072
23175994 123 17632015247742607784
23419403 2 17845366816426924234
23493267 7 17240770536474028609
23557571 272 17905301263786845559
23559900 14 18127125509728750249
2818148 4 17974027316128409759
298252 57 17823422604240382160
3027735 51 17766007094985912214
3060560 45 18265880372803438709
350125 39 18410862057947125243
633830 44 16298395681769495908
70251023 43 18055625368071222726
81228 2 18049991496823888603

> <PUBCHEM_SHAPE_MULTIPOLES>
508.69
6.68
3.99
1.91
2.37
5.51
-0.78
-0.19
2.78
-2.6
0.08
0.91
-0.83
0.87

> <PUBCHEM_SHAPE_SELFOVERLAP>
1090.98

> <PUBCHEM_SHAPE_VOLUME>
274.7

> <PUBCHEM_COORDINATE_TYPE>
2
5
10

$$$$
