REMARK  Name = 13818797
REMARK  7 active torsions:
REMARK  status: ('A' for Active; 'I' for Inactive)
REMARK    1  A    between atoms: C_5  and  C_25
REMARK    2  A    between atoms: C_7  and  O_21
REMARK    3  A    between atoms: C_9  and  O_17
REMARK    4  A    between atoms: C_13  and  O_19
REMARK    5  A    between atoms: O_21  and  C_23
REMARK    6  A    between atoms: C_25  and  O_26
REMARK    7  A    between atoms: O_26  and  C_28
REMARK                            x       y       z     vdW  Elec       q    Type
REMARK                         _______ _______ _______ _____ _____    ______ ____
ROOT
ATOM      1  O   UNL     1       2.026  -1.302  -2.360  0.00  0.00    -0.351 OA
ATOM      2  O   UNL     1      -0.022  -2.483   0.418  0.00  0.00    -0.349 OA
ATOM      3  C   UNL     1       0.645   0.037  -0.754  0.00  0.00    +0.073 C 
ATOM      4  C   UNL     1       0.979  -1.307  -1.375  0.00  0.00    +0.151 C 
ATOM      5  C   UNL     1      -0.800  -0.141  -0.084  0.00  0.00    +0.078 C 
ATOM      6  C   UNL     1       1.232  -2.213  -0.219  0.00  0.00    +0.173 C 
ATOM      7  C   UNL     1       1.762   0.103   0.371  0.00  0.00    +0.200 C 
ATOM      8  C   UNL     1       0.738  -1.761  -2.794  0.00  0.00    +0.172 C 
ATOM      9  C   UNL     1       2.190  -1.365   0.629  0.00  0.00    +0.180 C 
ATOM     10  C   UNL     1      -0.750  -1.347   0.919  0.00  0.00    +0.140 C 
ATOM     11  C   UNL     1       0.721   1.218  -1.729  0.00  0.00    +0.006 C 
ATOM     12  C   UNL     1      -1.900  -0.451  -1.152  0.00  0.00    +0.040 C 
ATOM     13  C   UNL     1      -3.290  -0.766  -0.571  0.00  0.00    +0.129 C 
ATOM     14  C   UNL     1      -2.102  -1.873   1.323  0.00  0.00    -0.003 C 
ATOM     15  C   UNL     1      -3.252  -1.604   0.681  0.00  0.00    -0.020 C 
ATOM     16  C   UNL     1      -4.561  -2.164   1.162  0.00  0.00    +0.029 C 
ENDROOT
BRANCH   9  17
ATOM     17  O   UNL     1       2.142  -1.715   1.999  0.00  0.00    -0.379 OA
ATOM     18  H   UNL     1       2.418  -2.638   2.107  0.00  0.00    +0.211 HD
ENDBRANCH   9  17
BRANCH  13  19
ATOM     19  O   UNL     1      -3.981   0.457  -0.324  0.00  0.00    -0.380 OA
ATOM     20  H   UNL     1      -3.999   0.988  -1.136  0.00  0.00    +0.211 HD
ENDBRANCH  13  19
BRANCH   7  21
ATOM     21  O   UNL     1       2.904   0.826  -0.088  0.00  0.00    -0.450 OA
BRANCH  21  23
ATOM     22  O   UNL     1       3.993   0.395   1.903  0.00  0.00    -0.250 OA
ATOM     23  C   UNL     1       3.950   0.891   0.786  0.00  0.00    +0.318 C 
ATOM     24  C   UNL     1       5.071   1.675   0.173  0.00  0.00    +0.121 C 
ENDBRANCH  21  23
ENDBRANCH   7  21
BRANCH   5  25
ATOM     25  C   UNL     1      -1.208   1.151   0.674  0.00  0.00    +0.211 C 
BRANCH  25  26
ATOM     26  O   UNL     1      -1.286   2.190  -0.272  0.00  0.00    -0.448 OA
BRANCH  26  28
ATOM     27  O   UNL     1      -1.884   3.692   1.378  0.00  0.00    -0.250 OA
ATOM     28  C   UNL     1      -1.637   3.428   0.209  0.00  0.00    +0.318 C 
ATOM     29  C   UNL     1      -1.680   4.429  -0.905  0.00  0.00    +0.121 C 
ENDBRANCH  26  28
ENDBRANCH  25  26
ENDBRANCH   5  25
TORSDOF 7
