138113406
  -OEChem-03292013293D

 56 59  0     1  0  0  0  0  0999 V2000
   -1.2139    1.2011   -2.5218 S   0  0  0  0  0  0  0  0  0  0  0  0
    3.8369   -3.5303    0.0000 S   0  0  0  0  0  0  0  0  0  0  0  0
   -0.1391    2.9941    1.6573 O   0  0  0  0  0  0  0  0  0  0  0  0
   -4.0784    2.5830    1.4473 O   0  5  0  0  0  0  0  0  0  0  0  0
   -2.6688    1.2498    2.6592 O   0  0  0  0  0  0  0  0  0  0  0  0
    2.7308    0.8678   -2.3785 O   0  0  0  0  0  0  0  0  0  0  0  0
    6.2734    0.5034    0.1355 O   0  0  0  0  0  0  0  0  0  0  0  0
   -4.8057   -1.1819    0.1158 N   0  3  0  0  0  0  0  0  0  0  0  0
   -1.1830    1.5645    0.1040 N   0  0  0  0  0  0  0  0  0  0  0  0
    2.0010    1.4410   -0.2214 N   0  0  0  0  0  0  0  0  0  0  0  0
    5.1830    1.1796   -0.4289 N   0  0  0  0  0  0  0  0  0  0  0  0
    5.0278   -1.4157    0.8903 N   0  0  0  0  0  0  0  0  0  0  0  0
    5.5705   -3.4235    2.0146 N   0  0  0  0  0  0  0  0  0  0  0  0
   -6.2018   -1.3772    0.7422 C   0  0  0  0  0  0  0  0  0  0  0  0
   -4.7036   -2.2260   -1.0149 C   0  0  0  0  0  0  0  0  0  0  0  0
   -4.6697    0.2261   -0.4433 C   0  0  0  0  0  0  0  0  0  0  0  0
   -6.6874   -2.7038    0.1922 C   0  0  0  0  0  0  0  0  0  0  0  0
   -6.1237   -2.7186   -1.2116 C   0  0  0  0  0  0  0  0  0  0  0  0
   -3.7174   -1.4167    1.1520 C   0  0  0  0  0  0  0  0  0  0  0  0
   -3.2293    0.6393   -0.6244 C   0  0  0  0  0  0  0  0  0  0  0  0
   -0.3731    0.9631   -0.9395 C   0  0  2  0  0  0  0  0  0  0  0  0
    0.7067    2.0111   -0.5677 C   0  0  1  0  0  0  0  0  0  0  0  0
   -2.4918    1.2720    0.3186 C   0  0  0  0  0  0  0  0  0  0  0  0
   -2.6855    0.2546   -2.0003 C   0  0  0  0  0  0  0  0  0  0  0  0
   -0.2086    2.3167    0.6589 C   0  0  0  0  0  0  0  0  0  0  0  0
   -3.1472    1.7512    1.6082 C   0  0  0  0  0  0  0  0  0  0  0  0
    2.8770    0.9289   -1.1682 C   0  0  0  0  0  0  0  0  0  0  0  0
    4.1543    0.3994   -0.5718 C   0  0  0  0  0  0  0  0  0  0  0  0
    4.2164   -1.0282   -0.1581 C   0  0  0  0  0  0  0  0  0  0  0  0
    3.4941   -2.0341   -0.7650 C   0  0  0  0  0  0  0  0  0  0  0  0
    4.9081   -2.7134    1.0631 C   0  0  0  0  0  0  0  0  0  0  0  0
    7.3480    1.4226    0.2561 C   0  0  0  0  0  0  0  0  0  0  0  0
   -4.0477   -3.0357   -0.6766 H   0  0  0  0  0  0  0  0  0  0  0  0
   -6.8495   -0.5630    0.3978 H   0  0  0  0  0  0  0  0  0  0  0  0
   -4.3089   -1.7846   -1.9293 H   0  0  0  0  0  0  0  0  0  0  0  0
   -6.1277   -1.3552    1.8335 H   0  0  0  0  0  0  0  0  0  0  0  0
   -5.2400    0.2788   -1.3791 H   0  0  0  0  0  0  0  0  0  0  0  0
   -5.1933    0.8846    0.2536 H   0  0  0  0  0  0  0  0  0  0  0  0
   -7.7781   -2.7818    0.2065 H   0  0  0  0  0  0  0  0  0  0  0  0
   -6.2781   -3.5341    0.7797 H   0  0  0  0  0  0  0  0  0  0  0  0
   -6.1558   -3.7133   -1.6649 H   0  0  0  0  0  0  0  0  0  0  0  0
   -6.6825   -2.0308   -1.8573 H   0  0  0  0  0  0  0  0  0  0  0  0
   -3.8701   -2.4265    1.5518 H   0  0  0  0  0  0  0  0  0  0  0  0
   -3.8598   -0.7215    1.9758 H   0  0  0  0  0  0  0  0  0  0  0  0
   -2.7253   -1.3936    0.6963 H   0  0  0  0  0  0  0  0  0  0  0  0
   -0.1054   -0.0769   -0.7142 H   0  0  0  0  0  0  0  0  0  0  0  0
    0.8042    2.8749   -1.2361 H   0  0  0  0  0  0  0  0  0  0  0  0
   -2.4073   -0.8032   -2.0072 H   0  0  0  0  0  0  0  0  0  0  0  0
   -3.4435    0.4213   -2.7720 H   0  0  0  0  0  0  0  0  0  0  0  0
    2.2951    1.4116    0.7523 H   0  0  0  0  0  0  0  0  0  0  0  0
    2.8032   -1.9762   -1.5942 H   0  0  0  0  0  0  0  0  0  0  0  0
    8.2019    0.9011    0.6963 H   0  0  0  0  0  0  0  0  0  0  0  0
    7.0671    2.2526    0.9118 H   0  0  0  0  0  0  0  0  0  0  0  0
    7.6373    1.8014   -0.7291 H   0  0  0  0  0  0  0  0  0  0  0  0
    6.2125   -2.9791    2.6626 H   0  0  0  0  0  0  0  0  0  0  0  0
    5.4495   -4.4259    2.1146 H   0  0  0  0  0  0  0  0  0  0  0  0
  1 21  1  0  0  0  0
  1 24  1  0  0  0  0
  2 30  1  0  0  0  0
  2 31  1  0  0  0  0
  3 25  2  0  0  0  0
  4 26  1  0  0  0  0
  5 26  2  0  0  0  0
  6 27  2  0  0  0  0
  7 11  1  0  0  0  0
  7 32  1  0  0  0  0
  8 14  1  0  0  0  0
  8 15  1  0  0  0  0
  8 16  1  0  0  0  0
  8 19  1  0  0  0  0
  9 21  1  0  0  0  0
  9 23  1  0  0  0  0
  9 25  1  0  0  0  0
 10 22  1  0  0  0  0
 10 27  1  0  0  0  0
 10 50  1  0  0  0  0
 11 28  2  3  0  0  0
 12 29  1  0  0  0  0
 12 31  2  0  0  0  0
 13 31  1  0  0  0  0
 13 55  1  0  0  0  0
 13 56  1  0  0  0  0
 14 17  1  0  0  0  0
 14 34  1  0  0  0  0
 14 36  1  0  0  0  0
 15 18  1  0  0  0  0
 15 33  1  0  0  0  0
 15 35  1  0  0  0  0
 16 20  1  0  0  0  0
 16 37  1  0  0  0  0
 16 38  1  0  0  0  0
 17 18  1  0  0  0  0
 17 39  1  0  0  0  0
 17 40  1  0  0  0  0
 18 41  1  0  0  0  0
 18 42  1  0  0  0  0
 19 43  1  0  0  0  0
 19 44  1  0  0  0  0
 19 45  1  0  0  0  0
 20 23  2  0  0  0  0
 20 24  1  0  0  0  0
 21 22  1  0  0  0  0
 21 46  1  0  0  0  0
 22 25  1  0  0  0  0
 22 47  1  0  0  0  0
 23 26  1  0  0  0  0
 24 48  1  0  0  0  0
 24 49  1  0  0  0  0
 27 28  1  0  0  0  0
 28 29  1  0  0  0  0
 29 30  2  0  0  0  0
 30 51  1  0  0  0  0
 32 52  1  0  0  0  0
 32 53  1  0  0  0  0
 32 54  1  0  0  0  0
M  CHG  2   4  -1   8   1
M  END
> <PUBCHEM_COMPOUND_CID>
138113406

> <PUBCHEM_CONFORMER_RMSD>
1

> <PUBCHEM_CONFORMER_DIVERSEORDER>
1
55
81
181
185
194
199
150
47
95
140
160
113
138
154
137
20
202
198
26
123
147
179
136
49
83
197
142
183
135
63
30
200
165
127
38
17
203
161
157
70
193
145
192
186
84
100
103
88
166
151
18
61
121
24
39
56
96
178
126
90
164
80
149
189
158
31
133
108
177
110
86
87
42
58
50
170
134
65
172
116
122
23
195
120
162
188
29
43
25
175
174
21
102
132
155
37
163
16
106
117
66
57
92
28
94
191
105
111
124
148
146
71
34
156
190
171
187
54
52
128
139
98
69
125
75
89
85
44
51
173
184
12
79
180
196
99
109
114
76
4
130
64
36
22
112
15
91
77
59
62
11
167
78
73
143
115
97
60
48
144
141
74
159
118
182
82
72
14
45
67
107
201
169
6
33
152
8
68
93
27
32
41
46
104
168
2
119
153
53
40
176
10
7
35
3
101
129
13
131
5
19
9

> <PUBCHEM_MMFF94_PARTIAL_CHARGES>
34
1 -0.45
10 -0.65
11 -0.51
12 -0.57
13 -0.88
14 0.5
15 0.5
16 0.64
19 0.5
2 -0.08
20 -0.28
21 0.44
22 0.28
23 -0.14
24 0.37
25 0.58
26 1.05
27 0.63
28 0.54
29 0.14
3 -0.57
30 -0.11
31 0.46
32 0.28
4 -0.9
5 -0.9
50 0.37
51 0.15
55 0.4
56 0.4
6 -0.57
7 -0.22
8 -1.01
9 -0.39

> <PUBCHEM_EFFECTIVE_ROTOR_COUNT>
9.6

> <PUBCHEM_PHARMACOPHORE_FEATURES>
14
1 10 donor
1 11 acceptor
1 13 donor
1 3 acceptor
1 4 acceptor
1 5 acceptor
1 6 acceptor
1 8 cation
3 12 13 31 cation
3 4 5 26 anion
4 9 21 22 25 rings
5 2 12 29 30 31 rings
5 8 14 15 17 18 rings
6 1 9 20 21 23 24 rings

> <PUBCHEM_HEAVY_ATOM_COUNT>
32

> <PUBCHEM_ATOM_DEF_STEREO_COUNT>
1

> <PUBCHEM_ATOM_UDEF_STEREO_COUNT>
1

> <PUBCHEM_BOND_DEF_STEREO_COUNT>
0

> <PUBCHEM_BOND_UDEF_STEREO_COUNT>
1

> <PUBCHEM_ISOTOPIC_ATOM_COUNT>
0

> <PUBCHEM_COMPONENT_COUNT>
1

> <PUBCHEM_CACTVS_TAUTO_COUNT>
-1

> <PUBCHEM_CONFORMER_ID>
083B717E00000001

> <PUBCHEM_MMFF94_ENERGY>
90.5616

> <PUBCHEM_FEATURE_SELFOVERLAP>
71.361

> <PUBCHEM_SHAPE_FINGERPRINT>
10622 236 18335417933145429091
10763959 59 9799419936049363716
10928967 22 17612042473359704834
10939801 23 18200029676628786246
12596602 18 17988649579790563208
13383661 66 17027432497564131851
14347332 77 18410855473814936479
14394314 77 18413113861818875481
14848178 5 18335415742553644598
15183329 4 15936678355042989357
15347590 135 17845082047390120624
15361156 5 17386581137051326188
15475509 35 18268429212602859275
15510800 12 17168155532958550850
16728300 4 18341611482788419199
17492 89 18267304236283193334
17857418 61 18409733975737882399
18335252 114 9295024431067416976
19377110 9 18130496454288544088
19841028 212 18259980453222603498
20567600 247 18336261340331634271
21033648 29 15554449544358456353
21197605 99 18335700568517988850
21703447 108 18129658746102318129
23559900 14 18262509403829809877
25222932 49 18272086149643210318
2838139 119 9871478603771398547
3886686 26 17482006540282818343
439807 62 18261109695209769663
474113 269 18130779067600790231
50009960 94 17606094231744628194
508706 21 16226053232325347282
5104073 3 18272932678833283272
613672 6 16515691026695407332
6679774 75 16977843517623191393
6697151 62 17702928358436660449
9981440 41 16270524002977849169

> <PUBCHEM_SHAPE_MULTIPOLES>
607.01
17.56
3.98
1.97
6.57
2.69
0.06
13.17
-2.63
1.13
-1.3
-0.98
-0.66
-2.75

> <PUBCHEM_SHAPE_SELFOVERLAP>
1261.972

> <PUBCHEM_SHAPE_VOLUME>
349

> <PUBCHEM_COORDINATE_TYPE>
2
5
10

$$$$
