REMARK  Name = 138112850
REMARK  5 active torsions:
REMARK  status: ('A' for Active; 'I' for Inactive)
REMARK    1  A    between atoms: C_5  and  O_23
REMARK    2  A    between atoms: C_15  and  O_25
REMARK    3  A    between atoms: C_16  and  O_27
REMARK    4  A    between atoms: C_20  and  O_29
REMARK    5  A    between atoms: C_21  and  O_31
REMARK                            x       y       z     vdW  Elec       q    Type
REMARK                         _______ _______ _______ _____ _____    ______ ____
ROOT
ATOM      1  O   UNL     1      -0.433  -1.809  -2.277  0.00  0.00    -0.289 OA
ATOM      2  O   UNL     1      -3.209   2.875   0.760  0.00  0.00    -0.431 OA
ATOM      3  O   UNL     1      -4.609   1.290  -0.394  0.00  0.00    -0.435 OA
ATOM      4  C   UNL     1       0.324  -3.210   0.592  0.00  0.00    +0.036 C 
ATOM      5  C   UNL     1      -0.969  -3.083  -0.264  0.00  0.00    +0.143 C 
ATOM      6  C   UNL     1       0.582  -2.010   1.532  0.00  0.00    +0.029 C 
ATOM      7  C   UNL     1       1.422  -0.938   0.866  0.00  0.00    -0.016 C 
ATOM      8  C   UNL     1      -0.918  -1.829  -1.149  0.00  0.00    +0.197 C 
ATOM      9  C   UNL     1       0.862   0.155   0.170  0.00  0.00    +0.036 C 
ATOM     10  C   UNL     1       0.347  -4.510   1.415  0.00  0.00    +0.003 C 
ATOM     11  C   UNL     1      -1.447  -0.560  -0.612  0.00  0.00    +0.043 C 
ATOM     12  C   UNL     1      -0.592   0.368   0.035  0.00  0.00    +0.043 C 
ATOM     13  C   UNL     1      -2.265  -3.224   0.539  0.00  0.00    +0.037 C 
ATOM     14  C   UNL     1       2.824  -1.070   0.936  0.00  0.00    +0.036 C 
ATOM     15  C   UNL     1      -1.165   1.558   0.529  0.00  0.00    +0.176 C 
ATOM     16  C   UNL     1       1.740   1.085  -0.428  0.00  0.00    +0.175 C 
ATOM     17  C   UNL     1      -2.811  -0.304  -0.812  0.00  0.00    +0.043 C 
ATOM     18  C   UNL     1      -2.517   1.778   0.345  0.00  0.00    +0.210 C 
ATOM     19  C   UNL     1      -3.316   0.875  -0.311  0.00  0.00    +0.180 C 
ATOM     20  C   UNL     1       3.125   0.942  -0.345  0.00  0.00    +0.206 C 
ATOM     21  C   UNL     1       3.668  -0.138   0.338  0.00  0.00    +0.171 C 
ATOM     22  C   UNL     1      -4.535   2.558   0.289  0.00  0.00    +0.429 C 
ENDROOT
BRANCH   5  23
ATOM     23  O   UNL     1      -0.946  -4.168  -1.208  0.00  0.00    -0.379 OA
ATOM     24  H   UNL     1      -0.136  -4.116  -1.740  0.00  0.00    +0.211 HD
ENDBRANCH   5  23
BRANCH  15  25
ATOM     25  O   UNL     1      -0.436   2.481   1.218  0.00  0.00    -0.468 OA
ATOM     26  C   UNL     1      -0.373   2.330   2.634  0.00  0.00    +0.253 C 
ENDBRANCH  15  25
BRANCH  16  27
ATOM     27  O   UNL     1       1.254   2.133  -1.166  0.00  0.00    -0.468 OA
ATOM     28  C   UNL     1       1.073   1.906  -2.558  0.00  0.00    +0.253 C 
ENDBRANCH  16  27
BRANCH  20  29
ATOM     29  O   UNL     1       3.946   1.851  -0.943  0.00  0.00    -0.465 OA
ATOM     30  C   UNL     1       4.355   2.968  -0.156  0.00  0.00    +0.253 C 
ENDBRANCH  20  29
BRANCH  21  31
ATOM     31  O   UNL     1       5.017  -0.300   0.426  0.00  0.00    -0.503 OA
ATOM     32  H   UNL     1       5.371  -1.033   0.890  0.00  0.00    +0.292 HD
ENDBRANCH  21  31
TORSDOF 5
