138112850
  -OEChem-03292013293D

 54 57  0     1  0  0  0  0  0999 V2000
   -0.9458   -4.1677   -1.2081 O   0  0  0  0  0  0  0  0  0  0  0  0
   -0.4327   -1.8094   -2.2773 O   0  0  0  0  0  0  0  0  0  0  0  0
   -3.2087    2.8753    0.7596 O   0  0  0  0  0  0  0  0  0  0  0  0
   -4.6088    1.2903   -0.3940 O   0  0  0  0  0  0  0  0  0  0  0  0
   -0.4361    2.4806    1.2177 O   0  0  0  0  0  0  0  0  0  0  0  0
    1.2545    2.1330   -1.1656 O   0  0  0  0  0  0  0  0  0  0  0  0
    3.9465    1.8512   -0.9426 O   0  0  0  0  0  0  0  0  0  0  0  0
    5.0167   -0.2998    0.4260 O   0  0  0  0  0  0  0  0  0  0  0  0
    0.3243   -3.2097    0.5916 C   0  0  1  0  0  0  0  0  0  0  0  0
   -0.9686   -3.0834   -0.2640 C   0  0  1  0  0  0  0  0  0  0  0  0
    0.5823   -2.0098    1.5316 C   0  0  0  0  0  0  0  0  0  0  0  0
    1.4220   -0.9377    0.8661 C   0  0  0  0  0  0  0  0  0  0  0  0
   -0.9178   -1.8291   -1.1491 C   0  0  0  0  0  0  0  0  0  0  0  0
    0.8622    0.1548    0.1696 C   0  0  0  0  0  0  0  0  0  0  0  0
    0.3467   -4.5099    1.4145 C   0  0  0  0  0  0  0  0  0  0  0  0
   -1.4469   -0.5602   -0.6119 C   0  0  0  0  0  0  0  0  0  0  0  0
   -0.5921    0.3678    0.0353 C   0  0  0  0  0  0  0  0  0  0  0  0
   -2.2652   -3.2237    0.5391 C   0  0  0  0  0  0  0  0  0  0  0  0
    2.8237   -1.0704    0.9356 C   0  0  0  0  0  0  0  0  0  0  0  0
   -1.1654    1.5578    0.5293 C   0  0  0  0  0  0  0  0  0  0  0  0
    1.7398    1.0847   -0.4281 C   0  0  0  0  0  0  0  0  0  0  0  0
   -2.8110   -0.3039   -0.8117 C   0  0  0  0  0  0  0  0  0  0  0  0
   -2.5172    1.7782    0.3455 C   0  0  0  0  0  0  0  0  0  0  0  0
   -3.3158    0.8752   -0.3115 C   0  0  0  0  0  0  0  0  0  0  0  0
    3.1250    0.9417   -0.3449 C   0  0  0  0  0  0  0  0  0  0  0  0
    3.6677   -0.1378    0.3375 C   0  0  0  0  0  0  0  0  0  0  0  0
   -4.5345    2.5580    0.2894 C   0  0  0  0  0  0  0  0  0  0  0  0
   -0.3730    2.3299    2.6344 C   0  0  0  0  0  0  0  0  0  0  0  0
    1.0733    1.9056   -2.5582 C   0  0  0  0  0  0  0  0  0  0  0  0
    4.3550    2.9683   -0.1562 C   0  0  0  0  0  0  0  0  0  0  0  0
    1.1734   -3.2985   -0.1026 H   0  0  0  0  0  0  0  0  0  0  0  0
    1.1280   -2.3415    2.4260 H   0  0  0  0  0  0  0  0  0  0  0  0
   -0.3472   -1.5880    1.9282 H   0  0  0  0  0  0  0  0  0  0  0  0
   -0.3895   -4.4881    2.2246 H   0  0  0  0  0  0  0  0  0  0  0  0
    1.3327   -4.6544    1.8706 H   0  0  0  0  0  0  0  0  0  0  0  0
    0.1473   -5.3855    0.7889 H   0  0  0  0  0  0  0  0  0  0  0  0
   -2.3489   -4.2179    0.9909 H   0  0  0  0  0  0  0  0  0  0  0  0
   -2.3565   -2.4752    1.3309 H   0  0  0  0  0  0  0  0  0  0  0  0
   -3.1375   -3.1319   -0.1183 H   0  0  0  0  0  0  0  0  0  0  0  0
    3.2526   -1.9198    1.4644 H   0  0  0  0  0  0  0  0  0  0  0  0
   -0.0973   -4.1438   -1.6828 H   0  0  0  0  0  0  0  0  0  0  0  0
   -3.4522   -1.0053   -1.3346 H   0  0  0  0  0  0  0  0  0  0  0  0
   -4.8615    3.3469   -0.3976 H   0  0  0  0  0  0  0  0  0  0  0  0
   -5.2153    2.5344    1.1482 H   0  0  0  0  0  0  0  0  0  0  0  0
    5.2075   -1.1049    0.9372 H   0  0  0  0  0  0  0  0  0  0  0  0
    0.2898    3.1038    3.0311 H   0  0  0  0  0  0  0  0  0  0  0  0
    0.0331    1.3504    2.9055 H   0  0  0  0  0  0  0  0  0  0  0  0
   -1.3654    2.4592    3.0775 H   0  0  0  0  0  0  0  0  0  0  0  0
    0.6257    2.8026   -2.9952 H   0  0  0  0  0  0  0  0  0  0  0  0
    0.4006    1.0614   -2.7370 H   0  0  0  0  0  0  0  0  0  0  0  0
    2.0350    1.7247   -3.0483 H   0  0  0  0  0  0  0  0  0  0  0  0
    4.9952    3.6052   -0.7728 H   0  0  0  0  0  0  0  0  0  0  0  0
    4.9273    2.6369    0.7159 H   0  0  0  0  0  0  0  0  0  0  0  0
    3.4863    3.5519    0.1647 H   0  0  0  0  0  0  0  0  0  0  0  0
  1 10  1  0  0  0  0
  1 41  1  0  0  0  0
  2 13  2  0  0  0  0
  3 23  1  0  0  0  0
  3 27  1  0  0  0  0
  4 24  1  0  0  0  0
  4 27  1  0  0  0  0
  5 20  1  0  0  0  0
  5 28  1  0  0  0  0
  6 21  1  0  0  0  0
  6 29  1  0  0  0  0
  7 25  1  0  0  0  0
  7 30  1  0  0  0  0
  8 26  1  0  0  0  0
  8 45  1  0  0  0  0
  9 10  1  0  0  0  0
  9 11  1  0  0  0  0
  9 15  1  0  0  0  0
  9 31  1  0  0  0  0
 10 13  1  0  0  0  0
 10 18  1  0  0  0  0
 11 12  1  0  0  0  0
 11 32  1  0  0  0  0
 11 33  1  0  0  0  0
 12 14  1  0  0  0  0
 12 19  2  0  0  0  0
 13 16  1  0  0  0  0
 14 17  1  0  0  0  0
 14 21  2  0  0  0  0
 15 34  1  0  0  0  0
 15 35  1  0  0  0  0
 15 36  1  0  0  0  0
 16 17  1  0  0  0  0
 16 22  2  0  0  0  0
 17 20  2  0  0  0  0
 18 37  1  0  0  0  0
 18 38  1  0  0  0  0
 18 39  1  0  0  0  0
 19 26  1  0  0  0  0
 19 40  1  0  0  0  0
 20 23  1  0  0  0  0
 21 25  1  0  0  0  0
 22 24  1  0  0  0  0
 22 42  1  0  0  0  0
 23 24  2  0  0  0  0
 25 26  2  0  0  0  0
 27 43  1  0  0  0  0
 27 44  1  0  0  0  0
 28 46  1  0  0  0  0
 28 47  1  0  0  0  0
 28 48  1  0  0  0  0
 29 49  1  0  0  0  0
 29 50  1  0  0  0  0
 29 51  1  0  0  0  0
 30 52  1  0  0  0  0
 30 53  1  0  0  0  0
 30 54  1  0  0  0  0
M  END
> <PUBCHEM_COMPOUND_CID>
138112850

> <PUBCHEM_CONFORMER_RMSD>
0.8

> <PUBCHEM_CONFORMER_DIVERSEORDER>
1
2
3

> <PUBCHEM_MMFF94_PARTIAL_CHARGES>
29
1 -0.68
10 0.34
11 0.14
12 -0.14
13 0.42
16 0.09
19 -0.15
2 -0.57
20 0.08
21 0.08
22 -0.15
23 0.08
24 0.08
25 0.08
26 0.08
27 0.56
28 0.28
29 0.28
3 -0.36
30 0.28
4 -0.36
40 0.15
41 0.4
42 0.15
45 0.45
5 -0.36
6 -0.36
7 -0.36
8 -0.53

> <PUBCHEM_EFFECTIVE_ROTOR_COUNT>
4.2

> <PUBCHEM_PHARMACOPHORE_FEATURES>
12
1 1 acceptor
1 1 donor
1 2 acceptor
1 3 acceptor
1 4 acceptor
1 5 acceptor
1 6 acceptor
1 7 acceptor
1 8 donor
5 3 4 23 24 27 rings
6 12 14 19 21 25 26 rings
6 16 17 20 22 23 24 rings

> <PUBCHEM_HEAVY_ATOM_COUNT>
30

> <PUBCHEM_ATOM_DEF_STEREO_COUNT>
1

> <PUBCHEM_ATOM_UDEF_STEREO_COUNT>
1

> <PUBCHEM_BOND_DEF_STEREO_COUNT>
0

> <PUBCHEM_BOND_UDEF_STEREO_COUNT>
0

> <PUBCHEM_ISOTOPIC_ATOM_COUNT>
0

> <PUBCHEM_COMPONENT_COUNT>
1

> <PUBCHEM_CACTVS_TAUTO_COUNT>
-1

> <PUBCHEM_CONFORMER_ID>
083B6F5200000001

> <PUBCHEM_MMFF94_ENERGY>
135.8957

> <PUBCHEM_FEATURE_SELFOVERLAP>
61.074

> <PUBCHEM_SHAPE_FINGERPRINT>
10382601 240 18049446937403366555
10948715 1 18410293592511786839
1100329 8 18409722950841650962
11115154 58 17550086500773713079
11578080 2 16770418372514590827
12156800 1 16955400058427215650
12236239 1 18338513045492697000
12422481 6 17612287677210058898
12553582 1 17690554608167967330
12592029 89 18264212404931814553
12788726 201 18121779692731976174
13140716 1 18334005086731834842
133893 2 17617969953033645697
14787075 74 18272083912139393157
14790565 3 18411420592152537545
16945 1 18264186059328010066
17138139 8 17984671602756279079
18681886 176 18339071580630935392
19591789 44 18266739267752911691
20691752 17 17829338977731035783
20715895 44 17115217072092501593
20739085 24 17761769568266368682
20775438 99 16473419477015829367
20905425 154 17482264224866171885
21421861 104 17623017794206511921
22149856 69 16122746234776751665
23419403 2 16912572053500906144
23558518 356 18044099170749707990
23559900 14 16982084961215283597
23598288 3 18199184169203651478
35225 105 17466837956495263926
394222 165 18261951838847097179
404807 14 15331550843786815342
469060 322 15430589705255036514
474 4 18263082132542601105
484989 97 18191296286198610335
8272917 22 18048878498930003881

> <PUBCHEM_SHAPE_MULTIPOLES>
570.43
6.65
5.11
1.73
2.29
4.63
0.15
-6.08
0.17
-1.74
-0.9
0.11
-0.31
-1.55

> <PUBCHEM_SHAPE_SELFOVERLAP>
1257.854

> <PUBCHEM_SHAPE_VOLUME>
307.3

> <PUBCHEM_COORDINATE_TYPE>
2
5
10

$$$$
