REMARK  Name = 138114885
REMARK  9 active torsions:
REMARK  status: ('A' for Active; 'I' for Inactive)
REMARK    1  A    between atoms: C_1  and  O_23
REMARK    2  A    between atoms: C_3  and  O_25
REMARK    3  A    between atoms: C_5  and  O_31
REMARK    4  A    between atoms: C_6  and  C_21
REMARK    5  A    between atoms: C_6  and  O_27
REMARK    6  A    between atoms: C_19  and  O_29
REMARK    7  A    between atoms: O_31  and  C_33
REMARK    8  A    between atoms: C_33  and  C_34
REMARK    9  A    between atoms: C_35  and  C_37
REMARK                            x       y       z     vdW  Elec       q    Type
REMARK                         _______ _______ _______ _____ _____    ______ ____
ROOT
ATOM      1  C   UNL     1      -1.076   2.561  -0.140  0.00  0.00    +0.117 C 
ATOM      2  C   UNL     1       0.328   1.959  -0.586  0.00  0.00    +0.090 C 
ATOM      3  C   UNL     1      -2.212   1.513   0.173  0.00  0.00    +0.115 C 
ATOM      4  C   UNL     1      -2.136   0.317  -0.816  0.00  0.00    +0.034 C 
ATOM      5  C   UNL     1       0.407   0.470  -0.157  0.00  0.00    +0.174 C 
ATOM      6  C   UNL     1       1.348   2.864   0.186  0.00  0.00    +0.144 C 
ATOM      7  C   UNL     1      -3.358  -0.694  -0.682  0.00  0.00    +0.017 C 
ATOM      8  C   UNL     1      -0.758  -0.385  -0.672  0.00  0.00    +0.047 C 
ATOM      9  C   UNL     1      -0.777   3.518   1.040  0.00  0.00    +0.032 C 
ATOM     10  C   UNL     1       0.637   3.192   1.494  0.00  0.00    +0.037 C 
ATOM     11  C   UNL     1      -2.269   0.968   1.625  0.00  0.00    +0.055 C 
ATOM     12  C   UNL     1       0.582   2.047  -2.114  0.00  0.00    +0.009 C 
ATOM     13  C   UNL     1      -3.634  -1.001   0.789  0.00  0.00    -0.047 C 
ATOM     14  C   UNL     1      -3.069  -2.015  -1.469  0.00  0.00    +0.006 C 
ATOM     15  C   UNL     1      -3.119  -0.264   1.791  0.00  0.00    -0.032 C 
ATOM     16  C   UNL     1      -4.641  -0.069  -1.297  0.00  0.00    +0.004 C 
ATOM     17  C   UNL     1      -4.547  -2.166   1.085  0.00  0.00    +0.051 C 
ATOM     18  C   UNL     1      -4.049  -3.154  -1.179  0.00  0.00    +0.030 C 
ATOM     19  C   UNL     1      -4.144  -3.424   0.321  0.00  0.00    +0.115 C 
ENDROOT
BRANCH   6  21
ATOM     20  O   UNL     1       2.945   1.626   1.455  0.00  0.00    -0.294 OA
ATOM     21  C   UNL     1       2.706   2.283   0.443  0.00  0.00    +0.175 C 
ATOM     22  C   UNL     1       3.762   2.542  -0.597  0.00  0.00    +0.075 C 
ENDBRANCH   6  21
BRANCH   1  23
ATOM     23  O   UNL     1      -1.552   3.424  -1.195  0.00  0.00    -0.384 OA
ATOM     24  H   UNL     1      -1.762   2.892  -1.978  0.00  0.00    +0.210 HD
ENDBRANCH   1  23
BRANCH   3  25
ATOM     25  O   UNL     1      -3.454   2.215  -0.017  0.00  0.00    -0.384 OA
ATOM     26  H   UNL     1      -3.483   2.584  -0.913  0.00  0.00    +0.210 HD
ENDBRANCH   3  25
BRANCH   6  27
ATOM     27  O   UNL     1       1.598   4.102  -0.478  0.00  0.00    -0.380 OA
ATOM     28  H   UNL     1       0.755   4.538  -0.677  0.00  0.00    +0.211 HD
ENDBRANCH   6  27
BRANCH  19  29
ATOM     29  O   UNL     1      -5.122  -4.431   0.560  0.00  0.00    -0.384 OA
ATOM     30  H   UNL     1      -5.182  -4.603   1.513  0.00  0.00    +0.210 HD
ENDBRANCH  19  29
BRANCH   5  31
ATOM     31  O   UNL     1       1.603  -0.158  -0.633  0.00  0.00    -0.449 OA
BRANCH  31  33
ATOM     32  O   UNL     1       1.585  -1.597   1.171  0.00  0.00    -0.245 OA
ATOM     33  C   UNL     1       2.075  -1.177   0.136  0.00  0.00    +0.341 C 
BRANCH  33  34
ATOM     34  C   UNL     1       3.314  -1.676  -0.506  0.00  0.00    +0.073 C 
ATOM     35  C   UNL     1       4.367  -2.212   0.144  0.00  0.00    -0.038 C 
ATOM     36  C   UNL     1       4.447  -2.388   1.639  0.00  0.00    +0.027 C 
BRANCH  35  37
ATOM     37  C   UNL     1       5.571  -2.688  -0.669  0.00  0.00    +0.019 C 
ATOM     38  C   UNL     1       5.800  -4.195  -0.521  0.00  0.00    +0.004 C 
ATOM     39  C   UNL     1       6.843  -1.908  -0.328  0.00  0.00    +0.004 C 
ENDBRANCH  35  37
ENDBRANCH  33  34
ENDBRANCH  31  33
ENDBRANCH   5  31
TORSDOF 9
