REMARK  Name = 138108268
REMARK  5 active torsions:
REMARK  status: ('A' for Active; 'I' for Inactive)
REMARK    1  A    between atoms: C_4  and  O_31
REMARK    2  A    between atoms: C_12  and  O_33
REMARK    3  A    between atoms: C_14  and  O_35
REMARK    4  A    between atoms: C_15  and  O_37
REMARK    5  A    between atoms: C_23  and  O_39
REMARK                            x       y       z     vdW  Elec       q    Type
REMARK                         _______ _______ _______ _____ _____    ______ ____
ROOT
ATOM      1  O   UNL     1       4.307  -1.875   0.757  0.00  0.00    -0.294 OA
ATOM      2  N   UNL     1      -3.083   1.100   0.361  0.00  0.00    +0.390 N 
ATOM      3  C   UNL     1      -0.346  -0.321   0.004  0.00  0.00    +0.023 C 
ATOM      4  C   UNL     1       0.545  -1.557  -0.145  0.00  0.00    +0.093 C 
ATOM      5  C   UNL     1       1.634   0.450  -1.102  0.00  0.00    +0.006 C 
ATOM      6  C   UNL     1       1.565  -1.113  -1.232  0.00  0.00    +0.059 C 
ATOM      7  C   UNL     1      -1.332  -0.474   1.171  0.00  0.00    -0.014 C 
ATOM      8  C   UNL     1       0.695   0.790   0.082  0.00  0.00    +0.002 C 
ATOM      9  C   UNL     1       3.055   1.106  -1.093  0.00  0.00    +0.007 C 
ATOM     10  C   UNL     1      -2.275  -1.691   0.940  0.00  0.00    +0.048 C 
ATOM     11  C   UNL     1      -0.333  -2.772  -0.461  0.00  0.00    +0.056 C 
ATOM     12  C   UNL     1      -1.446  -2.967   0.595  0.00  0.00    +0.115 C 
ATOM     13  C   UNL     1       4.110   0.304  -0.261  0.00  0.00    +0.062 C 
ATOM     14  C   UNL     1       2.928  -1.802  -1.201  0.00  0.00    +0.170 C 
ATOM     15  C   UNL     1      -3.436  -1.376  -0.067  0.00  0.00    +0.074 C 
ATOM     16  C   UNL     1      -2.148   0.788   1.449  0.00  0.00    -0.077 C 
ATOM     17  C   UNL     1      -4.096   0.025   0.215  0.00  0.00    -0.033 C 
ATOM     18  C   UNL     1       2.973   2.588  -0.597  0.00  0.00    +0.003 C 
ATOM     19  C   UNL     1       3.803  -1.185  -0.130  0.00  0.00    +0.177 C 
ATOM     20  C   UNL     1       3.547   1.167  -2.572  0.00  0.00    +0.000 C 
ATOM     21  C   UNL     1       4.344   0.925   1.122  0.00  0.00    +0.037 C 
ATOM     22  C   UNL     1       4.331   3.138  -0.162  0.00  0.00    +0.029 C 
ATOM     23  C   UNL     1       4.891   2.352   1.025  0.00  0.00    +0.111 C 
ATOM     24  C   UNL     1      -5.107   0.421  -0.892  0.00  0.00    -0.019 C 
ATOM     25  C   UNL     1      -4.508  -2.485   0.030  0.00  0.00    +0.027 C 
ATOM     26  C   UNL     1      -3.700   2.411   0.640  0.00  0.00    -0.077 C 
ATOM     27  C   UNL     1      -4.675   2.842  -0.460  0.00  0.00    -0.021 C 
ATOM     28  C   UNL     1      -5.753   1.778  -0.634  0.00  0.00    -0.004 C 
ATOM     29  C   UNL     1      -5.299   4.198  -0.134  0.00  0.00    -0.002 C 
ATOM     30  H   UNL     1      -2.588   1.151  -0.529  0.00  0.00    -0.080 HD
ENDROOT
BRANCH   4  31
ATOM     31  O   UNL     1       1.230  -1.790   1.091  0.00  0.00    -0.387 OA
ATOM     32  H   UNL     1       1.789  -1.026   1.300  0.00  0.00    +0.210 HD
ENDBRANCH   4  31
BRANCH  12  33
ATOM     33  O   UNL     1      -0.852  -3.429   1.816  0.00  0.00    -0.384 OA
ATOM     34  H   UNL     1      -1.544  -3.554   2.484  0.00  0.00    +0.210 HD
ENDBRANCH  12  33
BRANCH  14  35
ATOM     35  O   UNL     1       2.779  -3.193  -0.985  0.00  0.00    -0.377 OA
ATOM     36  H   UNL     1       2.217  -3.570  -1.680  0.00  0.00    +0.211 HD
ENDBRANCH  14  35
BRANCH  15  37
ATOM     37  O   UNL     1      -2.924  -1.401  -1.400  0.00  0.00    -0.389 OA
ATOM     38  H   UNL     1      -2.246  -0.715  -1.499  0.00  0.00    +0.210 HD
ENDBRANCH  15  37
BRANCH  23  39
ATOM     39  O   UNL     1       4.574   3.046   2.230  0.00  0.00    -0.384 OA
ATOM     40  H   UNL     1       4.925   2.554   2.989  0.00  0.00    +0.210 HD
ENDBRANCH  23  39
TORSDOF 5
