138113851
  -OEChem-03292013293D

 48 52  0     1  0  0  0  0  0999 V2000
   -1.8690   -2.4527    1.0564 O   0  0  0  0  0  0  0  0  0  0  0  0
   -1.6449    2.2469   -0.2513 O   0  0  0  0  0  0  0  0  0  0  0  0
   -4.2184   -0.5533   -1.0373 O   0  0  0  0  0  0  0  0  0  0  0  0
    0.7730    2.2858   -1.3134 O   0  0  0  0  0  0  0  0  0  0  0  0
   -3.9077    2.1114   -0.5517 O   0  0  0  0  0  0  0  0  0  0  0  0
    3.6286   -0.8380    0.0992 O   0  0  0  0  0  0  0  0  0  0  0  0
    3.6330   -3.0953   -0.1055 O   0  0  0  0  0  0  0  0  0  0  0  0
   -0.6776   -0.8219   -0.4546 C   0  0  2  0  0  0  0  0  0  0  0  0
   -1.2059    0.1437    0.6512 C   0  0  2  0  0  0  0  0  0  0  0  0
   -1.3961   -2.1572   -0.2684 C   0  0  2  0  0  0  0  0  0  0  0  0
   -2.7334    0.3570    0.7014 C   0  0  2  0  0  0  0  0  0  0  0  0
   -2.8579   -2.1458    0.0663 C   0  0  2  0  0  0  0  0  0  0  0  0
   -3.5912   -0.8463    0.2127 C   0  0  2  0  0  0  0  0  0  0  0  0
   -0.6669    1.5572    0.5345 C   0  0  1  0  0  0  0  0  0  0  0  0
    0.8552   -0.8648   -0.2809 C   0  0  0  0  0  0  0  0  0  0  0  0
    0.7608    1.6912   -0.0170 C   0  0  1  0  0  0  0  0  0  0  0  0
   -0.9689   -0.3982   -1.9181 C   0  0  0  0  0  0  0  0  0  0  0  0
   -2.8687    1.6415   -0.1117 C   0  0  0  0  0  0  0  0  0  0  0  0
   -3.1691    0.7055    2.1441 C   0  0  0  0  0  0  0  0  0  0  0  0
    1.5612    0.4042   -0.0671 C   0  0  0  0  0  0  0  0  0  0  0  0
    1.5562   -2.0108   -0.2823 C   0  0  0  0  0  0  0  0  0  0  0  0
    2.8987    0.3743    0.1134 C   0  0  0  0  0  0  0  0  0  0  0  0
    3.0147   -2.0364   -0.0916 C   0  0  0  0  0  0  0  0  0  0  0  0
    3.7934    1.5608    0.3119 C   0  0  0  0  0  0  0  0  0  0  0  0
    4.4793    1.4837    1.6721 C   0  0  0  0  0  0  0  0  0  0  0  0
    4.8213    1.6576   -0.8120 C   0  0  0  0  0  0  0  0  0  0  0  0
   -0.8651   -0.2591    1.6185 H   0  0  0  0  0  0  0  0  0  0  0  0
   -1.0534   -2.9653   -0.9008 H   0  0  0  0  0  0  0  0  0  0  0  0
   -3.4819   -2.9576   -0.2832 H   0  0  0  0  0  0  0  0  0  0  0  0
   -4.4125   -1.0328    0.9154 H   0  0  0  0  0  0  0  0  0  0  0  0
   -0.6738    2.0255    1.5284 H   0  0  0  0  0  0  0  0  0  0  0  0
    1.2479    2.4142    0.6460 H   0  0  0  0  0  0  0  0  0  0  0  0
   -2.0379   -0.3461   -2.1330 H   0  0  0  0  0  0  0  0  0  0  0  0
   -0.5537   -1.1356   -2.6179 H   0  0  0  0  0  0  0  0  0  0  0  0
   -0.5459    0.5657   -2.1955 H   0  0  0  0  0  0  0  0  0  0  0  0
   -4.2393    0.9421    2.1806 H   0  0  0  0  0  0  0  0  0  0  0  0
   -2.6450    1.5809    2.5419 H   0  0  0  0  0  0  0  0  0  0  0  0
   -2.9848   -0.1341    2.8235 H   0  0  0  0  0  0  0  0  0  0  0  0
   -4.8749    0.1462   -0.8782 H   0  0  0  0  0  0  0  0  0  0  0  0
    1.0923   -2.9792   -0.4257 H   0  0  0  0  0  0  0  0  0  0  0  0
    1.6990    2.4106   -1.5822 H   0  0  0  0  0  0  0  0  0  0  0  0
    3.2342    2.4997    0.2897 H   0  0  0  0  0  0  0  0  0  0  0  0
    5.5022    0.7991   -0.8227 H   0  0  0  0  0  0  0  0  0  0  0  0
    5.4323    2.5599   -0.6972 H   0  0  0  0  0  0  0  0  0  0  0  0
    5.1402    0.6133    1.7518 H   0  0  0  0  0  0  0  0  0  0  0  0
    3.7429    1.4245    2.4816 H   0  0  0  0  0  0  0  0  0  0  0  0
    5.0899    2.3768    1.8456 H   0  0  0  0  0  0  0  0  0  0  0  0
    4.3308    1.7122   -1.7904 H   0  0  0  0  0  0  0  0  0  0  0  0
  1 10  1  0  0  0  0
  1 12  1  0  0  0  0
  2 14  1  0  0  0  0
  2 18  1  0  0  0  0
  3 13  1  0  0  0  0
  3 39  1  0  0  0  0
  4 16  1  0  0  0  0
  4 41  1  0  0  0  0
  5 18  2  0  0  0  0
  6 22  1  0  0  0  0
  6 23  1  0  0  0  0
  7 23  2  0  0  0  0
  8  9  1  0  0  0  0
  8 10  1  0  0  0  0
  8 15  1  0  0  0  0
  8 17  1  0  0  0  0
  9 11  1  0  0  0  0
  9 14  1  0  0  0  0
  9 27  1  0  0  0  0
 10 12  1  0  0  0  0
 10 28  1  0  0  0  0
 11 13  1  0  0  0  0
 11 18  1  0  0  0  0
 11 19  1  0  0  0  0
 12 13  1  0  0  0  0
 12 29  1  0  0  0  0
 13 30  1  0  0  0  0
 14 16  1  0  0  0  0
 14 31  1  0  0  0  0
 15 20  1  0  0  0  0
 15 21  2  0  0  0  0
 16 20  1  0  0  0  0
 16 32  1  0  0  0  0
 17 33  1  0  0  0  0
 17 34  1  0  0  0  0
 17 35  1  0  0  0  0
 19 36  1  0  0  0  0
 19 37  1  0  0  0  0
 19 38  1  0  0  0  0
 20 22  2  0  0  0  0
 21 23  1  0  0  0  0
 21 40  1  0  0  0  0
 22 24  1  0  0  0  0
 24 25  1  0  0  0  0
 24 26  1  0  0  0  0
 24 42  1  0  0  0  0
 25 45  1  0  0  0  0
 25 46  1  0  0  0  0
 25 47  1  0  0  0  0
 26 43  1  0  0  0  0
 26 44  1  0  0  0  0
 26 48  1  0  0  0  0
M  END
> <PUBCHEM_COMPOUND_CID>
138113851

> <PUBCHEM_CONFORMER_RMSD>
0.6

> <PUBCHEM_CONFORMER_DIVERSEORDER>
1
2

> <PUBCHEM_MMFF94_PARTIAL_CHARGES>
26
1 -0.3
10 -0.05
11 0.06
12 -0.05
13 0.38
14 0.28
15 -0.14
16 0.42
18 0.66
2 -0.43
20 -0.14
21 -0.14
22 -0.06
23 0.71
24 0.14
28 0.1
29 0.1
3 -0.68
39 0.4
4 -0.68
40 0.15
41 0.4
5 -0.57
6 -0.23
7 -0.57
8 0.23

> <PUBCHEM_EFFECTIVE_ROTOR_COUNT>
1.8

> <PUBCHEM_PHARMACOPHORE_FEATURES>
12
1 1 acceptor
1 3 acceptor
1 3 donor
1 4 acceptor
1 4 donor
1 5 acceptor
1 7 acceptor
3 24 25 26 hydrophobe
5 2 9 11 14 18 rings
6 6 15 20 21 22 23 rings
6 8 9 14 15 16 20 rings
7 1 8 9 10 11 12 13 rings

> <PUBCHEM_HEAVY_ATOM_COUNT>
26

> <PUBCHEM_ATOM_DEF_STEREO_COUNT>
4

> <PUBCHEM_ATOM_UDEF_STEREO_COUNT>
4

> <PUBCHEM_BOND_DEF_STEREO_COUNT>
0

> <PUBCHEM_BOND_UDEF_STEREO_COUNT>
0

> <PUBCHEM_ISOTOPIC_ATOM_COUNT>
0

> <PUBCHEM_COMPONENT_COUNT>
1

> <PUBCHEM_CACTVS_TAUTO_COUNT>
-1

> <PUBCHEM_CONFORMER_ID>
083B733B00000001

> <PUBCHEM_MMFF94_ENERGY>
95.5325

> <PUBCHEM_FEATURE_SELFOVERLAP>
61.097

> <PUBCHEM_SHAPE_FINGERPRINT>
10366900 7 18200311155488832360
10616163 171 18338521949117890750
10863032 1 18341612594424747505
10948715 1 18266455400394995069
10967382 1 18411139172899014646
1100329 8 18052538759805458634
11132069 177 18408882966617773368
11370993 70 18410284813604064610
11578080 2 17531798048815901550
11680986 33 18411140203754371750
12011746 2 18341612663444911341
12403260 363 18197209244313848851
12553582 1 18263376917533460032
12633257 1 18055925294353050178
13140716 1 18269002994221312195
13224815 77 18413107273248781136
13583140 156 18130498721308797624
14081887 123 18343014510690107416
14178342 30 18337385067206532314
14223421 5 18412546522239624010
14289901 80 18261116283272532560
14787075 74 17557698354988891888
14790565 3 18052262791494806025
15196674 1 18411699859578633855
15536298 74 18343585131607813798
16945 1 18262815058865417013
17349148 13 18263352749900009580
17492 89 18410293609750659331
1813 80 17167869685351561823
20691752 17 17968099681380952314
21033648 29 18188769427345542761
21267235 1 18411991255856510438
23227448 37 18411136930820454853
2334 1 18412549820495101358
23366157 5 18187087222479907862
23559900 14 18198336269808487554
23566358 27 18336278864272942806
2748010 2 18191597341239710989
335352 9 18122907525368437918
34934 24 18411696616598737603
350125 39 18411699864559344904
392239 28 17701253866034460784
463206 1 17407390803399276239
469060 322 18121792878302213507
5104073 3 18412265008376223419
9709674 26 18412265012797952758

> <PUBCHEM_SHAPE_MULTIPOLES>
493.98
8.13
3.02
1.28
4.67
1.06
-0.16
-1.57
-0.99
0.7
0.1
-0.38
-0.38
0.17

> <PUBCHEM_SHAPE_SELFOVERLAP>
1095.394

> <PUBCHEM_SHAPE_VOLUME>
259.7

> <PUBCHEM_COORDINATE_TYPE>
2
5
10

$$$$
