13816962
  -OEChem-03292013303D

 57 60  0     1  0  0  0  0  0999 V2000
    0.0642    0.7273    3.0803 O   0  0  0  0  0  0  0  0  0  0  0  0
    0.5180    2.0653    0.3994 O   0  0  0  0  0  0  0  0  0  0  0  0
    1.7210   -2.2247    0.2812 O   0  0  0  0  0  0  0  0  0  0  0  0
    2.4102    0.7460   -1.1822 O   0  0  0  0  0  0  0  0  0  0  0  0
   -2.6111   -1.6237   -0.2826 O   0  0  0  0  0  0  0  0  0  0  0  0
    3.2155   -1.9293   -1.4555 O   0  0  0  0  0  0  0  0  0  0  0  0
    3.8138    2.2532   -0.1358 O   0  0  0  0  0  0  0  0  0  0  0  0
   -3.4114   -2.3639   -2.3196 O   0  0  0  0  0  0  0  0  0  0  0  0
   -0.1170   -0.6627    0.9427 C   0  0  1  0  0  0  0  0  0  0  0  0
    0.6579    0.2280    1.8915 C   0  0  1  0  0  0  0  0  0  0  0  0
   -1.2102    0.2500    0.2026 C   0  0  2  0  0  0  0  0  0  0  0  0
    1.4290    1.1575    1.0263 C   0  0  1  0  0  0  0  0  0  0  0  0
    1.0633   -1.0060   -0.0672 C   0  0  1  0  0  0  0  0  0  0  0  0
    2.0880    0.1575    0.0626 C   0  0  1  0  0  0  0  0  0  0  0  0
    1.1699   -0.1744    3.2577 C   0  0  0  0  0  0  0  0  0  0  0  0
   -0.4971    1.4897   -0.4408 C   0  0  1  0  0  0  0  0  0  0  0  0
   -0.7222   -1.9101    1.5944 C   0  0  0  0  0  0  0  0  0  0  0  0
   -2.3111    0.7738    1.1766 C   0  0  0  0  0  0  0  0  0  0  0  0
   -1.9373   -0.5609   -0.9103 C   0  0  0  0  0  0  0  0  0  0  0  0
   -1.4204    2.6238   -0.8047 C   0  0  0  0  0  0  0  0  0  0  0  0
   -3.3277    1.7139    0.5140 C   0  0  0  0  0  0  0  0  0  0  0  0
   -2.6964    2.7293   -0.3988 C   0  0  0  0  0  0  0  0  0  0  0  0
    2.7860   -2.5648   -0.5022 C   0  0  0  0  0  0  0  0  0  0  0  0
   -3.5753    3.8649   -0.8327 C   0  0  0  0  0  0  0  0  0  0  0  0
    3.2925    1.7945   -1.1432 C   0  0  0  0  0  0  0  0  0  0  0  0
   -3.3217   -2.4662   -1.1036 C   0  0  0  0  0  0  0  0  0  0  0  0
    3.3734   -3.8571   -0.0220 C   0  0  0  0  0  0  0  0  0  0  0  0
    3.5392    2.3146   -2.5270 C   0  0  0  0  0  0  0  0  0  0  0  0
   -3.9830   -3.5453   -0.3012 C   0  0  0  0  0  0  0  0  0  0  0  0
    2.1574    1.7465    1.5905 H   0  0  0  0  0  0  0  0  0  0  0  0
    0.7079   -1.1167   -1.0941 H   0  0  0  0  0  0  0  0  0  0  0  0
    3.0116   -0.2101    0.5320 H   0  0  0  0  0  0  0  0  0  0  0  0
    0.9466   -1.1437    3.6780 H   0  0  0  0  0  0  0  0  0  0  0  0
    2.1035    0.2500    3.6063 H   0  0  0  0  0  0  0  0  0  0  0  0
   -0.0217    1.1812   -1.3791 H   0  0  0  0  0  0  0  0  0  0  0  0
    0.0073   -2.4120    2.2393 H   0  0  0  0  0  0  0  0  0  0  0  0
   -1.5793   -1.6846    2.2333 H   0  0  0  0  0  0  0  0  0  0  0  0
   -0.9940   -2.6747    0.8628 H   0  0  0  0  0  0  0  0  0  0  0  0
   -2.8605   -0.0424    1.6569 H   0  0  0  0  0  0  0  0  0  0  0  0
   -1.8555    1.3481    1.9877 H   0  0  0  0  0  0  0  0  0  0  0  0
   -2.6546    0.0540   -1.4643 H   0  0  0  0  0  0  0  0  0  0  0  0
   -1.2351   -0.9566   -1.6494 H   0  0  0  0  0  0  0  0  0  0  0  0
   -1.0019    3.3909   -1.4526 H   0  0  0  0  0  0  0  0  0  0  0  0
   -4.0697    1.1345   -0.0481 H   0  0  0  0  0  0  0  0  0  0  0  0
   -3.8780    2.2314    1.3100 H   0  0  0  0  0  0  0  0  0  0  0  0
   -4.4558    3.4823   -1.3590 H   0  0  0  0  0  0  0  0  0  0  0  0
   -3.0573    4.5543   -1.5075 H   0  0  0  0  0  0  0  0  0  0  0  0
   -3.9115    4.4390    0.0367 H   0  0  0  0  0  0  0  0  0  0  0  0
    4.2254   -4.1252   -0.6532 H   0  0  0  0  0  0  0  0  0  0  0  0
    3.7241   -3.7445    1.0070 H   0  0  0  0  0  0  0  0  0  0  0  0
    2.6260   -4.6516   -0.0897 H   0  0  0  0  0  0  0  0  0  0  0  0
    2.6012    2.6716   -2.9596 H   0  0  0  0  0  0  0  0  0  0  0  0
    3.9738    1.5260   -3.1463 H   0  0  0  0  0  0  0  0  0  0  0  0
    4.2429    3.1505   -2.4808 H   0  0  0  0  0  0  0  0  0  0  0  0
   -4.5719   -4.1835   -0.9660 H   0  0  0  0  0  0  0  0  0  0  0  0
   -3.2235   -4.1577    0.1908 H   0  0  0  0  0  0  0  0  0  0  0  0
   -4.6543   -3.0985    0.4364 H   0  0  0  0  0  0  0  0  0  0  0  0
  1 10  1  0  0  0  0
  1 15  1  0  0  0  0
  2 12  1  0  0  0  0
  2 16  1  0  0  0  0
  3 13  1  0  0  0  0
  3 23  1  0  0  0  0
  4 14  1  0  0  0  0
  4 25  1  0  0  0  0
  5 19  1  0  0  0  0
  5 26  1  0  0  0  0
  6 23  2  0  0  0  0
  7 25  2  0  0  0  0
  8 26  2  0  0  0  0
  9 10  1  0  0  0  0
  9 11  1  0  0  0  0
  9 13  1  0  0  0  0
  9 17  1  0  0  0  0
 10 12  1  0  0  0  0
 10 15  1  0  0  0  0
 11 16  1  0  0  0  0
 11 18  1  0  0  0  0
 11 19  1  0  0  0  0
 12 14  1  0  0  0  0
 12 30  1  0  0  0  0
 13 14  1  0  0  0  0
 13 31  1  0  0  0  0
 14 32  1  0  0  0  0
 15 33  1  0  0  0  0
 15 34  1  0  0  0  0
 16 20  1  0  0  0  0
 16 35  1  0  0  0  0
 17 36  1  0  0  0  0
 17 37  1  0  0  0  0
 17 38  1  0  0  0  0
 18 21  1  0  0  0  0
 18 39  1  0  0  0  0
 18 40  1  0  0  0  0
 19 41  1  0  0  0  0
 19 42  1  0  0  0  0
 20 22  2  0  0  0  0
 20 43  1  0  0  0  0
 21 22  1  0  0  0  0
 21 44  1  0  0  0  0
 21 45  1  0  0  0  0
 22 24  1  0  0  0  0
 23 27  1  0  0  0  0
 24 46  1  0  0  0  0
 24 47  1  0  0  0  0
 24 48  1  0  0  0  0
 25 28  1  0  0  0  0
 26 29  1  0  0  0  0
 27 49  1  0  0  0  0
 27 50  1  0  0  0  0
 27 51  1  0  0  0  0
 28 52  1  0  0  0  0
 28 53  1  0  0  0  0
 28 54  1  0  0  0  0
 29 55  1  0  0  0  0
 29 56  1  0  0  0  0
 29 57  1  0  0  0  0
M  END
> <PUBCHEM_COMPOUND_CID>
13816962

> <PUBCHEM_CONFORMER_RMSD>
1

> <PUBCHEM_CONFORMER_DIVERSEORDER>
1
3
2

> <PUBCHEM_MMFF94_PARTIAL_CHARGES>
29
1 -0.3
10 -0.04
12 0.38
13 0.28
14 0.28
15 -0.05
16 0.42
19 0.28
2 -0.56
20 -0.29
21 0.14
22 -0.28
23 0.66
24 0.14
25 0.66
26 0.66
27 0.06
28 0.06
29 0.06
3 -0.43
33 0.1
34 0.1
4 -0.43
43 0.15
5 -0.43
6 -0.57
7 -0.57
8 -0.57
9 0.09

> <PUBCHEM_EFFECTIVE_ROTOR_COUNT>
8.4

> <PUBCHEM_PHARMACOPHORE_FEATURES>
7
1 1 acceptor
1 2 acceptor
1 6 acceptor
1 7 acceptor
1 8 acceptor
6 11 16 18 20 21 22 rings
8 2 9 10 11 12 13 14 16 rings

> <PUBCHEM_HEAVY_ATOM_COUNT>
29

> <PUBCHEM_ATOM_DEF_STEREO_COUNT>
6

> <PUBCHEM_ATOM_UDEF_STEREO_COUNT>
1

> <PUBCHEM_BOND_DEF_STEREO_COUNT>
0

> <PUBCHEM_BOND_UDEF_STEREO_COUNT>
0

> <PUBCHEM_ISOTOPIC_ATOM_COUNT>
0

> <PUBCHEM_COMPONENT_COUNT>
1

> <PUBCHEM_CACTVS_TAUTO_COUNT>
1

> <PUBCHEM_CONFORMER_ID>
00D2D48200000001

> <PUBCHEM_MMFF94_ENERGY>
99.7869

> <PUBCHEM_FEATURE_SELFOVERLAP>
35.532

> <PUBCHEM_SHAPE_FINGERPRINT>
10863032 1 18342750601823564820
10930396 42 17401728993211055482
11135609 12 18336248077488617499
11578080 2 17917421038472731856
12553582 1 18051678143439990639
12788726 201 18261658368860496121
13149001 5 17700672000876327099
14115302 16 17915175715490515536
14713325 29 17898878965013963008
15664445 248 18052248789795192085
16945 1 18196943389990762842
17492 54 17682965748984930220
17980427 23 18042383834269572816
17980427 26 17240769415360567360
18681886 176 17903628593053029133
18981168 100 14780107446530877141
20344682 6 18194123147007989654
20600515 1 16959507760948503419
21033648 29 17550636960428980600
22393880 68 18342471330898086484
22907989 373 17536620729879852284
229495 10 18194433080342967729
23419403 2 17416376858154946578
23558518 356 18187081754237122634
2818148 4 18341900701316396215
298252 57 17612319549867164363
3060560 45 17763164135573094071
3380486 77 17172599780401352211
340366 18 18121505648058756958
484985 159 16840557108604109820
57527585 21 17608121915093958469
81228 2 18196625528842352507
9981440 41 18116449205311998284

> <PUBCHEM_SHAPE_MULTIPOLES>
549.85
6.61
4.71
2.29
0.08
1.44
1.33
0.52
-3.69
1.72
-2.4
-0.77
-0.06
-1.44

> <PUBCHEM_SHAPE_SELFOVERLAP>
1172.953

> <PUBCHEM_SHAPE_VOLUME>
299.5

> <PUBCHEM_COORDINATE_TYPE>
2
5
10

$$$$
