REMARK  Name = 138107787
REMARK  4 active torsions:
REMARK  status: ('A' for Active; 'I' for Inactive)
REMARK    1  A    between atoms: C_7  and  O_23
REMARK    2  A    between atoms: C_8  and  O_25
REMARK    3  A    between atoms: C_9  and  O_27
REMARK    4  A    between atoms: C_11  and  O_29
REMARK                            x       y       z     vdW  Elec       q    Type
REMARK                         _______ _______ _______ _____ _____    ______ ____
ROOT
ATOM      1  O   UNL     1       0.239  -1.079   1.842  0.00  0.00    -0.332 OA
ATOM      2  O   UNL     1      -1.827  -1.223  -2.052  0.00  0.00    -0.291 OA
ATOM      3  C   UNL     1       1.022   0.791   0.412  0.00  0.00    +0.055 C 
ATOM      4  C   UNL     1      -1.288  -0.292   0.165  0.00  0.00    +0.129 C 
ATOM      5  C   UNL     1      -0.469   1.017  -0.087  0.00  0.00    +0.019 C 
ATOM      6  C   UNL     1       1.665  -0.294  -0.545  0.00  0.00    +0.036 C 
ATOM      7  C   UNL     1      -0.332  -1.429   0.565  0.00  0.00    +0.217 C 
ATOM      8  C   UNL     1       0.841  -1.607  -0.422  0.00  0.00    +0.162 C 
ATOM      9  C   UNL     1      -2.449  -0.026   1.174  0.00  0.00    +0.126 C 
ATOM     10  C   UNL     1       3.243  -0.401  -0.564  0.00  0.00    +0.003 C 
ATOM     11  C   UNL     1       1.827   2.113   0.403  0.00  0.00    +0.113 C 
ATOM     12  C   UNL     1       0.915   0.189   1.833  0.00  0.00    +0.147 C 
ATOM     13  C   UNL     1      -1.176   2.269   0.497  0.00  0.00    +0.001 C 
ATOM     14  C   UNL     1      -3.363   0.919   0.382  0.00  0.00    +0.053 C 
ATOM     15  C   UNL     1      -2.130  -0.545  -1.085  0.00  0.00    +0.175 C 
ATOM     16  C   UNL     1      -2.696   2.298   0.257  0.00  0.00    +0.007 C 
ATOM     17  C   UNL     1       3.853   1.022  -0.600  0.00  0.00    +0.003 C 
ATOM     18  C   UNL     1       3.333   1.910   0.527  0.00  0.00    +0.029 C 
ATOM     19  C   UNL     1      -3.402   0.225  -0.958  0.00  0.00    +0.015 C 
ATOM     20  C   UNL     1       3.907  -1.162   0.606  0.00  0.00    +0.000 C 
ATOM     21  C   UNL     1       3.679  -1.119  -1.866  0.00  0.00    +0.000 C 
ATOM     22  C   UNL     1      -4.379   0.205  -1.866  0.00  0.00    -0.002 C 
ENDROOT
BRANCH   7  23
ATOM     23  O   UNL     1      -1.056  -2.653   0.673  0.00  0.00    -0.361 OA
ATOM     24  H   UNL     1      -1.793  -2.540   1.294  0.00  0.00    +0.213 HD
ENDBRANCH   7  23
BRANCH   8  25
ATOM     25  O   UNL     1       1.609  -2.725   0.006  0.00  0.00    -0.380 OA
ATOM     26  H   UNL     1       2.355  -2.857  -0.600  0.00  0.00    +0.211 HD
ENDBRANCH   8  25
BRANCH   9  27
ATOM     27  O   UNL     1      -3.152  -1.213   1.528  0.00  0.00    -0.384 OA
ATOM     28  H   UNL     1      -2.563  -1.801   2.027  0.00  0.00    +0.210 HD
ENDBRANCH   9  27
BRANCH  11  29
ATOM     29  O   UNL     1       1.586   2.812  -0.824  0.00  0.00    -0.384 OA
ATOM     30  H   UNL     1       0.633   2.957  -0.931  0.00  0.00    +0.210 HD
ENDBRANCH  11  29
TORSDOF 4
