13818797
  -OEChem-03292013303D

 53 56  0     1  0  0  0  0  0999 V2000
    2.0255   -1.3022   -2.3595 O   0  0  0  0  0  0  0  0  0  0  0  0
   -0.0219   -2.4827    0.4180 O   0  0  0  0  0  0  0  0  0  0  0  0
    2.9038    0.8256   -0.0880 O   0  0  0  0  0  0  0  0  0  0  0  0
    2.1423   -1.7148    1.9990 O   0  0  0  0  0  0  0  0  0  0  0  0
   -1.2860    2.1899   -0.2721 O   0  0  0  0  0  0  0  0  0  0  0  0
   -3.9807    0.4574   -0.3240 O   0  0  0  0  0  0  0  0  0  0  0  0
    3.9925    0.3945    1.9035 O   0  0  0  0  0  0  0  0  0  0  0  0
   -1.8836    3.6923    1.3782 O   0  0  0  0  0  0  0  0  0  0  0  0
    0.6449    0.0372   -0.7539 C   0  0  1  0  0  0  0  0  0  0  0  0
    0.9791   -1.3068   -1.3747 C   0  0  2  0  0  0  0  0  0  0  0  0
   -0.7999   -0.1414   -0.0838 C   0  0  2  0  0  0  0  0  0  0  0  0
    1.2316   -2.2132   -0.2194 C   0  0  1  0  0  0  0  0  0  0  0  0
    1.7616    0.1029    0.3711 C   0  0  1  0  0  0  0  0  0  0  0  0
    0.7384   -1.7609   -2.7942 C   0  0  0  0  0  0  0  0  0  0  0  0
    2.1903   -1.3652    0.6295 C   0  0  1  0  0  0  0  0  0  0  0  0
   -0.7504   -1.3465    0.9194 C   0  0  1  0  0  0  0  0  0  0  0  0
    0.7206    1.2178   -1.7289 C   0  0  0  0  0  0  0  0  0  0  0  0
   -1.9004   -0.4507   -1.1523 C   0  0  0  0  0  0  0  0  0  0  0  0
   -1.2079    1.1511    0.6743 C   0  0  0  0  0  0  0  0  0  0  0  0
   -3.2902   -0.7658   -0.5712 C   0  0  1  0  0  0  0  0  0  0  0  0
   -2.1019   -1.8731    1.3226 C   0  0  0  0  0  0  0  0  0  0  0  0
   -3.2515   -1.6041    0.6815 C   0  0  0  0  0  0  0  0  0  0  0  0
    3.9503    0.8910    0.7859 C   0  0  0  0  0  0  0  0  0  0  0  0
   -4.5606   -2.1638    1.1616 C   0  0  0  0  0  0  0  0  0  0  0  0
   -1.6374    3.4278    0.2093 C   0  0  0  0  0  0  0  0  0  0  0  0
    5.0712    1.6745    0.1728 C   0  0  0  0  0  0  0  0  0  0  0  0
   -1.6796    4.4294   -0.9048 C   0  0  0  0  0  0  0  0  0  0  0  0
    1.6801   -3.1721   -0.4976 H   0  0  0  0  0  0  0  0  0  0  0  0
    1.4076    0.5955    1.2802 H   0  0  0  0  0  0  0  0  0  0  0  0
    0.6202   -2.8206   -2.9803 H   0  0  0  0  0  0  0  0  0  0  0  0
    0.1821   -1.1193   -3.4642 H   0  0  0  0  0  0  0  0  0  0  0  0
    3.2123   -1.5430    0.2718 H   0  0  0  0  0  0  0  0  0  0  0  0
   -0.2660   -1.0209    1.8474 H   0  0  0  0  0  0  0  0  0  0  0  0
    0.8008    2.1785   -1.2127 H   0  0  0  0  0  0  0  0  0  0  0  0
    1.6215    1.1564   -2.3516 H   0  0  0  0  0  0  0  0  0  0  0  0
   -0.1162    1.2479   -2.4308 H   0  0  0  0  0  0  0  0  0  0  0  0
   -1.6048   -1.3355   -1.7259 H   0  0  0  0  0  0  0  0  0  0  0  0
   -1.9969    0.3699   -1.8711 H   0  0  0  0  0  0  0  0  0  0  0  0
   -0.4707    1.4137    1.4391 H   0  0  0  0  0  0  0  0  0  0  0  0
   -2.1634    1.0427    1.1964 H   0  0  0  0  0  0  0  0  0  0  0  0
   -3.8564   -1.2971   -1.3464 H   0  0  0  0  0  0  0  0  0  0  0  0
   -2.1198   -2.5105    2.2041 H   0  0  0  0  0  0  0  0  0  0  0  0
    2.3213   -2.6683    2.0636 H   0  0  0  0  0  0  0  0  0  0  0  0
   -4.4354   -2.8219    2.0280 H   0  0  0  0  0  0  0  0  0  0  0  0
   -5.0370   -2.7495    0.3687 H   0  0  0  0  0  0  0  0  0  0  0  0
   -5.2393   -1.3572    1.4554 H   0  0  0  0  0  0  0  0  0  0  0  0
   -4.9118    0.2443   -0.1430 H   0  0  0  0  0  0  0  0  0  0  0  0
    4.7365    2.6919   -0.0444 H   0  0  0  0  0  0  0  0  0  0  0  0
    5.4140    1.1785   -0.7387 H   0  0  0  0  0  0  0  0  0  0  0  0
    5.9062    1.7251    0.8774 H   0  0  0  0  0  0  0  0  0  0  0  0
   -2.4052    4.1131   -1.6584 H   0  0  0  0  0  0  0  0  0  0  0  0
   -0.6856    4.5323   -1.3468 H   0  0  0  0  0  0  0  0  0  0  0  0
   -1.9898    5.4006   -0.5088 H   0  0  0  0  0  0  0  0  0  0  0  0
  1 10  1  0  0  0  0
  1 14  1  0  0  0  0
  2 12  1  0  0  0  0
  2 16  1  0  0  0  0
  3 13  1  0  0  0  0
  3 23  1  0  0  0  0
  4 15  1  0  0  0  0
  4 43  1  0  0  0  0
  5 19  1  0  0  0  0
  5 25  1  0  0  0  0
  6 20  1  0  0  0  0
  6 47  1  0  0  0  0
  7 23  2  0  0  0  0
  8 25  2  0  0  0  0
  9 10  1  0  0  0  0
  9 11  1  0  0  0  0
  9 13  1  0  0  0  0
  9 17  1  0  0  0  0
 10 12  1  0  0  0  0
 10 14  1  0  0  0  0
 11 16  1  0  0  0  0
 11 18  1  0  0  0  0
 11 19  1  0  0  0  0
 12 15  1  0  0  0  0
 12 28  1  0  0  0  0
 13 15  1  0  0  0  0
 13 29  1  0  0  0  0
 14 30  1  0  0  0  0
 14 31  1  0  0  0  0
 15 32  1  0  0  0  0
 16 21  1  0  0  0  0
 16 33  1  0  0  0  0
 17 34  1  0  0  0  0
 17 35  1  0  0  0  0
 17 36  1  0  0  0  0
 18 20  1  0  0  0  0
 18 37  1  0  0  0  0
 18 38  1  0  0  0  0
 19 39  1  0  0  0  0
 19 40  1  0  0  0  0
 20 22  1  0  0  0  0
 20 41  1  0  0  0  0
 21 22  2  0  0  0  0
 21 42  1  0  0  0  0
 22 24  1  0  0  0  0
 23 26  1  0  0  0  0
 24 44  1  0  0  0  0
 24 45  1  0  0  0  0
 24 46  1  0  0  0  0
 25 27  1  0  0  0  0
 26 48  1  0  0  0  0
 26 49  1  0  0  0  0
 26 50  1  0  0  0  0
 27 51  1  0  0  0  0
 27 52  1  0  0  0  0
 27 53  1  0  0  0  0
M  END
> <PUBCHEM_COMPOUND_CID>
13818797

> <PUBCHEM_CONFORMER_RMSD>
0.8

> <PUBCHEM_CONFORMER_DIVERSEORDER>
3
4
1
2

> <PUBCHEM_MMFF94_PARTIAL_CHARGES>
29
1 -0.3
10 -0.04
12 0.38
13 0.28
14 -0.05
15 0.28
16 0.42
19 0.28
2 -0.56
20 0.42
21 -0.29
22 -0.28
23 0.66
24 0.14
25 0.66
26 0.06
27 0.06
3 -0.43
30 0.1
31 0.1
4 -0.68
42 0.15
43 0.4
47 0.4
5 -0.43
6 -0.68
7 -0.57
8 -0.57
9 0.09

> <PUBCHEM_EFFECTIVE_ROTOR_COUNT>
6.4

> <PUBCHEM_PHARMACOPHORE_FEATURES>
10
1 1 acceptor
1 2 acceptor
1 4 acceptor
1 4 donor
1 6 acceptor
1 6 donor
1 7 acceptor
1 8 acceptor
6 11 16 18 20 21 22 rings
8 2 9 10 11 12 13 15 16 rings

> <PUBCHEM_HEAVY_ATOM_COUNT>
27

> <PUBCHEM_ATOM_DEF_STEREO_COUNT>
8

> <PUBCHEM_ATOM_UDEF_STEREO_COUNT>
0

> <PUBCHEM_BOND_DEF_STEREO_COUNT>
0

> <PUBCHEM_BOND_UDEF_STEREO_COUNT>
0

> <PUBCHEM_ISOTOPIC_ATOM_COUNT>
0

> <PUBCHEM_COMPONENT_COUNT>
1

> <PUBCHEM_CACTVS_TAUTO_COUNT>
1

> <PUBCHEM_CONFORMER_ID>
00D2DBAD00000003

> <PUBCHEM_MMFF94_ENERGY>
97.2868

> <PUBCHEM_FEATURE_SELFOVERLAP>
50.765

> <PUBCHEM_SHAPE_FINGERPRINT>
10165383 225 17131004212072028818
10863032 1 18187069642434940922
10906281 52 18411708703196410421
10930396 42 17691078985526493688
1100329 8 17830458641033920530
11221954 11 18127684933682930520
11578080 2 17344655684768466041
12633257 1 17612573546043957682
12788726 201 18338786832810393913
12930653 34 18336820897329327306
13140716 1 18047472506640967160
13149001 5 17553219704662734284
14178342 30 18188215281974175921
14223421 5 18341054016716378450
14787075 74 17825948401461301242
14955137 171 17912098440285008275
16945 1 18341321288505636838
17876694 64 17894632577697688724
18981168 100 17202486589260478688
20600515 1 17968666050138975399
20905425 154 18411980234948836264
229495 10 17203056175012316447
23419403 2 15012228731201127043
23557571 272 18338812177253891823
23558518 356 18265044726390879041
23559900 14 18186807950637070526
3493558 16 17458887327864798813
57527585 21 18059277786795214053
5845 1 10048166205160017134
5939293 188 17906188582660630371
81228 2 18267040383509714753
9981440 41 17342622640608269280

> <PUBCHEM_SHAPE_MULTIPOLES>
508.69
6.67
3.99
1.92
2.43
5.53
-0.86
-0.2
2.85
-2.69
0.15
0.84
-0.84
0.82

> <PUBCHEM_SHAPE_SELFOVERLAP>
1091.46

> <PUBCHEM_SHAPE_VOLUME>
276.3

> <PUBCHEM_COORDINATE_TYPE>
2
5
10

$$$$
