138115184
  -OEChem-03292013293D

 50 52  0     1  0  0  0  0  0999 V2000
    5.3111    0.2159   -0.6070 S   0  0  2  0  0  0  0  0  0  0  0  0
   -6.1124   -1.4721    0.4180 F   0  0  0  0  0  0  0  0  0  0  0  0
   -5.3946    0.3158    1.4258 F   0  0  0  0  0  0  0  0  0  0  0  0
   -5.5847    0.2946   -0.7345 F   0  0  0  0  0  0  0  0  0  0  0  0
    6.3429   -0.8005   -0.4450 O   0  0  0  0  0  0  0  0  0  0  0  0
   -2.8675    1.2047    0.1076 O   0  0  0  0  0  0  0  0  0  0  0  0
   -2.9169    4.0802    0.0313 O   0  0  0  0  0  0  0  0  0  0  0  0
    5.2037    1.2274   -1.7719 N   0  0  0  0  0  0  0  0  0  0  0  0
    0.0190   -2.4429   -0.1137 N   0  0  0  0  0  0  0  0  0  0  0  0
   -1.4284   -0.5994   -0.0042 N   0  0  0  0  0  0  0  0  0  0  0  0
   -2.2826   -2.8507    0.0934 N   0  0  0  0  0  0  0  0  0  0  0  0
    5.4944    1.2617    0.9285 C   0  0  0  0  0  0  0  0  0  0  0  0
    6.0834    0.4995    2.0762 C   0  0  0  0  0  0  0  0  0  0  0  0
    6.9276    1.4784    1.3083 C   0  0  0  0  0  0  0  0  0  0  0  0
    3.7567   -0.5659   -0.4620 C   0  0  0  0  0  0  0  0  0  0  0  0
    2.7212    0.0641    0.2283 C   0  0  0  0  0  0  0  0  0  0  0  0
    3.5502   -1.8201   -1.0368 C   0  0  0  0  0  0  0  0  0  0  0  0
    1.4792   -0.5600    0.3439 C   0  0  0  0  0  0  0  0  0  0  0  0
    2.3081   -2.4441   -0.9210 C   0  0  0  0  0  0  0  0  0  0  0  0
    1.2726   -1.8143   -0.2306 C   0  0  0  0  0  0  0  0  0  0  0  0
   -1.6869    1.9972   -0.0046 C   0  0  1  0  0  0  0  0  0  0  0  0
   -1.9925    3.3117   -0.7360 C   0  0  1  0  0  0  0  0  0  0  0  0
   -1.2956   -1.9396   -0.0029 C   0  0  0  0  0  0  0  0  0  0  0  0
   -1.1218    2.2197    1.3933 C   0  0  0  0  0  0  0  0  0  0  0  0
   -2.6971   -0.1530    0.1038 C   0  0  0  0  0  0  0  0  0  0  0  0
   -2.5837    3.0803   -2.1219 C   0  0  0  0  0  0  0  0  0  0  0  0
   -3.7953   -0.9819    0.2090 C   0  0  0  0  0  0  0  0  0  0  0  0
   -3.5250   -2.3351    0.1984 C   0  0  0  0  0  0  0  0  0  0  0  0
   -5.1849   -0.4717    0.3265 C   0  0  0  0  0  0  0  0  0  0  0  0
    4.7956    2.0670    1.1033 H   0  0  0  0  0  0  0  0  0  0  0  0
    6.3119   -0.5539    1.9897 H   0  0  0  0  0  0  0  0  0  0  0  0
    5.7709    0.7855    3.0747 H   0  0  0  0  0  0  0  0  0  0  0  0
    7.1808    2.4116    1.7984 H   0  0  0  0  0  0  0  0  0  0  0  0
    7.7198    1.0898    0.6817 H   0  0  0  0  0  0  0  0  0  0  0  0
    5.9507    1.9277   -1.7847 H   0  0  0  0  0  0  0  0  0  0  0  0
    2.8453    1.0420    0.6807 H   0  0  0  0  0  0  0  0  0  0  0  0
    4.3448   -2.3220   -1.5820 H   0  0  0  0  0  0  0  0  0  0  0  0
    0.7201   -0.0581    0.9300 H   0  0  0  0  0  0  0  0  0  0  0  0
    2.1592   -3.4205   -1.3750 H   0  0  0  0  0  0  0  0  0  0  0  0
    0.0395   -3.4501   -0.2425 H   0  0  0  0  0  0  0  0  0  0  0  0
   -0.9246    1.5045   -0.6225 H   0  0  0  0  0  0  0  0  0  0  0  0
   -1.0712    3.8990   -0.8263 H   0  0  0  0  0  0  0  0  0  0  0  0
   -1.8441    2.7422    2.0305 H   0  0  0  0  0  0  0  0  0  0  0  0
   -0.9038    1.2752    1.9000 H   0  0  0  0  0  0  0  0  0  0  0  0
   -0.2022    2.8118    1.3559 H   0  0  0  0  0  0  0  0  0  0  0  0
   -1.9183    2.4715   -2.7414 H   0  0  0  0  0  0  0  0  0  0  0  0
   -2.7493    4.0372   -2.6289 H   0  0  0  0  0  0  0  0  0  0  0  0
   -3.5607    2.5885   -2.0619 H   0  0  0  0  0  0  0  0  0  0  0  0
   -4.3132   -3.0771    0.2753 H   0  0  0  0  0  0  0  0  0  0  0  0
   -3.0675    4.9164   -0.4417 H   0  0  0  0  0  0  0  0  0  0  0  0
  1  5  2  0  0  0  0
  1  8  2  0  0  0  0
  1 12  1  0  0  0  0
  1 15  1  0  0  0  0
  2 29  1  0  0  0  0
  3 29  1  0  0  0  0
  4 29  1  0  0  0  0
  6 21  1  0  0  0  0
  6 25  1  0  0  0  0
  7 22  1  0  0  0  0
  7 50  1  0  0  0  0
  8 35  1  0  0  0  0
  9 20  1  0  0  0  0
  9 23  1  0  0  0  0
  9 40  1  0  0  0  0
 10 23  1  0  0  0  0
 10 25  2  0  0  0  0
 11 23  2  0  0  0  0
 11 28  1  0  0  0  0
 12 13  1  0  0  0  0
 12 14  1  0  0  0  0
 12 30  1  0  0  0  0
 13 14  1  0  0  0  0
 13 31  1  0  0  0  0
 13 32  1  0  0  0  0
 14 33  1  0  0  0  0
 14 34  1  0  0  0  0
 15 16  2  0  0  0  0
 15 17  1  0  0  0  0
 16 18  1  0  0  0  0
 16 36  1  0  0  0  0
 17 19  2  0  0  0  0
 17 37  1  0  0  0  0
 18 20  2  0  0  0  0
 18 38  1  0  0  0  0
 19 20  1  0  0  0  0
 19 39  1  0  0  0  0
 21 22  1  0  0  0  0
 21 24  1  0  0  0  0
 21 41  1  0  0  0  0
 22 26  1  0  0  0  0
 22 42  1  0  0  0  0
 24 43  1  0  0  0  0
 24 44  1  0  0  0  0
 24 45  1  0  0  0  0
 25 27  1  0  0  0  0
 26 46  1  0  0  0  0
 26 47  1  0  0  0  0
 26 48  1  0  0  0  0
 27 28  2  0  0  0  0
 27 29  1  0  0  0  0
 28 49  1  0  0  0  0
M  END
> <PUBCHEM_COMPOUND_CID>
138115184

> <PUBCHEM_CONFORMER_RMSD>
1

> <PUBCHEM_CONFORMER_DIVERSEORDER>
1
35
52
25
58
20
28
22
57
54
42
49
23
16
3
48
9
55
64
31
65
53
27
18
34
5
37
36
21
10
15
7
41
66
50
46
51
38
26
61
19
14
59
60
29
4
11
45
40
47
12
33
17
39
63
44
30
2
62
6
43
13
8
56
32
67
24

> <PUBCHEM_MMFF94_PARTIAL_CHARGES>
40
1 1.23
10 -0.62
11 -0.62
12 -0.08
13 -0.2
14 -0.2
15 -0.01
16 -0.15
17 -0.15
18 -0.15
19 -0.15
2 -0.34
20 0.1
21 0.28
22 0.28
23 0.72
25 0.39
27 -0.14
28 0.16
29 1.16
3 -0.34
30 0.1
31 0.1
32 0.1
33 0.1
34 0.1
35 0.4
36 0.15
37 0.15
38 0.15
39 0.15
4 -0.34
40 0.4
49 0.15
5 -0.65
50 0.4
6 -0.36
7 -0.68
8 -0.99
9 -0.6

> <PUBCHEM_EFFECTIVE_ROTOR_COUNT>
8.6

> <PUBCHEM_PHARMACOPHORE_FEATURES>
7
1 5 acceptor
1 7 acceptor
1 7 donor
1 9 donor
4 9 10 11 23 cation
6 10 11 23 25 27 28 rings
6 15 16 17 18 19 20 rings

> <PUBCHEM_HEAVY_ATOM_COUNT>
29

> <PUBCHEM_ATOM_DEF_STEREO_COUNT>
1

> <PUBCHEM_ATOM_UDEF_STEREO_COUNT>
2

> <PUBCHEM_BOND_DEF_STEREO_COUNT>
0

> <PUBCHEM_BOND_UDEF_STEREO_COUNT>
0

> <PUBCHEM_ISOTOPIC_ATOM_COUNT>
0

> <PUBCHEM_COMPONENT_COUNT>
1

> <PUBCHEM_CACTVS_TAUTO_COUNT>
-1

> <PUBCHEM_CONFORMER_ID>
083B787000000001

> <PUBCHEM_MMFF94_ENERGY>
73.3885

> <PUBCHEM_FEATURE_SELFOVERLAP>
35.521

> <PUBCHEM_SHAPE_FINGERPRINT>
10 15 18336262448876133202
10290309 65 18340204085644143046
10670039 82 18189918477758516940
11595378 159 18113605786384431602
12107183 9 17684079194030329714
12403259 415 18272088276042326704
12596602 18 16805607027133929992
12788726 201 18334011666610942697
12838862 33 18338501007305637893
13402501 40 18272930557256303208
13561361 72 18410005559853809960
13947920 24 18187635857149200053
14040221 97 17983285213384614896
14739800 52 18337377276294347258
14790565 3 17476930052327668929
15001296 14 18044381749876334268
15575132 122 18259992552229372165
21033648 144 18272083902938042551
21315764 268 18412541007944675632
22393880 68 18268155254040631846
23559900 14 18201433752523821400
24771293 8 18343868827673252611
283562 15 18336830780523893883
350125 39 18411706482407927636
4093350 32 15984833640193016608
469060 322 18187377510238919361
5104073 3 18266741286034022546
59755656 215 18343866619522173938
9981440 41 18260548892086070643

> <PUBCHEM_SHAPE_MULTIPOLES>
541.3
15.71
3.78
1.39
13.02
2.29
-0.07
2.47
3.51
-3.85
-0.95
1.28
0.89
2.08

> <PUBCHEM_SHAPE_SELFOVERLAP>
1130.519

> <PUBCHEM_SHAPE_VOLUME>
310.9

> <PUBCHEM_COORDINATE_TYPE>
2
5
10

$$$$
