138108268
  -OEChem-03292013293D

 77 82  0     1  0  0  0  0  0999 V2000
    1.2297   -1.7902    1.0914 O   0  0  0  0  0  0  0  0  0  0  0  0
   -0.8521   -3.4286    1.8157 O   0  0  0  0  0  0  0  0  0  0  0  0
    2.7794   -3.1932   -0.9852 O   0  0  0  0  0  0  0  0  0  0  0  0
   -2.9242   -1.4006   -1.4003 O   0  0  0  0  0  0  0  0  0  0  0  0
    4.3074   -1.8745    0.7570 O   0  0  0  0  0  0  0  0  0  0  0  0
    4.5735    3.0461    2.2304 O   0  0  0  0  0  0  0  0  0  0  0  0
   -3.0832    1.0998    0.3609 N   0  0  1  0  0  0  0  0  0  0  0  0
   -0.3456   -0.3209    0.0039 C   0  0  1  0  0  0  0  0  0  0  0  0
    0.5448   -1.5573   -0.1446 C   0  0  1  0  0  0  0  0  0  0  0  0
    1.6342    0.4501   -1.1020 C   0  0  1  0  0  0  0  0  0  0  0  0
    1.5652   -1.1128   -1.2325 C   0  0  1  0  0  0  0  0  0  0  0  0
   -1.3318   -0.4736    1.1713 C   0  0  2  0  0  0  0  0  0  0  0  0
    0.6954    0.7902    0.0819 C   0  0  0  0  0  0  0  0  0  0  0  0
    3.0550    1.1059   -1.0933 C   0  0  2  0  0  0  0  0  0  0  0  0
   -2.2746   -1.6913    0.9401 C   0  0  2  0  0  0  0  0  0  0  0  0
   -0.3329   -2.7718   -0.4610 C   0  0  0  0  0  0  0  0  0  0  0  0
   -1.4459   -2.9667    0.5947 C   0  0  1  0  0  0  0  0  0  0  0  0
    4.1103    0.3045   -0.2610 C   0  0  2  0  0  0  0  0  0  0  0  0
    2.9283   -1.8025   -1.2008 C   0  0  1  0  0  0  0  0  0  0  0  0
   -3.4360   -1.3762   -0.0667 C   0  0  1  0  0  0  0  0  0  0  0  0
   -2.1479    0.7884    1.4486 C   0  0  0  0  0  0  0  0  0  0  0  0
   -4.0957    0.0252    0.2147 C   0  0  2  0  0  0  0  0  0  0  0  0
    2.9731    2.5877   -0.5970 C   0  0  0  0  0  0  0  0  0  0  0  0
    3.8028   -1.1846   -0.1303 C   0  0  0  0  0  0  0  0  0  0  0  0
    3.5467    1.1666   -2.5721 C   0  0  0  0  0  0  0  0  0  0  0  0
    4.3441    0.9250    1.1220 C   0  0  0  0  0  0  0  0  0  0  0  0
    4.3311    3.1382   -0.1616 C   0  0  0  0  0  0  0  0  0  0  0  0
    4.8909    2.3521    1.0249 C   0  0  1  0  0  0  0  0  0  0  0  0
   -5.1069    0.4213   -0.8919 C   0  0  0  0  0  0  0  0  0  0  0  0
   -4.5082   -2.4854    0.0296 C   0  0  0  0  0  0  0  0  0  0  0  0
   -3.6997    2.4112    0.6405 C   0  0  0  0  0  0  0  0  0  0  0  0
   -4.6747    2.8424   -0.4595 C   0  0  1  0  0  0  0  0  0  0  0  0
   -5.7530    1.7777   -0.6340 C   0  0  0  0  0  0  0  0  0  0  0  0
   -5.2994    4.1976   -0.1336 C   0  0  0  0  0  0  0  0  0  0  0  0
   -0.9092   -0.1616   -0.9245 H   0  0  0  0  0  0  0  0  0  0  0  0
    1.1140    0.8469   -1.9889 H   0  0  0  0  0  0  0  0  0  0  0  0
    1.1129   -1.3368   -2.2098 H   0  0  0  0  0  0  0  0  0  0  0  0
   -0.7549   -0.6679    2.0861 H   0  0  0  0  0  0  0  0  0  0  0  0
    1.2093    0.8153    1.0461 H   0  0  0  0  0  0  0  0  0  0  0  0
    0.2279    1.7698   -0.0674 H   0  0  0  0  0  0  0  0  0  0  0  0
   -2.7603   -1.8667    1.9127 H   0  0  0  0  0  0  0  0  0  0  0  0
    0.2892   -3.6746   -0.4632 H   0  0  0  0  0  0  0  0  0  0  0  0
   -0.7641   -2.6751   -1.4613 H   0  0  0  0  0  0  0  0  0  0  0  0
   -2.0879   -3.7839    0.2579 H   0  0  0  0  0  0  0  0  0  0  0  0
    5.0742    0.3355   -0.7898 H   0  0  0  0  0  0  0  0  0  0  0  0
    3.4427   -1.6926   -2.1588 H   0  0  0  0  0  0  0  0  0  0  0  0
   -2.6916    0.6652    2.3959 H   0  0  0  0  0  0  0  0  0  0  0  0
   -1.4561    1.6255    1.6033 H   0  0  0  0  0  0  0  0  0  0  0  0
   -4.6508   -0.0529    1.1617 H   0  0  0  0  0  0  0  0  0  0  0  0
    2.3033    2.6878    0.2630 H   0  0  0  0  0  0  0  0  0  0  0  0
    2.5506    3.2285   -1.3809 H   0  0  0  0  0  0  0  0  0  0  0  0
    3.5858    0.1840   -3.0457 H   0  0  0  0  0  0  0  0  0  0  0  0
    4.5493    1.6004   -2.6486 H   0  0  0  0  0  0  0  0  0  0  0  0
    2.8797    1.7866   -3.1830 H   0  0  0  0  0  0  0  0  0  0  0  0
    5.0547    0.3275    1.7076 H   0  0  0  0  0  0  0  0  0  0  0  0
    3.4175    0.9055    1.7095 H   0  0  0  0  0  0  0  0  0  0  0  0
    1.8028   -1.0407    1.3099 H   0  0  0  0  0  0  0  0  0  0  0  0
    5.0327    3.0798   -1.0011 H   0  0  0  0  0  0  0  0  0  0  0  0
    4.2290    4.1997    0.0932 H   0  0  0  0  0  0  0  0  0  0  0  0
    5.9841    2.3333    0.9462 H   0  0  0  0  0  0  0  0  0  0  0  0
   -5.9090   -0.3198   -0.9628 H   0  0  0  0  0  0  0  0  0  0  0  0
   -4.6092    0.4466   -1.8697 H   0  0  0  0  0  0  0  0  0  0  0  0
   -4.9798   -2.5000    1.0175 H   0  0  0  0  0  0  0  0  0  0  0  0
   -4.0983   -3.4797   -0.1680 H   0  0  0  0  0  0  0  0  0  0  0  0
   -5.2884   -2.3554   -0.7268 H   0  0  0  0  0  0  0  0  0  0  0  0
   -4.2170    2.3924    1.6100 H   0  0  0  0  0  0  0  0  0  0  0  0
   -2.9107    3.1712    0.7122 H   0  0  0  0  0  0  0  0  0  0  0  0
   -4.1207    2.9437   -1.4027 H   0  0  0  0  0  0  0  0  0  0  0  0
   -1.5742   -3.6618    2.4239 H   0  0  0  0  0  0  0  0  0  0  0  0
   -6.4116    2.0366   -1.4713 H   0  0  0  0  0  0  0  0  0  0  0  0
   -6.3822    1.7188    0.2632 H   0  0  0  0  0  0  0  0  0  0  0  0
    3.6598   -3.5987   -1.0627 H   0  0  0  0  0  0  0  0  0  0  0  0
   -2.8632   -2.3251   -1.6927 H   0  0  0  0  0  0  0  0  0  0  0  0
    4.9578    2.5417    2.9678 H   0  0  0  0  0  0  0  0  0  0  0  0
   -5.8665    4.1614    0.8028 H   0  0  0  0  0  0  0  0  0  0  0  0
   -5.9816    4.5117   -0.9305 H   0  0  0  0  0  0  0  0  0  0  0  0
   -4.5265    4.9666   -0.0315 H   0  0  0  0  0  0  0  0  0  0  0  0
  1  9  1  0  0  0  0
  1 57  1  0  0  0  0
  2 17  1  0  0  0  0
  2 69  1  0  0  0  0
  3 19  1  0  0  0  0
  3 72  1  0  0  0  0
  4 20  1  0  0  0  0
  4 73  1  0  0  0  0
  5 24  2  0  0  0  0
  6 28  1  0  0  0  0
  6 74  1  0  0  0  0
  7 21  1  0  0  0  0
  7 22  1  0  0  0  0
  7 31  1  0  0  0  0
  8  9  1  0  0  0  0
  8 12  1  0  0  0  0
  8 13  1  0  0  0  0
  8 35  1  0  0  0  0
  9 11  1  0  0  0  0
  9 16  1  0  0  0  0
 10 11  1  0  0  0  0
 10 13  1  0  0  0  0
 10 14  1  0  0  0  0
 10 36  1  0  0  0  0
 11 19  1  0  0  0  0
 11 37  1  0  0  0  0
 12 15  1  0  0  0  0
 12 21  1  0  0  0  0
 12 38  1  0  0  0  0
 13 39  1  0  0  0  0
 13 40  1  0  0  0  0
 14 18  1  0  0  0  0
 14 23  1  0  0  0  0
 14 25  1  0  0  0  0
 15 17  1  0  0  0  0
 15 20  1  0  0  0  0
 15 41  1  0  0  0  0
 16 17  1  0  0  0  0
 16 42  1  0  0  0  0
 16 43  1  0  0  0  0
 17 44  1  0  0  0  0
 18 24  1  0  0  0  0
 18 26  1  0  0  0  0
 18 45  1  0  0  0  0
 19 24  1  0  0  0  0
 19 46  1  0  0  0  0
 20 22  1  0  0  0  0
 20 30  1  0  0  0  0
 21 47  1  0  0  0  0
 21 48  1  0  0  0  0
 22 29  1  0  0  0  0
 22 49  1  0  0  0  0
 23 27  1  0  0  0  0
 23 50  1  0  0  0  0
 23 51  1  0  0  0  0
 25 52  1  0  0  0  0
 25 53  1  0  0  0  0
 25 54  1  0  0  0  0
 26 28  1  0  0  0  0
 26 55  1  0  0  0  0
 26 56  1  0  0  0  0
 27 28  1  0  0  0  0
 27 58  1  0  0  0  0
 27 59  1  0  0  0  0
 28 60  1  0  0  0  0
 29 33  1  0  0  0  0
 29 61  1  0  0  0  0
 29 62  1  0  0  0  0
 30 63  1  0  0  0  0
 30 64  1  0  0  0  0
 30 65  1  0  0  0  0
 31 32  1  0  0  0  0
 31 66  1  0  0  0  0
 31 67  1  0  0  0  0
 32 33  1  0  0  0  0
 32 34  1  0  0  0  0
 32 68  1  0  0  0  0
 33 70  1  0  0  0  0
 33 71  1  0  0  0  0
 34 75  1  0  0  0  0
 34 76  1  0  0  0  0
 34 77  1  0  0  0  0
M  END
> <PUBCHEM_COMPOUND_CID>
138108268

> <PUBCHEM_CONFORMER_RMSD>
0.8

> <PUBCHEM_CONFORMER_DIVERSEORDER>
1
7
3
6
2
4
5

> <PUBCHEM_MMFF94_PARTIAL_CHARGES>
22
1 -0.68
17 0.28
18 0.06
19 0.34
2 -0.68
20 0.28
21 0.27
22 0.27
24 0.45
28 0.28
3 -0.68
31 0.27
4 -0.68
5 -0.57
57 0.4
6 -0.68
69 0.4
7 -0.81
72 0.4
73 0.4
74 0.4
9 0.28

> <PUBCHEM_EFFECTIVE_ROTOR_COUNT>
2.8

> <PUBCHEM_PHARMACOPHORE_FEATURES>
18
1 1 acceptor
1 1 donor
1 2 acceptor
1 2 donor
1 3 acceptor
1 3 donor
1 4 acceptor
1 4 donor
1 5 acceptor
1 6 acceptor
1 6 donor
1 7 cation
5 8 9 10 11 13 rings
6 10 11 14 18 19 24 rings
6 14 18 23 26 27 28 rings
6 7 12 15 20 21 22 rings
6 7 22 29 31 32 33 rings
6 8 9 12 15 16 17 rings

> <PUBCHEM_HEAVY_ATOM_COUNT>
34

> <PUBCHEM_ATOM_DEF_STEREO_COUNT>
10

> <PUBCHEM_ATOM_UDEF_STEREO_COUNT>
4

> <PUBCHEM_BOND_DEF_STEREO_COUNT>
0

> <PUBCHEM_BOND_UDEF_STEREO_COUNT>
0

> <PUBCHEM_ISOTOPIC_ATOM_COUNT>
0

> <PUBCHEM_COMPONENT_COUNT>
1

> <PUBCHEM_CACTVS_TAUTO_COUNT>
-1

> <PUBCHEM_CONFORMER_ID>
083B5D6C00000001

> <PUBCHEM_MMFF94_ENERGY>
123.9398

> <PUBCHEM_FEATURE_SELFOVERLAP>
91.656

> <PUBCHEM_SHAPE_FINGERPRINT>
10258939 38 18265336295079520779
10439779 11 17905039257680610304
10673678 19 17980483361520127585
10675989 125 18197499515199855929
11370993 70 18410295804689028167
12107183 9 18188476983406792160
12403259 415 18340497732557520753
12422481 6 16951116262599147957
12633257 1 16226045617306159464
12788726 201 17535482743913978635
12925494 130 18263364690663940681
13140716 1 18335703788835358914
13224815 77 17774737462113085250
13583140 156 18060416945201944372
13617811 41 18192985153185332997
13944108 23 17038386489451572997
13965767 371 17823131237885456093
14251764 30 8790891804017982088
14251764 38 18409450297311456861
14739800 52 18338218423668313297
14790565 3 18195815064208749761
16994733 274 16952563362479170220
17349148 13 18337673117504009262
19053607 189 18410850005895457240
20715895 44 18267300928789097153
21033648 144 18199761395380048230
21033648 29 18260276234740326585
21859007 373 17678160608341524397
22149856 69 18195272085990490011
22393880 68 18271822236518734540
22950370 63 9511457840360549089
23227448 37 18410016499124437383
23559900 14 18200317598140794766
249057 3 18125444107320821735
2838139 119 18340762629641139565
3298306 158 18130217284950084144
3380486 145 17686922904582954939
341906 21 18336270153588889764
34797466 226 17418098736624732037
3493558 16 18410014376868047037
376196 1 18412826850354863903
4144715 1 18261683657438564018
44317340 157 18199473169427391929
44880168 125 13117991193400091129
460360 51 18260840309885041280
469060 322 17761236687700883451
508180 173 17905342722884380488
508706 21 18267030629079939700
5104073 3 18408047316406145467
513532 50 18130512951083998172
5283173 99 18411698773084088665
57724786 102 17241066334855188860
6036956 94 17830737921510112413
6086070 43 18131078117298325404
6328613 192 18187660102486979748
9981440 41 18338233898261875122

> <PUBCHEM_SHAPE_MULTIPOLES>
659.51
12.22
4.57
1.56
4.64
1.06
0.05
10.25
0.41
1.67
-0.63
-1.42
0.21
1.36

> <PUBCHEM_SHAPE_SELFOVERLAP>
1421.786

> <PUBCHEM_SHAPE_VOLUME>
355.4

> <PUBCHEM_COORDINATE_TYPE>
2
5
10

$$$$
