REMARK  Name = 13816962
REMARK  7 active torsions:
REMARK  status: ('A' for Active; 'I' for Inactive)
REMARK    1  A    between atoms: C_5  and  C_25
REMARK    2  A    between atoms: C_7  and  O_17
REMARK    3  A    between atoms: C_8  and  O_21
REMARK    4  A    between atoms: O_17  and  C_19
REMARK    5  A    between atoms: O_21  and  C_23
REMARK    6  A    between atoms: C_25  and  O_26
REMARK    7  A    between atoms: O_26  and  C_28
REMARK                            x       y       z     vdW  Elec       q    Type
REMARK                         _______ _______ _______ _____ _____    ______ ____
ROOT
ATOM      1  O   UNL     1       0.064   0.727   3.080  0.00  0.00    -0.351 OA
ATOM      2  O   UNL     1       0.518   2.065   0.399  0.00  0.00    -0.348 OA
ATOM      3  C   UNL     1      -0.117  -0.663   0.943  0.00  0.00    +0.074 C 
ATOM      4  C   UNL     1       0.658   0.228   1.891  0.00  0.00    +0.152 C 
ATOM      5  C   UNL     1      -1.210   0.250   0.203  0.00  0.00    +0.075 C 
ATOM      6  C   UNL     1       1.429   1.157   1.026  0.00  0.00    +0.186 C 
ATOM      7  C   UNL     1       1.063  -1.006  -0.067  0.00  0.00    +0.213 C 
ATOM      8  C   UNL     1       2.088   0.158   0.063  0.00  0.00    +0.238 C 
ATOM      9  C   UNL     1       1.170  -0.174   3.258  0.00  0.00    +0.172 C 
ATOM     10  C   UNL     1      -0.497   1.490  -0.441  0.00  0.00    +0.140 C 
ATOM     11  C   UNL     1      -0.722  -1.910   1.594  0.00  0.00    +0.006 C 
ATOM     12  C   UNL     1      -2.311   0.774   1.177  0.00  0.00    +0.011 C 
ATOM     13  C   UNL     1      -1.420   2.624  -0.805  0.00  0.00    -0.006 C 
ATOM     14  C   UNL     1      -3.328   1.714   0.514  0.00  0.00    +0.022 C 
ATOM     15  C   UNL     1      -2.696   2.729  -0.399  0.00  0.00    -0.046 C 
ATOM     16  C   UNL     1      -3.575   3.865  -0.833  0.00  0.00    +0.026 C 
ENDROOT
BRANCH   7  17
ATOM     17  O   UNL     1       1.721  -2.225   0.281  0.00  0.00    -0.448 OA
BRANCH  17  19
ATOM     18  O   UNL     1       3.216  -1.929  -1.456  0.00  0.00    -0.250 OA
ATOM     19  C   UNL     1       2.786  -2.565  -0.502  0.00  0.00    +0.318 C 
ATOM     20  C   UNL     1       3.373  -3.857  -0.022  0.00  0.00    +0.121 C 
ENDBRANCH  17  19
ENDBRANCH   7  17
BRANCH   8  21
ATOM     21  O   UNL     1       2.410   0.746  -1.182  0.00  0.00    -0.446 OA
BRANCH  21  23
ATOM     22  O   UNL     1       3.814   2.253  -0.136  0.00  0.00    -0.250 OA
ATOM     23  C   UNL     1       3.292   1.794  -1.143  0.00  0.00    +0.318 C 
ATOM     24  C   UNL     1       3.539   2.315  -2.527  0.00  0.00    +0.121 C 
ENDBRANCH  21  23
ENDBRANCH   8  21
BRANCH   5  25
ATOM     25  C   UNL     1      -1.937  -0.561  -0.910  0.00  0.00    +0.211 C 
BRANCH  25  26
ATOM     26  O   UNL     1      -2.611  -1.624  -0.283  0.00  0.00    -0.448 OA
BRANCH  26  28
ATOM     27  O   UNL     1      -3.411  -2.364  -2.320  0.00  0.00    -0.250 OA
ATOM     28  C   UNL     1      -3.322  -2.466  -1.104  0.00  0.00    +0.318 C 
ATOM     29  C   UNL     1      -3.983  -3.545  -0.301  0.00  0.00    +0.121 C 
ENDBRANCH  26  28
ENDBRANCH  25  26
ENDBRANCH   5  25
TORSDOF 7
