REMARK  Name = 138107785
REMARK  3 active torsions:
REMARK  status: ('A' for Active; 'I' for Inactive)
REMARK    1  A    between atoms: C_12  and  C_24
REMARK    2  A    between atoms: C_13  and  O_28
REMARK    3  A    between atoms: C_18  and  O_30
REMARK                            x       y       z     vdW  Elec       q    Type
REMARK                         _______ _______ _______ _____ _____    ______ ____
ROOT
ATOM      1  O   UNL     1      -0.314   1.235  -1.089  0.00  0.00    -0.312 OA
ATOM      2  O   UNL     1      -0.409   0.866   2.615  0.00  0.00    -0.451 OA
ATOM      3  O   UNL     1       1.796   0.988  -2.278  0.00  0.00    -0.423 OA
ATOM      4  O   UNL     1      -2.803  -2.031  -0.401  0.00  0.00    -0.450 OA
ATOM      5  O   UNL     1      -1.478   2.769   1.750  0.00  0.00    -0.247 OA
ATOM      6  O   UNL     1       3.590   2.375  -1.950  0.00  0.00    -0.247 OA
ATOM      7  O   UNL     1      -4.802  -1.563  -1.469  0.00  0.00    -0.250 OA
ATOM      8  C   UNL     1       0.218  -0.037   0.704  0.00  0.00    +0.084 C 
ATOM      9  C   UNL     1       1.500   0.176  -0.079  0.00  0.00    +0.106 C 
ATOM     10  C   UNL     1      -0.828   0.921   0.207  0.00  0.00    +0.214 C 
ATOM     11  C   UNL     1       0.752   0.367   2.031  0.00  0.00    +0.172 C 
ATOM     12  C   UNL     1       2.404  -0.833   0.687  0.00  0.00    +0.013 C 
ATOM     13  C   UNL     1      -2.145   0.109   0.050  0.00  0.00    +0.167 C 
ATOM     14  C   UNL     1      -0.549  -1.446   0.714  0.00  0.00    +0.053 C 
ATOM     15  C   UNL     1       0.855   0.348  -1.418  0.00  0.00    +0.293 C 
ATOM     16  C   UNL     1       1.746  -0.800   2.182  0.00  0.00    +0.044 C 
ATOM     17  C   UNL     1      -1.630  -1.256  -0.323  0.00  0.00    +0.197 C 
ATOM     18  C   UNL     1       2.290   1.548  -0.075  0.00  0.00    +0.216 C 
ATOM     19  C   UNL     1      -0.931   1.692   1.572  0.00  0.00    +0.344 C 
ATOM     20  C   UNL     1      -3.166   0.242  -1.065  0.00  0.00    +0.130 C 
ATOM     21  C   UNL     1       2.676   1.693  -1.515  0.00  0.00    +0.346 C 
ATOM     22  C   UNL     1      -3.724  -1.195  -1.030  0.00  0.00    +0.319 C 
ATOM     23  C   UNL     1      -4.237   1.292  -0.832  0.00  0.00    +0.014 C 
ENDROOT
BRANCH  12  24
ATOM     24  C   UNL     1       2.591  -2.200   0.050  0.00  0.00    +0.000 C 
ATOM     25  C   UNL     1       1.994  -3.291   0.959  0.00  0.00    +0.000 C 
ATOM     26  C   UNL     1       4.090  -2.486  -0.155  0.00  0.00    +0.000 C 
ATOM     27  C   UNL     1       1.882  -2.247  -1.317  0.00  0.00    +0.000 C 
ENDBRANCH  12  24
BRANCH  13  28
ATOM     28  O   UNL     1      -2.896   0.051   1.281  0.00  0.00    -0.380 OA
ATOM     29  H   UNL     1      -2.284  -0.035   2.029  0.00  0.00    +0.211 HD
ENDBRANCH  13  28
BRANCH  18  30
ATOM     30  O   UNL     1       1.529   2.713   0.194  0.00  0.00    -0.374 OA
ATOM     31  H   UNL     1       1.234   2.701   1.118  0.00  0.00    +0.211 HD
ENDBRANCH  18  30
TORSDOF 3
