REMARK  Name = 138114131
REMARK  6 active torsions:
REMARK  status: ('A' for Active; 'I' for Inactive)
REMARK    1  A    between atoms: C_3  and  O_25
REMARK    2  A    between atoms: C_6  and  O_21
REMARK    3  A    between atoms: C_13  and  O_23
REMARK    4  A    between atoms: C_16  and  C_29
REMARK    5  A    between atoms: O_25  and  C_27
REMARK    6  A    between atoms: C_29  and  O_30
REMARK                            x       y       z     vdW  Elec       q    Type
REMARK                         _______ _______ _______ _____ _____    ______ ____
ROOT
ATOM      1  O   UNL     1      -4.477   0.589   1.341  0.00  0.00    -0.289 OA
ATOM      2  C   UNL     1       1.228  -1.049   0.561  0.00  0.00    +0.046 C 
ATOM      3  C   UNL     1       2.346  -0.031   0.630  0.00  0.00    +0.136 C 
ATOM      4  C   UNL     1       2.605  -1.491   0.976  0.00  0.00    +0.037 C 
ATOM      5  C   UNL     1       0.471  -0.832  -0.705  0.00  0.00    +0.050 C 
ATOM      6  C   UNL     1      -0.069   0.683  -0.715  0.00  0.00    +0.098 C 
ATOM      7  C   UNL     1       1.717   1.125   1.315  0.00  0.00    +0.042 C 
ATOM      8  C   UNL     1       0.547   1.675   0.420  0.00  0.00    +0.029 C 
ATOM      9  C   UNL     1       3.364  -2.378   0.022  0.00  0.00    +0.004 C 
ATOM     10  C   UNL     1       2.855  -1.817   2.426  0.00  0.00    +0.004 C 
ATOM     11  C   UNL     1      -1.620   0.747  -0.785  0.00  0.00    +0.079 C 
ATOM     12  C   UNL     1      -0.433  -2.009  -1.020  0.00  0.00    -0.030 C 
ATOM     13  C   UNL     1      -2.354  -0.024   0.322  0.00  0.00    +0.152 C 
ATOM     14  C   UNL     1       0.994   3.037  -0.150  0.00  0.00    +0.003 C 
ATOM     15  C   UNL     1      -2.783  -1.413  -0.130  0.00  0.00    +0.059 C 
ATOM     16  C   UNL     1      -1.736  -2.275  -0.802  0.00  0.00    -0.017 C 
ATOM     17  C   UNL     1      -2.257   2.114  -0.740  0.00  0.00    -0.023 C 
ATOM     18  C   UNL     1      -3.522   0.884   0.637  0.00  0.00    +0.193 C 
ATOM     19  C   UNL     1      -3.344   2.214   0.030  0.00  0.00    +0.011 C 
ATOM     20  C   UNL     1      -4.250   3.359   0.255  0.00  0.00    +0.034 C 
ENDROOT
BRANCH   6  21
ATOM     21  O   UNL     1       0.381   1.210  -1.992  0.00  0.00    -0.386 OA
ATOM     22  H   UNL     1       1.351   1.201  -2.022  0.00  0.00    +0.210 HD
ENDBRANCH   6  21
BRANCH  13  23
ATOM     23  O   UNL     1      -1.649  -0.086   1.550  0.00  0.00    -0.379 OA
ATOM     24  H   UNL     1      -0.870  -0.655   1.448  0.00  0.00    +0.211 HD
ENDBRANCH  13  23
BRANCH   3  25
ATOM     25  O   UNL     1       3.050   0.381  -0.566  0.00  0.00    -0.456 OA
BRANCH  25  27
ATOM     26  O   UNL     1       4.868   1.088   0.664  0.00  0.00    -0.250 OA
ATOM     27  C   UNL     1       4.294   0.921  -0.403  0.00  0.00    +0.317 C 
ATOM     28  C   UNL     1       4.871   1.284  -1.737  0.00  0.00    +0.121 C 
ENDBRANCH  25  27
ENDBRANCH   3  25
BRANCH  16  29
ATOM     29  C   UNL     1      -2.293  -3.606  -1.259  0.00  0.00    +0.159 C 
BRANCH  29  30
ATOM     30  O   UNL     1      -2.804  -4.303  -0.144  0.00  0.00    -0.378 OA
ATOM     31  H   UNL     1      -3.162  -5.157  -0.433  0.00  0.00    +0.211 HD
ENDBRANCH  29  30
ENDBRANCH  16  29
TORSDOF 6
