REMARK  Name = 138113406
REMARK  7 active torsions:
REMARK  status: ('A' for Active; 'I' for Inactive)
REMARK    1  A    between atoms: C_4  and  C_29
REMARK    2  A    between atoms: CA_6  and  N_11
REMARK    3  A    between atoms: CA_7  and  C_28
REMARK    4  A    between atoms: C_12  and  C_15
REMARK    5  A    between atoms: N_14  and  O_24
REMARK    6  A    between atoms: C_15  and  C_19
REMARK    7  A    between atoms: C_29  and  N_30
REMARK                            x       y       z     vdW  Elec       q    Type
REMARK                         _______ _______ _______ _____ _____    ______ ____
ROOT
ATOM      1  S   UNL     1      -1.214   1.201  -2.522  0.00  0.00    -0.114 S 
ATOM      2  O   UNL     1      -0.139   2.994   1.657  0.00  0.00    -0.273 OA
ATOM      3  N   UNL     1      -1.183   1.565   0.104  0.00  0.00    -0.242 N 
ATOM      4  C   UNL     1      -3.229   0.639  -0.624  0.00  0.00    -0.034 C 
ATOM      5  C   UNL     1      -0.373   0.963  -0.940  0.00  0.00    +0.155 C 
ATOM      6  CA  UNL     1       0.707   2.011  -0.568  0.00  0.00    +0.179 C 
ATOM      7  CA  UNL     1      -2.492   1.272   0.319  0.00  0.00    +0.126 C 
ATOM      8  C   UNL     1      -2.686   0.255  -2.000  0.00  0.00    +0.081 C 
ATOM      9  C   UNL     1      -0.209   2.317   0.659  0.00  0.00    +0.251 C 
ENDROOT
BRANCH   6  11
ATOM     10  O   UNL     1       2.731   0.868  -2.378  0.00  0.00    -0.268 OA
ATOM     11  N   UNL     1       2.001   1.441  -0.221  0.00  0.00    -0.291 N 
ATOM     12  C   UNL     1       2.877   0.929  -1.168  0.00  0.00    +0.269 C 
ATOM     13  H   UNL     1       2.266   1.418   0.726  0.00  0.00    +0.150 HD
BRANCH  12  15
ATOM     14  N   UNL     1       5.183   1.180  -0.429  0.00  0.00    -0.076 NA
ATOM     15  C   UNL     1       4.154   0.399  -0.572  0.00  0.00    +0.198 C 
BRANCH  15  19
ATOM     16  S   UNL     1       3.837  -3.530   0.000  0.00  0.00    -0.060 S 
ATOM     17  N   UNL     1       5.028  -1.416   0.890  0.00  0.00    -0.383 NA
ATOM     18  N   UNL     1       5.571  -3.424   2.015  0.00  0.00    -0.328 N 
ATOM     19  C   UNL     1       4.216  -1.028  -0.158  0.00  0.00    +0.148 C 
ATOM     20  C   UNL     1       3.494  -2.034  -0.765  0.00  0.00    +0.127 C 
ATOM     21  C   UNL     1       4.908  -2.713   1.063  0.00  0.00    +0.204 C 
ATOM     22  H   UNL     1       5.433  -4.396   2.088  0.00  0.00    +0.145 HD
ATOM     23  H   UNL     1       6.187  -2.966   2.630  0.00  0.00    +0.145 HD
ENDBRANCH  15  19
BRANCH  14  24
ATOM     24  O   UNL     1       6.273   0.503   0.136  0.00  0.00    -0.373 OA
ATOM     25  C   UNL     1       7.348   1.423   0.256  0.00  0.00    +0.288 C 
ENDBRANCH  14  24
ENDBRANCH  12  15
ENDBRANCH   6  11
BRANCH   7  28
ATOM     26  O   UNL     1      -4.078   2.583   1.447  0.00  0.00    -0.239 OA
ATOM     27  OXT UNL     1      -2.669   1.250   2.659  0.00  0.00    -0.239 OA
ATOM     28  C   UNL     1      -3.147   1.751   1.608  0.00  0.00    +0.401 C 
ENDBRANCH   7  28
BRANCH   4  29
ATOM     29  C   UNL     1      -4.670   0.226  -0.443  0.00  0.00    -0.048 C 
BRANCH  29  30
ATOM     30  N   UNL     1      -4.806  -1.182   0.116  0.00  0.00    +0.391 N 
ATOM     31  C   UNL     1      -6.202  -1.377   0.742  0.00  0.00    -0.073 C 
ATOM     32  C   UNL     1      -4.704  -2.226  -1.015  0.00  0.00    -0.073 C 
ATOM     33  C   UNL     1      -6.687  -2.704   0.192  0.00  0.00    -0.024 C 
ATOM     34  C   UNL     1      -6.124  -2.719  -1.212  0.00  0.00    -0.024 C 
ATOM     35  C   UNL     1      -3.717  -1.417   1.152  0.00  0.00    -0.095 C 
ENDBRANCH  29  30
ENDBRANCH   4  29
TORSDOF 7
