REMARK  Name = 138115154
REMARK  7 active torsions:
REMARK  status: ('A' for Active; 'I' for Inactive)
REMARK    1  A    between atoms: C_2  and  O_16
REMARK    2  A    between atoms: C_3  and  C_20
REMARK    3  A    between atoms: C_4  and  O_18
REMARK    4  A    between atoms: C_5  and  N_7
REMARK    5  A    between atoms: C_20  and  O_21
REMARK    6  A    between atoms: O_21  and  P_22
REMARK    7  A    between atoms: C_26  and  C_30
REMARK                            x       y       z     vdW  Elec       q    Type
REMARK                         _______ _______ _______ _____ _____    ______ ____
ROOT
ATOM      1  O   UNL     1       0.329   1.311   0.055  0.00  0.00    -0.332 OA
ATOM      2  C   UNL     1       1.089   3.247   1.161  0.00  0.00    +0.171 C 
ATOM      3  C   UNL     1       0.192   2.741   0.045  0.00  0.00    +0.176 C 
ATOM      4  C   UNL     1       2.251   2.284   1.066  0.00  0.00    +0.188 C 
ATOM      5  C   UNL     1       1.550   0.976   0.734  0.00  0.00    +0.236 C 
ENDROOT
BRANCH   5   7
ATOM      6  O   UNL     1       3.273  -1.072   1.615  0.00  0.00    -0.193 OA
ATOM      7  N   UNL     1       2.341   0.134  -0.118  0.00  0.00    -0.178 N 
ATOM      8  N   UNL     1       3.923  -1.654  -0.480  0.00  0.00    -0.306 NA
ATOM      9  N   UNL     1       4.585  -2.245  -2.630  0.00  0.00    -0.332 N 
ATOM     10  C   UNL     1       2.273   0.321  -1.491  0.00  0.00    +0.083 C 
ATOM     11  C   UNL     1       3.188  -0.879   0.401  0.00  0.00    +0.276 C 
ATOM     12  C   UNL     1       2.971  -0.414  -2.354  0.00  0.00    +0.065 C 
ATOM     13  C   UNL     1       3.846  -1.464  -1.771  0.00  0.00    +0.193 C 
ATOM     14  H   UNL     1       5.173  -2.948  -2.272  0.00  0.00    +0.145 HD
ATOM     15  H   UNL     1       4.525  -2.100  -3.602  0.00  0.00    +0.145 HD
ENDBRANCH   5   7
BRANCH   2  16
ATOM     16  O   UNL     1       1.487   4.584   0.929  0.00  0.00    -0.379 OA
ATOM     17  H   UNL     1       0.715   5.168   0.999  0.00  0.00    +0.211 HD
ENDBRANCH   2  16
BRANCH   4  18
ATOM     18  O   UNL     1       2.944   2.207   2.299  0.00  0.00    -0.378 OA
ATOM     19  H   UNL     1       3.378   3.055   2.479  0.00  0.00    +0.211 HD
ENDBRANCH   4  18
BRANCH   3  20
ATOM     20  C   UNL     1      -1.268   3.117   0.229  0.00  0.00    +0.186 C 
BRANCH  20  21
ATOM     21  O   UNL     1      -2.013   2.609  -0.866  0.00  0.00    -0.270 OA
BRANCH  21  22
ATOM     22  P   UNL     1      -3.196   1.561  -0.527  0.00  0.00    +0.480 P 
ATOM     23  O   UNL     1      -2.400   0.269   0.041  0.00  0.00    -0.271 OA
ATOM     24  O   UNL     1      -3.684   1.052  -1.984  0.00  0.00    -0.273 OA
ATOM     25  O   UNL     1      -4.276   2.087   0.371  0.00  0.00    -0.227 OA
ATOM     26  C   UNL     1      -3.099  -0.977   0.012  0.00  0.00    +0.151 C 
ATOM     27  C   UNL     1      -3.527  -1.296  -1.431  0.00  0.00    +0.067 C 
ATOM     28  C   UNL     1      -4.391  -0.183  -2.021  0.00  0.00    +0.157 C 
BRANCH  26  30
ATOM     29  N   UNL     1      -0.576  -4.055   1.654  0.00  0.00    -0.242 NA
ATOM     30  C   UNL     1      -2.214  -2.057   0.588  0.00  0.00    +0.008 C 
ATOM     31  C   UNL     1      -2.595  -2.729   1.744  0.00  0.00    +0.019 C 
ATOM     32  C   UNL     1      -1.015  -2.383  -0.036  0.00  0.00    +0.019 C 
ATOM     33  C   UNL     1      -1.748  -3.711   2.232  0.00  0.00    +0.099 C 
ATOM     34  C   UNL     1      -0.239  -3.381   0.532  0.00  0.00    +0.099 C 
ENDBRANCH  26  30
ENDBRANCH  21  22
ENDBRANCH  20  21
ENDBRANCH   3  20
TORSDOF 7
