138114885
  -OEChem-03292013293D

 77 80  0     1  0  0  0  0  0999 V2000
   -1.5515    3.4241   -1.1947 O   0  0  0  0  0  0  0  0  0  0  0  0
   -3.4540    2.2153   -0.0167 O   0  0  0  0  0  0  0  0  0  0  0  0
    1.6025   -0.1578   -0.6335 O   0  0  0  0  0  0  0  0  0  0  0  0
    1.5984    4.1022   -0.4779 O   0  0  0  0  0  0  0  0  0  0  0  0
    2.9450    1.6257    1.4554 O   0  0  0  0  0  0  0  0  0  0  0  0
   -5.1217   -4.4313    0.5603 O   0  0  0  0  0  0  0  0  0  0  0  0
    1.5854   -1.5968    1.1715 O   0  0  0  0  0  0  0  0  0  0  0  0
   -1.0757    2.5607   -0.1403 C   0  0  2  0  0  0  0  0  0  0  0  0
    0.3275    1.9587   -0.5856 C   0  0  2  0  0  0  0  0  0  0  0  0
   -2.2124    1.5134    0.1732 C   0  0  2  0  0  0  0  0  0  0  0  0
   -2.1358    0.3174   -0.8157 C   0  0  2  0  0  0  0  0  0  0  0  0
    0.4075    0.4702   -0.1573 C   0  0  1  0  0  0  0  0  0  0  0  0
    1.3482    2.8644    0.1865 C   0  0  2  0  0  0  0  0  0  0  0  0
   -3.3581   -0.6943   -0.6816 C   0  0  2  0  0  0  0  0  0  0  0  0
   -0.7583   -0.3850   -0.6722 C   0  0  0  0  0  0  0  0  0  0  0  0
   -0.7775    3.5185    1.0403 C   0  0  0  0  0  0  0  0  0  0  0  0
    0.6370    3.1922    1.4935 C   0  0  0  0  0  0  0  0  0  0  0  0
   -2.2687    0.9680    1.6245 C   0  0  0  0  0  0  0  0  0  0  0  0
    0.5817    2.0470   -2.1137 C   0  0  0  0  0  0  0  0  0  0  0  0
   -3.6338   -1.0007    0.7894 C   0  0  0  0  0  0  0  0  0  0  0  0
   -3.0692   -2.0153   -1.4689 C   0  0  0  0  0  0  0  0  0  0  0  0
   -3.1195   -0.2641    1.7910 C   0  0  0  0  0  0  0  0  0  0  0  0
   -4.6407   -0.0686   -1.2968 C   0  0  0  0  0  0  0  0  0  0  0  0
    2.7059    2.2827    0.4434 C   0  0  0  0  0  0  0  0  0  0  0  0
   -4.5469   -2.1663    1.0853 C   0  0  0  0  0  0  0  0  0  0  0  0
   -4.0490   -3.1543   -1.1786 C   0  0  0  0  0  0  0  0  0  0  0  0
   -4.1439   -3.4239    0.3210 C   0  0  2  0  0  0  0  0  0  0  0  0
    3.7616    2.5425   -0.5971 C   0  0  0  0  0  0  0  0  0  0  0  0
    2.0747   -1.1771    0.1359 C   0  0  0  0  0  0  0  0  0  0  0  0
    3.3143   -1.6764   -0.5057 C   0  0  0  0  0  0  0  0  0  0  0  0
    4.3666   -2.2120    0.1440 C   0  0  0  0  0  0  0  0  0  0  0  0
    5.5705   -2.6883   -0.6688 C   0  0  0  0  0  0  0  0  0  0  0  0
    4.4470   -2.3880    1.6385 C   0  0  0  0  0  0  0  0  0  0  0  0
    5.7999   -4.1949   -0.5210 C   0  0  0  0  0  0  0  0  0  0  0  0
    6.8430   -1.9079   -0.3277 C   0  0  0  0  0  0  0  0  0  0  0  0
   -2.1880    0.7250   -1.8350 H   0  0  0  0  0  0  0  0  0  0  0  0
    0.4150    0.4390    0.9357 H   0  0  0  0  0  0  0  0  0  0  0  0
   -0.8384   -1.2383    0.0129 H   0  0  0  0  0  0  0  0  0  0  0  0
   -0.4920   -0.8202   -1.6453 H   0  0  0  0  0  0  0  0  0  0  0  0
   -1.4763    3.4370    1.8754 H   0  0  0  0  0  0  0  0  0  0  0  0
   -0.8227    4.5698    0.7264 H   0  0  0  0  0  0  0  0  0  0  0  0
    1.0776    4.0449    2.0220 H   0  0  0  0  0  0  0  0  0  0  0  0
    0.6221    2.3447    2.1876 H   0  0  0  0  0  0  0  0  0  0  0  0
   -2.7070    1.7252    2.2868 H   0  0  0  0  0  0  0  0  0  0  0  0
   -1.2798    0.7398    2.0252 H   0  0  0  0  0  0  0  0  0  0  0  0
    0.6259    3.0781   -2.4778 H   0  0  0  0  0  0  0  0  0  0  0  0
   -0.2106    1.5462   -2.6788 H   0  0  0  0  0  0  0  0  0  0  0  0
    1.5223    1.5702   -2.4024 H   0  0  0  0  0  0  0  0  0  0  0  0
   -3.0605   -1.8101   -2.5469 H   0  0  0  0  0  0  0  0  0  0  0  0
   -2.0790   -2.4143   -1.2297 H   0  0  0  0  0  0  0  0  0  0  0  0
   -3.3427   -0.5385    2.8197 H   0  0  0  0  0  0  0  0  0  0  0  0
   -0.8952    4.1261   -1.3418 H   0  0  0  0  0  0  0  0  0  0  0  0
   -4.4331    0.3633   -2.2821 H   0  0  0  0  0  0  0  0  0  0  0  0
   -5.4380   -0.8058   -1.4349 H   0  0  0  0  0  0  0  0  0  0  0  0
   -5.0785    0.7109   -0.6675 H   0  0  0  0  0  0  0  0  0  0  0  0
   -3.4595    2.9872    0.5741 H   0  0  0  0  0  0  0  0  0  0  0  0
   -4.5735   -2.3962    2.1583 H   0  0  0  0  0  0  0  0  0  0  0  0
   -5.5781   -1.8910    0.8272 H   0  0  0  0  0  0  0  0  0  0  0  0
   -5.0419   -2.9410   -1.5906 H   0  0  0  0  0  0  0  0  0  0  0  0
   -3.7171   -4.0644   -1.6940 H   0  0  0  0  0  0  0  0  0  0  0  0
    2.0480    4.7031    0.1407 H   0  0  0  0  0  0  0  0  0  0  0  0
   -3.1828   -3.7946    0.6981 H   0  0  0  0  0  0  0  0  0  0  0  0
    4.1374    3.5641   -0.5003 H   0  0  0  0  0  0  0  0  0  0  0  0
    3.3819    2.3750   -1.6045 H   0  0  0  0  0  0  0  0  0  0  0  0
    4.5944    1.8504   -0.4378 H   0  0  0  0  0  0  0  0  0  0  0  0
   -4.8489   -5.2263    0.0714 H   0  0  0  0  0  0  0  0  0  0  0  0
    3.3504   -1.5609   -1.5867 H   0  0  0  0  0  0  0  0  0  0  0  0
    5.3727   -2.5072   -1.7346 H   0  0  0  0  0  0  0  0  0  0  0  0
    4.2679   -3.4336    1.9072 H   0  0  0  0  0  0  0  0  0  0  0  0
    3.7331   -1.7674    2.1845 H   0  0  0  0  0  0  0  0  0  0  0  0
    5.4314   -2.1008    2.0187 H   0  0  0  0  0  0  0  0  0  0  0  0
    6.0920   -4.4633    0.5000 H   0  0  0  0  0  0  0  0  0  0  0  0
    6.5982   -4.5292   -1.1926 H   0  0  0  0  0  0  0  0  0  0  0  0
    7.2184   -2.1455    0.6728 H   0  0  0  0  0  0  0  0  0  0  0  0
    7.6397   -2.1522   -1.0393 H   0  0  0  0  0  0  0  0  0  0  0  0
    6.6696   -0.8275   -0.3816 H   0  0  0  0  0  0  0  0  0  0  0  0
    4.8940   -4.7565   -0.7739 H   0  0  0  0  0  0  0  0  0  0  0  0
  1  8  1  0  0  0  0
  1 52  1  0  0  0  0
  2 10  1  0  0  0  0
  2 56  1  0  0  0  0
  3 12  1  0  0  0  0
  3 29  1  0  0  0  0
  4 13  1  0  0  0  0
  4 61  1  0  0  0  0
  5 24  2  0  0  0  0
  6 27  1  0  0  0  0
  6 66  1  0  0  0  0
  7 29  2  0  0  0  0
  8  9  1  0  0  0  0
  8 10  1  0  0  0  0
  8 16  1  0  0  0  0
  9 12  1  0  0  0  0
  9 13  1  0  0  0  0
  9 19  1  0  0  0  0
 10 11  1  0  0  0  0
 10 18  1  0  0  0  0
 11 14  1  0  0  0  0
 11 15  1  0  0  0  0
 11 36  1  0  0  0  0
 12 15  1  0  0  0  0
 12 37  1  0  0  0  0
 13 17  1  0  0  0  0
 13 24  1  0  0  0  0
 14 20  1  0  0  0  0
 14 21  1  0  0  0  0
 14 23  1  0  0  0  0
 15 38  1  0  0  0  0
 15 39  1  0  0  0  0
 16 17  1  0  0  0  0
 16 40  1  0  0  0  0
 16 41  1  0  0  0  0
 17 42  1  0  0  0  0
 17 43  1  0  0  0  0
 18 22  1  0  0  0  0
 18 44  1  0  0  0  0
 18 45  1  0  0  0  0
 19 46  1  0  0  0  0
 19 47  1  0  0  0  0
 19 48  1  0  0  0  0
 20 22  2  0  0  0  0
 20 25  1  0  0  0  0
 21 26  1  0  0  0  0
 21 49  1  0  0  0  0
 21 50  1  0  0  0  0
 22 51  1  0  0  0  0
 23 53  1  0  0  0  0
 23 54  1  0  0  0  0
 23 55  1  0  0  0  0
 24 28  1  0  0  0  0
 25 27  1  0  0  0  0
 25 57  1  0  0  0  0
 25 58  1  0  0  0  0
 26 27  1  0  0  0  0
 26 59  1  0  0  0  0
 26 60  1  0  0  0  0
 27 62  1  0  0  0  0
 28 63  1  0  0  0  0
 28 64  1  0  0  0  0
 28 65  1  0  0  0  0
 29 30  1  0  0  0  0
 30 31  2  3  0  0  0
 30 67  1  0  0  0  0
 31 32  1  0  0  0  0
 31 33  1  0  0  0  0
 32 34  1  0  0  0  0
 32 35  1  0  0  0  0
 32 68  1  0  0  0  0
 33 69  1  0  0  0  0
 33 70  1  0  0  0  0
 33 71  1  0  0  0  0
 34 72  1  0  0  0  0
 34 73  1  0  0  0  0
 34 77  1  0  0  0  0
 35 74  1  0  0  0  0
 35 75  1  0  0  0  0
 35 76  1  0  0  0  0
M  END
> <PUBCHEM_COMPOUND_CID>
138114885

> <PUBCHEM_CONFORMER_RMSD>
1

> <PUBCHEM_CONFORMER_DIVERSEORDER>
1
36
20
10
11
8
27
22
24
43
18
42
35
23
39
26
12
14
34
28
25
29
44
32
37
9
4
41
38
6
30
3
31
33
19
16
40
5
7
15
17
21
2
13

> <PUBCHEM_MMFF94_PARTIAL_CHARGES>
30
1 -0.68
10 0.28
12 0.28
13 0.34
14 0.14
18 0.14
2 -0.68
20 -0.28
22 -0.29
24 0.45
25 0.14
27 0.28
28 0.06
29 0.71
3 -0.43
30 -0.14
31 -0.28
32 0.14
33 0.14
4 -0.68
5 -0.57
51 0.15
52 0.4
56 0.4
6 -0.68
61 0.4
66 0.4
67 0.15
7 -0.57
8 0.28

> <PUBCHEM_EFFECTIVE_ROTOR_COUNT>
7

> <PUBCHEM_PHARMACOPHORE_FEATURES>
16
1 1 acceptor
1 1 donor
1 2 acceptor
1 2 donor
1 33 hydrophobe
1 4 acceptor
1 4 donor
1 5 acceptor
1 6 acceptor
1 6 donor
1 7 acceptor
3 32 34 35 hydrophobe
5 8 9 13 16 17 rings
6 10 11 14 18 20 22 rings
6 14 20 21 25 26 27 rings
6 8 9 10 11 12 15 rings

> <PUBCHEM_HEAVY_ATOM_COUNT>
35

> <PUBCHEM_ATOM_DEF_STEREO_COUNT>
6

> <PUBCHEM_ATOM_UDEF_STEREO_COUNT>
2

> <PUBCHEM_BOND_DEF_STEREO_COUNT>
0

> <PUBCHEM_BOND_UDEF_STEREO_COUNT>
1

> <PUBCHEM_ISOTOPIC_ATOM_COUNT>
0

> <PUBCHEM_COMPONENT_COUNT>
1

> <PUBCHEM_CACTVS_TAUTO_COUNT>
-1

> <PUBCHEM_CONFORMER_ID>
083B774500000001

> <PUBCHEM_MMFF94_ENERGY>
133.5013

> <PUBCHEM_FEATURE_SELFOVERLAP>
81.411

> <PUBCHEM_SHAPE_FINGERPRINT>
10622 236 17557403673341934895
1100329 8 18267585710843152905
11285246 1 18115029606439922378
11315621 246 18120385250791692734
11578080 2 17895177901121210653
12107183 9 18270135539112514163
12608794 3 18126581033110580433
12788726 201 18046617915576142587
13009979 54 18060427923228212578
131258 43 18271253798124590582
13140716 1 18341900658145346209
13690498 29 18187934919531327062
14068700 675 17916851457548468159
14117953 113 18200875063800437023
14444916 359 17840012272822217416
14674994 50 17416094275588039231
14705955 166 16627430944018976801
14844126 61 18193559960699732466
14856354 85 18056201272373197366
15230672 131 17042619613682549614
15876981 60 18335991857077908910
17349148 13 17899691560052318433
17492 89 18339360889475493263
17686467 74 18339634552893130042
17909252 39 18266186213008891274
19319366 153 17263563704723320447
19841028 212 18194117645841965571
20028762 73 17549821535276156358
20101258 96 18337959991101532802
20775530 9 18408317783149580426
21033650 10 16660633025924405229
21796203 349 18050044161159419954
23559900 14 18411125935846705689
255183 451 18341335599078665934
2818148 4 18341905086372711864
3383291 50 18123750859999258441
3504750 166 17758099412282740570
3737641 26 18338520857890060552
4280585 95 18336817586057332410
4409770 3 17975413516770394645
4616759 239 17842259382325237778
70251023 43 18409726305021756995

> <PUBCHEM_SHAPE_MULTIPOLES>
679.2
11.72
5.98
1.55
11.93
0.21
-0.13
17.2
0.19
0.89
-0.07
-0.65
-0.19
0.21

> <PUBCHEM_SHAPE_SELFOVERLAP>
1441.917

> <PUBCHEM_SHAPE_VOLUME>
373.3

> <PUBCHEM_COORDINATE_TYPE>
2
5
10

$$$$
