REMARK  Name = 138113346
REMARK  6 active torsions:
REMARK  status: ('A' for Active; 'I' for Inactive)
REMARK    1  A    between atoms: C_6  and  O_21
REMARK    2  A    between atoms: C_6  and  C_28
REMARK    3  A    between atoms: C_9  and  O_23
REMARK    4  A    between atoms: C_15  and  O_25
REMARK    5  A    between atoms: C_28  and  C_29
REMARK    6  A    between atoms: C_29  and  O_30
REMARK                            x       y       z     vdW  Elec       q    Type
REMARK                         _______ _______ _______ _____ _____    ______ ____
ROOT
ATOM      1  O   UNL     1      -6.514  -0.566  -0.246  0.00  0.00    -0.291 OA
ATOM      2  C   UNL     1       2.000  -0.179  -0.452  0.00  0.00    +0.031 C 
ATOM      3  C   UNL     1       0.979   0.973  -0.727  0.00  0.00    +0.003 C 
ATOM      4  C   UNL     1      -0.210   1.031   0.264  0.00  0.00    +0.005 C 
ATOM      5  C   UNL     1      -0.953  -0.332   0.466  0.00  0.00    +0.031 C 
ATOM      6  C   UNL     1       3.277   0.562   0.039  0.00  0.00    +0.141 C 
ATOM      7  C   UNL     1      -2.332  -0.433  -0.293  0.00  0.00    +0.020 C 
ATOM      8  C   UNL     1       1.446  -1.202   0.557  0.00  0.00    +0.032 C 
ATOM      9  C   UNL     1      -0.015  -1.551   0.272  0.00  0.00    +0.111 C 
ATOM     10  C   UNL     1       1.806   2.279  -0.725  0.00  0.00    +0.003 C 
ATOM     11  C   UNL     1       3.269   1.859  -0.764  0.00  0.00    +0.034 C 
ATOM     12  C   UNL     1      -1.165   2.198  -0.077  0.00  0.00    +0.034 C 
ATOM     13  C   UNL     1       2.276  -0.906  -1.799  0.00  0.00    +0.003 C 
ATOM     14  C   UNL     1      -3.221   0.747   0.117  0.00  0.00    -0.016 C 
ATOM     15  C   UNL     1      -2.549   2.034   0.541  0.00  0.00    +0.129 C 
ATOM     16  C   UNL     1      -3.071  -1.742   0.100  0.00  0.00    +0.012 C 
ATOM     17  C   UNL     1      -2.145  -0.420  -1.830  0.00  0.00    +0.004 C 
ATOM     18  C   UNL     1      -4.492  -1.827  -0.450  0.00  0.00    +0.069 C 
ATOM     19  C   UNL     1      -4.564   0.675   0.154  0.00  0.00    +0.031 C 
ATOM     20  C   UNL     1      -5.285  -0.575  -0.176  0.00  0.00    +0.173 C 
ENDROOT
BRANCH   6  21
ATOM     21  O   UNL     1       3.224   0.912   1.417  0.00  0.00    -0.380 OA
ATOM     22  H   UNL     1       2.406   1.401   1.596  0.00  0.00    +0.211 HD
ENDBRANCH   6  21
BRANCH   9  23
ATOM     23  O   UNL     1      -0.394  -2.606   1.159  0.00  0.00    -0.384 OA
ATOM     24  H   UNL     1      -1.320  -2.847   0.998  0.00  0.00    +0.210 HD
ENDBRANCH   9  23
BRANCH  15  25
ATOM     25  O   UNL     1      -2.405   2.053   1.962  0.00  0.00    -0.380 OA
ATOM     26  H   UNL     1      -1.974   2.879   2.232  0.00  0.00    +0.211 HD
ENDBRANCH  15  25
BRANCH   6  28
ATOM     27  O   UNL     1       5.218  -0.104  -1.174  0.00  0.00    -0.291 OA
ATOM     28  C   UNL     1       4.567  -0.183  -0.133  0.00  0.00    +0.204 C 
BRANCH  28  29
ATOM     29  C   UNL     1       5.013  -1.030   1.040  0.00  0.00    +0.204 C 
BRANCH  29  30
ATOM     30  O   UNL     1       6.241  -1.667   0.757  0.00  0.00    -0.375 OA
ATOM     31  H   UNL     1       6.510  -2.204   1.519  0.00  0.00    +0.211 HD
ENDBRANCH  29  30
ENDBRANCH  28  29
ENDBRANCH   6  28
TORSDOF 6
