REMARK  Name = 138111648
REMARK  9 active torsions:
REMARK  status: ('A' for Active; 'I' for Inactive)
REMARK    1  A    between atoms: C_3  and  C_21
REMARK    2  A    between atoms: C_4  and  C_10
REMARK    3  A    between atoms: C_12  and  C_13
REMARK    4  A    between atoms: C_14  and  O_19
REMARK    5  A    between atoms: C_21  and  C_22
REMARK    6  A    between atoms: C_21  and  O_35
REMARK    7  A    between atoms: C_22  and  C_27
REMARK    8  A    between atoms: C_28  and  C_32
REMARK    9  A    between atoms: C_32  and  O_33
REMARK                            x       y       z     vdW  Elec       q    Type
REMARK                         _______ _______ _______ _____ _____    ______ ____
ROOT
ATOM      1  S   UNL     1       1.171  -3.987   1.467  0.00  0.00    -0.163 S 
ATOM      2  N   UNL     1       1.289  -1.423   0.721  0.00  0.00    +0.396 N 
ATOM      3  C   UNL     1       2.255  -2.173  -0.105  0.00  0.00    -0.022 C 
ATOM      4  C   UNL     1       0.322  -2.393   1.254  0.00  0.00    +0.012 C 
ATOM      5  C   UNL     1       2.694  -3.399   0.693  0.00  0.00    +0.037 C 
ATOM      6  H   UNL     1       0.808  -0.728   0.151  0.00  0.00    -0.083 HD
ATOM      7  H   UNL     1       1.766  -0.936   1.480  0.00  0.00    -0.083 HD
ENDROOT
BRANCH   4  10
ATOM      8  S   UNL     1      -3.401  -3.028   0.045  0.00  0.00    -0.093 S 
ATOM      9  N   UNL     1      -1.528  -1.230   0.166  0.00  0.00    -0.266 NA
ATOM     10  C   UNL     1      -0.871  -2.547   0.316  0.00  0.00    +0.105 C 
ATOM     11  C   UNL     1      -1.879  -3.556   0.849  0.00  0.00    +0.087 C 
ATOM     12  C   UNL     1      -2.799  -1.385  -0.034  0.00  0.00    +0.104 C 
BRANCH  12  13
ATOM     13  C   UNL     1      -3.716  -0.247  -0.282  0.00  0.00    +0.057 C 
ATOM     14  C   UNL     1      -3.264   0.913  -0.910  0.00  0.00    +0.136 C 
ATOM     15  C   UNL     1      -5.047  -0.348   0.124  0.00  0.00    +0.005 C 
ATOM     16  C   UNL     1      -4.143   1.973  -1.133  0.00  0.00    +0.037 C 
ATOM     17  C   UNL     1      -5.926   0.712  -0.099  0.00  0.00    +0.000 C 
ATOM     18  C   UNL     1      -5.474   1.873  -0.727  0.00  0.00    +0.003 C 
BRANCH  14  19
ATOM     19  O   UNL     1      -1.967   1.031  -1.312  0.00  0.00    -0.505 OA
ATOM     20  H   UNL     1      -1.366   0.327  -1.169  0.00  0.00    +0.292 HD
ENDBRANCH  14  19
ENDBRANCH  12  13
ENDBRANCH   4  10
BRANCH   3  21
ATOM     21  C   UNL     1       3.442  -1.287  -0.467  0.00  0.00    +0.098 C 
BRANCH  21  22
ATOM     22  C   UNL     1       3.089  -0.055  -1.343  0.00  0.00    +0.063 C 
ATOM     23  C   UNL     1       1.807  -0.281  -2.156  0.00  0.00    +0.009 C 
ATOM     24  C   UNL     1       4.234   0.350  -2.283  0.00  0.00    +0.009 C 
BRANCH  22  27
ATOM     25  S   UNL     1       4.078   1.645   0.618  0.00  0.00    -0.097 S 
ATOM     26  N   UNL     1       1.663   1.694  -0.386  0.00  0.00    -0.261 NA
ATOM     27  C   UNL     1       2.808   1.099  -0.443  0.00  0.00    +0.081 C 
ATOM     28  C   UNL     1       1.729   2.824   0.568  0.00  0.00    +0.183 C 
ATOM     29  C   UNL     1       2.877   2.611   1.556  0.00  0.00    +0.097 C 
ATOM     30  C   UNL     1       1.845   4.130  -0.217  0.00  0.00    +0.037 C 
BRANCH  28  32
ATOM     31  O   UNL     1      -0.487   2.015   1.109  0.00  0.00    -0.248 OA
ATOM     32  C   UNL     1       0.424   2.805   1.310  0.00  0.00    +0.335 C 
BRANCH  32  33
ATOM     33  O   UNL     1       0.388   3.789   2.241  0.00  0.00    -0.479 OA
ATOM     34  H   UNL     1       1.122   4.362   2.345  0.00  0.00    +0.295 HD
ENDBRANCH  32  33
ENDBRANCH  28  32
ENDBRANCH  22  27
ENDBRANCH  21  22
BRANCH  21  35
ATOM     35  O   UNL     1       4.387  -2.125  -1.138  0.00  0.00    -0.386 OA
ATOM     36  H   UNL     1       4.597  -2.889  -0.578  0.00  0.00    +0.210 HD
ENDBRANCH  21  35
ENDBRANCH   3  21
TORSDOF 9
