138114131
  -OEChem-03292013293D

 58 61  0     1  0  0  0  0  0999 V2000
    3.0497    0.3811   -0.5663 O   0  0  0  0  0  0  0  0  0  0  0  0
    0.3814    1.2101   -1.9918 O   0  0  0  0  0  0  0  0  0  0  0  0
   -1.6487   -0.0856    1.5504 O   0  0  0  0  0  0  0  0  0  0  0  0
   -4.4773    0.5886    1.3406 O   0  0  0  0  0  0  0  0  0  0  0  0
    4.8683    1.0883    0.6637 O   0  0  0  0  0  0  0  0  0  0  0  0
   -2.8043   -4.3027   -0.1440 O   0  0  0  0  0  0  0  0  0  0  0  0
    1.2284   -1.0487    0.5615 C   0  0  2  0  0  0  0  0  0  0  0  0
    2.3461   -0.0311    0.6298 C   0  0  1  0  0  0  0  0  0  0  0  0
    2.6046   -1.4906    0.9756 C   0  0  0  0  0  0  0  0  0  0  0  0
    0.4713   -0.8316   -0.7046 C   0  0  2  0  0  0  0  0  0  0  0  0
   -0.0690    0.6827   -0.7148 C   0  0  1  0  0  0  0  0  0  0  0  0
    1.7168    1.1251    1.3147 C   0  0  0  0  0  0  0  0  0  0  0  0
    0.5471    1.6755    0.4201 C   0  0  1  0  0  0  0  0  0  0  0  0
    3.3638   -2.3785    0.0225 C   0  0  0  0  0  0  0  0  0  0  0  0
    2.8550   -1.8166    2.4258 C   0  0  0  0  0  0  0  0  0  0  0  0
   -1.6204    0.7470   -0.7855 C   0  0  1  0  0  0  0  0  0  0  0  0
   -0.4330   -2.0090   -1.0205 C   0  0  0  0  0  0  0  0  0  0  0  0
   -2.3543   -0.0244    0.3223 C   0  0  1  0  0  0  0  0  0  0  0  0
    0.9939    3.0372   -0.1498 C   0  0  0  0  0  0  0  0  0  0  0  0
   -2.7825   -1.4127   -0.1299 C   0  0  0  0  0  0  0  0  0  0  0  0
   -1.7357   -2.2751   -0.8021 C   0  0  0  0  0  0  0  0  0  0  0  0
   -2.2569    2.1139   -0.7398 C   0  0  0  0  0  0  0  0  0  0  0  0
   -3.5224    0.8840    0.6366 C   0  0  0  0  0  0  0  0  0  0  0  0
    4.2937    0.9211   -0.4033 C   0  0  0  0  0  0  0  0  0  0  0  0
   -3.3438    2.2144    0.0299 C   0  0  0  0  0  0  0  0  0  0  0  0
   -2.2927   -3.6060   -1.2591 C   0  0  0  0  0  0  0  0  0  0  0  0
    4.8714    1.2843   -1.7371 C   0  0  0  0  0  0  0  0  0  0  0  0
   -4.2503    3.3591    0.2553 C   0  0  0  0  0  0  0  0  0  0  0  0
    0.5189   -1.1482    1.3807 H   0  0  0  0  0  0  0  0  0  0  0  0
    1.1966   -0.8834   -1.5316 H   0  0  0  0  0  0  0  0  0  0  0  0
    2.4543    1.9037    1.5390 H   0  0  0  0  0  0  0  0  0  0  0  0
    1.3061    0.8296    2.2892 H   0  0  0  0  0  0  0  0  0  0  0  0
   -0.2538    1.9109    1.1318 H   0  0  0  0  0  0  0  0  0  0  0  0
    3.9138   -1.6764    2.6673 H   0  0  0  0  0  0  0  0  0  0  0  0
    2.5897   -2.8587    2.6327 H   0  0  0  0  0  0  0  0  0  0  0  0
    2.2713   -1.1855    3.1035 H   0  0  0  0  0  0  0  0  0  0  0  0
    4.4422   -2.2533    0.1651 H   0  0  0  0  0  0  0  0  0  0  0  0
    3.1372   -2.1676   -1.0273 H   0  0  0  0  0  0  0  0  0  0  0  0
    3.1149   -3.4292    0.2057 H   0  0  0  0  0  0  0  0  0  0  0  0
   -1.9305    0.3621   -1.7701 H   0  0  0  0  0  0  0  0  0  0  0  0
    0.1322   -2.8047   -1.5128 H   0  0  0  0  0  0  0  0  0  0  0  0
    1.8722    2.9339   -0.7952 H   0  0  0  0  0  0  0  0  0  0  0  0
    1.2602    3.7228    0.6627 H   0  0  0  0  0  0  0  0  0  0  0  0
    0.2021    3.5210   -0.7262 H   0  0  0  0  0  0  0  0  0  0  0  0
    0.0243    0.6433   -2.6968 H   0  0  0  0  0  0  0  0  0  0  0  0
   -3.6221   -1.3076   -0.8315 H   0  0  0  0  0  0  0  0  0  0  0  0
   -3.1743   -1.9580    0.7388 H   0  0  0  0  0  0  0  0  0  0  0  0
   -1.9062    2.9303   -1.3577 H   0  0  0  0  0  0  0  0  0  0  0  0
   -2.1790   -0.5953    2.1863 H   0  0  0  0  0  0  0  0  0  0  0  0
   -1.5364   -4.2355   -1.7397 H   0  0  0  0  0  0  0  0  0  0  0  0
   -3.1015   -3.4441   -1.9801 H   0  0  0  0  0  0  0  0  0  0  0  0
    4.2282    2.0166   -2.2317 H   0  0  0  0  0  0  0  0  0  0  0  0
    5.8606    1.7288   -1.5955 H   0  0  0  0  0  0  0  0  0  0  0  0
    4.9761    0.3864   -2.3513 H   0  0  0  0  0  0  0  0  0  0  0  0
   -5.2708    3.1073   -0.0496 H   0  0  0  0  0  0  0  0  0  0  0  0
   -3.9348    4.2377   -0.3167 H   0  0  0  0  0  0  0  0  0  0  0  0
   -4.2638    3.6338    1.3146 H   0  0  0  0  0  0  0  0  0  0  0  0
   -3.1779   -5.1383   -0.4721 H   0  0  0  0  0  0  0  0  0  0  0  0
  1  8  1  0  0  0  0
  1 24  1  0  0  0  0
  2 11  1  0  0  0  0
  2 45  1  0  0  0  0
  3 18  1  0  0  0  0
  3 49  1  0  0  0  0
  4 23  2  0  0  0  0
  5 24  2  0  0  0  0
  6 26  1  0  0  0  0
  6 58  1  0  0  0  0
  7  8  1  0  0  0  0
  7  9  1  0  0  0  0
  7 10  1  0  0  0  0
  7 29  1  0  0  0  0
  8  9  1  0  0  0  0
  8 12  1  0  0  0  0
  9 14  1  0  0  0  0
  9 15  1  0  0  0  0
 10 11  1  0  0  0  0
 10 17  1  0  0  0  0
 10 30  1  0  0  0  0
 11 13  1  0  0  0  0
 11 16  1  0  0  0  0
 12 13  1  0  0  0  0
 12 31  1  0  0  0  0
 12 32  1  0  0  0  0
 13 19  1  0  0  0  0
 13 33  1  0  0  0  0
 14 37  1  0  0  0  0
 14 38  1  0  0  0  0
 14 39  1  0  0  0  0
 15 34  1  0  0  0  0
 15 35  1  0  0  0  0
 15 36  1  0  0  0  0
 16 18  1  0  0  0  0
 16 22  1  0  0  0  0
 16 40  1  0  0  0  0
 17 21  2  0  0  0  0
 17 41  1  0  0  0  0
 18 20  1  0  0  0  0
 18 23  1  0  0  0  0
 19 42  1  0  0  0  0
 19 43  1  0  0  0  0
 19 44  1  0  0  0  0
 20 21  1  0  0  0  0
 20 46  1  0  0  0  0
 20 47  1  0  0  0  0
 21 26  1  0  0  0  0
 22 25  2  0  0  0  0
 22 48  1  0  0  0  0
 23 25  1  0  0  0  0
 24 27  1  0  0  0  0
 25 28  1  0  0  0  0
 26 50  1  0  0  0  0
 26 51  1  0  0  0  0
 27 52  1  0  0  0  0
 27 53  1  0  0  0  0
 27 54  1  0  0  0  0
 28 55  1  0  0  0  0
 28 56  1  0  0  0  0
 28 57  1  0  0  0  0
M  END
> <PUBCHEM_COMPOUND_CID>
138114131

> <PUBCHEM_CONFORMER_RMSD>
0.8

> <PUBCHEM_CONFORMER_DIVERSEORDER>
1
2

> <PUBCHEM_MMFF94_PARTIAL_CHARGES>
32
1 -0.3
10 0.23
11 0.28
12 0.09
14 0.09
15 0.09
16 0.14
17 -0.29
18 0.34
2 -0.68
20 0.14
21 -0.28
22 -0.29
23 0.49
24 0.66
25 -0.12
26 0.42
27 0.06
28 0.14
29 0.1
3 -0.68
4 -0.57
41 0.15
45 0.4
48 0.15
49 0.4
5 -0.57
58 0.4
6 -0.68
7 -0.19
8 0.05
9 -0.19

> <PUBCHEM_EFFECTIVE_ROTOR_COUNT>
3.8

> <PUBCHEM_PHARMACOPHORE_FEATURES>
12
1 2 acceptor
1 2 donor
1 3 acceptor
1 3 donor
1 4 acceptor
1 5 acceptor
1 6 acceptor
1 6 donor
3 9 14 15 hydrophobe
5 16 18 22 23 25 rings
7 10 11 16 17 18 20 21 rings
7 7 8 9 10 11 12 13 rings

> <PUBCHEM_HEAVY_ATOM_COUNT>
28

> <PUBCHEM_ATOM_DEF_STEREO_COUNT>
6

> <PUBCHEM_ATOM_UDEF_STEREO_COUNT>
1

> <PUBCHEM_BOND_DEF_STEREO_COUNT>
0

> <PUBCHEM_BOND_UDEF_STEREO_COUNT>
0

> <PUBCHEM_ISOTOPIC_ATOM_COUNT>
0

> <PUBCHEM_COMPONENT_COUNT>
1

> <PUBCHEM_CACTVS_TAUTO_COUNT>
-1

> <PUBCHEM_CONFORMER_ID>
083B745300000001

> <PUBCHEM_MMFF94_ENERGY>
105.416

> <PUBCHEM_FEATURE_SELFOVERLAP>
60.934

> <PUBCHEM_SHAPE_FINGERPRINT>
10759866 29 18188779344677775672
10863032 1 18411135805723814856
10948715 1 18335708186940035273
12403814 3 17749383750152228773
12422481 6 18118096136428097352
12553582 1 18122614222231804367
12633257 1 17972874757333031697
12788726 201 18338222882193064867
12892183 10 17822304431211885401
13004483 165 18054202574845498119
13140716 1 17615118219482663882
13224815 77 17967805042545724730
14178342 30 18196629977864034154
14223421 5 18056465390690316385
14251751 93 18340210798983449220
14787075 74 17968387848001288160
14790565 3 18197506125170270272
15238133 3 17914327975030942872
15484559 13 15221410607393999332
1601671 61 18409735023847754176
16728300 4 16526360425296391283
16752209 62 18059560442855860199
16945 1 18266724934745210445
19319366 153 18113339704143560354
19591789 44 18267866073502351327
20691752 17 17751630190405916940
20739085 24 17403736645054339186
21033648 29 18201711808986626777
22907989 373 18339912840001267973
229495 10 17604416410853120164
23419403 2 16530590212479358639
23558518 356 18120373413022918013
23559900 14 17911801267123943646
25147074 1 18261096479378992066
2818148 4 18336820974744545110
34934 24 18408321069084469792
350125 39 18198346354138302449
463206 1 17543063936807109227
5104073 3 18116156575793569889
70251023 43 17911239738868338430
7097593 13 18408595972354671907

> <PUBCHEM_SHAPE_MULTIPOLES>
541.01
8.08
4.05
1.55
2.85
2.57
-0.24
-3.28
-0.69
-3.36
0.83
0.94
0.25
-1.7

> <PUBCHEM_SHAPE_SELFOVERLAP>
1159.808

> <PUBCHEM_SHAPE_VOLUME>
296.9

> <PUBCHEM_COORDINATE_TYPE>
2
5
10

$$$$
