138113521
  -OEChem-03292013293D

 45 48  0     1  0  0  0  0  0999 V2000
   -1.9532   -2.9278    1.9839 O   0  0  0  0  0  0  0  0  0  0  0  0
   -3.6542    1.5496   -2.2457 O   0  0  0  0  0  0  0  0  0  0  0  0
   -2.5466   -1.0048    3.0691 O   0  0  0  0  0  0  0  0  0  0  0  0
   -2.7883   -0.4978   -2.6487 O   0  0  0  0  0  0  0  0  0  0  0  0
    3.3134    0.3805   -0.3810 O   0  0  0  0  0  0  0  0  0  0  0  0
   -1.6161    2.2876   -0.7760 N   0  0  0  0  0  0  0  0  0  0  0  0
   -2.3824    0.3784    0.4645 C   0  0  2  0  0  0  0  0  0  0  0  0
   -2.6509   -1.0854    0.7111 C   0  0  2  0  0  0  0  0  0  0  0  0
   -3.7972   -0.1231    0.5294 C   0  0  0  0  0  0  0  0  0  0  0  0
   -1.7943    0.8345   -0.8591 C   0  0  2  0  0  0  0  0  0  0  0  0
   -0.4634    0.1111   -1.1590 C   0  0  0  0  0  0  0  0  0  0  0  0
   -2.3859   -1.6452    2.0410 C   0  0  0  0  0  0  0  0  0  0  0  0
    0.4602   -0.0814    0.0510 C   0  0  0  0  0  0  0  0  0  0  0  0
   -2.7709    0.5462   -2.0059 C   0  0  0  0  0  0  0  0  0  0  0  0
    1.1552    1.2150    0.3957 C   0  0  0  0  0  0  0  0  0  0  0  0
    1.4522   -1.1896   -0.2134 C   0  0  0  0  0  0  0  0  0  0  0  0
    2.5223    1.3746    0.1451 C   0  0  0  0  0  0  0  0  0  0  0  0
    2.8026   -0.8952   -0.4301 C   0  0  0  0  0  0  0  0  0  0  0  0
    0.4399    2.2836    0.9563 C   0  0  0  0  0  0  0  0  0  0  0  0
    1.0342   -2.5278   -0.2626 C   0  0  0  0  0  0  0  0  0  0  0  0
    3.1596    2.5860    0.4273 C   0  0  0  0  0  0  0  0  0  0  0  0
    3.7155   -1.9150   -0.7134 C   0  0  0  0  0  0  0  0  0  0  0  0
    1.0782    3.4903    1.2461 C   0  0  0  0  0  0  0  0  0  0  0  0
    1.9471   -3.5468   -0.5373 C   0  0  0  0  0  0  0  0  0  0  0  0
    2.4366    3.6423    0.9782 C   0  0  0  0  0  0  0  0  0  0  0  0
    3.2865   -3.2398   -0.7662 C   0  0  0  0  0  0  0  0  0  0  0  0
   -2.0841    0.9689    1.3194 H   0  0  0  0  0  0  0  0  0  0  0  0
   -2.4871   -1.7707   -0.1159 H   0  0  0  0  0  0  0  0  0  0  0  0
   -4.4128   -0.2630   -0.3486 H   0  0  0  0  0  0  0  0  0  0  0  0
   -4.3832    0.1583    1.3987 H   0  0  0  0  0  0  0  0  0  0  0  0
   -0.6982   -0.8809   -1.5675 H   0  0  0  0  0  0  0  0  0  0  0  0
    0.0661    0.6195   -1.9790 H   0  0  0  0  0  0  0  0  0  0  0  0
   -0.0741   -0.3954    0.9527 H   0  0  0  0  0  0  0  0  0  0  0  0
   -2.5193    2.7465   -0.6627 H   0  0  0  0  0  0  0  0  0  0  0  0
   -1.2194    2.6399   -1.6464 H   0  0  0  0  0  0  0  0  0  0  0  0
   -1.7767   -3.2953    2.8761 H   0  0  0  0  0  0  0  0  0  0  0  0
   -4.2710    1.3268   -2.9751 H   0  0  0  0  0  0  0  0  0  0  0  0
   -0.5678    2.1860    1.3248 H   0  0  0  0  0  0  0  0  0  0  0  0
   -0.0078   -2.7855   -0.0947 H   0  0  0  0  0  0  0  0  0  0  0  0
    4.2209    2.7094    0.2283 H   0  0  0  0  0  0  0  0  0  0  0  0
    4.7631   -1.6837   -0.8872 H   0  0  0  0  0  0  0  0  0  0  0  0
    0.5232    4.3007    1.7100 H   0  0  0  0  0  0  0  0  0  0  0  0
    1.6120   -4.5792   -0.5764 H   0  0  0  0  0  0  0  0  0  0  0  0
    2.9345    4.5795    1.2088 H   0  0  0  0  0  0  0  0  0  0  0  0
    3.9964   -4.0326   -0.9828 H   0  0  0  0  0  0  0  0  0  0  0  0
  1 12  1  0  0  0  0
  1 36  1  0  0  0  0
  2 14  1  0  0  0  0
  2 37  1  0  0  0  0
  3 12  2  0  0  0  0
  4 14  2  0  0  0  0
  5 17  1  0  0  0  0
  5 18  1  0  0  0  0
  6 10  1  0  0  0  0
  6 34  1  0  0  0  0
  6 35  1  0  0  0  0
  7  8  1  0  0  0  0
  7  9  1  0  0  0  0
  7 10  1  0  0  0  0
  7 27  1  0  0  0  0
  8  9  1  0  0  0  0
  8 12  1  0  0  0  0
  8 28  1  0  0  0  0
  9 29  1  0  0  0  0
  9 30  1  0  0  0  0
 10 11  1  0  0  0  0
 10 14  1  0  0  0  0
 11 13  1  0  0  0  0
 11 31  1  0  0  0  0
 11 32  1  0  0  0  0
 13 15  1  0  0  0  0
 13 16  1  0  0  0  0
 13 33  1  0  0  0  0
 15 17  1  0  0  0  0
 15 19  2  0  0  0  0
 16 18  1  0  0  0  0
 16 20  2  0  0  0  0
 17 21  2  0  0  0  0
 18 22  2  0  0  0  0
 19 23  1  0  0  0  0
 19 38  1  0  0  0  0
 20 24  1  0  0  0  0
 20 39  1  0  0  0  0
 21 25  1  0  0  0  0
 21 40  1  0  0  0  0
 22 26  1  0  0  0  0
 22 41  1  0  0  0  0
 23 25  2  0  0  0  0
 23 42  1  0  0  0  0
 24 26  2  0  0  0  0
 24 43  1  0  0  0  0
 25 44  1  0  0  0  0
 26 45  1  0  0  0  0
M  END
> <PUBCHEM_COMPOUND_CID>
138113521

> <PUBCHEM_CONFORMER_RMSD>
0.8

> <PUBCHEM_CONFORMER_DIVERSEORDER>
2
5
27
9
32
40
19
42
36
14
41
46
56
12
34
3
10
51
17
16
38
7
4
48
53
25
31
39
21
8
47
15
50
37
11
33
45
30
44
43
58
26
55
6
49
1
13
29
52
57
23
18
28
20
24
22
54
35

> <PUBCHEM_MMFF94_PARTIAL_CHARGES>
41
1 -0.65
10 0.43
12 0.72
13 0.29
14 0.66
15 -0.14
16 -0.14
17 0.08
18 0.08
19 -0.15
2 -0.65
20 -0.15
21 -0.15
22 -0.15
23 -0.15
24 -0.15
25 -0.15
26 -0.15
27 0.1
28 0.1
29 0.1
3 -0.57
30 0.1
34 0.36
35 0.36
36 0.5
37 0.5
38 0.15
39 0.15
4 -0.57
40 0.15
41 0.15
42 0.15
43 0.15
44 0.15
45 0.15
5 -0.17
6 -0.99
7 -0.19
8 -0.1
9 -0.2

> <PUBCHEM_EFFECTIVE_ROTOR_COUNT>
6

> <PUBCHEM_PHARMACOPHORE_FEATURES>
12
1 1 acceptor
1 2 acceptor
1 3 acceptor
1 4 acceptor
1 5 acceptor
1 6 cation
1 6 donor
3 1 3 12 anion
3 2 4 14 anion
6 15 17 19 21 23 25 rings
6 16 18 20 22 24 26 rings
6 5 13 15 16 17 18 rings

> <PUBCHEM_HEAVY_ATOM_COUNT>
26

> <PUBCHEM_ATOM_DEF_STEREO_COUNT>
1

> <PUBCHEM_ATOM_UDEF_STEREO_COUNT>
2

> <PUBCHEM_BOND_DEF_STEREO_COUNT>
0

> <PUBCHEM_BOND_UDEF_STEREO_COUNT>
0

> <PUBCHEM_ISOTOPIC_ATOM_COUNT>
0

> <PUBCHEM_COMPONENT_COUNT>
1

> <PUBCHEM_CACTVS_TAUTO_COUNT>
-1

> <PUBCHEM_CONFORMER_ID>
083B71F100000002

> <PUBCHEM_MMFF94_ENERGY>
90.9922

> <PUBCHEM_FEATURE_SELFOVERLAP>
61.068

> <PUBCHEM_SHAPE_FINGERPRINT>
10064457 181 17407139006535187656
10165383 225 17762647352529300272
10366900 7 18335425681271387551
11227688 84 18198917919918381590
11578080 2 17969525790817438061
11582403 64 16961757490640933845
11640471 11 16916242073053571465
12156800 1 15312187386879085835
12553582 1 18128818538924678366
12596599 1 17346599672913259734
12633257 1 18337686264256380931
12788726 201 17403736649607522346
13009979 54 16845568712367635494
13140716 1 18127123302758969656
13911987 19 18411427202808267998
14844126 61 17263550020910289134
14866123 147 16249133883989752242
15324884 4 18045491178029663012
16945 1 18342727533775764292
17974551 9 17687799013380529633
1813 80 17559128583620118454
18219364 16 18124590040257759832
18915476 22 18340480170584089941
19591789 44 17980492470643686440
1979834 28 17326651439889246291
19930381 70 18269837669649346851
20101258 96 17840598002822460230
20832881 197 17976531711822341165
21041028 32 18127139567283278080
21285901 2 17823412885278407383
23419403 2 18334588948479957075
23526113 38 18119512263716404133
23557571 272 17676488379956917469
23558518 356 16970830287200250638
23559900 14 18113904861709775429
238 59 18196628865193243286
2748010 2 18263640843458279284
4409770 3 16612473639370740604
469060 322 17545868790990132431
57527295 17 18120076300497239127
6438718 38 17196021340761953338
70251023 43 18199450126568672623
81228 2 17620186534495272952
9981440 41 17980728817782535097

> <PUBCHEM_SHAPE_MULTIPOLES>
500.74
6.37
4.46
2.04
1.1
0.7
-0.2
-1.44
0.97
-4.85
-1.22
3.18
-0.45
2.52

> <PUBCHEM_SHAPE_SELFOVERLAP>
1104.275

> <PUBCHEM_SHAPE_VOLUME>
266.1

> <PUBCHEM_COORDINATE_TYPE>
2
5
10

$$$$
