REMARK  Name = 138113851
REMARK  3 active torsions:
REMARK  status: ('A' for Active; 'I' for Inactive)
REMARK    1  A    between atoms: C_11  and  O_25
REMARK    2  A    between atoms: C_14  and  O_27
REMARK    3  A    between atoms: C_20  and  C_22
REMARK                            x       y       z     vdW  Elec       q    Type
REMARK                         _______ _______ _______ _____ _____    ______ ____
ROOT
ATOM      1  O   UNL     1      -1.869  -2.453   1.056  0.00  0.00    -0.351 OA
ATOM      2  O   UNL     1      -1.645   2.247  -0.251  0.00  0.00    -0.449 OA
ATOM      3  O   UNL     1      -3.908   2.111  -0.552  0.00  0.00    -0.250 OA
ATOM      4  O   UNL     1       3.629  -0.838   0.099  0.00  0.00    -0.426 OA
ATOM      5  O   UNL     1       3.633  -3.095  -0.105  0.00  0.00    -0.245 OA
ATOM      6  C   UNL     1      -0.678  -0.822  -0.455  0.00  0.00    +0.050 C 
ATOM      7  C   UNL     1      -1.206   0.144   0.651  0.00  0.00    +0.061 C 
ATOM      8  C   UNL     1      -1.396  -2.157  -0.268  0.00  0.00    +0.148 C 
ATOM      9  C   UNL     1      -2.733   0.357   0.701  0.00  0.00    +0.120 C 
ATOM     10  C   UNL     1      -2.858  -2.146   0.066  0.00  0.00    +0.170 C 
ATOM     11  C   UNL     1      -3.591  -0.846   0.213  0.00  0.00    +0.150 C 
ATOM     12  C   UNL     1      -0.667   1.557   0.534  0.00  0.00    +0.201 C 
ATOM     13  C   UNL     1       0.855  -0.865  -0.281  0.00  0.00    -0.013 C 
ATOM     14  C   UNL     1       0.761   1.691  -0.017  0.00  0.00    +0.175 C 
ATOM     15  C   UNL     1      -0.969  -0.398  -1.918  0.00  0.00    +0.007 C 
ATOM     16  C   UNL     1      -2.869   1.641  -0.112  0.00  0.00    +0.318 C 
ATOM     17  C   UNL     1      -3.169   0.706   2.144  0.00  0.00    +0.014 C 
ATOM     18  C   UNL     1       1.561   0.404  -0.067  0.00  0.00    +0.035 C 
ATOM     19  C   UNL     1       1.556  -2.011  -0.282  0.00  0.00    +0.078 C 
ATOM     20  C   UNL     1       2.899   0.374   0.113  0.00  0.00    +0.124 C 
ATOM     21  C   UNL     1       3.015  -2.036  -0.092  0.00  0.00    +0.345 C 
ENDROOT
BRANCH  20  22
ATOM     22  C   UNL     1       3.793   1.561   0.312  0.00  0.00    +0.057 C 
ATOM     23  C   UNL     1       4.479   1.484   1.672  0.00  0.00    +0.008 C 
ATOM     24  C   UNL     1       4.821   1.658  -0.812  0.00  0.00    +0.008 C 
ENDBRANCH  20  22
BRANCH  11  25
ATOM     25  O   UNL     1      -4.218  -0.553  -1.037  0.00  0.00    -0.381 OA
ATOM     26  H   UNL     1      -4.701   0.285  -0.968  0.00  0.00    +0.210 HD
ENDBRANCH  11  25
BRANCH  14  27
ATOM     27  O   UNL     1       0.773   2.286  -1.313  0.00  0.00    -0.376 OA
ATOM     28  H   UNL     1       0.264   3.111  -1.295  0.00  0.00    +0.211 HD
ENDBRANCH  14  27
TORSDOF 3
