REMARK  Name = 13821805
REMARK  6 active torsions:
REMARK  status: ('A' for Active; 'I' for Inactive)
REMARK    1  A    between atoms: C_4  and  C_13
REMARK    2  A    between atoms: C_7  and  C_10
REMARK    3  A    between atoms: C_8  and  S_17
REMARK    4  A    between atoms: C_10  and  O_11
REMARK    5  A    between atoms: C_13  and  O_15
REMARK    6  A    between atoms: S_17  and  C_20
REMARK                            x       y       z     vdW  Elec       q    Type
REMARK                         _______ _______ _______ _____ _____    ______ ____
ROOT
ATOM      1  S   UNL     1       0.387  -0.861   1.814  0.00  0.00    -0.086 S 
ATOM      2  O   UNL     1       2.328   0.695  -1.934  0.00  0.00    -0.274 OA
ATOM      3  N   UNL     1       1.757   0.840   0.355  0.00  0.00    -0.244 N 
ATOM      4  C   UNL     1       2.568  -1.029  -0.058  0.00  0.00    +0.133 C 
ATOM      5  C   UNL     1       2.029  -0.331   1.204  0.00  0.00    +0.143 C 
ATOM      6  C   UNL     1       2.268   0.300  -0.791  0.00  0.00    +0.235 C 
ATOM      7  C   UNL     1       0.492   1.354   0.492  0.00  0.00    +0.142 C 
ATOM      8  C   UNL     1      -0.349   0.627   1.246  0.00  0.00    +0.072 C 
ENDROOT
BRANCH   7  10
ATOM      9  O   UNL     1      -0.941   2.855  -0.668  0.00  0.00    -0.244 OA
ATOM     10  C   UNL     1       0.161   2.589  -0.222  0.00  0.00    +0.353 C 
BRANCH  10  11
ATOM     11  O   UNL     1       1.257   3.373  -0.305  0.00  0.00    -0.476 OA
ATOM     12  H   UNL     1       2.067   3.086   0.068  0.00  0.00    +0.295 HD
ENDBRANCH  10  11
ENDBRANCH   7  10
BRANCH   4  13
ATOM     13  C   UNL     1       4.033  -1.395  -0.007  0.00  0.00    +0.122 C 
ATOM     14  C   UNL     1       4.271  -2.731   0.689  0.00  0.00    +0.032 C 
BRANCH  13  15
ATOM     15  O   UNL     1       4.555  -1.472  -1.334  0.00  0.00    -0.384 OA
ATOM     16  H   UNL     1       4.409  -0.627  -1.788  0.00  0.00    +0.210 HD
ENDBRANCH  13  15
ENDBRANCH   4  13
BRANCH   8  17
ATOM     17  S   UNL     1      -1.997   0.993   1.589  0.00  0.00    -0.106 S 
BRANCH  17  20
ATOM     18  S   UNL     1      -3.816  -1.726  -1.281  0.00  0.00    +0.043 S 
ATOM     19  O   UNL     1      -4.549  -0.965  -2.348  0.00  0.00    -0.256 OA
ATOM     20  C   UNL     1      -2.795  -0.479   0.888  0.00  0.00    +0.067 C 
ATOM     21  C   UNL     1      -4.309  -0.420   1.030  0.00  0.00    +0.026 C 
ATOM     22  C   UNL     1      -2.530  -0.599  -0.606  0.00  0.00    +0.103 C 
ATOM     23  C   UNL     1      -4.819  -1.618   0.247  0.00  0.00    +0.093 C 
ENDBRANCH  17  20
ENDBRANCH   8  17
TORSDOF 6
