13821805
  -OEChem-03292013303D

 36 38  0     1  0  0  0  0  0999 V2000
    0.3865   -0.8614    1.8141 S   0  0  0  0  0  0  0  0  0  0  0  0
   -1.9970    0.9926    1.5885 S   0  0  0  0  0  0  0  0  0  0  0  0
   -3.8164   -1.7258   -1.2808 S   0  0  1  0  0  0  0  0  0  0  0  0
    4.5546   -1.4719   -1.3340 O   0  0  0  0  0  0  0  0  0  0  0  0
    2.3279    0.6946   -1.9337 O   0  0  0  0  0  0  0  0  0  0  0  0
   -4.5486   -0.9651   -2.3475 O   0  0  0  0  0  0  0  0  0  0  0  0
    1.2568    3.3725   -0.3055 O   0  0  0  0  0  0  0  0  0  0  0  0
   -0.9412    2.8551   -0.6679 O   0  0  0  0  0  0  0  0  0  0  0  0
    1.7573    0.8402    0.3554 N   0  0  0  0  0  0  0  0  0  0  0  0
    2.5682   -1.0290   -0.0576 C   0  0  1  0  0  0  0  0  0  0  0  0
    2.0290   -0.3313    1.2036 C   0  0  2  0  0  0  0  0  0  0  0  0
    2.2675    0.3005   -0.7908 C   0  0  0  0  0  0  0  0  0  0  0  0
    4.0331   -1.3952   -0.0071 C   0  0  1  0  0  0  0  0  0  0  0  0
    0.4920    1.3544    0.4916 C   0  0  0  0  0  0  0  0  0  0  0  0
   -0.3494    0.6267    1.2458 C   0  0  0  0  0  0  0  0  0  0  0  0
   -2.7945   -0.4789    0.8882 C   0  0  1  0  0  0  0  0  0  0  0  0
   -4.3092   -0.4198    1.0296 C   0  0  0  0  0  0  0  0  0  0  0  0
   -2.5303   -0.5991   -0.6058 C   0  0  0  0  0  0  0  0  0  0  0  0
   -4.8186   -1.6176    0.2466 C   0  0  0  0  0  0  0  0  0  0  0  0
    4.2714   -2.7306    0.6894 C   0  0  0  0  0  0  0  0  0  0  0  0
    0.1609    2.5891   -0.2221 C   0  0  0  0  0  0  0  0  0  0  0  0
    1.9434   -1.8435   -0.4489 H   0  0  0  0  0  0  0  0  0  0  0  0
    2.7571   -0.1073    1.9905 H   0  0  0  0  0  0  0  0  0  0  0  0
    4.6072   -0.6156    0.5081 H   0  0  0  0  0  0  0  0  0  0  0  0
   -2.4398   -1.3749    1.4117 H   0  0  0  0  0  0  0  0  0  0  0  0
   -4.7133    0.5050    0.5973 H   0  0  0  0  0  0  0  0  0  0  0  0
   -4.6331   -0.4724    2.0745 H   0  0  0  0  0  0  0  0  0  0  0  0
   -2.6385    0.3551   -1.1332 H   0  0  0  0  0  0  0  0  0  0  0  0
   -1.5533   -1.0309   -0.8387 H   0  0  0  0  0  0  0  0  0  0  0  0
   -4.6581   -2.5468    0.8027 H   0  0  0  0  0  0  0  0  0  0  0  0
   -5.8778   -1.5329   -0.0094 H   0  0  0  0  0  0  0  0  0  0  0  0
    3.7698   -3.5437    0.1529 H   0  0  0  0  0  0  0  0  0  0  0  0
    5.3392   -2.9726    0.7083 H   0  0  0  0  0  0  0  0  0  0  0  0
    3.8955   -2.7144    1.7169 H   0  0  0  0  0  0  0  0  0  0  0  0
    5.5011   -1.6850   -1.2661 H   0  0  0  0  0  0  0  0  0  0  0  0
    1.0747    4.2120   -0.7793 H   0  0  0  0  0  0  0  0  0  0  0  0
  1 11  1  0  0  0  0
  1 15  1  0  0  0  0
  2 15  1  0  0  0  0
  2 16  1  0  0  0  0
  3  6  2  0  0  0  0
  3 18  1  0  0  0  0
  3 19  1  0  0  0  0
  4 13  1  0  0  0  0
  4 35  1  0  0  0  0
  5 12  2  0  0  0  0
  7 21  1  0  0  0  0
  7 36  1  0  0  0  0
  8 21  2  0  0  0  0
  9 11  1  0  0  0  0
  9 12  1  0  0  0  0
  9 14  1  0  0  0  0
 10 11  1  0  0  0  0
 10 12  1  0  0  0  0
 10 13  1  0  0  0  0
 10 22  1  0  0  0  0
 11 23  1  0  0  0  0
 13 20  1  0  0  0  0
 13 24  1  0  0  0  0
 14 15  2  0  0  0  0
 14 21  1  0  0  0  0
 16 17  1  0  0  0  0
 16 18  1  0  0  0  0
 16 25  1  0  0  0  0
 17 19  1  0  0  0  0
 17 26  1  0  0  0  0
 17 27  1  0  0  0  0
 18 28  1  0  0  0  0
 18 29  1  0  0  0  0
 19 30  1  0  0  0  0
 19 31  1  0  0  0  0
 20 32  1  0  0  0  0
 20 33  1  0  0  0  0
 20 34  1  0  0  0  0
M  END
> <PUBCHEM_COMPOUND_CID>
13821805

> <PUBCHEM_CONFORMER_RMSD>
0.8

> <PUBCHEM_CONFORMER_DIVERSEORDER>
9
84
164
183
42
148
135
102
173
191
36
161
180
108
69
131
175
179
190
56
157
162
14
188
130
192
186
144
151
12
166
187
71
136
181
4
16
189
121
184
146
113
22
115
127
57
83
118
110
79
68
147
177
51
70
92
193
81
143
63
45
172
160
116
145
85
65
122
120
133
103
199
89
182
61
44
201
168
60
156
152
62
3
8
82
77
149
46
174
198
176
124
163
32
54
196
132
67
75
112
158
86
25
29
165
58
195
167
53
38
194
140
129
200
27
88
106
153
202
24
119
5
185
104
74
171
21
90
95
169
64
125
76
137
159
37
150
123
178
26
1
197
11
59
35
105
155
13
17
20
31
87
39
91
41
94
48
19
109
6
34
128
138
52
33
101
98
154
7
114
170
78
40
139
142
18
80
97
30
10
93
28
66
55
15
2
73
134
107
126
141
117
72
111
47
23
49
43
100
50
96
99

> <PUBCHEM_MMFF94_PARTIAL_CHARGES>
21
1 -0.32
10 0.05
11 0.44
12 0.58
13 0.28
14 0.12
15 0.2
16 0.23
18 0.19
19 0.19
2 -0.33
21 0.71
3 0.11
35 0.4
36 0.5
4 -0.68
5 -0.57
6 -0.5
7 -0.65
8 -0.57
9 -0.39

> <PUBCHEM_EFFECTIVE_ROTOR_COUNT>
5.2

> <PUBCHEM_PHARMACOPHORE_FEATURES>
9
1 4 acceptor
1 4 donor
1 5 acceptor
1 6 acceptor
1 7 acceptor
1 8 acceptor
3 7 8 21 anion
5 3 16 17 18 19 rings
7 1 9 10 11 12 14 15 rings

> <PUBCHEM_HEAVY_ATOM_COUNT>
21

> <PUBCHEM_ATOM_DEF_STEREO_COUNT>
0

> <PUBCHEM_ATOM_UDEF_STEREO_COUNT>
5

> <PUBCHEM_BOND_DEF_STEREO_COUNT>
0

> <PUBCHEM_BOND_UDEF_STEREO_COUNT>
0

> <PUBCHEM_ISOTOPIC_ATOM_COUNT>
0

> <PUBCHEM_COMPONENT_COUNT>
1

> <PUBCHEM_CACTVS_TAUTO_COUNT>
1

> <PUBCHEM_CONFORMER_ID>
00D2E76D00000009

> <PUBCHEM_MMFF94_ENERGY>
61.471

> <PUBCHEM_FEATURE_SELFOVERLAP>
45.727

> <PUBCHEM_SHAPE_FINGERPRINT>
10042902 136 17704077308667980030
10610426 29 17988918955374733992
10764073 3 15583924203919966601
11578080 2 18129926932424042929
12403259 327 15769777948844985099
12553582 1 18408884018710973595
12633257 1 15123510341476305443
12892183 10 13686301279176048387
13009979 54 17988937690296522027
13134695 92 18335142020145851500
13583140 156 15625650588747332226
13899415 180 18335410270854902192
13911987 19 17392512134747834852
13994607 96 10737870637838438551
14251757 17 16370732534264524598
15003188 105 15905409545729750799
15163728 17 12540987230991747170
15210252 30 16009019597284810957
15342816 4 18342472434340658102
17357779 13 18113896056932132525
1741750 31 9367045745674935504
17539 30 18192704545038226812
1813 80 18342184353366759447
18186145 218 17022904570819430827
19141452 34 18128826231079028921
19784866 140 17967818202093755891
200 152 18041287573546502282
20291156 8 18343304777480443587
20388580 30 18341330101947021707
20626108 58 17988920110842619239
20645477 70 18191299575836993131
20671657 53 18409731785420638561
20693207 138 17677340557719873827
21401589 2 11314324831526244095
21713013 43 17458631167952785715
22112679 90 18267887007014722760
221357 26 18040994055834843375
22620623 9 18196089945624255028
23114952 82 17678466483064164925
23402539 116 18042694914276032578
23419403 2 15871320072347172304
23526113 38 17386580183420925353
23598288 3 17827381889540461352
23598291 2 18340784714315606905
25222932 49 15476169006881669215
46194498 28 17023194880454763759
57100710 210 18267866073723734982
7471813 234 18334580122844448604
76465 3 18338798901773906298
7808743 9 12612754601405172047
7970288 3 18409732841788499675

> <PUBCHEM_SHAPE_MULTIPOLES>
409.39
8.96
2.89
1.79
2.94
1.86
0.33
-8.54
2.42
-1.4
0.56
0.84
-0.29
-1.14

> <PUBCHEM_SHAPE_SELFOVERLAP>
826.923

> <PUBCHEM_SHAPE_VOLUME>
243.3

> <PUBCHEM_COORDINATE_TYPE>
2
5
10

$$$$
