REMARK  Name = 138319335
REMARK  11 active torsions:
REMARK  status: ('A' for Active; 'I' for Inactive)
REMARK    1  A    between atoms: C_5  and  O_31
REMARK    2  A    between atoms: C_6  and  C_33
REMARK    3  A    between atoms: C_9  and  N_14
REMARK    4  A    between atoms: C_15  and  C_17
REMARK    5  A    between atoms: C_17  and  C_19
REMARK    6  A    between atoms: C_17  and  O_29
REMARK    7  A    between atoms: C_19  and  O_27
REMARK    8  A    between atoms: C_33  and  C_34
REMARK    9  A    between atoms: C_34  and  O_35
REMARK   10  A    between atoms: C_34  and  C_37
REMARK   11  A    between atoms: C_37  and  O_38
REMARK                            x       y       z     vdW  Elec       q    Type
REMARK                         _______ _______ _______ _____ _____    ______ ____
ROOT
ATOM      1  O   UNL     1       1.768   0.265   0.448  0.00  0.00    -0.352 OA
ATOM      2  O   UNL     1       3.122  -3.073  -0.165  0.00  0.00    -0.324 OA
ATOM      3  O   UNL     1       2.260  -2.998   2.077  0.00  0.00    -0.308 OA
ATOM      4  C   UNL     1       2.596   0.286  -1.883  0.00  0.00    +0.052 C 
ATOM      5  C   UNL     1       3.189  -1.137  -1.631  0.00  0.00    +0.142 C 
ATOM      6  C   UNL     1       2.521   1.029  -0.510  0.00  0.00    +0.120 C 
ATOM      7  C   UNL     1       2.440  -1.865  -0.513  0.00  0.00    +0.176 C 
ATOM      8  C   UNL     1       2.379  -0.986   0.730  0.00  0.00    +0.191 C 
ATOM      9  C   UNL     1       1.655  -1.719   1.860  0.00  0.00    +0.224 C 
ATOM     10  C   UNL     1       1.200   0.184  -2.539  0.00  0.00    +0.005 C 
ATOM     11  C   UNL     1       3.517   1.052  -2.856  0.00  0.00    +0.005 C 
ATOM     12  C   UNL     1       2.418  -3.758   0.874  0.00  0.00    +0.295 C 
ENDROOT
BRANCH   9  14
ATOM     13  O   UNL     1      -0.411   0.153   2.587  0.00  0.00    -0.272 OA
ATOM     14  N   UNL     1       0.238  -1.865   1.639  0.00  0.00    -0.279 N 
ATOM     15  C   UNL     1      -0.687  -0.905   2.026  0.00  0.00    +0.256 C 
ATOM     16  H   UNL     1      -0.087  -2.681   1.194  0.00  0.00    +0.152 HD
BRANCH  15  17
ATOM     17  C   UNL     1      -2.114  -1.287   1.657  0.00  0.00    +0.239 C 
BRANCH  17  19
ATOM     18  O   UNL     1      -2.307   0.674   0.336  0.00  0.00    -0.334 OA
ATOM     19  C   UNL     1      -2.489  -0.749   0.277  0.00  0.00    +0.224 C 
ATOM     20  C   UNL     1      -3.950  -1.115  -0.044  0.00  0.00    +0.081 C 
ATOM     21  C   UNL     1      -4.168   1.151  -1.189  0.00  0.00    +0.046 C 
ATOM     22  C   UNL     1      -2.668   1.343  -0.881  0.00  0.00    +0.121 C 
ATOM     23  C   UNL     1      -4.446  -0.337  -1.238  0.00  0.00    -0.037 C 
ATOM     24  C   UNL     1      -5.097   1.830  -0.176  0.00  0.00    +0.007 C 
ATOM     25  C   UNL     1      -2.269   2.807  -0.732  0.00  0.00    +0.032 C 
ATOM     26  C   UNL     1      -5.049  -0.927  -2.281  0.00  0.00    -0.009 C 
BRANCH  19  27
ATOM     27  O   UNL     1      -1.590  -1.374  -0.643  0.00  0.00    -0.329 OA
ATOM     28  C   UNL     1      -1.996  -2.701  -0.934  0.00  0.00    +0.177 C 
ENDBRANCH  19  27
ENDBRANCH  17  19
BRANCH  17  29
ATOM     29  O   UNL     1      -3.006  -0.730   2.608  0.00  0.00    -0.372 OA
ATOM     30  H   UNL     1      -3.917  -0.971   2.376  0.00  0.00    +0.211 HD
ENDBRANCH  17  29
ENDBRANCH  15  17
ENDBRANCH   9  14
BRANCH   5  31
ATOM     31  O   UNL     1       3.128  -1.951  -2.802  0.00  0.00    -0.382 OA
ATOM     32  H   UNL     1       3.597  -1.510  -3.527  0.00  0.00    +0.210 HD
ENDBRANCH   5  31
BRANCH   6  33
ATOM     33  C   UNL     1       1.875   2.413  -0.552  0.00  0.00    +0.061 C 
BRANCH  33  34
ATOM     34  C   UNL     1       2.231   3.252   0.674  0.00  0.00    +0.142 C 
BRANCH  34  35
ATOM     35  O   UNL     1       1.440   2.814   1.779  0.00  0.00    -0.382 OA
ATOM     36  H   UNL     1       1.612   1.874   1.947  0.00  0.00    +0.210 HD
ENDBRANCH  34  35
BRANCH  34  37
ATOM     37  C   UNL     1       1.948   4.731   0.427  0.00  0.00    +0.166 C 
BRANCH  37  38
ATOM     38  O   UNL     1       2.320   5.493   1.571  0.00  0.00    -0.379 OA
ATOM     39  H   UNL     1       2.138   6.431   1.408  0.00  0.00    +0.211 HD
ENDBRANCH  37  38
ENDBRANCH  34  37
ENDBRANCH  33  34
ENDBRANCH   6  33
TORSDOF 11
