REMARK  Name = 138397838
REMARK  7 active torsions:
REMARK  status: ('A' for Active; 'I' for Inactive)
REMARK    1  A    between atoms: C_5  and  C_23
REMARK    2  A    between atoms: C_11  and  C_33
REMARK    3  A    between atoms: C_18  and  O_29
REMARK    4  A    between atoms: C_19  and  O_31
REMARK    5  A    between atoms: C_24  and  C_26
REMARK    6  A    between atoms: C_33  and  C_35
REMARK    7  A    between atoms: C_35  and  O_36
REMARK                            x       y       z     vdW  Elec       q    Type
REMARK                         _______ _______ _______ _____ _____    ______ ____
ROOT
ATOM      1  O   UNL     1       1.352   1.111   0.403  0.00  0.00    -0.455 OA
ATOM      2  O   UNL     1       3.956  -1.875  -0.473  0.00  0.00    -0.286 OA
ATOM      3  O   UNL     1      -1.041   1.917   0.675  0.00  0.00    -0.286 OA
ATOM      4  O   UNL     1      -2.962  -2.900  -0.600  0.00  0.00    -0.286 OA
ATOM      5  C   UNL     1       2.726   1.318   0.431  0.00  0.00    +0.153 C 
ATOM      6  C   UNL     1       3.611   0.349   0.147  0.00  0.00    +0.077 C 
ATOM      7  C   UNL     1       0.845  -0.123   0.076  0.00  0.00    +0.151 C 
ATOM      8  C   UNL     1       1.685  -1.195  -0.236  0.00  0.00    +0.070 C 
ATOM      9  C   UNL     1       3.143  -0.999  -0.214  0.00  0.00    +0.201 C 
ATOM     10  C   UNL     1      -0.552  -0.301   0.057  0.00  0.00    +0.077 C 
ATOM     11  C   UNL     1       1.158  -2.443  -0.566  0.00  0.00    -0.005 C 
ATOM     12  C   UNL     1      -1.078  -1.557  -0.275  0.00  0.00    +0.045 C 
ATOM     13  C   UNL     1      -0.223  -2.623  -0.585  0.00  0.00    -0.000 C 
ATOM     14  C   UNL     1      -1.483   0.813   0.383  0.00  0.00    +0.202 C 
ATOM     15  C   UNL     1      -2.537  -1.789  -0.306  0.00  0.00    +0.199 C 
ATOM     16  C   UNL     1      -2.941   0.577   0.349  0.00  0.00    +0.079 C 
ATOM     17  C   UNL     1      -3.450  -0.678   0.018  0.00  0.00    +0.079 C 
ATOM     18  C   UNL     1      -3.819   1.624   0.655  0.00  0.00    +0.137 C 
ATOM     19  C   UNL     1      -4.834  -0.888  -0.010  0.00  0.00    +0.137 C 
ATOM     20  C   UNL     1      -5.198   1.412   0.627  0.00  0.00    +0.040 C 
ATOM     21  C   UNL     1      -5.705   0.158   0.295  0.00  0.00    +0.040 C 
ENDROOT
BRANCH   5  23
ATOM     22  O   UNL     1       4.079   3.401  -0.033  0.00  0.00    -0.344 OA
ATOM     23  C   UNL     1       3.160   2.688   0.797  0.00  0.00    +0.172 C 
ATOM     24  C   UNL     1       2.716   3.849  -0.067  0.00  0.00    +0.169 C 
ATOM     25  C   UNL     1       3.387   2.913   2.258  0.00  0.00    +0.040 C 
BRANCH  24  26
ATOM     26  C   UNL     1       1.867   3.653  -1.235  0.00  0.00    +0.001 C 
ATOM     27  C   UNL     1       0.620   4.120  -1.395  0.00  0.00    -0.028 C 
ATOM     28  C   UNL     1      -0.208   3.889  -2.616  0.00  0.00    +0.030 C 
ENDBRANCH  24  26
ENDBRANCH   5  23
BRANCH  18  29
ATOM     29  O   UNL     1      -3.394   2.876   0.989  0.00  0.00    -0.505 OA
ATOM     30  H   UNL     1      -2.477   3.066   1.022  0.00  0.00    +0.292 HD
ENDBRANCH  18  29
BRANCH  19  31
ATOM     31  O   UNL     1      -5.394  -2.090  -0.326  0.00  0.00    -0.505 OA
ATOM     32  H   UNL     1      -4.847  -2.821  -0.538  0.00  0.00    +0.292 HD
ENDBRANCH  19  31
BRANCH  11  33
ATOM     33  C   UNL     1       1.994  -3.634  -0.912  0.00  0.00    +0.136 C 
BRANCH  33  35
ATOM     34  O   UNL     1       2.538  -3.892   1.448  0.00  0.00    -0.250 OA
ATOM     35  C   UNL     1       2.634  -4.288   0.294  0.00  0.00    +0.318 C 
BRANCH  35  36
ATOM     36  O   UNL     1       3.348  -5.392  -0.051  0.00  0.00    -0.480 OA
ATOM     37  H   UNL     1       3.394  -5.659  -0.948  0.00  0.00    +0.295 HD
ENDBRANCH  35  36
ENDBRANCH  33  35
ENDBRANCH  11  33
TORSDOF 7
