138397838
  -OEChem-03292013293D

 52 56  0     1  0  0  0  0  0999 V2000
    4.0785    3.4012   -0.0326 O   0  0  0  0  0  0  0  0  0  0  0  0
    1.3517    1.1112    0.4028 O   0  0  0  0  0  0  0  0  0  0  0  0
    3.9559   -1.8752   -0.4731 O   0  0  0  0  0  0  0  0  0  0  0  0
   -1.0410    1.9170    0.6751 O   0  0  0  0  0  0  0  0  0  0  0  0
   -2.9617   -2.8999   -0.6002 O   0  0  0  0  0  0  0  0  0  0  0  0
   -3.3937    2.8760    0.9894 O   0  0  0  0  0  0  0  0  0  0  0  0
   -5.3940   -2.0904   -0.3264 O   0  0  0  0  0  0  0  0  0  0  0  0
    3.3478   -5.3922   -0.0512 O   0  0  0  0  0  0  0  0  0  0  0  0
    2.5377   -3.8915    1.4476 O   0  0  0  0  0  0  0  0  0  0  0  0
    3.1601    2.6885    0.7970 C   0  0  1  0  0  0  0  0  0  0  0  0
    2.7159    3.8494   -0.0672 C   0  0  2  0  0  0  0  0  0  0  0  0
    2.7263    1.3184    0.4308 C   0  0  0  0  0  0  0  0  0  0  0  0
    3.3870    2.9127    2.2577 C   0  0  0  0  0  0  0  0  0  0  0  0
    1.8671    3.6528   -1.2350 C   0  0  0  0  0  0  0  0  0  0  0  0
    3.6114    0.3489    0.1466 C   0  0  0  0  0  0  0  0  0  0  0  0
    0.8453   -0.1231    0.0757 C   0  0  0  0  0  0  0  0  0  0  0  0
    1.6855   -1.1952   -0.2361 C   0  0  0  0  0  0  0  0  0  0  0  0
    3.1425   -0.9989   -0.2139 C   0  0  0  0  0  0  0  0  0  0  0  0
   -0.5522   -0.3012    0.0573 C   0  0  0  0  0  0  0  0  0  0  0  0
    1.1576   -2.4434   -0.5663 C   0  0  0  0  0  0  0  0  0  0  0  0
    0.6195    4.1196   -1.3949 C   0  0  0  0  0  0  0  0  0  0  0  0
   -1.0777   -1.5568   -0.2748 C   0  0  0  0  0  0  0  0  0  0  0  0
   -0.2231   -2.6230   -0.5852 C   0  0  0  0  0  0  0  0  0  0  0  0
   -1.4826    0.8129    0.3827 C   0  0  0  0  0  0  0  0  0  0  0  0
   -2.5371   -1.7892   -0.3063 C   0  0  0  0  0  0  0  0  0  0  0  0
   -2.9407    0.5765    0.3495 C   0  0  0  0  0  0  0  0  0  0  0  0
    1.9936   -3.6336   -0.9119 C   0  0  0  0  0  0  0  0  0  0  0  0
   -3.4495   -0.6781    0.0175 C   0  0  0  0  0  0  0  0  0  0  0  0
   -0.2082    3.8886   -2.6156 C   0  0  0  0  0  0  0  0  0  0  0  0
   -3.8193    1.6241    0.6548 C   0  0  0  0  0  0  0  0  0  0  0  0
   -4.8340   -0.8882   -0.0100 C   0  0  0  0  0  0  0  0  0  0  0  0
    2.6341   -4.2882    0.2943 C   0  0  0  0  0  0  0  0  0  0  0  0
   -5.1982    1.4122    0.6268 C   0  0  0  0  0  0  0  0  0  0  0  0
   -5.7047    0.1580    0.2950 C   0  0  0  0  0  0  0  0  0  0  0  0
    2.5301    4.7935    0.4383 H   0  0  0  0  0  0  0  0  0  0  0  0
    3.7212    3.9354    2.4654 H   0  0  0  0  0  0  0  0  0  0  0  0
    2.4631    2.7456    2.8221 H   0  0  0  0  0  0  0  0  0  0  0  0
    4.1536    2.2319    2.6432 H   0  0  0  0  0  0  0  0  0  0  0  0
    2.3041    3.0824   -2.0524 H   0  0  0  0  0  0  0  0  0  0  0  0
    4.6814    0.5231    0.1730 H   0  0  0  0  0  0  0  0  0  0  0  0
    0.1611    4.6968   -0.5961 H   0  0  0  0  0  0  0  0  0  0  0  0
   -0.6353   -3.5969   -0.8390 H   0  0  0  0  0  0  0  0  0  0  0  0
    2.7451   -3.3906   -1.6692 H   0  0  0  0  0  0  0  0  0  0  0  0
    1.3645   -4.4043   -1.3783 H   0  0  0  0  0  0  0  0  0  0  0  0
   -0.4837    4.8469   -3.0660 H   0  0  0  0  0  0  0  0  0  0  0  0
    0.3190    3.2955   -3.3693 H   0  0  0  0  0  0  0  0  0  0  0  0
   -1.1267    3.3579   -2.3461 H   0  0  0  0  0  0  0  0  0  0  0  0
   -5.8843    2.2213    0.8632 H   0  0  0  0  0  0  0  0  0  0  0  0
   -6.7802    0.0025    0.2759 H   0  0  0  0  0  0  0  0  0  0  0  0
   -2.4272    2.9317    0.9553 H   0  0  0  0  0  0  0  0  0  0  0  0
   -4.7096   -2.7478   -0.5213 H   0  0  0  0  0  0  0  0  0  0  0  0
    3.7641   -5.8168    0.7290 H   0  0  0  0  0  0  0  0  0  0  0  0
  1 10  1  0  0  0  0
  1 11  1  0  0  0  0
  2 12  1  0  0  0  0
  2 16  1  0  0  0  0
  3 18  2  0  0  0  0
  4 24  2  0  0  0  0
  5 25  2  0  0  0  0
  6 30  1  0  0  0  0
  6 50  1  0  0  0  0
  7 31  1  0  0  0  0
  7 51  1  0  0  0  0
  8 32  1  0  0  0  0
  8 52  1  0  0  0  0
  9 32  2  0  0  0  0
 10 11  1  0  0  0  0
 10 12  1  0  0  0  0
 10 13  1  0  0  0  0
 11 14  1  0  0  0  0
 11 35  1  0  0  0  0
 12 15  2  0  0  0  0
 13 36  1  0  0  0  0
 13 37  1  0  0  0  0
 13 38  1  0  0  0  0
 14 21  2  0  0  0  0
 14 39  1  0  0  0  0
 15 18  1  0  0  0  0
 15 40  1  0  0  0  0
 16 17  2  0  0  0  0
 16 19  1  0  0  0  0
 17 18  1  0  0  0  0
 17 20  1  0  0  0  0
 19 22  2  0  0  0  0
 19 24  1  0  0  0  0
 20 23  2  0  0  0  0
 20 27  1  0  0  0  0
 21 29  1  0  0  0  0
 21 41  1  0  0  0  0
 22 23  1  0  0  0  0
 22 25  1  0  0  0  0
 23 42  1  0  0  0  0
 24 26  1  0  0  0  0
 25 28  1  0  0  0  0
 26 28  1  0  0  0  0
 26 30  2  0  0  0  0
 27 32  1  0  0  0  0
 27 43  1  0  0  0  0
 27 44  1  0  0  0  0
 28 31  2  0  0  0  0
 29 45  1  0  0  0  0
 29 46  1  0  0  0  0
 29 47  1  0  0  0  0
 30 33  1  0  0  0  0
 31 34  1  0  0  0  0
 33 34  2  0  0  0  0
 33 48  1  0  0  0  0
 34 49  1  0  0  0  0
M  END
> <PUBCHEM_COMPOUND_CID>
138397838

> <PUBCHEM_CONFORMER_RMSD>
0.8

> <PUBCHEM_CONFORMER_DIVERSEORDER>
1
12
5
11
3
8
7
6
2
9
10
4

> <PUBCHEM_MMFF94_PARTIAL_CHARGES>
44
1 -0.3
10 0.09
11 0.09
12 0.04
13 0.09
14 -0.19
15 -0.14
16 0.08
17 0.09
18 0.47
19 0.09
2 -0.16
20 -0.14
21 -0.29
22 0.09
23 -0.15
24 0.4
25 0.4
26 0.09
27 0.2
28 0.09
29 0.14
3 -0.57
30 0.08
31 0.08
32 0.66
33 -0.15
34 -0.15
35 0.1
39 0.15
4 -0.57
40 0.15
41 0.15
42 0.15
48 0.15
49 0.15
5 -0.57
50 0.45
51 0.45
52 0.5
6 -0.53
7 -0.53
8 -0.65
9 -0.57

> <PUBCHEM_EFFECTIVE_ROTOR_COUNT>
4.6

> <PUBCHEM_PHARMACOPHORE_FEATURES>
15
1 1 acceptor
1 2 acceptor
1 29 hydrophobe
1 3 acceptor
1 4 acceptor
1 5 acceptor
1 6 donor
1 7 donor
1 8 acceptor
1 9 acceptor
3 8 9 32 anion
6 16 17 19 20 22 23 rings
6 19 22 24 25 26 28 rings
6 2 12 15 16 17 18 rings
6 26 28 30 31 33 34 rings

> <PUBCHEM_HEAVY_ATOM_COUNT>
34

> <PUBCHEM_ATOM_DEF_STEREO_COUNT>
2

> <PUBCHEM_ATOM_UDEF_STEREO_COUNT>
0

> <PUBCHEM_BOND_DEF_STEREO_COUNT>
1

> <PUBCHEM_BOND_UDEF_STEREO_COUNT>
0

> <PUBCHEM_ISOTOPIC_ATOM_COUNT>
0

> <PUBCHEM_COMPONENT_COUNT>
1

> <PUBCHEM_CACTVS_TAUTO_COUNT>
-1

> <PUBCHEM_CONFORMER_ID>
083FC88E00000001

> <PUBCHEM_MMFF94_ENERGY>
96.6064

> <PUBCHEM_FEATURE_SELFOVERLAP>
76.267

> <PUBCHEM_SHAPE_FINGERPRINT>
10074138 170 16388145182513821418
10090160 65 18194957667975639159
10411042 1 17979638931271687398
10439779 11 18127405657666062136
11513181 2 17916030238084096102
11578080 2 17677885726091906607
12107183 9 17838625453092115905
12403259 226 18121217575970081188
12422481 6 18265870584673919392
13140716 1 18341606075065371050
1361 2 18265053711689451953
13617811 41 18053089916681213209
138480 1 18268150859877624594
13965767 371 18194378199842560536
14790565 3 18052259789032305073
15297060 5 18055931027981968368
16992752 21 17763472717060224558
16993438 75 17109042222678589496
18681886 176 18059853927004514518
19319366 153 18125715940533906967
20739085 24 18334571395323444012
21033648 29 17983854759795444312
21049683 271 18265349330383702950
21133410 127 18187644742857248717
21796203 349 17693138142765901771
22149856 69 18125741199938286019
23366157 5 18408045095723507859
23559900 14 18201717302112303371
245318 6 17608943314910365741
3380486 145 17833289531515589624
338550 245 18194686096824748189
3493558 16 18343027653485315825
350125 39 18341613758788445000
4409770 3 17109598566998410541
474 4 18116994592421264945
5104073 3 18413392055630203755
6287921 2 18411146839711459629
79837 15 17833829752454269850
9981440 41 18194116554254621283

> <PUBCHEM_SHAPE_MULTIPOLES>
646.88
9.51
6.89
1.3
11.47
2.64
-0.22
-1
2.19
-8.3
-1.5
-0.73
-1.49
-0.35

> <PUBCHEM_SHAPE_SELFOVERLAP>
1453.678

> <PUBCHEM_SHAPE_VOLUME>
338.2

> <PUBCHEM_COORDINATE_TYPE>
2
5
10

$$$$
