REMARK  Name = 138319048
REMARK  15 active torsions:
REMARK  status: ('A' for Active; 'I' for Inactive)
REMARK    1  A    between atoms: C_1  and  C_2
REMARK    2  A    between atoms: C_1  and  C_17
REMARK    3  A    between atoms: C_1  and  O_22
REMARK    4  A    between atoms: C_2  and  C_4
REMARK    5  A    between atoms: C_5  and  C_6
REMARK    6  A    between atoms: C_6  and  C_7
REMARK    7  A    between atoms: C_6  and  O_15
REMARK    8  A    between atoms: C_10  and  O_13
REMARK    9  A    between atoms: C_17  and  C_21
REMARK   10  A    between atoms: O_22  and  C_24
REMARK   11  A    between atoms: C_24  and  C_25
REMARK   12  A    between atoms: C_25  and  C_26
REMARK   13  A    between atoms: C_26  and  O_27
REMARK   14  A    between atoms: C_26  and  C_29
REMARK   15  A    between atoms: C_29  and  O_31
REMARK                            x       y       z     vdW  Elec       q    Type
REMARK                         _______ _______ _______ _____ _____    ______ ____
ROOT
ATOM      1  C   UNL     1      -1.026  -0.171   0.454  0.00  0.00    +0.183 C 
ENDROOT
BRANCH   1   2
ATOM      2  C   UNL     1      -0.159   0.788  -0.411  0.00  0.00    +0.062 C 
ATOM      3  C   UNL     1      -0.915   2.110  -0.622  0.00  0.00    +0.008 C 
BRANCH   2   4
ATOM      4  C   UNL     1       1.237   1.035   0.207  0.00  0.00    -0.025 C 
ATOM      5  C   UNL     1       2.217   1.857  -0.642  0.00  0.00    +0.003 C 
BRANCH   5   6
ATOM      6  C   UNL     1       3.629   2.025  -0.057  0.00  0.00    +0.159 C 
BRANCH   6   7
ATOM      7  C   UNL     1       4.343   0.732   0.262  0.00  0.00    +0.012 C 
ATOM      8  C   UNL     1       4.524  -0.228  -0.734  0.00  0.00    +0.035 C 
ATOM      9  C   UNL     1       4.821   0.499   1.551  0.00  0.00    -0.001 C 
ATOM     10  C   UNL     1       5.183  -1.422  -0.439  0.00  0.00    +0.133 C 
ATOM     11  C   UNL     1       5.480  -0.695   1.845  0.00  0.00    +0.003 C 
ATOM     12  C   UNL     1       5.661  -1.655   0.850  0.00  0.00    +0.037 C 
BRANCH  10  13
ATOM     13  O   UNL     1       5.358  -2.359  -1.411  0.00  0.00    -0.506 OA
ATOM     14  H   UNL     1       5.036  -2.202  -2.277  0.00  0.00    +0.292 HD
ENDBRANCH  10  13
ENDBRANCH   6   7
BRANCH   6  15
ATOM     15  O   UNL     1       4.435   2.735  -1.001  0.00  0.00    -0.345 OA
ATOM     16  C   UNL     1       5.506   3.407  -0.358  0.00  0.00    +0.175 C 
ENDBRANCH   6  15
ENDBRANCH   5   6
ENDBRANCH   2   4
ENDBRANCH   1   2
BRANCH   1  17
ATOM     17  C   UNL     1      -0.433  -1.573   0.688  0.00  0.00    +0.144 C 
ATOM     18  C   UNL     1      -1.363  -2.506   1.460  0.00  0.00    +0.016 C 
BRANCH  17  21
ATOM     19  O   UNL     1      -1.133  -2.547  -1.381  0.00  0.00    -0.246 OA
ATOM     20  O   UNL     1       1.068  -2.669  -0.783  0.00  0.00    -0.246 OA
ATOM     21  C   UNL     1      -0.144  -2.338  -0.625  0.00  0.00    +0.368 C 
ENDBRANCH  17  21
ENDBRANCH   1  17
BRANCH   1  22
ATOM     22  O   UNL     1      -2.300  -0.323  -0.183  0.00  0.00    -0.451 OA
BRANCH  22  24
ATOM     23  O   UNL     1      -3.323   0.686   1.621  0.00  0.00    -0.250 OA
ATOM     24  C   UNL     1      -3.369   0.154   0.520  0.00  0.00    +0.319 C 
BRANCH  24  25
ATOM     25  C   UNL     1      -4.630  -0.093  -0.282  0.00  0.00    +0.141 C 
BRANCH  25  26
ATOM     26  C   UNL     1      -5.884   0.437   0.421  0.00  0.00    +0.148 C 
BRANCH  26  27
ATOM     27  O   UNL     1      -5.949   1.856   0.259  0.00  0.00    -0.381 OA
ATOM     28  H   UNL     1      -5.139   2.259   0.610  0.00  0.00    +0.210 HD
ENDBRANCH  26  27
BRANCH  26  29
ATOM     29  C   UNL     1      -7.174  -0.181  -0.140  0.00  0.00    +0.138 C 
ATOM     30  C   UNL     1      -8.455   0.373   0.476  0.00  0.00    +0.034 C 
BRANCH  29  31
ATOM     31  O   UNL     1      -7.205   0.067  -1.547  0.00  0.00    -0.382 OA
ATOM     32  H   UNL     1      -6.396  -0.280  -1.954  0.00  0.00    +0.210 HD
ENDBRANCH  29  31
ENDBRANCH  26  29
ENDBRANCH  25  26
ENDBRANCH  24  25
ENDBRANCH  22  24
ENDBRANCH   1  22
TORSDOF 15
