REMARK  Name = 138393082
REMARK  3 active torsions:
REMARK  status: ('A' for Active; 'I' for Inactive)
REMARK    1  A    between atoms: C_2  and  C_16
REMARK    2  A    between atoms: C_3  and  C_10
REMARK    3  A    between atoms: C_17  and  N_24
REMARK                            x       y       z     vdW  Elec       q    Type
REMARK                         _______ _______ _______ _____ _____    ______ ____
ROOT
ATOM      1  O   UNL     1      -0.162  -0.496  -0.213  0.00  0.00    -0.453 OA
ATOM      2  C   UNL     1      -1.278  -0.513  -0.989  0.00  0.00    +0.147 C 
ATOM      3  C   UNL     1       0.749  -1.297  -0.825  0.00  0.00    +0.146 C 
ATOM      4  C   UNL     1      -1.089  -1.317  -2.089  0.00  0.00    +0.041 C 
ATOM      5  C   UNL     1       0.228  -1.826  -1.982  0.00  0.00    +0.041 C 
ENDROOT
BRANCH   3  10
ATOM      6  S   UNL     1       4.567  -0.900   0.636  0.00  0.00    -0.049 S 
ATOM      7  O   UNL     1       1.812   1.387  -0.721  0.00  0.00    -0.269 OA
ATOM      8  N   UNL     1       3.979   1.540   0.116  0.00  0.00    -0.261 N 
ATOM      9  N   UNL     1       6.137   1.246   1.004  0.00  0.00    -0.279 NA
ATOM     10  C   UNL     1       2.040  -1.514  -0.289  0.00  0.00    +0.049 C 
ATOM     11  C   UNL     1       3.005  -0.575  -0.019  0.00  0.00    +0.089 C 
ATOM     12  C   UNL     1       2.825   0.879  -0.262  0.00  0.00    +0.257 C 
ATOM     13  C   UNL     1       5.004   0.783   0.610  0.00  0.00    +0.158 C 
ATOM     14  H   UNL     1       4.059   2.517   0.031  0.00  0.00    +0.157 HD
ATOM     15  H   UNL     1       6.826   0.634   1.348  0.00  0.00    +0.189 HD
ENDBRANCH   3  10
BRANCH   2  16
ATOM     16  C   UNL     1      -2.381   0.288  -0.508  0.00  0.00    +0.057 C 
ATOM     17  C   UNL     1      -2.970   0.048   0.734  0.00  0.00    +0.146 C 
ATOM     18  C   UNL     1      -2.856   1.321  -1.317  0.00  0.00    +0.005 C 
ATOM     19  C   UNL     1      -4.033   0.841   1.166  0.00  0.00    +0.024 C 
ATOM     20  C   UNL     1      -3.919   2.113  -0.884  0.00  0.00    +0.000 C 
ATOM     21  C   UNL     1      -4.508   1.873   0.357  0.00  0.00    +0.002 C 
BRANCH  17  24
ATOM     22  O   UNL     1      -3.028  -2.135   1.474  0.00  0.00    -0.126 OA
ATOM     23  O   UNL     1      -1.609  -0.749   2.416  0.00  0.00    -0.126 OA
ATOM     24  N   UNL     1      -2.512  -0.998   1.584  0.00  0.00    +0.058 N 
ENDBRANCH  17  24
ENDBRANCH   2  16
TORSDOF 3
