138319228
  -OEChem-03292013293D

 60 60  0     1  0  0  0  0  0999 V2000
    4.5780   -1.8448   -2.6022 Br  0  0  0  0  0  0  0  0  0  0  0  0
   -2.4627    0.3601    0.1811 O   0  0  0  0  0  0  0  0  0  0  0  0
    4.2998   -2.4777    1.4408 O   0  0  0  0  0  0  0  0  0  0  0  0
   -1.3575    2.7148    1.1678 O   0  5  0  0  0  0  0  0  0  0  0  0
    0.8534    2.8146    0.6044 O   0  0  0  0  0  0  0  0  0  0  0  0
   -3.4315   -0.8450   -1.5309 O   0  0  0  0  0  0  0  0  0  0  0  0
   -6.0670   -1.9170   -0.1084 O   0  0  0  0  0  0  0  0  0  0  0  0
   -7.3896    0.0238    1.4797 O   0  0  0  0  0  0  0  0  0  0  0  0
    5.0869    2.6149    1.4493 O   0  0  0  0  0  0  0  0  0  0  0  0
   -0.3105   -0.6833    0.5641 C   0  0  2  0  0  0  0  0  0  0  0  0
   -1.1733    0.1664   -0.4122 C   0  0  2  0  0  0  0  0  0  0  0  0
    1.1020   -0.9676    0.0018 C   0  0  0  0  0  0  0  0  0  0  0  0
   -0.5973    1.5484   -0.7763 C   0  0  1  0  0  0  0  0  0  0  0  0
    2.0767   -1.6805    0.9500 C   0  0  0  0  0  0  0  0  0  0  0  0
   -1.0502   -1.9898    0.8940 C   0  0  0  0  0  0  0  0  0  0  0  0
    3.5032   -1.8820    0.4132 C   0  0  1  0  0  0  0  0  0  0  0  0
   -1.5248    2.3808   -1.6575 C   0  0  0  0  0  0  0  0  0  0  0  0
   -0.3488    2.4479    0.4570 C   0  0  0  0  0  0  0  0  0  0  0  0
    4.2036   -0.6166   -0.0215 C   0  0  0  0  0  0  0  0  0  0  0  0
   -3.5090   -0.2051   -0.4913 C   0  0  0  0  0  0  0  0  0  0  0  0
   -4.7910    0.1003    0.2559 C   0  0  0  0  0  0  0  0  0  0  0  0
   -6.0213   -0.5212   -0.4140 C   0  0  2  0  0  0  0  0  0  0  0  0
    4.3267    0.4186    0.9053 C   0  0  0  0  0  0  0  0  0  0  0  0
    4.7210   -0.4658   -1.3082 C   0  0  0  0  0  0  0  0  0  0  0  0
   -7.3328    0.1279    0.0556 C   0  0  1  0  0  0  0  0  0  0  0  0
    5.3943   -3.1926    0.8917 C   0  0  0  0  0  0  0  0  0  0  0  0
    4.9668    1.6045    0.5454 C   0  0  0  0  0  0  0  0  0  0  0  0
    5.3613    0.7200   -1.6679 C   0  0  0  0  0  0  0  0  0  0  0  0
   -8.5906   -0.5089   -0.5256 C   0  0  0  0  0  0  0  0  0  0  0  0
    5.4842    1.7551   -0.7412 C   0  0  0  0  0  0  0  0  0  0  0  0
   -0.2068   -0.1333    1.5084 H   0  0  0  0  0  0  0  0  0  0  0  0
   -1.2418   -0.3956   -1.3530 H   0  0  0  0  0  0  0  0  0  0  0  0
    1.0119   -1.5559   -0.9203 H   0  0  0  0  0  0  0  0  0  0  0  0
    1.5579   -0.0156   -0.2835 H   0  0  0  0  0  0  0  0  0  0  0  0
    0.3445    1.4199   -1.3221 H   0  0  0  0  0  0  0  0  0  0  0  0
    1.6828   -2.6709    1.2100 H   0  0  0  0  0  0  0  0  0  0  0  0
    2.1090   -1.1370    1.9033 H   0  0  0  0  0  0  0  0  0  0  0  0
   -1.2109   -2.5912   -0.0070 H   0  0  0  0  0  0  0  0  0  0  0  0
   -0.4872   -2.5960    1.6096 H   0  0  0  0  0  0  0  0  0  0  0  0
   -2.0232   -1.7985    1.3572 H   0  0  0  0  0  0  0  0  0  0  0  0
    3.3885   -2.6096   -0.3938 H   0  0  0  0  0  0  0  0  0  0  0  0
   -2.4886    2.5941   -1.1826 H   0  0  0  0  0  0  0  0  0  0  0  0
   -1.0653    3.3432   -1.9109 H   0  0  0  0  0  0  0  0  0  0  0  0
   -1.7279    1.8549   -2.5967 H   0  0  0  0  0  0  0  0  0  0  0  0
   -4.8919    1.1914    0.2805 H   0  0  0  0  0  0  0  0  0  0  0  0
   -4.6788   -0.2841    1.2762 H   0  0  0  0  0  0  0  0  0  0  0  0
   -5.9608   -0.4273   -1.5047 H   0  0  0  0  0  0  0  0  0  0  0  0
    3.9355    0.3081    1.9134 H   0  0  0  0  0  0  0  0  0  0  0  0
   -7.3180    1.1944   -0.1976 H   0  0  0  0  0  0  0  0  0  0  0  0
    5.9231   -3.6807    1.7157 H   0  0  0  0  0  0  0  0  0  0  0  0
    5.0525   -3.9730    0.2044 H   0  0  0  0  0  0  0  0  0  0  0  0
    6.1033   -2.5260    0.3930 H   0  0  0  0  0  0  0  0  0  0  0  0
    5.7707    0.8558   -2.6658 H   0  0  0  0  0  0  0  0  0  0  0  0
   -8.6998   -1.5480   -0.1971 H   0  0  0  0  0  0  0  0  0  0  0  0
   -8.5768   -0.4826   -1.6192 H   0  0  0  0  0  0  0  0  0  0  0  0
   -9.4825    0.0228   -0.1763 H   0  0  0  0  0  0  0  0  0  0  0  0
    5.9839    2.6767   -1.0272 H   0  0  0  0  0  0  0  0  0  0  0  0
   -5.2498   -2.3190   -0.4489 H   0  0  0  0  0  0  0  0  0  0  0  0
   -8.1989    0.4753    1.7744 H   0  0  0  0  0  0  0  0  0  0  0  0
    4.6725    2.3414    2.2857 H   0  0  0  0  0  0  0  0  0  0  0  0
  1 24  1  0  0  0  0
  2 11  1  0  0  0  0
  2 20  1  0  0  0  0
  3 16  1  0  0  0  0
  3 26  1  0  0  0  0
  4 18  1  0  0  0  0
  5 18  2  0  0  0  0
  6 20  2  0  0  0  0
  7 22  1  0  0  0  0
  7 58  1  0  0  0  0
  8 25  1  0  0  0  0
  8 59  1  0  0  0  0
  9 27  1  0  0  0  0
  9 60  1  0  0  0  0
 10 11  1  0  0  0  0
 10 12  1  0  0  0  0
 10 15  1  0  0  0  0
 10 31  1  0  0  0  0
 11 13  1  0  0  0  0
 11 32  1  0  0  0  0
 12 14  1  0  0  0  0
 12 33  1  0  0  0  0
 12 34  1  0  0  0  0
 13 17  1  0  0  0  0
 13 18  1  0  0  0  0
 13 35  1  0  0  0  0
 14 16  1  0  0  0  0
 14 36  1  0  0  0  0
 14 37  1  0  0  0  0
 15 38  1  0  0  0  0
 15 39  1  0  0  0  0
 15 40  1  0  0  0  0
 16 19  1  0  0  0  0
 16 41  1  0  0  0  0
 17 42  1  0  0  0  0
 17 43  1  0  0  0  0
 17 44  1  0  0  0  0
 19 23  1  0  0  0  0
 19 24  2  0  0  0  0
 20 21  1  0  0  0  0
 21 22  1  0  0  0  0
 21 45  1  0  0  0  0
 21 46  1  0  0  0  0
 22 25  1  0  0  0  0
 22 47  1  0  0  0  0
 23 27  2  0  0  0  0
 23 48  1  0  0  0  0
 24 28  1  0  0  0  0
 25 29  1  0  0  0  0
 25 49  1  0  0  0  0
 26 50  1  0  0  0  0
 26 51  1  0  0  0  0
 26 52  1  0  0  0  0
 27 30  1  0  0  0  0
 28 30  2  0  0  0  0
 28 53  1  0  0  0  0
 29 54  1  0  0  0  0
 29 55  1  0  0  0  0
 29 56  1  0  0  0  0
 30 57  1  0  0  0  0
M  CHG  1   4  -1
M  END
> <PUBCHEM_COMPOUND_CID>
138319228

> <PUBCHEM_CONFORMER_RMSD>
1.2

> <PUBCHEM_CONFORMER_DIVERSEORDER>
2
73
60
14
41
68
16
10
66
64
21
52
37
76
65
15
69
51
71
59
56
29
55
1
3
45
20
25
33
58
27
4
11
48
31
42
23
74
28
50
70
7
22
30
32
36
44
8
35
34
63
18
9
75
57
17
54
47
62
53
49
72
6
12
77
38
24
46
67
13
40
43
26
5
39
61
19

> <PUBCHEM_MMFF94_PARTIAL_CHARGES>
30
1 -0.11
11 0.28
13 -0.11
16 0.42
18 0.91
19 -0.14
2 -0.43
20 0.66
21 0.06
22 0.28
23 -0.15
24 0.11
25 0.28
26 0.28
27 0.08
28 -0.15
3 -0.56
30 -0.15
4 -0.9
48 0.15
5 -0.9
53 0.15
57 0.15
58 0.4
59 0.4
6 -0.57
60 0.45
7 -0.68
8 -0.68
9 -0.53

> <PUBCHEM_EFFECTIVE_ROTOR_COUNT>
13

> <PUBCHEM_PHARMACOPHORE_FEATURES>
14
1 1 hydrophobe
1 15 hydrophobe
1 17 hydrophobe
1 3 acceptor
1 4 acceptor
1 5 acceptor
1 6 acceptor
1 7 acceptor
1 7 donor
1 8 acceptor
1 8 donor
1 9 donor
3 4 5 18 anion
6 19 23 24 27 28 30 rings

> <PUBCHEM_HEAVY_ATOM_COUNT>
30

> <PUBCHEM_ATOM_DEF_STEREO_COUNT>
6

> <PUBCHEM_ATOM_UDEF_STEREO_COUNT>
0

> <PUBCHEM_BOND_DEF_STEREO_COUNT>
0

> <PUBCHEM_BOND_UDEF_STEREO_COUNT>
0

> <PUBCHEM_ISOTOPIC_ATOM_COUNT>
0

> <PUBCHEM_COMPONENT_COUNT>
1

> <PUBCHEM_CACTVS_TAUTO_COUNT>
-1

> <PUBCHEM_CONFORMER_ID>
083E957C00000002

> <PUBCHEM_MMFF94_ENERGY>
72.7681

> <PUBCHEM_FEATURE_SELFOVERLAP>
71.109

> <PUBCHEM_SHAPE_FINGERPRINT>
10498660 4 18261965154089693744
12166972 35 17676490497555175046
12516196 113 18412543219757725113
13533116 47 18260546689231895370
1361 2 18131353046228107662
13899415 154 18341898502156049361
14114211 68 18115321067911414932
14170010 4 18335983151368934225
14840074 17 18413392051023707479
14849402 71 18339366374692140529
15183329 4 18201725063592739829
15849732 13 17989207071220119365
15927050 60 17838050768718348580
17492 89 18120649133234179346
19319366 153 17894621552654296883
21521721 280 18186806881163372371
21781051 124 13254514327317152213
21792934 111 18336531734276786793
221357 26 18201729431796084668
22149856 69 17749402421208144073
23559900 14 18114178692657451273
24771750 20 17244443107105750861
255183 451 18266181630859184790
3044373 193 14634874166777844942
312423 11 18337392613675009346
34797466 226 17989490727238486255
394071 54 18271528705564094688
4093350 32 17703794751306301252
4340502 62 15646767890537509771
46194498 28 17988650658259754734
70251023 43 18199193880420294818

> <PUBCHEM_SHAPE_MULTIPOLES>
576.37
19.58
3.14
1.65
33.64
0.72
0.75
-5.04
1.48
-4.24
-0.83
-2.1
-0.23
0.04

> <PUBCHEM_SHAPE_SELFOVERLAP>
1149.247

> <PUBCHEM_SHAPE_VOLUME>
346.6

> <PUBCHEM_COORDINATE_TYPE>
2
5
10

$$$$
