138397875
  -OEChem-03292013293D

 31 32  0     0  0  0  0  0  0999 V2000
   -2.4125   -1.6252   -0.1308 S   0  0  0  0  0  0  0  0  0  0  0  0
    3.9282    0.9153   -0.0038 S   0  0  0  0  0  0  0  0  0  0  0  0
   -1.9850   -2.8118   -1.1637 O   0  0  0  0  0  0  0  0  0  0  0  0
   -2.3927   -2.1848    1.2071 O   0  0  0  0  0  0  0  0  0  0  0  0
   -3.5894   -0.9596   -0.6533 O   0  0  0  0  0  0  0  0  0  0  0  0
    3.7432    1.7510    1.1890 O   0  5  0  0  0  0  0  0  0  0  0  0
    5.1460    0.0944    0.0262 O   0  0  0  0  0  0  0  0  0  0  0  0
    3.7028    1.6015   -1.2817 O   0  0  0  0  0  0  0  0  0  0  0  0
   -4.6696    2.0567    0.3506 O   0  5  0  0  0  0  0  0  0  0  0  0
   -2.7575    1.2637   -0.7262 N   0  0  0  0  0  0  0  0  0  0  0  0
    0.2402   -0.8298   -0.0260 C   0  0  0  0  0  0  0  0  0  0  0  0
    1.2564    0.1509   -0.1173 C   0  0  0  0  0  0  0  0  0  0  0  0
   -1.0975   -0.4539   -0.2300 C   0  0  0  0  0  0  0  0  0  0  0  0
    2.5941   -0.2251    0.0867 C   0  0  0  0  0  0  0  0  0  0  0  0
   -1.4285    0.8701   -0.5198 C   0  0  0  0  0  0  0  0  0  0  0  0
    0.9050    1.4788   -0.4099 C   0  0  0  0  0  0  0  0  0  0  0  0
    0.5916   -2.1577    0.2665 C   0  0  0  0  0  0  0  0  0  0  0  0
   -0.4291    1.8346   -0.6096 C   0  0  0  0  0  0  0  0  0  0  0  0
    2.9251   -1.5490    0.3766 C   0  0  0  0  0  0  0  0  0  0  0  0
    1.9258   -2.5134    0.4663 C   0  0  0  0  0  0  0  0  0  0  0  0
   -3.4837    1.6627    0.2900 C   0  0  0  0  0  0  0  0  0  0  0  0
   -2.7129    1.6306    1.6131 C   0  0  0  0  0  0  0  0  0  0  0  0
    1.6196    2.2919   -0.4591 H   0  0  0  0  0  0  0  0  0  0  0  0
   -0.1252   -2.9607    0.3788 H   0  0  0  0  0  0  0  0  0  0  0  0
   -0.6771    2.8702   -0.8290 H   0  0  0  0  0  0  0  0  0  0  0  0
    3.9467   -1.8723    0.5503 H   0  0  0  0  0  0  0  0  0  0  0  0
    2.1838   -3.5425    0.6997 H   0  0  0  0  0  0  0  0  0  0  0  0
   -1.8401   -3.6986   -0.7581 H   0  0  0  0  0  0  0  0  0  0  0  0
   -1.8650    2.3218    1.6050 H   0  0  0  0  0  0  0  0  0  0  0  0
   -2.3943    0.6221    1.8867 H   0  0  0  0  0  0  0  0  0  0  0  0
   -3.3583    1.9670    2.4363 H   0  0  0  0  0  0  0  0  0  0  0  0
  1  3  1  0  0  0  0
  1  4  2  0  0  0  0
  1  5  2  0  0  0  0
  1 13  1  0  0  0  0
  2  6  1  0  0  0  0
  2  7  2  0  0  0  0
  2  8  2  0  0  0  0
  2 14  1  0  0  0  0
  3 28  1  0  0  0  0
  9 21  1  0  0  0  0
 10 15  1  0  0  0  0
 10 21  2  0  0  0  0
 11 12  2  0  0  0  0
 11 13  1  0  0  0  0
 11 17  1  0  0  0  0
 12 14  1  0  0  0  0
 12 16  1  0  0  0  0
 13 15  2  0  0  0  0
 14 19  2  0  0  0  0
 15 18  1  0  0  0  0
 16 18  2  0  0  0  0
 16 23  1  0  0  0  0
 17 20  2  0  0  0  0
 17 24  1  0  0  0  0
 18 25  1  0  0  0  0
 19 20  1  0  0  0  0
 19 26  1  0  0  0  0
 20 27  1  0  0  0  0
 21 22  1  0  0  0  0
 22 29  1  0  0  0  0
 22 30  1  0  0  0  0
 22 31  1  0  0  0  0
M  CHG  2   6  -1   9  -1
M  END
> <PUBCHEM_COMPOUND_CID>
138397875

> <PUBCHEM_CONFORMER_RMSD>
0.6

> <PUBCHEM_CONFORMER_DIVERSEORDER>
1
4
2
3

> <PUBCHEM_MMFF94_PARTIAL_CHARGES>
26
1 1.49
10 -0.63
13 -0.01
14 -0.01
15 0.18
16 -0.15
17 -0.15
18 -0.15
19 -0.15
2 1.46
20 -0.15
21 0.25
22 0.06
23 0.15
24 0.15
25 0.15
26 0.15
27 0.15
28 0.5
3 -0.68
4 -0.65
5 -0.65
6 -0.82
7 -0.82
8 -0.82
9 -0.86

> <PUBCHEM_EFFECTIVE_ROTOR_COUNT>
3

> <PUBCHEM_PHARMACOPHORE_FEATURES>
10
1 3 acceptor
1 4 acceptor
1 5 acceptor
1 6 acceptor
1 7 acceptor
1 8 acceptor
4 1 3 4 5 anion
4 2 6 7 8 anion
6 11 12 13 15 16 18 rings
6 11 12 14 17 19 20 rings

> <PUBCHEM_HEAVY_ATOM_COUNT>
22

> <PUBCHEM_ATOM_DEF_STEREO_COUNT>
0

> <PUBCHEM_ATOM_UDEF_STEREO_COUNT>
0

> <PUBCHEM_BOND_DEF_STEREO_COUNT>
0

> <PUBCHEM_BOND_UDEF_STEREO_COUNT>
0

> <PUBCHEM_ISOTOPIC_ATOM_COUNT>
0

> <PUBCHEM_COMPONENT_COUNT>
1

> <PUBCHEM_CACTVS_TAUTO_COUNT>
-1

> <PUBCHEM_CONFORMER_ID>
083FC8B300000001

> <PUBCHEM_MMFF94_ENERGY>
79.327

> <PUBCHEM_FEATURE_SELFOVERLAP>
50.9

> <PUBCHEM_SHAPE_FINGERPRINT>
10062212 137 18334005125375873642
10411042 1 17183628135858874490
10493431 412 18410578353455314937
10616163 171 18409729577517629326
10863032 1 18341890779414356890
10967382 1 18263922146699419660
11132069 177 18261386745974331548
12173636 292 18271802372437700757
12390115 104 18268724951329964472
12403260 363 18194105533895591976
12403814 3 17675923171045968341
12553582 1 17830162520488528730
12633257 1 18192704558197162786
12644460 14 18115591418469031466
13140716 1 18336260150625816914
13224815 77 18186522115898671758
13380535 21 18409452457711310894
14081887 123 18056742433176524666
14178342 30 18337380630178261440
14787075 74 17625529464994975272
14790565 3 18189910883935252724
15196674 1 18409165480733950423
15238133 3 17201635541411818024
15309172 13 18194121815926797977
15536298 74 18340485578216882574
16752209 62 18265893734330697278
16945 1 18048027480840119598
18186145 218 18337390448721329084
19591789 44 18336548338868331054
20510252 161 18126284379181017888
20691752 17 17603866676498445358
21041028 32 17975706296481050611
21236236 1 18410293653142449904
21267235 1 18335989734973719286
21501502 16 18409724036914839303
23184049 59 18120660128318145937
2334 1 18335980947660353798
23388829 49 18265327502727044710
23402539 116 18267011942310016998
23557571 272 18202286943745889806
23558518 356 17972042697497771336
23559900 14 18342457011693372862
25147074 1 18336533954806858250
2748010 2 18408041805889322574
283562 15 18194113255593201747
335352 9 18265331703669290550
34934 24 18261952959881143833
350125 39 18264777738476384561
4409770 3 13081375747330428703
474 4 18187086143852058524
5104073 3 18336261267042858386
58807428 26 18261099756549529858
633830 44 18343578564766647828
7364860 26 18196369226479364966
7832392 63 18410573972467054876
9709674 26 18409729530405104718

> <PUBCHEM_SHAPE_MULTIPOLES>
414.38
7.85
2.98
1.04
2.46
1.25
-0.16
-3.46
-0.74
-1.01
-0.11
-0.3
-0.17
-0.75

> <PUBCHEM_SHAPE_SELFOVERLAP>
884.449

> <PUBCHEM_SHAPE_VOLUME>
229.9

> <PUBCHEM_COORDINATE_TYPE>
2
5
10

$$$$
