138399188
  -OEChem-03292013293D

 27 26  0     1  0  0  0  0  0999 V2000
   -3.4550   -1.8338    0.2486 O   0  0  0  0  0  0  0  0  0  0  0  0
   -2.0761   -2.1959   -1.5148 O   0  0  0  0  0  0  0  0  0  0  0  0
    1.3882   -1.7733    1.6655 O   0  5  0  0  0  0  0  0  0  0  0  0
   -1.5703    3.4005   -0.9764 O   0  5  0  0  0  0  0  0  0  0  0  0
   -1.6733    2.9490    1.2601 O   0  0  0  0  0  0  0  0  0  0  0  0
    2.4563    1.9829   -0.6665 O   0  5  0  0  0  0  0  0  0  0  0  0
    3.4533    0.5800    0.8339 O   0  0  0  0  0  0  0  0  0  0  0  0
    0.1003   -1.3491   -0.2186 N   0  0  0  0  0  0  0  0  0  0  0  0
   -1.1544   -1.2562    0.5325 C   0  0  1  0  0  0  0  0  0  0  0  0
   -1.4024    0.2065    0.9161 C   0  0  0  0  0  0  0  0  0  0  0  0
   -1.3957    1.1587   -0.2796 C   0  0  0  0  0  0  0  0  0  0  0  0
    2.4217   -1.6656   -0.4785 C   0  0  0  0  0  0  0  0  0  0  0  0
   -2.2457   -1.7947   -0.3708 C   0  0  0  0  0  0  0  0  0  0  0  0
    1.1876   -1.5895    0.4447 C   0  0  0  0  0  0  0  0  0  0  0  0
    2.6613   -0.3329   -1.1823 C   0  0  0  0  0  0  0  0  0  0  0  0
   -1.5690    2.6471    0.0394 C   0  0  0  0  0  0  0  0  0  0  0  0
    2.8733    0.8664   -0.2534 C   0  0  0  0  0  0  0  0  0  0  0  0
   -1.1575   -1.8962    1.4238 H   0  0  0  0  0  0  0  0  0  0  0  0
   -2.3625    0.2944    1.4398 H   0  0  0  0  0  0  0  0  0  0  0  0
   -0.6328    0.5269    1.6296 H   0  0  0  0  0  0  0  0  0  0  0  0
   -0.4508    1.0698   -0.8283 H   0  0  0  0  0  0  0  0  0  0  0  0
   -2.1997    0.8845   -0.9736 H   0  0  0  0  0  0  0  0  0  0  0  0
    2.2392   -2.4463   -1.2281 H   0  0  0  0  0  0  0  0  0  0  0  0
    3.3142   -1.9658    0.0854 H   0  0  0  0  0  0  0  0  0  0  0  0
    3.5529   -0.4178   -1.8151 H   0  0  0  0  0  0  0  0  0  0  0  0
    1.8214   -0.1089   -1.8516 H   0  0  0  0  0  0  0  0  0  0  0  0
   -4.1523   -2.2023   -0.3346 H   0  0  0  0  0  0  0  0  0  0  0  0
  1 13  1  0  0  0  0
  1 27  1  0  0  0  0
  2 13  2  0  0  0  0
  3 14  1  0  0  0  0
  4 16  1  0  0  0  0
  5 16  2  0  0  0  0
  6 17  1  0  0  0  0
  7 17  2  0  0  0  0
  8  9  1  0  0  0  0
  8 14  2  0  0  0  0
  9 10  1  0  0  0  0
  9 13  1  0  0  0  0
  9 18  1  0  0  0  0
 10 11  1  0  0  0  0
 10 19  1  0  0  0  0
 10 20  1  0  0  0  0
 11 16  1  0  0  0  0
 11 21  1  0  0  0  0
 11 22  1  0  0  0  0
 12 14  1  0  0  0  0
 12 15  1  0  0  0  0
 12 23  1  0  0  0  0
 12 24  1  0  0  0  0
 15 17  1  0  0  0  0
 15 25  1  0  0  0  0
 15 26  1  0  0  0  0
M  CHG  3   3  -1   4  -1   6  -1
M  END
> <PUBCHEM_COMPOUND_CID>
138399188

> <PUBCHEM_CONFORMER_RMSD>
0.8

> <PUBCHEM_CONFORMER_DIVERSEORDER>
2
120
99
22
98
57
95
101
56
54
14
128
72
10
114
52
45
73
131
17
26
124
107
94
81
32
11
68
70
55
109
37
119
20
127
58
5
85
16
8
71
82
102
135
24
87
64
15
40
61
134
86
39
129
33
78
23
44
123
97
41
13
62
122
88
93
30
46
12
36
111
125
104
80
110
7
47
106
50
105
83
53
108
18
59
42
60
67
79
130
113
103
76
69
92
112
89
21
19
3
48
38
28
29
133
132
49
118
91
43
63
31
51
96
75
121
117
116
27
4
126
77
1
66
65
90
74
9
100
35
25
6
115
34
84

> <PUBCHEM_MMFF94_PARTIAL_CHARGES>
17
1 -0.65
11 -0.11
12 0.06
13 0.66
14 0.25
15 -0.11
16 0.91
17 0.91
2 -0.57
27 0.5
3 -0.86
4 -0.9
5 -0.9
6 -0.9
7 -0.9
8 -0.7
9 0.31

> <PUBCHEM_EFFECTIVE_ROTOR_COUNT>
8

> <PUBCHEM_PHARMACOPHORE_FEATURES>
9
1 1 acceptor
1 2 acceptor
1 4 acceptor
1 5 acceptor
1 6 acceptor
1 7 acceptor
3 1 2 13 anion
3 4 5 16 anion
3 6 7 17 anion

> <PUBCHEM_HEAVY_ATOM_COUNT>
17

> <PUBCHEM_ATOM_DEF_STEREO_COUNT>
1

> <PUBCHEM_ATOM_UDEF_STEREO_COUNT>
0

> <PUBCHEM_BOND_DEF_STEREO_COUNT>
0

> <PUBCHEM_BOND_UDEF_STEREO_COUNT>
0

> <PUBCHEM_ISOTOPIC_ATOM_COUNT>
0

> <PUBCHEM_COMPONENT_COUNT>
1

> <PUBCHEM_CACTVS_TAUTO_COUNT>
-1

> <PUBCHEM_CONFORMER_ID>
083FCDD400000002

> <PUBCHEM_MMFF94_ENERGY>
31.2725

> <PUBCHEM_FEATURE_SELFOVERLAP>
45.845

> <PUBCHEM_SHAPE_FINGERPRINT>
13544592 271 17546172264936720704
14251711 518 18190748535426924490
15279308 10 18335136432356632154
16945 1 18336839700759835622
17492 54 17689988364074168766
17775402 16 18119521291563638951
18219364 16 17543368063251045345
18981168 100 18059010571267252602
192875 21 18189604111700686880
20511035 2 17682137481600303060
21524375 3 17903368000269861691
23402539 116 18126560356868653822
23419403 2 15376456281058644651
23557571 272 18201429311643720530
238 59 17176565486714332421
3060560 45 17403730056500439733
353137 74 18335415815578599019
7832392 63 18193279585688303814
81228 2 18337682987243812745

> <PUBCHEM_SHAPE_MULTIPOLES>
303.79
4.98
3.7
1.21
2.18
2.33
0.08
0.2
-0.33
-2.84
-0.39
0.08
-0.15
-0.54

> <PUBCHEM_SHAPE_SELFOVERLAP>
599.461

> <PUBCHEM_SHAPE_VOLUME>
178.6

> <PUBCHEM_COORDINATE_TYPE>
2
5
10

$$$$
