REMARK  Name = 138397773
REMARK  8 active torsions:
REMARK  status: ('A' for Active; 'I' for Inactive)
REMARK    1  A    between atoms: C_1  and  C_5
REMARK    2  A    between atoms: C_1  and  N_15
REMARK    3  A    between atoms: N_4  and  C_7
REMARK    4  A    between atoms: C_7  and  C_11
REMARK    5  A    between atoms: C_16  and  C_18
REMARK    6  A    between atoms: C_18  and  N_21
REMARK    7  A    between atoms: N_21  and  C_22
REMARK    8  A    between atoms: C_22  and  C_23
REMARK                            x       y       z     vdW  Elec       q    Type
REMARK                         _______ _______ _______ _____ _____    ______ ____
ROOT
ATOM      1  C   UNL     1       0.640   1.044  -0.843  0.00  0.00    +0.149 C 
ATOM      2  C   UNL     1       1.004   2.205  -1.755  0.00  0.00    +0.031 C 
ENDROOT
BRANCH   1   5
ATOM      3  O   UNL     1       1.699   1.413   1.306  0.00  0.00    -0.273 OA
ATOM      4  N   UNL     1       2.700  -0.048  -0.194  0.00  0.00    -0.297 N 
ATOM      5  C   UNL     1       1.708   0.833   0.222  0.00  0.00    +0.241 C 
ATOM      6  H   UNL     1       2.618  -0.464  -1.082  0.00  0.00    +0.150 HD
BRANCH   4   7
ATOM      7  C   UNL     1       3.841  -0.379   0.618  0.00  0.00    +0.149 C 
ATOM      8  C   UNL     1       3.564  -1.589   1.496  0.00  0.00    +0.031 C 
BRANCH   7  11
ATOM      9  O   UNL     1       4.898  -1.154  -1.421  0.00  0.00    -0.273 OA
ATOM     10  N   UNL     1       6.228  -0.269   0.262  0.00  0.00    -0.301 N 
ATOM     11  C   UNL     1       5.020  -0.639  -0.311  0.00  0.00    +0.240 C 
ATOM     12  C   UNL     1       7.496  -0.455  -0.403  0.00  0.00    +0.111 C 
ATOM     13  H   UNL     1       6.220   0.138   1.159  0.00  0.00    +0.150 HD
ENDBRANCH   7  11
ENDBRANCH   4   7
ENDBRANCH   1   5
BRANCH   1  15
ATOM     14  O   UNL     1      -1.271  -0.942   0.033  0.00  0.00    -0.273 OA
ATOM     15  N   UNL     1      -0.614   1.277  -0.175  0.00  0.00    -0.297 N 
ATOM     16  C   UNL     1      -1.476   0.257   0.212  0.00  0.00    +0.243 C 
ATOM     17  H   UNL     1      -0.875   2.206   0.018  0.00  0.00    +0.150 HD
BRANCH  16  18
ATOM     18  C   UNL     1      -2.724   0.785   0.900  0.00  0.00    +0.171 C 
ATOM     19  C   UNL     1      -2.537   0.853   2.407  0.00  0.00    +0.033 C 
BRANCH  18  20
ATOM     20  N   UNL     1      -3.829  -0.125   0.589  0.00  0.00    -0.198 NA
BRANCH  20  22
ATOM     21  O   UNL     1      -4.416   0.995  -1.353  0.00  0.00    -0.273 OA
ATOM     22  C   UNL     1      -4.519   0.100  -0.485  0.00  0.00    +0.241 C 
BRANCH  22  23
ATOM     23  C   UNL     1      -5.660  -0.937  -0.698  0.00  0.00    +0.078 C 
ATOM     24  C   UNL     1      -6.663  -0.881   0.455  0.00  0.00    +0.010 C 
ATOM     25  C   UNL     1      -5.090  -2.346  -0.864  0.00  0.00    +0.010 C 
ENDBRANCH  22  23
ENDBRANCH  20  22
ENDBRANCH  18  20
ENDBRANCH  16  18
ENDBRANCH   1  15
TORSDOF 8
