REMARK  Name = 13830456
REMARK  5 active torsions:
REMARK  status: ('A' for Active; 'I' for Inactive)
REMARK    1  A    between atoms: C_2  and  O_16
REMARK    2  A    between atoms: C_3  and  O_18
REMARK    3  A    between atoms: C_4  and  N_9
REMARK    4  A    between atoms: C_5  and  C_20
REMARK    5  A    between atoms: C_20  and  O_21
REMARK                            x       y       z     vdW  Elec       q    Type
REMARK                         _______ _______ _______ _____ _____    ______ ____
ROOT
ATOM      1  O   UNL     1      -1.224   0.988  -0.534  0.00  0.00    -0.333 OA
ATOM      2  C   UNL     1      -1.128  -1.234   0.309  0.00  0.00    +0.158 C 
ATOM      3  C   UNL     1      -2.583  -0.833   0.125  0.00  0.00    +0.168 C 
ATOM      4  C   UNL     1      -0.457  -0.228  -0.627  0.00  0.00    +0.227 C 
ATOM      5  C   UNL     1      -2.479   0.687   0.104  0.00  0.00    +0.175 C 
ATOM      6  C   UNL     1      -0.831  -2.689  -0.018  0.00  0.00    +0.036 C 
ENDROOT
BRANCH   4   9
ATOM      7  O   UNL     1       1.754  -1.536  -1.803  0.00  0.00    -0.252 OA
ATOM      8  O   UNL     1       4.761   0.916   0.686  0.00  0.00    -0.270 OA
ATOM      9  N   UNL     1       0.913   0.049  -0.306  0.00  0.00    -0.217 N 
ATOM     10  N   UNL     1       3.249  -0.315  -0.562  0.00  0.00    -0.236 N 
ATOM     11  C   UNL     1       1.950  -0.665  -0.953  0.00  0.00    +0.315 C 
ATOM     12  C   UNL     1       1.223   1.019   0.642  0.00  0.00    +0.076 C 
ATOM     13  C   UNL     1       2.466   1.342   1.004  0.00  0.00    +0.074 C 
ATOM     14  C   UNL     1       3.605   0.643   0.375  0.00  0.00    +0.254 C 
ATOM     15  H   UNL     1       3.987  -0.799  -0.999  0.00  0.00    +0.159 HD
ENDBRANCH   4   9
BRANCH   2  16
ATOM     16  O   UNL     1      -0.746  -0.978   1.663  0.00  0.00    -0.380 OA
ATOM     17  H   UNL     1      -0.931  -0.052   1.881  0.00  0.00    +0.211 HD
ENDBRANCH   2  16
BRANCH   3  18
ATOM     18  O   UNL     1      -3.431  -1.281   1.163  0.00  0.00    -0.379 OA
ATOM     19  H   UNL     1      -3.476  -2.249   1.149  0.00  0.00    +0.211 HD
ENDBRANCH   3  18
BRANCH   5  20
ATOM     20  C   UNL     1      -3.612   1.355  -0.657  0.00  0.00    +0.169 C 
BRANCH  20  21
ATOM     21  O   UNL     1      -3.429   2.760  -0.608  0.00  0.00    -0.379 OA
ATOM     22  H   UNL     1      -4.148   3.197  -1.092  0.00  0.00    +0.211 HD
ENDBRANCH  20  21
ENDBRANCH   5  20
TORSDOF 5
