REMARK  Name = 138319228
REMARK  15 active torsions:
REMARK  status: ('A' for Active; 'I' for Inactive)
REMARK    1  A    between atoms: C_1  and  C_2
REMARK    2  A    between atoms: C_1  and  C_18
REMARK    3  A    between atoms: C_1  and  O_23
REMARK    4  A    between atoms: C_2  and  C_4
REMARK    5  A    between atoms: C_5  and  C_6
REMARK    6  A    between atoms: C_6  and  C_8
REMARK    7  A    between atoms: C_6  and  O_16
REMARK    8  A    between atoms: C_11  and  O_14
REMARK    9  A    between atoms: C_18  and  C_22
REMARK   10  A    between atoms: O_23  and  C_25
REMARK   11  A    between atoms: C_25  and  C_26
REMARK   12  A    between atoms: C_26  and  C_27
REMARK   13  A    between atoms: C_27  and  O_28
REMARK   14  A    between atoms: C_27  and  C_30
REMARK   15  A    between atoms: C_30  and  O_32
REMARK                            x       y       z     vdW  Elec       q    Type
REMARK                         _______ _______ _______ _____ _____    ______ ____
ROOT
ATOM      1  C   UNL     1      -1.173   0.166  -0.412  0.00  0.00    +0.183 C 
ENDROOT
BRANCH   1   2
ATOM      2  C   UNL     1      -0.310  -0.683   0.564  0.00  0.00    +0.062 C 
ATOM      3  C   UNL     1      -1.050  -1.990   0.894  0.00  0.00    +0.008 C 
BRANCH   2   4
ATOM      4  C   UNL     1       1.102  -0.968   0.002  0.00  0.00    -0.025 C 
ATOM      5  C   UNL     1       2.077  -1.681   0.950  0.00  0.00    +0.003 C 
BRANCH   5   6
ATOM      6  C   UNL     1       3.503  -1.882   0.413  0.00  0.00    +0.160 C 
BRANCH   6   8
ATOM      7 BR   UNL     1       4.578  -1.845  -2.602  0.00  0.00    -0.049 Br
ATOM      8  C   UNL     1       4.204  -0.617  -0.021  0.00  0.00    +0.018 C 
ATOM      9  C   UNL     1       4.327   0.419   0.905  0.00  0.00    +0.035 C 
ATOM     10  C   UNL     1       4.721  -0.466  -1.308  0.00  0.00    +0.033 C 
ATOM     11  C   UNL     1       4.967   1.605   0.545  0.00  0.00    +0.133 C 
ATOM     12  C   UNL     1       5.361   0.720  -1.668  0.00  0.00    +0.010 C 
ATOM     13  C   UNL     1       5.484   1.755  -0.741  0.00  0.00    +0.037 C 
BRANCH  11  14
ATOM     14  O   UNL     1       5.087   2.615   1.449  0.00  0.00    -0.506 OA
ATOM     15  H   UNL     1       4.739   2.514   2.314  0.00  0.00    +0.292 HD
ENDBRANCH  11  14
ENDBRANCH   6   8
BRANCH   6  16
ATOM     16  O   UNL     1       4.300  -2.478   1.441  0.00  0.00    -0.345 OA
ATOM     17  C   UNL     1       5.394  -3.193   0.892  0.00  0.00    +0.175 C 
ENDBRANCH   6  16
ENDBRANCH   5   6
ENDBRANCH   2   4
ENDBRANCH   1   2
BRANCH   1  18
ATOM     18  C   UNL     1      -0.597   1.548  -0.776  0.00  0.00    +0.144 C 
ATOM     19  C   UNL     1      -1.525   2.381  -1.657  0.00  0.00    +0.016 C 
BRANCH  18  22
ATOM     20  O   UNL     1      -1.357   2.715   1.168  0.00  0.00    -0.246 OA
ATOM     21  O   UNL     1       0.853   2.815   0.604  0.00  0.00    -0.246 OA
ATOM     22  C   UNL     1      -0.349   2.448   0.457  0.00  0.00    +0.368 C 
ENDBRANCH  18  22
ENDBRANCH   1  18
BRANCH   1  23
ATOM     23  O   UNL     1      -2.463   0.360   0.181  0.00  0.00    -0.451 OA
BRANCH  23  25
ATOM     24  O   UNL     1      -3.432  -0.845  -1.531  0.00  0.00    -0.250 OA
ATOM     25  C   UNL     1      -3.509  -0.205  -0.491  0.00  0.00    +0.319 C 
BRANCH  25  26
ATOM     26  C   UNL     1      -4.791   0.100   0.256  0.00  0.00    +0.141 C 
BRANCH  26  27
ATOM     27  C   UNL     1      -6.021  -0.521  -0.414  0.00  0.00    +0.148 C 
BRANCH  27  28
ATOM     28  O   UNL     1      -6.067  -1.917  -0.108  0.00  0.00    -0.381 OA
ATOM     29  H   UNL     1      -5.244  -2.339  -0.400  0.00  0.00    +0.210 HD
ENDBRANCH  27  28
BRANCH  27  30
ATOM     30  C   UNL     1      -7.333   0.128   0.056  0.00  0.00    +0.138 C 
ATOM     31  C   UNL     1      -8.591  -0.509  -0.526  0.00  0.00    +0.034 C 
BRANCH  30  32
ATOM     32  O   UNL     1      -7.390   0.024   1.480  0.00  0.00    -0.382 OA
ATOM     33  H   UNL     1      -6.595   0.425   1.865  0.00  0.00    +0.210 HD
ENDBRANCH  30  32
ENDBRANCH  27  30
ENDBRANCH  26  27
ENDBRANCH  25  26
ENDBRANCH  23  25
ENDBRANCH   1  23
TORSDOF 15
