13830456
  -OEChem-03292013303D

 32 33  0     1  0  0  0  0  0999 V2000
   -1.2241    0.9881   -0.5343 O   0  0  0  0  0  0  0  0  0  0  0  0
   -0.7460   -0.9782    1.6625 O   0  0  0  0  0  0  0  0  0  0  0  0
   -3.4313   -1.2806    1.1631 O   0  0  0  0  0  0  0  0  0  0  0  0
   -3.4289    2.7603   -0.6082 O   0  0  0  0  0  0  0  0  0  0  0  0
    1.7535   -1.5356   -1.8033 O   0  0  0  0  0  0  0  0  0  0  0  0
    4.7606    0.9156    0.6856 O   0  0  0  0  0  0  0  0  0  0  0  0
    0.9129    0.0489   -0.3058 N   0  0  0  0  0  0  0  0  0  0  0  0
    3.2494   -0.3145   -0.5624 N   0  0  0  0  0  0  0  0  0  0  0  0
   -1.1276   -1.2341    0.3086 C   0  0  1  0  0  0  0  0  0  0  0  0
   -2.5835   -0.8332    0.1252 C   0  0  2  0  0  0  0  0  0  0  0  0
   -0.4565   -0.2281   -0.6271 C   0  0  1  0  0  0  0  0  0  0  0  0
   -2.4795    0.6870    0.1038 C   0  0  2  0  0  0  0  0  0  0  0  0
   -0.8312   -2.6887   -0.0183 C   0  0  0  0  0  0  0  0  0  0  0  0
   -3.6117    1.3548   -0.6566 C   0  0  0  0  0  0  0  0  0  0  0  0
    1.9502   -0.6647   -0.9531 C   0  0  0  0  0  0  0  0  0  0  0  0
    1.2226    1.0187    0.6417 C   0  0  0  0  0  0  0  0  0  0  0  0
    2.4660    1.3416    1.0035 C   0  0  0  0  0  0  0  0  0  0  0  0
    3.6051    0.6427    0.3752 C   0  0  0  0  0  0  0  0  0  0  0  0
   -2.9699   -1.2057   -0.8323 H   0  0  0  0  0  0  0  0  0  0  0  0
   -0.5325   -0.5623   -1.6697 H   0  0  0  0  0  0  0  0  0  0  0  0
   -2.4325    1.0988    1.1199 H   0  0  0  0  0  0  0  0  0  0  0  0
   -1.0801   -2.9302   -1.0565 H   0  0  0  0  0  0  0  0  0  0  0  0
    0.2261   -2.9198    0.1497 H   0  0  0  0  0  0  0  0  0  0  0  0
   -1.3991   -3.3598    0.6354 H   0  0  0  0  0  0  0  0  0  0  0  0
   -4.5888    1.1100   -0.2290 H   0  0  0  0  0  0  0  0  0  0  0  0
   -3.6036    1.0634   -1.7116 H   0  0  0  0  0  0  0  0  0  0  0  0
   -1.2851   -1.5506    2.2348 H   0  0  0  0  0  0  0  0  0  0  0  0
   -3.4132   -2.2525    1.1595 H   0  0  0  0  0  0  0  0  0  0  0  0
    0.3918    1.5278    1.1182 H   0  0  0  0  0  0  0  0  0  0  0  0
   -3.4715    3.0313    0.3247 H   0  0  0  0  0  0  0  0  0  0  0  0
    4.0094   -0.8150   -1.0148 H   0  0  0  0  0  0  0  0  0  0  0  0
    2.6678    2.0996    1.7503 H   0  0  0  0  0  0  0  0  0  0  0  0
  1 11  1  0  0  0  0
  1 12  1  0  0  0  0
  2  9  1  0  0  0  0
  2 27  1  0  0  0  0
  3 10  1  0  0  0  0
  3 28  1  0  0  0  0
  4 14  1  0  0  0  0
  4 30  1  0  0  0  0
  5 15  2  0  0  0  0
  6 18  2  0  0  0  0
  7 11  1  0  0  0  0
  7 15  1  0  0  0  0
  7 16  1  0  0  0  0
  8 15  1  0  0  0  0
  8 18  1  0  0  0  0
  8 31  1  0  0  0  0
  9 10  1  0  0  0  0
  9 11  1  0  0  0  0
  9 13  1  0  0  0  0
 10 12  1  0  0  0  0
 10 19  1  0  0  0  0
 11 20  1  0  0  0  0
 12 14  1  0  0  0  0
 12 21  1  0  0  0  0
 13 22  1  0  0  0  0
 13 23  1  0  0  0  0
 13 24  1  0  0  0  0
 14 25  1  0  0  0  0
 14 26  1  0  0  0  0
 16 17  2  0  0  0  0
 16 29  1  0  0  0  0
 17 18  1  0  0  0  0
 17 32  1  0  0  0  0
M  END
> <PUBCHEM_COMPOUND_CID>
13830456

> <PUBCHEM_CONFORMER_RMSD>
0.6

> <PUBCHEM_CONFORMER_DIVERSEORDER>
2
33
45
46
34
12
50
3
48
49
67
70
26
32
7
8
60
72
28
62
71
18
65
10
47
38
1
66
53
37
55
64
25
30
69
51
13
39
57
56
42
35
68
14
43
59
21
27
15
41
19
29
36
58
52
4
9
22
61
44
63
23
40
11
16
17
5
54
20
31
6
24

> <PUBCHEM_MMFF94_PARTIAL_CHARGES>
23
1 -0.56
10 0.28
11 0.58
12 0.28
14 0.28
15 0.69
16 -0.04
17 -0.14
18 0.62
2 -0.68
27 0.4
28 0.4
29 0.15
3 -0.68
30 0.4
31 0.37
32 0.15
4 -0.68
5 -0.57
6 -0.57
7 -0.47
8 -0.49
9 0.28

> <PUBCHEM_EFFECTIVE_ROTOR_COUNT>
3

> <PUBCHEM_PHARMACOPHORE_FEATURES>
12
1 1 acceptor
1 2 acceptor
1 2 donor
1 3 acceptor
1 3 donor
1 4 acceptor
1 4 donor
1 5 acceptor
1 6 acceptor
1 8 donor
5 1 9 10 11 12 rings
6 7 8 15 16 17 18 rings

> <PUBCHEM_HEAVY_ATOM_COUNT>
18

> <PUBCHEM_ATOM_DEF_STEREO_COUNT>
0

> <PUBCHEM_ATOM_UDEF_STEREO_COUNT>
4

> <PUBCHEM_BOND_DEF_STEREO_COUNT>
0

> <PUBCHEM_BOND_UDEF_STEREO_COUNT>
0

> <PUBCHEM_ISOTOPIC_ATOM_COUNT>
0

> <PUBCHEM_COMPONENT_COUNT>
1

> <PUBCHEM_CACTVS_TAUTO_COUNT>
3

> <PUBCHEM_CONFORMER_ID>
00D3093800000002

> <PUBCHEM_MMFF94_ENERGY>
51.7146

> <PUBCHEM_FEATURE_SELFOVERLAP>
60.915

> <PUBCHEM_SHAPE_FINGERPRINT>
10608611 8 18341890826780647712
10646746 165 18335984181480447461
12077114 3 18410005559188664984
12138202 97 18412257358939079310
12236239 1 16298384681904368440
12251169 10 18266740362615923346
124424 183 18412820283623765744
12500047 106 18410567405630805850
13380535 76 18272927232835571358
13464514 151 17981608165365719229
13538477 17 16588879004121778683
13581323 91 17968377952269998538
15219456 202 18343868813896910958
15279308 16 18413669110415523084
15309172 13 17703793677807135430
15375358 24 18272083898985589252
15775835 57 18041273279584104873
15852999 172 18201716249913816094
16945 1 18263925612696056799
17357990 137 16733282165391149702
18186145 218 18199479787227624885
19049666 15 18269284477550398367
19422 9 16660368112030195066
200 152 16702016504525950693
20279233 1 18343303673467964220
20510252 161 18411704305028268489
20524608 308 18337949090522034267
20645464 45 18412545439702091587
20645477 56 18412546543450781481
20645477 70 17560802065828694108
21524375 3 18187919522358316349
21639500 275 17131828798242336888
22112679 90 16805611390319659886
23402539 116 18267010829771140447
23493267 7 18410567405810316696
23526113 38 18129941161343854992
23557571 272 18337402598788183493
23559900 14 18337678495430818246
25 1 18131350761020616993
2748010 2 18339093600706702535
276578 36 17604993615497151921
305870 269 18262228920199162763
69090 78 18272368728300278575
7364860 26 17905600008964229519
77492 1 16226053309550187294
81228 2 18189341345591156643
84936 182 17834386818492639689

> <PUBCHEM_SHAPE_MULTIPOLES>
325.25
6.76
2.21
1.19
2.97
0.14
-0.01
-3.2
-0.46
-1.73
0.2
0.14
0.28
1.58

> <PUBCHEM_SHAPE_SELFOVERLAP>
685.91

> <PUBCHEM_SHAPE_VOLUME>
182.7

> <PUBCHEM_COORDINATE_TYPE>
2
5
10

$$$$
