REMARK  Name = 138394154
REMARK  4 active torsions:
REMARK  status: ('A' for Active; 'I' for Inactive)
REMARK    1  A    between atoms: C_12  and  C_24
REMARK    2  A    between atoms: C_13  and  O_28
REMARK    3  A    between atoms: C_16  and  O_30
REMARK    4  A    between atoms: C_18  and  O_32
REMARK                            x       y       z     vdW  Elec       q    Type
REMARK                         _______ _______ _______ _____ _____    ______ ____
ROOT
ATOM      1  O   UNL     1       0.790   0.493   1.476  0.00  0.00    -0.314 OA
ATOM      2  O   UNL     1      -0.590   2.756  -0.609  0.00  0.00    -0.448 OA
ATOM      3  O   UNL     1       0.588  -1.864   1.224  0.00  0.00    -0.423 OA
ATOM      4  O   UNL     1       2.738  -1.116  -0.493  0.00  0.00    -0.450 OA
ATOM      5  O   UNL     1       0.710   3.361   1.169  0.00  0.00    -0.248 OA
ATOM      6  O   UNL     1       0.412  -3.669  -0.186  0.00  0.00    -0.247 OA
ATOM      7  O   UNL     1       4.043  -1.379   1.375  0.00  0.00    -0.250 OA
ATOM      8  C   UNL     1      -0.029   0.426  -0.785  0.00  0.00    +0.109 C 
ATOM      9  C   UNL     1      -0.942  -0.445   0.133  0.00  0.00    +0.110 C 
ATOM     10  C   UNL     1       0.892   1.138   0.215  0.00  0.00    +0.194 C 
ATOM     11  C   UNL     1      -0.924   1.557  -1.329  0.00  0.00    +0.201 C 
ATOM     12  C   UNL     1      -2.198   0.450   0.361  0.00  0.00    +0.040 C 
ATOM     13  C   UNL     1       0.941  -0.106  -1.870  0.00  0.00    +0.157 C 
ATOM     14  C   UNL     1       2.321   1.175  -0.370  0.00  0.00    +0.089 C 
ATOM     15  C   UNL     1      -0.107  -0.615   1.387  0.00  0.00    +0.294 C 
ATOM     16  C   UNL     1      -2.352   1.134  -0.996  0.00  0.00    +0.151 C 
ATOM     17  C   UNL     1       2.355  -0.009  -1.308  0.00  0.00    +0.199 C 
ATOM     18  C   UNL     1      -1.256  -1.895  -0.208  0.00  0.00    +0.216 C 
ATOM     19  C   UNL     1       0.352   2.533   0.345  0.00  0.00    +0.342 C 
ATOM     20  C   UNL     1       3.439   0.850   0.610  0.00  0.00    +0.105 C 
ATOM     21  C   UNL     1      -0.004  -2.602   0.235  0.00  0.00    +0.346 C 
ATOM     22  C   UNL     1       3.462  -0.659   0.577  0.00  0.00    +0.317 C 
ATOM     23  C   UNL     1       4.790   1.393   0.167  0.00  0.00    +0.012 C 
ENDROOT
BRANCH  12  24
ATOM     24  C   UNL     1      -3.480  -0.239   0.819  0.00  0.00    +0.003 C 
ATOM     25  C   UNL     1      -3.259  -0.892   2.194  0.00  0.00    +0.000 C 
ATOM     26  C   UNL     1      -3.880  -1.325  -0.196  0.00  0.00    +0.000 C 
ATOM     27  C   UNL     1      -4.617   0.792   0.927  0.00  0.00    +0.000 C 
ENDBRANCH  12  24
BRANCH  13  28
ATOM     28  O   UNL     1       0.683  -1.395  -2.372  0.00  0.00    -0.381 OA
ATOM     29  H   UNL     1      -0.220  -1.430  -2.723  0.00  0.00    +0.210 HD
ENDBRANCH  13  28
BRANCH  16  30
ATOM     30  O   UNL     1      -3.223   2.248  -0.961  0.00  0.00    -0.381 OA
ATOM     31  H   UNL     1      -3.282   2.641  -1.846  0.00  0.00    +0.210 HD
ENDBRANCH  16  30
BRANCH  18  32
ATOM     32  O   UNL     1      -1.658  -2.096  -1.531  0.00  0.00    -0.374 OA
ATOM     33  H   UNL     1      -2.470  -1.595  -1.702  0.00  0.00    +0.211 HD
ENDBRANCH  18  32
TORSDOF 4
