REMARK  Name = 138399188
REMARK  10 active torsions:
REMARK  status: ('A' for Active; 'I' for Inactive)
REMARK    1  A    between atoms: CA_1  and  N_3
REMARK    2  A    between atoms: CA_1  and  C_11
REMARK    3  A    between atoms: CA_1  and  CB_14
REMARK    4  A    between atoms: N_3  and  C_4
REMARK    5  A    between atoms: C_4  and  C_5
REMARK    6  A    between atoms: C_5  and  C_6
REMARK    7  A    between atoms: C_6  and  C_9
REMARK    8  A    between atoms: C_11  and  O_12
REMARK    9  A    between atoms: CB_14  and  CG_15
REMARK   10  A    between atoms: CG_15  and  CD_18
REMARK                            x       y       z     vdW  Elec       q    Type
REMARK                         _______ _______ _______ _____ _____    ______ ____
ROOT
ATOM      1  CA  UNL     1      -1.154  -1.256   0.532  0.00  0.00    +0.194 C 
ENDROOT
BRANCH   1   3
ATOM      2  OXT UNL     1      -2.076  -2.196  -1.515  0.00  0.00    -0.248 OA
ATOM      3  C   UNL     1      -2.246  -1.795  -0.371  0.00  0.00    +0.334 C 
BRANCH   3   4
ATOM      4  O   UNL     1      -3.455  -1.834   0.249  0.00  0.00    -0.479 OA
ATOM      5  H   UNL     1      -3.543  -1.516   1.126  0.00  0.00    +0.295 HD
ENDBRANCH   3   4
ENDBRANCH   1   3
BRANCH   1   6
ATOM      6  N   UNL     1       0.100  -1.349  -0.219  0.00  0.00    -0.196 NA
BRANCH   6   8
ATOM      7  O   UNL     1       1.388  -1.773   1.665  0.00  0.00    -0.273 OA
ATOM      8  C   ACE A   0       1.188  -1.589   0.445  0.00  0.00    +0.242 C 
BRANCH   8   9
ATOM      9  C   UNL     1       2.422  -1.666  -0.478  0.00  0.00    +0.099 C 
BRANCH   9  10
ATOM     10  C   UNL     1       2.661  -0.333  -1.182  0.00  0.00    +0.124 C 
BRANCH  10  13
ATOM     11  O   UNL     1       2.456   1.983  -0.666  0.00  0.00    -0.246 OA
ATOM     12  O   UNL     1       3.453   0.580   0.834  0.00  0.00    -0.246 OA
ATOM     13  C   UNL     1       2.873   0.866  -0.253  0.00  0.00    +0.365 C 
ENDBRANCH  10  13
ENDBRANCH   9  10
ENDBRANCH   8   9
ENDBRANCH   6   8
ENDBRANCH   1   6
BRANCH   1  14
ATOM     14  CB  UNL     1      -1.402   0.206   0.916  0.00  0.00    +0.045 C 
BRANCH  14  15
ATOM     15  CG  UNL     1      -1.396   1.159  -0.280  0.00  0.00    +0.116 C 
BRANCH  15  18
ATOM     16  OE1 UNL     1      -1.570   3.401  -0.976  0.00  0.00    -0.246 OA
ATOM     17  OE2 UNL     1      -1.673   2.949   1.260  0.00  0.00    -0.246 OA
ATOM     18  CD  UNL     1      -1.569   2.647   0.039  0.00  0.00    +0.365 C 
ENDBRANCH  15  18
ENDBRANCH  14  15
ENDBRANCH   1  14
TORSDOF 10
