REMARK  Name = 138397875
REMARK  4 active torsions:
REMARK  status: ('A' for Active; 'I' for Inactive)
REMARK    1  A    between atoms: C_3  and  S_11
REMARK    2  A    between atoms: C_4  and  S_15
REMARK    3  A    between atoms: C_5  and  N_20
REMARK    4  A    between atoms: N_20  and  C_21
REMARK                            x       y       z     vdW  Elec       q    Type
REMARK                         _______ _______ _______ _____ _____    ______ ____
ROOT
ATOM      1  C   UNL     1       0.240  -0.830  -0.026  0.00  0.00    +0.020 C 
ATOM      2  C   UNL     1       1.256   0.151  -0.117  0.00  0.00    +0.019 C 
ATOM      3  C   UNL     1      -1.097  -0.454  -0.230  0.00  0.00    +0.128 C 
ATOM      4  C   UNL     1       2.594  -0.225   0.087  0.00  0.00    +0.112 C 
ATOM      5  C   UNL     1      -1.429   0.870  -0.520  0.00  0.00    +0.091 C 
ATOM      6  C   UNL     1       0.905   1.479  -0.410  0.00  0.00    +0.003 C 
ATOM      7  C   UNL     1       0.592  -2.158   0.267  0.00  0.00    +0.001 C 
ATOM      8  C   UNL     1      -0.429   1.835  -0.610  0.00  0.00    +0.018 C 
ATOM      9  C   UNL     1       2.925  -1.549   0.377  0.00  0.00    +0.019 C 
ATOM     10  C   UNL     1       1.926  -2.513   0.466  0.00  0.00    +0.001 C 
ENDROOT
BRANCH   3  11
ATOM     11  S   UNL     1      -2.413  -1.625  -0.131  0.00  0.00    +0.043 S 
ATOM     12  O   UNL     1      -1.985  -2.812  -1.164  0.00  0.00    -0.065 OA
ATOM     13  O   UNL     1      -2.393  -2.185   1.207  0.00  0.00    -0.065 OA
ATOM     14  O   UNL     1      -3.589  -0.960  -0.653  0.00  0.00    -0.065 OA
ENDBRANCH   3  11
BRANCH   4  15
ATOM     15  S   UNL     1       3.928   0.915  -0.004  0.00  0.00    +0.042 S 
ATOM     16  O   UNL     1       3.743   1.751   1.189  0.00  0.00    -0.065 OA
ATOM     17  O   UNL     1       5.146   0.094   0.026  0.00  0.00    -0.065 OA
ATOM     18  O   UNL     1       3.703   1.601  -1.282  0.00  0.00    -0.065 OA
ENDBRANCH   4  15
BRANCH   5  19
ATOM     19  N   UNL     1      -2.757   1.264  -0.726  0.00  0.00    -0.178 NA
BRANCH  19  21
ATOM     20  O   UNL     1      -4.670   2.057   0.351  0.00  0.00    -0.273 OA
ATOM     21  C   UNL     1      -3.484   1.663   0.290  0.00  0.00    +0.246 C 
ATOM     22  C   UNL     1      -2.713   1.631   1.613  0.00  0.00    +0.097 C 
ENDBRANCH  19  21
ENDBRANCH   5  19
TORSDOF 4
