REMARK  Name = 138454437
REMARK  9 active torsions:
REMARK  status: ('A' for Active; 'I' for Inactive)
REMARK    1  A    between atoms: C_1  and  N_2
REMARK    2  A    between atoms: C_1  and  C_8
REMARK    3  A    between atoms: C_1  and  C_18
REMARK    4  A    between atoms: N_7  and  C_9
REMARK    5  A    between atoms: N_7  and  N_15
REMARK    6  A    between atoms: C_18  and  C_19
REMARK    7  A    between atoms: C_19  and  O_20
REMARK    8  A    between atoms: O_20  and  N_21
REMARK    9  A    between atoms: N_21  and  C_23
REMARK                            x       y       z     vdW  Elec       q    Type
REMARK                         _______ _______ _______ _____ _____    ______ ____
ROOT
ATOM      1  C   UNL     1      -0.235  -2.086  -0.116  0.00  0.00    +0.017 C 
ENDROOT
BRANCH   1   2
ATOM      2  N   UNL     1       0.184  -3.335   0.525  0.00  0.00    +0.387 N 
ATOM      3  H   UNL     1      -0.459  -4.083   0.266  0.00  0.00    -0.089 HD
ATOM      4  H   UNL     1       0.176  -3.216   1.538  0.00  0.00    -0.089 HD
ATOM      5  H   UNL     1       1.127  -3.575   0.218  0.00  0.00    -0.089 HD
ENDBRANCH   1   2
BRANCH   1   8
ATOM      6  O   UNL     1       0.492  -0.262   1.266  0.00  0.00    -0.276 OA
ATOM      7  N   UNL     1       1.922  -0.862  -0.484  0.00  0.00    -0.208 N 
ATOM      8  C   UNL     1       0.756  -0.978   0.295  0.00  0.00    +0.222 C 
BRANCH   7   9
ATOM      9  C   UNL     1       2.921   0.137  -0.195  0.00  0.00    +0.069 C 
ATOM     10  C   UNL     1       3.113   0.572   1.117  0.00  0.00    +0.016 C 
ATOM     11  C   UNL     1       3.694   0.669  -1.226  0.00  0.00    +0.016 C 
ATOM     12  C   UNL     1       4.079   1.538   1.397  0.00  0.00    +0.001 C 
ATOM     13  C   UNL     1       4.660   1.636  -0.946  0.00  0.00    +0.001 C 
ATOM     14  C   UNL     1       4.852   2.070   0.366  0.00  0.00    +0.000 C 
ENDBRANCH   7   9
BRANCH   7  15
ATOM     15  N   UNL     1       2.074  -1.756  -1.553  0.00  0.00    -0.247 NA
ATOM     16  H   UNL     1       1.268  -2.379  -1.592  0.00  0.00    +0.141 HD
ATOM     17  H   UNL     1       2.923  -2.305  -1.418  0.00  0.00    +0.141 HD
ENDBRANCH   7  15
ENDBRANCH   1   8
BRANCH   1  18
ATOM     18  C   UNL     1      -1.679  -1.728   0.266  0.00  0.00    +0.022 C 
BRANCH  18  19
ATOM     19  C   UNL     1      -2.191  -0.414  -0.322  0.00  0.00    +0.175 C 
BRANCH  19  20
ATOM     20  O   UNL     1      -3.539  -0.227   0.092  0.00  0.00    -0.236 OA
BRANCH  20  21
ATOM     21  N   UNL     1      -3.995   0.981  -0.455  0.00  0.00    -0.119 NA
BRANCH  21  23
ATOM     22  N   UNL     1      -6.019   0.389   0.688  0.00  0.00    -0.385 N 
ATOM     23  C   UNL     1      -5.228   1.191  -0.099  0.00  0.00    +0.137 C 
ATOM     24  C   UNL     1      -5.861   2.462  -0.617  0.00  0.00    +0.073 C 
ATOM     25  H   UNL     1      -5.660  -0.451   1.053  0.00  0.00    +0.157 HD
ATOM     26  H   UNL     1      -6.946   0.655   0.887  0.00  0.00    +0.157 HD
ENDBRANCH  21  23
ENDBRANCH  20  21
ENDBRANCH  19  20
ENDBRANCH  18  19
ENDBRANCH   1  18
TORSDOF 9
