REMARK  Name = 13846690
REMARK  6 active torsions:
REMARK  status: ('A' for Active; 'I' for Inactive)
REMARK    1  A    between atoms: C_2  and  O_17
REMARK    2  A    between atoms: C_2  and  C_25
REMARK    3  A    between atoms: C_11  and  O_19
REMARK    4  A    between atoms: C_13  and  O_21
REMARK    5  A    between atoms: C_16  and  O_23
REMARK    6  A    between atoms: C_25  and  O_26
REMARK                            x       y       z     vdW  Elec       q    Type
REMARK                         _______ _______ _______ _____ _____    ______ ____
ROOT
ATOM      1  O   UNL     1      -1.125  -1.055  -1.133  0.00  0.00    -0.473 OA
ATOM      2  C   UNL     1       0.132  -2.492   0.416  0.00  0.00    +0.159 C 
ATOM      3  C   UNL     1       0.550  -1.339   1.359  0.00  0.00    +0.060 C 
ATOM      4  C   UNL     1      -1.199  -2.218  -0.305  0.00  0.00    +0.235 C 
ATOM      5  C   UNL     1       1.210  -0.133   0.722  0.00  0.00    -0.016 C 
ATOM      6  C   UNL     1       0.484   0.939   0.153  0.00  0.00    +0.002 C 
ATOM      7  C   UNL     1      -0.990   0.988   0.117  0.00  0.00    +0.034 C 
ATOM      8  C   UNL     1      -1.756   0.002  -0.526  0.00  0.00    +0.142 C 
ATOM      9  C   UNL     1       2.620  -0.089   0.715  0.00  0.00    +0.036 C 
ATOM     10  C   UNL     1       1.208   2.014  -0.408  0.00  0.00    +0.040 C 
ATOM     11  C   UNL     1       3.309   0.984   0.154  0.00  0.00    +0.167 C 
ATOM     12  C   UNL     1      -1.681   2.059   0.712  0.00  0.00    +0.006 C 
ATOM     13  C   UNL     1       2.603   2.036  -0.409  0.00  0.00    +0.167 C 
ATOM     14  C   UNL     1      -3.150   0.096  -0.611  0.00  0.00    +0.073 C 
ATOM     15  C   UNL     1      -3.075   2.146   0.651  0.00  0.00    +0.037 C 
ATOM     16  C   UNL     1      -3.808   1.168  -0.015  0.00  0.00    +0.137 C 
ENDROOT
BRANCH   2  17
ATOM     17  O   UNL     1      -0.083  -3.636   1.261  0.00  0.00    -0.380 OA
ATOM     18  H   UNL     1      -0.776  -3.433   1.909  0.00  0.00    +0.211 HD
ENDBRANCH   2  17
BRANCH  11  19
ATOM     19  O   UNL     1       4.671   0.986   0.164  0.00  0.00    -0.503 OA
ATOM     20  H   UNL     1       5.138   0.270   0.547  0.00  0.00    +0.292 HD
ENDBRANCH  11  19
BRANCH  13  21
ATOM     21  O   UNL     1       3.256   3.093  -0.966  0.00  0.00    -0.503 OA
ATOM     22  H   UNL     1       2.769   3.799  -1.343  0.00  0.00    +0.292 HD
ENDBRANCH  13  21
BRANCH  16  23
ATOM     23  O   UNL     1      -5.164   1.260  -0.084  0.00  0.00    -0.505 OA
ATOM     24  H   UNL     1      -5.656   0.601  -0.533  0.00  0.00    +0.292 HD
ENDBRANCH  16  23
BRANCH   2  25
ATOM     25  C   UNL     1       1.232  -2.873  -0.582  0.00  0.00    +0.168 C 
BRANCH  25  26
ATOM     26  O   UNL     1       0.755  -3.935  -1.384  0.00  0.00    -0.379 OA
ATOM     27  H   UNL     1       1.439  -4.190  -2.023  0.00  0.00    +0.211 HD
ENDBRANCH  25  26
ENDBRANCH   2  25
TORSDOF 6
