REMARK  Name = 13846336
REMARK  6 active torsions:
REMARK  status: ('A' for Active; 'I' for Inactive)
REMARK    1  A    between atoms: N_1  and  C1*_11
REMARK    2  A    between atoms: C3*_12  and  O3*_15
REMARK    3  A    between atoms: C4*_14  and  C5*_17
REMARK    4  A    between atoms: C5*_17  and  O5*_18
REMARK    5  A    between atoms: N_20  and  C_22
REMARK    6  A    between atoms: C_22  and  C_25
REMARK                            x       y       z     vdW  Elec       q    Type
REMARK                         _______ _______ _______ _____ _____    ______ ____
ROOT
ATOM      1  N   UNL     1      -1.122  -0.084  -0.127  0.00  0.00    -0.249 N 
ATOM      2  N   UNL     1       0.612   1.308   0.074  0.00  0.00    -0.242 NA
ATOM      3  N   UNL     1       0.065  -2.194  -0.331  0.00  0.00    -0.228 NA
ATOM      4  N   UNL     1       2.481  -1.869  -0.230  0.00  0.00    -0.228 NA
ATOM      5  C   UNL     1       0.001  -0.862  -0.184  0.00  0.00    +0.152 C 
ATOM      6  C   UNL     1      -0.701   1.213   0.028  0.00  0.00    +0.223 C 
ATOM      7  C   UNL     1       1.063   0.019  -0.057  0.00  0.00    +0.140 C 
ATOM      8  C   UNL     1       2.342  -0.529  -0.084  0.00  0.00    +0.146 C 
ATOM      9  C   UNL     1       1.351  -2.607  -0.342  0.00  0.00    +0.253 C 
ATOM     10  N   UNL     1       3.477   0.291   0.040  0.00  0.00    -0.310 N 
ATOM     11  H   UNL     1       3.346   1.261   0.146  0.00  0.00    +0.149 HD
ENDROOT
BRANCH   1  13
ATOM     12  O4* UNL     1      -3.307   0.463  -0.875  0.00  0.00    -0.335 OA
ATOM     13  C1* UNL     1      -2.507  -0.533  -0.214  0.00  0.00    +0.197 C 
ATOM     14  C3* UNL     1      -4.625  -0.597   0.804  0.00  0.00    +0.144 C 
ATOM     15  C2* UNL     1      -3.164  -0.801   1.133  0.00  0.00    +0.083 C 
ATOM     16  C4* UNL     1      -4.597   0.523  -0.230  0.00  0.00    +0.173 C 
BRANCH  14  17
ATOM     17  O3* UNL     1      -5.122  -1.790   0.202  0.00  0.00    -0.382 OA
ATOM     18  H3* UNL     1      -5.140  -2.502   0.861  0.00  0.00    +0.210 HD
ENDBRANCH  14  17
BRANCH  16  19
ATOM     19  C5* UNL     1      -4.747   1.903   0.395  0.00  0.00    +0.169 C 
BRANCH  19  20
ATOM     20  O5* UNL     1      -4.698   2.875  -0.634  0.00  0.00    -0.379 OA
ATOM     21  H5* UNL     1      -4.793   3.760  -0.248  0.00  0.00    +0.211 HD
ENDBRANCH  19  20
ENDBRANCH  16  19
ENDBRANCH   1  13
BRANCH  10  22
ATOM     22  C   UNL     1       4.816  -0.220   0.019  0.00  0.00    +0.174 C 
BRANCH  22  25
ATOM     23  O   UNL     1       5.478   2.095   0.289  0.00  0.00    -0.273 OA
ATOM     24  N   UNL     1       7.107   0.479   0.153  0.00  0.00    -0.327 N 
ATOM     25  C   UNL     1       5.799   0.916   0.169  0.00  0.00    +0.239 C 
ATOM     26  H   UNL     1       7.844   1.125   0.243  0.00  0.00    +0.145 HD
ATOM     27  H   UNL     1       7.304  -0.481   0.053  0.00  0.00    +0.145 HD
ENDBRANCH  22  25
ENDBRANCH  10  22
TORSDOF 6
