REMARK  Name = 138401579
REMARK  6 active torsions:
REMARK  status: ('A' for Active; 'I' for Inactive)
REMARK    1  A    between atoms: C_3  and  C_21
REMARK    2  A    between atoms: C_5  and  C_23
REMARK    3  A    between atoms: C_7  and  O_18
REMARK    4  A    between atoms: C_10  and  C_27
REMARK    5  A    between atoms: C_23  and  O_24
REMARK    6  A    between atoms: C_27  and  O_28
REMARK                            x       y       z     vdW  Elec       q    Type
REMARK                         _______ _______ _______ _____ _____    ______ ____
ROOT
ATOM      1  C   UNL     1       1.226   0.402  -0.370  0.00  0.00    +0.017 C 
ATOM      2  C   UNL     1       0.749  -0.993  -0.847  0.00  0.00    +0.008 C 
ATOM      3  C   UNL     1      -0.646  -1.194  -0.180  0.00  0.00    +0.059 C 
ATOM      4  C   UNL     1      -1.150   0.259   0.149  0.00  0.00    +0.028 C 
ATOM      5  C   UNL     1      -0.075   1.207  -0.447  0.00  0.00    +0.100 C 
ATOM      6  C   UNL     1       1.899   0.325   1.008  0.00  0.00    +0.032 C 
ATOM      7  C   UNL     1       3.166  -0.453   0.663  0.00  0.00    +0.103 C 
ATOM      8  C   UNL     1       2.390   0.925  -1.237  0.00  0.00    +0.025 C 
ATOM      9  C   UNL     1       1.787  -2.122  -0.703  0.00  0.00    +0.003 C 
ATOM     10  C   UNL     1      -2.608   0.533  -0.314  0.00  0.00    +0.090 C 
ATOM     11  C   UNL     1      -1.593  -1.981  -1.111  0.00  0.00    +0.007 C 
ATOM     12  C   UNL     1       2.797  -1.926   0.433  0.00  0.00    +0.031 C 
ATOM     13  C   UNL     1       3.591   0.245  -0.615  0.00  0.00    -0.020 C 
ATOM     14  C   UNL     1      -2.842   0.154  -1.788  0.00  0.00    +0.011 C 
ATOM     15  C   UNL     1      -2.167  -1.139  -2.244  0.00  0.00    +0.001 C 
ATOM     16  C   UNL     1      -3.035   1.996  -0.100  0.00  0.00    +0.011 C 
ATOM     17  C   UNL     1       4.830   0.293  -1.119  0.00  0.00    -0.007 C 
ENDROOT
BRANCH   7  18
ATOM     18  O   UNL     1       4.133  -0.332   1.689  0.00  0.00    -0.383 OA
ATOM     19  H   UNL     1       3.819  -0.791   2.484  0.00  0.00    +0.211 HD
ENDBRANCH   7  18
BRANCH   3  21
ATOM     20  O   UNL     1      -0.875  -1.575   2.195  0.00  0.00    -0.288 OA
ATOM     21  C   UNL     1      -0.544  -2.003   1.095  0.00  0.00    +0.207 C 
ENDBRANCH   3  21
BRANCH   5  23
ATOM     22  O   UNL     1      -0.240   2.664   1.477  0.00  0.00    -0.250 OA
ATOM     23  C   UNL     1       0.031   2.507   0.296  0.00  0.00    +0.313 C 
BRANCH  23  24
ATOM     24  O   UNL     1       0.470   3.493  -0.525  0.00  0.00    -0.480 OA
ATOM     25  H   UNL     1       0.660   3.305  -1.423  0.00  0.00    +0.295 HD
ENDBRANCH  23  24
ENDBRANCH   5  23
BRANCH  10  27
ATOM     26  O   UNL     1      -4.369  -1.075   0.159  0.00  0.00    -0.250 OA
ATOM     27  C   UNL     1      -3.552  -0.261   0.564  0.00  0.00    +0.313 C 
BRANCH  27  28
ATOM     28  O   UNL     1      -3.371   0.054   1.870  0.00  0.00    -0.480 OA
ATOM     29  H   UNL     1      -2.726   0.688   2.114  0.00  0.00    +0.295 HD
ENDBRANCH  27  28
ENDBRANCH  10  27
TORSDOF 6
