REMARK  Name = 138454441
REMARK  12 active torsions:
REMARK  status: ('A' for Active; 'I' for Inactive)
REMARK    1  A    between atoms: C_1  and  C_4
REMARK    2  A    between atoms: C_1  and  N_13
REMARK    3  A    between atoms: C_1  and  C_17
REMARK    4  A    between atoms: N_3  and  N_6
REMARK    5  A    between atoms: N_6  and  C_7
REMARK    6  A    between atoms: N_6  and  C_10
REMARK    7  A    between atoms: C_7  and  C_9
REMARK    8  A    between atoms: C_10  and  C_12
REMARK    9  A    between atoms: C_17  and  C_18
REMARK   10  A    between atoms: C_18  and  O_19
REMARK   11  A    between atoms: O_19  and  N_20
REMARK   12  A    between atoms: N_20  and  C_22
REMARK                            x       y       z     vdW  Elec       q    Type
REMARK                         _______ _______ _______ _____ _____    ______ ____
ROOT
ATOM      1  C   UNL     1       0.166   2.012   0.342  0.00  0.00    +0.017 C 
ENDROOT
BRANCH   1   4
ATOM      2  O   UNL     1       1.228   1.060  -1.623  0.00  0.00    -0.276 OA
ATOM      3  N   UNL     1       1.466  -0.021   0.418  0.00  0.00    -0.248 N 
ATOM      4  C   UNL     1       1.000   0.984  -0.417  0.00  0.00    +0.215 C 
ATOM      5  H   UNL     1       1.243  -0.017   1.377  0.00  0.00    +0.169 HD
BRANCH   3   6
ATOM      6  N   UNL     1       2.252  -1.034  -0.120  0.00  0.00    -0.203 NA
BRANCH   6   7
ATOM      7  C   UNL     1       1.581  -2.323   0.036  0.00  0.00    +0.109 C 
BRANCH   7   9
ATOM      8 CL   UNL     1      -0.597  -3.858  -0.470  0.00  0.00    -0.112 Cl
ATOM      9  C   UNL     1       0.235  -2.298  -0.672  0.00  0.00    +0.114 C 
ENDBRANCH   7   9
ENDBRANCH   6   7
BRANCH   6  10
ATOM     10  C   UNL     1       3.560  -1.048   0.532  0.00  0.00    +0.109 C 
BRANCH  10  12
ATOM     11 CL   UNL     1       6.026   0.057   0.764  0.00  0.00    -0.112 Cl
ATOM     12  C   UNL     1       4.425   0.078  -0.012  0.00  0.00    +0.114 C 
ENDBRANCH  10  12
ENDBRANCH   6  10
ENDBRANCH   3   6
ENDBRANCH   1   4
BRANCH   1  13
ATOM     13  N   UNL     1       1.066   3.019   0.898  0.00  0.00    +0.387 N 
ATOM     14  H   UNL     1       0.523   3.715   1.410  0.00  0.00    -0.089 HD
ATOM     15  H   UNL     1       1.576   3.475   0.141  0.00  0.00    -0.089 HD
ATOM     16  H   UNL     1       1.728   2.571   1.532  0.00  0.00    -0.089 HD
ENDBRANCH   1  13
BRANCH   1  17
ATOM     17  C   UNL     1      -0.910   2.643  -0.552  0.00  0.00    +0.022 C 
BRANCH  17  18
ATOM     18  C   UNL     1      -1.952   1.663  -1.086  0.00  0.00    +0.175 C 
BRANCH  18  19
ATOM     19  O   UNL     1      -2.603   1.046   0.017  0.00  0.00    -0.236 OA
BRANCH  19  20
ATOM     20  N   UNL     1      -3.556   0.150  -0.488  0.00  0.00    -0.119 NA
BRANCH  20  22
ATOM     21  N   UNL     1      -3.974  -0.255   1.839  0.00  0.00    -0.385 N 
ATOM     22  C   UNL     1      -4.176  -0.437   0.492  0.00  0.00    +0.137 C 
ATOM     23  C   UNL     1      -5.238  -1.440   0.100  0.00  0.00    +0.073 C 
ATOM     24  H   UNL     1      -3.295   0.386   2.153  0.00  0.00    +0.157 HD
ATOM     25  H   UNL     1      -4.508  -0.764   2.491  0.00  0.00    +0.157 HD
ENDBRANCH  20  22
ENDBRANCH  19  20
ENDBRANCH  18  19
ENDBRANCH  17  18
ENDBRANCH   1  17
TORSDOF 12
