13847992
  -OEChem-03292013303D

 39 42  0     0  0  0  0  0  0999 V2000
   -0.4255    2.6341    0.0610 O   0  0  0  0  0  0  0  0  0  0  0  0
   -4.8729   -0.5948   -0.2985 O   0  0  0  0  0  0  0  0  0  0  0  0
   -5.1300    2.1444    0.0897 O   0  0  0  0  0  0  0  0  0  0  0  0
    4.8274    0.6362   -0.3280 O   0  0  0  0  0  0  0  0  0  0  0  0
    4.2262    3.3028    0.0570 O   0  0  0  0  0  0  0  0  0  0  0  0
    1.0870   -2.7542    2.7542 O   0  0  0  0  0  0  0  0  0  0  0  0
   -0.3453   -1.0468    2.3068 O   0  0  0  0  0  0  0  0  0  0  0  0
    0.0239   -0.1665   -0.3398 C   0  0  0  0  0  0  0  0  0  0  0  0
   -1.3404    0.4118   -0.2310 C   0  0  0  0  0  0  0  0  0  0  0  0
    1.0806    0.6862   -0.2428 C   0  0  0  0  0  0  0  0  0  0  0  0
    0.2624   -1.6001   -0.5446 C   0  0  0  0  0  0  0  0  0  0  0  0
   -1.4937    1.7842   -0.0358 C   0  0  0  0  0  0  0  0  0  0  0  0
    0.8617    2.1260   -0.0372 C   0  0  0  0  0  0  0  0  0  0  0  0
   -2.5001   -0.3763   -0.3174 C   0  0  0  0  0  0  0  0  0  0  0  0
    2.4731    0.2229   -0.3363 C   0  0  0  0  0  0  0  0  0  0  0  0
    0.4048   -2.4662    0.5329 C   0  0  0  0  0  0  0  0  0  0  0  0
   -2.7611    2.3655    0.0716 C   0  0  0  0  0  0  0  0  0  0  0  0
    1.8901    2.9802    0.0604 C   0  0  0  0  0  0  0  0  0  0  0  0
    0.3439   -2.0714   -1.8499 C   0  0  0  0  0  0  0  0  0  0  0  0
   -3.7693    0.1996   -0.2108 C   0  0  0  0  0  0  0  0  0  0  0  0
   -3.8998    1.5708   -0.0162 C   0  0  0  0  0  0  0  0  0  0  0  0
    3.5189    1.0586   -0.2417 C   0  0  0  0  0  0  0  0  0  0  0  0
    3.2931    2.5119   -0.0343 C   0  0  0  0  0  0  0  0  0  0  0  0
    0.6323   -3.8230    0.3023 C   0  0  0  0  0  0  0  0  0  0  0  0
    0.5712   -3.4281   -2.0805 C   0  0  0  0  0  0  0  0  0  0  0  0
    0.7155   -4.3038   -1.0045 C   0  0  0  0  0  0  0  0  0  0  0  0
    0.3258   -2.0038    1.9136 C   0  0  0  0  0  0  0  0  0  0  0  0
   -2.4274   -1.4509   -0.4685 H   0  0  0  0  0  0  0  0  0  0  0  0
    2.6868   -0.8301   -0.4869 H   0  0  0  0  0  0  0  0  0  0  0  0
   -2.8575    3.4378    0.2237 H   0  0  0  0  0  0  0  0  0  0  0  0
    1.7311    4.0426    0.2121 H   0  0  0  0  0  0  0  0  0  0  0  0
    0.2331   -1.4025   -2.6998 H   0  0  0  0  0  0  0  0  0  0  0  0
    0.7351   -4.5350    1.1170 H   0  0  0  0  0  0  0  0  0  0  0  0
    0.6350   -3.8029   -3.0979 H   0  0  0  0  0  0  0  0  0  0  0  0
    0.8893   -5.3608   -1.1846 H   0  0  0  0  0  0  0  0  0  0  0  0
   -4.5921   -1.5162   -0.4330 H   0  0  0  0  0  0  0  0  0  0  0  0
   -5.8017    1.4455    0.0058 H   0  0  0  0  0  0  0  0  0  0  0  0
    5.3969    1.4189   -0.2308 H   0  0  0  0  0  0  0  0  0  0  0  0
    1.0285   -2.4373    3.6807 H   0  0  0  0  0  0  0  0  0  0  0  0
  1 12  1  0  0  0  0
  1 13  1  0  0  0  0
  2 20  1  0  0  0  0
  2 36  1  0  0  0  0
  3 21  1  0  0  0  0
  3 37  1  0  0  0  0
  4 22  1  0  0  0  0
  4 38  1  0  0  0  0
  5 23  2  0  0  0  0
  6 27  1  0  0  0  0
  6 39  1  0  0  0  0
  7 27  2  0  0  0  0
  8  9  1  0  0  0  0
  8 10  2  0  0  0  0
  8 11  1  0  0  0  0
  9 12  1  0  0  0  0
  9 14  2  0  0  0  0
 10 13  1  0  0  0  0
 10 15  1  0  0  0  0
 11 16  1  0  0  0  0
 11 19  2  0  0  0  0
 12 17  2  0  0  0  0
 13 18  2  0  0  0  0
 14 20  1  0  0  0  0
 14 28  1  0  0  0  0
 15 22  2  0  0  0  0
 15 29  1  0  0  0  0
 16 24  2  0  0  0  0
 16 27  1  0  0  0  0
 17 21  1  0  0  0  0
 17 30  1  0  0  0  0
 18 23  1  0  0  0  0
 18 31  1  0  0  0  0
 19 25  1  0  0  0  0
 19 32  1  0  0  0  0
 20 21  2  0  0  0  0
 22 23  1  0  0  0  0
 24 26  1  0  0  0  0
 24 33  1  0  0  0  0
 25 26  2  0  0  0  0
 25 34  1  0  0  0  0
 26 35  1  0  0  0  0
M  END
> <PUBCHEM_COMPOUND_CID>
13847992

> <PUBCHEM_CONFORMER_RMSD>
0.6

> <PUBCHEM_CONFORMER_DIVERSEORDER>
1
2

> <PUBCHEM_MMFF94_PARTIAL_CHARGES>
38
1 -0.16
11 0.03
12 0.08
13 0.08
14 -0.15
15 -0.15
16 0.09
17 -0.15
18 -0.14
19 -0.15
2 -0.53
20 0.08
21 0.08
22 0.09
23 0.54
24 -0.15
25 -0.15
26 -0.15
27 0.63
28 0.15
29 0.15
3 -0.53
30 0.15
31 0.15
32 0.15
33 0.15
34 0.15
35 0.15
36 0.45
37 0.45
38 0.45
39 0.5
4 -0.53
5 -0.57
6 -0.65
7 -0.57
8 -0.06
9 0.03

> <PUBCHEM_EFFECTIVE_ROTOR_COUNT>
2

> <PUBCHEM_PHARMACOPHORE_FEATURES>
12
1 1 acceptor
1 2 donor
1 3 donor
1 4 donor
1 5 acceptor
1 6 acceptor
1 7 acceptor
3 6 7 27 anion
6 1 8 9 10 12 13 rings
6 10 13 15 18 22 23 rings
6 11 16 19 24 25 26 rings
6 9 12 14 17 20 21 rings

> <PUBCHEM_HEAVY_ATOM_COUNT>
27

> <PUBCHEM_ATOM_DEF_STEREO_COUNT>
0

> <PUBCHEM_ATOM_UDEF_STEREO_COUNT>
0

> <PUBCHEM_BOND_DEF_STEREO_COUNT>
0

> <PUBCHEM_BOND_UDEF_STEREO_COUNT>
0

> <PUBCHEM_ISOTOPIC_ATOM_COUNT>
0

> <PUBCHEM_COMPONENT_COUNT>
1

> <PUBCHEM_CACTVS_TAUTO_COUNT>
28

> <PUBCHEM_CONFORMER_ID>
00D34DB800000001

> <PUBCHEM_MMFF94_ENERGY>
93.4585

> <PUBCHEM_FEATURE_SELFOVERLAP>
61.015

> <PUBCHEM_SHAPE_FINGERPRINT>
10411042 1 17475800849342393239
107951 10 17968674795135650774
1100329 8 18261664883761778490
11421498 54 17489042512952424091
11488393 25 18199769001857703207
12035759 4 18056167350420508095
12156800 1 17482798536104043890
12553582 1 17329434943868636127
12788726 201 17688015827434687434
13004483 165 17406546387195760958
13009979 54 16983220773911718921
13140716 1 18412826884567182137
138480 1 17908426857253048701
14790565 3 18340773731599492677
14844126 61 17765141066760710488
14955137 171 18195797476053681794
15664445 248 17763183536425757483
16087824 20 17836646697662366959
19591789 44 18340768233903391909
19930381 70 18198065785652970790
20028762 73 18130223890905145735
20197701 30 18336538421303703949
20567600 347 18335708238616780007
20600515 1 17040048963257496545
20905425 154 18120369848373797860
21421861 104 18046913675777714081
21524375 3 18335700580568843372
23366157 5 18118978983339294821
23419403 2 17614615454589482955
23558518 356 18046624783333927980
23559900 14 17981884147374313415
23598288 3 17611765778617706692
23728640 28 18268143339743239314
298252 57 18342456001526907442
3091708 16 8973421733702840053
3380486 145 17040643253866487899
3383291 50 18412546497119264366
3411729 13 18264210214625496569
34934 24 18340204077734489069
38695281 34 18342454846344099015
394222 165 18335692836711050249
404807 78 16811484046241450359
59755656 215 18266183824700879613
6138700 20 18267591209018262694
7364860 26 18196655090374270285
81228 2 17544457013596152517
9709674 26 18054231209355310076
9841814 1 17829612764784696217

> <PUBCHEM_SHAPE_MULTIPOLES>
514.56
6.6
5.29
1.51
4.89
3.19
0.84
-6.86
-0.6
-3.57
-0.56
-0.51
2.04
-0.13

> <PUBCHEM_SHAPE_SELFOVERLAP>
1167.44

> <PUBCHEM_SHAPE_VOLUME>
266

> <PUBCHEM_COORDINATE_TYPE>
2
5
10

$$$$
