REMARK  Name = 13847992
REMARK  6 active torsions:
REMARK  status: ('A' for Active; 'I' for Inactive)
REMARK    1  A    between atoms: C_3  and  C_16
REMARK    2  A    between atoms: C_12  and  O_26
REMARK    3  A    between atoms: C_13  and  O_28
REMARK    4  A    between atoms: C_14  and  O_30
REMARK    5  A    between atoms: C_17  and  C_23
REMARK    6  A    between atoms: C_23  and  O_24
REMARK                            x       y       z     vdW  Elec       q    Type
REMARK                         _______ _______ _______ _____ _____    ______ ____
ROOT
ATOM      1  O   UNL     1      -0.425   2.634   0.061  0.00  0.00    -0.458 OA
ATOM      2  O   UNL     1       4.226   3.303   0.057  0.00  0.00    -0.288 OA
ATOM      3  C   UNL     1       0.024  -0.167  -0.340  0.00  0.00    +0.002 C 
ATOM      4  C   UNL     1      -1.340   0.412  -0.231  0.00  0.00    +0.020 C 
ATOM      5  C   UNL     1       1.081   0.686  -0.243  0.00  0.00    +0.034 C 
ATOM      6  C   UNL     1      -1.494   1.784  -0.036  0.00  0.00    +0.144 C 
ATOM      7  C   UNL     1       0.862   2.126  -0.037  0.00  0.00    +0.131 C 
ATOM      8  C   UNL     1      -2.500  -0.376  -0.317  0.00  0.00    +0.096 C 
ATOM      9  C   UNL     1       2.473   0.223  -0.336  0.00  0.00    +0.042 C 
ATOM     10  C   UNL     1      -2.761   2.365   0.072  0.00  0.00    +0.077 C 
ATOM     11  C   UNL     1       1.890   2.980   0.060  0.00  0.00    +0.137 C 
ATOM     12  C   UNL     1      -3.769   0.200  -0.211  0.00  0.00    +0.149 C 
ATOM     13  C   UNL     1      -3.900   1.571  -0.016  0.00  0.00    +0.167 C 
ATOM     14  C   UNL     1       3.519   1.059  -0.242  0.00  0.00    +0.169 C 
ATOM     15  C   UNL     1       3.293   2.512  -0.034  0.00  0.00    +0.214 C 
ENDROOT
BRANCH   3  16
ATOM     16  C   UNL     1       0.262  -1.600  -0.545  0.00  0.00    +0.006 C 
ATOM     17  C   UNL     1       0.405  -2.466   0.533  0.00  0.00    +0.075 C 
ATOM     18  C   UNL     1       0.344  -2.071  -1.850  0.00  0.00    +0.000 C 
ATOM     19  C   UNL     1       0.632  -3.823   0.302  0.00  0.00    +0.006 C 
ATOM     20  C   UNL     1       0.571  -3.428  -2.080  0.00  0.00    +0.000 C 
ATOM     21  C   UNL     1       0.716  -4.304  -1.004  0.00  0.00    +0.000 C 
BRANCH  17  23
ATOM     22  O   UNL     1      -0.345  -1.047   2.307  0.00  0.00    -0.245 OA
ATOM     23  C   UNL     1       0.326  -2.004   1.914  0.00  0.00    +0.338 C 
BRANCH  23  24
ATOM     24  O   UNL     1       1.087  -2.754   2.754  0.00  0.00    -0.477 OA
ATOM     25  H   UNL     1       1.584  -3.474   2.419  0.00  0.00    +0.295 HD
ENDBRANCH  23  24
ENDBRANCH  17  23
ENDBRANCH   3  16
BRANCH  12  26
ATOM     26  O   UNL     1      -4.873  -0.595  -0.298  0.00  0.00    -0.506 OA
ATOM     27  H   UNL     1      -4.777  -1.518  -0.430  0.00  0.00    +0.292 HD
ENDBRANCH  12  26
BRANCH  13  28
ATOM     28  O   UNL     1      -5.130   2.144   0.090  0.00  0.00    -0.503 OA
ATOM     29  H   UNL     1      -5.206   3.069   0.221  0.00  0.00    +0.292 HD
ENDBRANCH  13  28
BRANCH  14  30
ATOM     30  O   UNL     1       4.827   0.636  -0.328  0.00  0.00    -0.503 OA
ATOM     31  H   UNL     1       5.019  -0.272  -0.459  0.00  0.00    +0.292 HD
ENDBRANCH  14  30
TORSDOF 6
