13846690
  -OEChem-03292013303D

 38 40  0     1  0  0  0  0  0999 V2000
   -1.1251   -1.0554   -1.1334 O   0  0  0  0  0  0  0  0  0  0  0  0
   -0.0834   -3.6359    1.2606 O   0  0  0  0  0  0  0  0  0  0  0  0
    0.7555   -3.9352   -1.3837 O   0  0  0  0  0  0  0  0  0  0  0  0
    4.6709    0.9863    0.1641 O   0  0  0  0  0  0  0  0  0  0  0  0
    3.2561    3.0931   -0.9655 O   0  0  0  0  0  0  0  0  0  0  0  0
   -5.1638    1.2599   -0.0844 O   0  0  0  0  0  0  0  0  0  0  0  0
    0.1320   -2.4924    0.4157 C   0  0  2  0  0  0  0  0  0  0  0  0
    0.5502   -1.3391    1.3595 C   0  0  0  0  0  0  0  0  0  0  0  0
   -1.1990   -2.2183   -0.3048 C   0  0  0  0  0  0  0  0  0  0  0  0
    1.2103   -0.1326    0.7219 C   0  0  0  0  0  0  0  0  0  0  0  0
    1.2322   -2.8729   -0.5821 C   0  0  0  0  0  0  0  0  0  0  0  0
    0.4843    0.9394    0.1533 C   0  0  0  0  0  0  0  0  0  0  0  0
   -0.9900    0.9882    0.1166 C   0  0  0  0  0  0  0  0  0  0  0  0
   -1.7559    0.0021   -0.5260 C   0  0  0  0  0  0  0  0  0  0  0  0
    2.6199   -0.0891    0.7148 C   0  0  0  0  0  0  0  0  0  0  0  0
    1.2079    2.0135   -0.4085 C   0  0  0  0  0  0  0  0  0  0  0  0
    3.3094    0.9836    0.1542 C   0  0  0  0  0  0  0  0  0  0  0  0
   -1.6812    2.0591    0.7121 C   0  0  0  0  0  0  0  0  0  0  0  0
    2.6025    2.0360   -0.4090 C   0  0  0  0  0  0  0  0  0  0  0  0
   -3.1502    0.0959   -0.6107 C   0  0  0  0  0  0  0  0  0  0  0  0
   -3.0750    2.1459    0.6506 C   0  0  0  0  0  0  0  0  0  0  0  0
   -3.8080    1.1676   -0.0153 C   0  0  0  0  0  0  0  0  0  0  0  0
    1.2372   -1.7430    2.1184 H   0  0  0  0  0  0  0  0  0  0  0  0
   -0.3099   -1.0132    1.9607 H   0  0  0  0  0  0  0  0  0  0  0  0
   -1.4811   -3.0614   -0.9470 H   0  0  0  0  0  0  0  0  0  0  0  0
   -2.0149   -2.1618    0.4319 H   0  0  0  0  0  0  0  0  0  0  0  0
    2.1381   -3.2156   -0.0711 H   0  0  0  0  0  0  0  0  0  0  0  0
    1.4921   -2.0483   -1.2514 H   0  0  0  0  0  0  0  0  0  0  0  0
    3.1810   -0.9125    1.1536 H   0  0  0  0  0  0  0  0  0  0  0  0
   -0.7717   -3.4065    1.9083 H   0  0  0  0  0  0  0  0  0  0  0  0
    0.6748    2.8484   -0.8623 H   0  0  0  0  0  0  0  0  0  0  0  0
   -1.1361    2.8446    1.2324 H   0  0  0  0  0  0  0  0  0  0  0  0
   -3.7121   -0.6718   -1.1368 H   0  0  0  0  0  0  0  0  0  0  0  0
    0.5483   -4.6798   -0.7934 H   0  0  0  0  0  0  0  0  0  0  0  0
   -3.5803    2.9860    1.1195 H   0  0  0  0  0  0  0  0  0  0  0  0
    4.9873    0.1742    0.5957 H   0  0  0  0  0  0  0  0  0  0  0  0
    4.2133    2.9420   -0.8779 H   0  0  0  0  0  0  0  0  0  0  0  0
   -5.5068    0.4977   -0.5818 H   0  0  0  0  0  0  0  0  0  0  0  0
  1  9  1  0  0  0  0
  1 14  1  0  0  0  0
  2  7  1  0  0  0  0
  2 30  1  0  0  0  0
  3 11  1  0  0  0  0
  3 34  1  0  0  0  0
  4 17  1  0  0  0  0
  4 36  1  0  0  0  0
  5 19  1  0  0  0  0
  5 37  1  0  0  0  0
  6 22  1  0  0  0  0
  6 38  1  0  0  0  0
  7  8  1  0  0  0  0
  7  9  1  0  0  0  0
  7 11  1  0  0  0  0
  8 10  1  0  0  0  0
  8 23  1  0  0  0  0
  8 24  1  0  0  0  0
  9 25  1  0  0  0  0
  9 26  1  0  0  0  0
 10 12  1  0  0  0  0
 10 15  2  0  0  0  0
 11 27  1  0  0  0  0
 11 28  1  0  0  0  0
 12 13  1  0  0  0  0
 12 16  2  0  0  0  0
 13 14  2  0  0  0  0
 13 18  1  0  0  0  0
 14 20  1  0  0  0  0
 15 17  1  0  0  0  0
 15 29  1  0  0  0  0
 16 19  1  0  0  0  0
 16 31  1  0  0  0  0
 17 19  2  0  0  0  0
 18 21  2  0  0  0  0
 18 32  1  0  0  0  0
 20 22  2  0  0  0  0
 20 33  1  0  0  0  0
 21 22  1  0  0  0  0
 21 35  1  0  0  0  0
M  END
> <PUBCHEM_COMPOUND_CID>
13846690

> <PUBCHEM_CONFORMER_RMSD>
0.6

> <PUBCHEM_CONFORMER_DIVERSEORDER>
2
3
5
4
1

> <PUBCHEM_MMFF94_PARTIAL_CHARGES>
30
1 -0.36
10 -0.14
11 0.28
14 0.08
15 -0.15
16 -0.15
17 0.08
18 -0.15
19 0.08
2 -0.68
20 -0.15
21 -0.15
22 0.08
29 0.15
3 -0.68
30 0.4
31 0.15
32 0.15
33 0.15
34 0.4
35 0.15
36 0.45
37 0.45
38 0.45
4 -0.53
5 -0.53
6 -0.53
7 0.28
8 0.14
9 0.28

> <PUBCHEM_EFFECTIVE_ROTOR_COUNT>
1.8

> <PUBCHEM_PHARMACOPHORE_FEATURES>
10
1 1 acceptor
1 2 acceptor
1 2 donor
1 3 acceptor
1 3 donor
1 4 donor
1 5 donor
1 6 donor
6 10 12 15 16 17 19 rings
6 13 14 18 20 21 22 rings

> <PUBCHEM_HEAVY_ATOM_COUNT>
22

> <PUBCHEM_ATOM_DEF_STEREO_COUNT>
1

> <PUBCHEM_ATOM_UDEF_STEREO_COUNT>
0

> <PUBCHEM_BOND_DEF_STEREO_COUNT>
0

> <PUBCHEM_BOND_UDEF_STEREO_COUNT>
0

> <PUBCHEM_ISOTOPIC_ATOM_COUNT>
0

> <PUBCHEM_COMPONENT_COUNT>
1

> <PUBCHEM_CACTVS_TAUTO_COUNT>
85

> <PUBCHEM_CONFORMER_ID>
00D348A200000002

> <PUBCHEM_MMFF94_ENERGY>
84.5442

> <PUBCHEM_FEATURE_SELFOVERLAP>
50.76

> <PUBCHEM_SHAPE_FINGERPRINT>
10090160 65 18335695040715100637
10382601 240 18191024499833961594
10411042 1 17472694724694047539
104564 63 17831867115371241458
10948715 1 18335702779644716369
10967382 1 18339077090588685401
11582403 64 13627531282922715431
12054548 360 17185882692518648678
12173636 292 18268423714644118829
12422481 6 17620163479105995770
12553582 1 17185034964969675867
12592029 89 18409733920019527753
12788726 201 17832137604027454442
13009979 54 17198263270962442699
13027679 85 17255967195792104047
13140716 1 18337659901694168737
13836976 161 18334856112894968133
138480 1 17834677093382300342
14081887 123 17550094210028524904
14223421 5 18191307074818470737
14787075 74 18337669849593014235
14790565 3 18411707612190782529
14955137 171 16905285164873396227
15309172 13 18334576845457659497
15490181 8 18410295808810013186
15906896 17 18122061163381986622
16752209 62 18196925797699404966
16945 1 18190738639933219625
1813 80 17620756085344429767
19591789 44 18195808703050330731
20157964 124 18191014609558955293
20510252 161 18125443265586119129
20600515 1 16476847208793367622
20645476 183 18191592054087770013
20645477 70 18264200310763065501
20691752 17 17899992538396268921
20739085 24 18117558431833797888
20775438 99 15899212762309320127
21524375 3 18335698368687066136
2255824 54 18194684761453610563
2334 1 18193828473649519353
23352939 185 17554897563966029078
23366157 5 18118974581208520343
23419403 2 17541434168289544635
23559900 14 17981881944214280853
23598288 3 18048315841013415538
23728640 28 18268986664982486450
25147074 1 17751914977214103328
298252 57 18272649073309979466
3060560 45 18335138657402801612
3091708 16 9336523315430092299
352729 6 18338242664300181704
394222 165 18186790400867624673
404807 14 15690998817241747854
4340502 62 18041005029682084777
474 4 18335421244612608993
6138700 20 18195533580689544806
7364860 26 18198059175223197265
81228 2 17615111622233276297
81539 233 18334854970544164301
8272917 22 18265333915709387793
90525 40 18410852195958304581

> <PUBCHEM_SHAPE_MULTIPOLES>
417.53
6.28
4.15
1.06
2.82
3.61
0.05
-5.61
-0.31
-1.97
-0.6
-0.15
0.48
-0.67

> <PUBCHEM_SHAPE_SELFOVERLAP>
917.634

> <PUBCHEM_SHAPE_VOLUME>
223.8

> <PUBCHEM_COORDINATE_TYPE>
2
5
10

$$$$
