138401579
  -OEChem-03292013293D

 52 55  0     1  0  0  0  0  0999 V2000
    4.1325   -0.3320    1.6893 O   0  0  0  0  0  0  0  0  0  0  0  0
    0.4698    3.4925   -0.5247 O   0  0  0  0  0  0  0  0  0  0  0  0
   -0.8748   -1.5748    2.1953 O   0  0  0  0  0  0  0  0  0  0  0  0
   -0.2399    2.6638    1.4767 O   0  0  0  0  0  0  0  0  0  0  0  0
   -3.3711    0.0536    1.8697 O   0  0  0  0  0  0  0  0  0  0  0  0
   -4.3694   -1.0749    0.1592 O   0  0  0  0  0  0  0  0  0  0  0  0
    1.2259    0.4023   -0.3699 C   0  0  1  0  0  0  0  0  0  0  0  0
    0.7488   -0.9930   -0.8468 C   0  0  2  0  0  0  0  0  0  0  0  0
   -0.6463   -1.1944   -0.1801 C   0  0  1  0  0  0  0  0  0  0  0  0
   -1.1501    0.2588    0.1493 C   0  0  1  0  0  0  0  0  0  0  0  0
   -0.0750    1.2074   -0.4471 C   0  0  1  0  0  0  0  0  0  0  0  0
    1.8995    0.3251    1.0082 C   0  0  0  0  0  0  0  0  0  0  0  0
    3.1663   -0.4530    0.6629 C   0  0  2  0  0  0  0  0  0  0  0  0
    2.3899    0.9250   -1.2366 C   0  0  0  0  0  0  0  0  0  0  0  0
    1.7868   -2.1221   -0.7028 C   0  0  0  0  0  0  0  0  0  0  0  0
   -2.6083    0.5333   -0.3139 C   0  0  2  0  0  0  0  0  0  0  0  0
   -1.5935   -1.9812   -1.1110 C   0  0  0  0  0  0  0  0  0  0  0  0
    2.7970   -1.9262    0.4326 C   0  0  0  0  0  0  0  0  0  0  0  0
    3.5915    0.2446   -0.6145 C   0  0  0  0  0  0  0  0  0  0  0  0
   -2.8423    0.1537   -1.7876 C   0  0  0  0  0  0  0  0  0  0  0  0
   -2.1667   -1.1395   -2.2437 C   0  0  0  0  0  0  0  0  0  0  0  0
   -0.5439   -2.0030    1.0946 C   0  0  0  0  0  0  0  0  0  0  0  0
    0.0313    2.5066    0.2956 C   0  0  0  0  0  0  0  0  0  0  0  0
   -3.0353    1.9959   -0.0996 C   0  0  0  0  0  0  0  0  0  0  0  0
   -3.5522   -0.2613    0.5638 C   0  0  0  0  0  0  0  0  0  0  0  0
    4.8296    0.2928   -1.1188 C   0  0  0  0  0  0  0  0  0  0  0  0
    0.5717   -0.9089   -1.9288 H   0  0  0  0  0  0  0  0  0  0  0  0
   -1.1164    0.4240    1.2314 H   0  0  0  0  0  0  0  0  0  0  0  0
   -0.3245    1.4215   -1.4944 H   0  0  0  0  0  0  0  0  0  0  0  0
    1.3071   -0.1686    1.7823 H   0  0  0  0  0  0  0  0  0  0  0  0
    2.1563    1.3162    1.4064 H   0  0  0  0  0  0  0  0  0  0  0  0
    2.5051    2.0098   -1.1451 H   0  0  0  0  0  0  0  0  0  0  0  0
    2.2723    0.6660   -2.2937 H   0  0  0  0  0  0  0  0  0  0  0  0
    2.3641   -2.1507   -1.6383 H   0  0  0  0  0  0  0  0  0  0  0  0
    1.3180   -3.1096   -0.6423 H   0  0  0  0  0  0  0  0  0  0  0  0
   -2.4121   -2.4367   -0.5420 H   0  0  0  0  0  0  0  0  0  0  0  0
   -1.0578   -2.8355   -1.5465 H   0  0  0  0  0  0  0  0  0  0  0  0
    2.3878   -2.3436    1.3619 H   0  0  0  0  0  0  0  0  0  0  0  0
    3.6994   -2.5171    0.2288 H   0  0  0  0  0  0  0  0  0  0  0  0
   -2.4799    0.9603   -2.4393 H   0  0  0  0  0  0  0  0  0  0  0  0
   -3.9174    0.0871   -2.0029 H   0  0  0  0  0  0  0  0  0  0  0  0
   -1.3730   -0.8905   -2.9579 H   0  0  0  0  0  0  0  0  0  0  0  0
   -2.8865   -1.7425   -2.8110 H   0  0  0  0  0  0  0  0  0  0  0  0
   -0.1840   -3.0405    0.9946 H   0  0  0  0  0  0  0  0  0  0  0  0
   -2.5112    2.6739   -0.7813 H   0  0  0  0  0  0  0  0  0  0  0  0
   -2.8509    2.3396    0.9239 H   0  0  0  0  0  0  0  0  0  0  0  0
   -4.1088    2.1236   -0.2886 H   0  0  0  0  0  0  0  0  0  0  0  0
    3.7449   -0.6871    2.5074 H   0  0  0  0  0  0  0  0  0  0  0  0
    5.6570   -0.2068   -0.6270 H   0  0  0  0  0  0  0  0  0  0  0  0
    5.0369    0.8310   -2.0374 H   0  0  0  0  0  0  0  0  0  0  0  0
    0.5459    4.3512   -0.0568 H   0  0  0  0  0  0  0  0  0  0  0  0
   -3.9738   -0.4522    2.4554 H   0  0  0  0  0  0  0  0  0  0  0  0
  1 13  1  0  0  0  0
  1 48  1  0  0  0  0
  2 23  1  0  0  0  0
  2 51  1  0  0  0  0
  3 22  2  0  0  0  0
  4 23  2  0  0  0  0
  5 25  1  0  0  0  0
  5 52  1  0  0  0  0
  6 25  2  0  0  0  0
  7  8  1  0  0  0  0
  7 11  1  0  0  0  0
  7 12  1  0  0  0  0
  7 14  1  0  0  0  0
  8  9  1  0  0  0  0
  8 15  1  0  0  0  0
  8 27  1  0  0  0  0
  9 10  1  0  0  0  0
  9 17  1  0  0  0  0
  9 22  1  0  0  0  0
 10 11  1  0  0  0  0
 10 16  1  0  0  0  0
 10 28  1  0  0  0  0
 11 23  1  0  0  0  0
 11 29  1  0  0  0  0
 12 13  1  0  0  0  0
 12 30  1  0  0  0  0
 12 31  1  0  0  0  0
 13 18  1  0  0  0  0
 13 19  1  0  0  0  0
 14 19  1  0  0  0  0
 14 32  1  0  0  0  0
 14 33  1  0  0  0  0
 15 18  1  0  0  0  0
 15 34  1  0  0  0  0
 15 35  1  0  0  0  0
 16 20  1  0  0  0  0
 16 24  1  0  0  0  0
 16 25  1  0  0  0  0
 17 21  1  0  0  0  0
 17 36  1  0  0  0  0
 17 37  1  0  0  0  0
 18 38  1  0  0  0  0
 18 39  1  0  0  0  0
 19 26  2  0  0  0  0
 20 21  1  0  0  0  0
 20 40  1  0  0  0  0
 20 41  1  0  0  0  0
 21 42  1  0  0  0  0
 21 43  1  0  0  0  0
 22 44  1  0  0  0  0
 24 45  1  0  0  0  0
 24 46  1  0  0  0  0
 24 47  1  0  0  0  0
 26 49  1  0  0  0  0
 26 50  1  0  0  0  0
M  END
> <PUBCHEM_COMPOUND_CID>
138401579

> <PUBCHEM_CONFORMER_RMSD>
0.8

> <PUBCHEM_CONFORMER_DIVERSEORDER>
1
6
4
7
5
3
2

> <PUBCHEM_MMFF94_PARTIAL_CHARGES>
22
1 -0.68
11 0.06
13 0.42
14 0.14
16 0.06
19 -0.28
2 -0.65
22 0.45
23 0.66
25 0.66
26 -0.3
3 -0.57
4 -0.57
44 0.06
48 0.4
49 0.15
5 -0.65
50 0.15
51 0.5
52 0.5
6 -0.57
9 0.06

> <PUBCHEM_EFFECTIVE_ROTOR_COUNT>
4.8

> <PUBCHEM_PHARMACOPHORE_FEATURES>
12
1 1 acceptor
1 1 donor
1 2 acceptor
1 3 acceptor
1 4 acceptor
1 5 acceptor
1 6 acceptor
3 2 4 23 anion
3 5 6 25 anion
5 7 8 9 10 11 rings
6 9 10 16 17 20 21 rings
8 7 8 12 13 14 15 18 19 rings

> <PUBCHEM_HEAVY_ATOM_COUNT>
26

> <PUBCHEM_ATOM_DEF_STEREO_COUNT>
5

> <PUBCHEM_ATOM_UDEF_STEREO_COUNT>
2

> <PUBCHEM_BOND_DEF_STEREO_COUNT>
0

> <PUBCHEM_BOND_UDEF_STEREO_COUNT>
0

> <PUBCHEM_ISOTOPIC_ATOM_COUNT>
0

> <PUBCHEM_COMPONENT_COUNT>
1

> <PUBCHEM_CACTVS_TAUTO_COUNT>
-1

> <PUBCHEM_CONFORMER_ID>
083FD72B00000001

> <PUBCHEM_MMFF94_ENERGY>
101.5561

> <PUBCHEM_FEATURE_SELFOVERLAP>
61.268

> <PUBCHEM_SHAPE_FINGERPRINT>
104564 63 18270970024776276324
10863032 1 18059009458881343447
10948715 1 18114472222800441630
11132069 177 18059280003245413564
11370993 70 16660358182055510907
11578080 2 16985145043629957337
12011746 2 18260275187105650127
12236239 1 18113337501531907036
12403814 3 18059283271768370811
12553582 1 18412821400056890932
12633257 1 18192736594695723707
12788726 201 18337395942174839656
13132413 78 18412825793592455820
13140716 1 18125717048339621585
13172582 1 18272651251148386437
13224815 77 18410854335015632918
13583140 156 16732980950860803806
13965767 371 17270351715871783905
14223421 5 17977383841470127838
14787075 74 18187370968913985123
14790565 3 18341347650962704372
14955137 171 18057905682171577569
1601671 61 18270690766277120521
16752209 62 18267575819522797396
16945 1 18341602763460839583
17349148 13 18261390023340339978
18186145 218 16917342619583887910
18981168 100 16880174865962744125
20600515 1 17917163783265203404
20691752 17 18265312045271628184
20715895 44 17608918799110621421
22344851 262 18060420243879447543
2334 1 18053657263979324324
23402539 116 18411699859768648588
23419403 2 17463433928730876001
23493267 7 18113627772147861744
23558518 356 18046914766762164826
23559900 14 18192150391773861718
238 59 17971725973977547247
2748010 2 17982454793334376132
296302 2 17385726876703848206
3286 77 18188207719117126799
34934 24 18267861688525364845
4340502 62 17460604611236703689
484985 159 15076735755568740666
70251023 43 17836649995411247070
81228 2 18341050710019263864

> <PUBCHEM_SHAPE_MULTIPOLES>
499.85
6.74
2.65
1.71
2.22
1.43
0.14
-0.54
-0.14
-0.33
0.13
-0.46
-0.42
-0.45

> <PUBCHEM_SHAPE_SELFOVERLAP>
1100.545

> <PUBCHEM_SHAPE_VOLUME>
267.8

> <PUBCHEM_COORDINATE_TYPE>
2
5
10

$$$$
