138454437
  -OEChem-03292013293D

 38 38  0     1  0  0  0  0  0999 V2000
   -3.5389   -0.2265    0.0920 O   0  0  0  0  0  0  0  0  0  0  0  0
    0.4916   -0.2616    1.2660 O   0  0  0  0  0  0  0  0  0  0  0  0
    1.9218   -0.8619   -0.4843 N   0  0  0  0  0  0  0  0  0  0  0  0
    0.1842   -3.3350    0.5254 N   0  0  0  0  0  0  0  0  0  0  0  0
    2.0743   -1.7555   -1.5530 N   0  0  0  0  0  0  0  0  0  0  0  0
   -3.9951    0.9807   -0.4545 N   0  0  0  0  0  0  0  0  0  0  0  0
   -6.0195    0.3891    0.6881 N   0  0  0  0  0  0  0  0  0  0  0  0
   -0.2348   -2.0855   -0.1162 C   0  0  1  0  0  0  0  0  0  0  0  0
   -1.6788   -1.7277    0.2664 C   0  0  0  0  0  0  0  0  0  0  0  0
    0.7557   -0.9775    0.2955 C   0  0  0  0  0  0  0  0  0  0  0  0
   -2.1908   -0.4145   -0.3220 C   0  0  0  0  0  0  0  0  0  0  0  0
    2.9206    0.1372   -0.1947 C   0  0  0  0  0  0  0  0  0  0  0  0
    3.1127    0.5716    1.1168 C   0  0  0  0  0  0  0  0  0  0  0  0
    3.6943    0.6693   -1.2260 C   0  0  0  0  0  0  0  0  0  0  0  0
    4.0786    1.5383    1.3970 C   0  0  0  0  0  0  0  0  0  0  0  0
    4.6603    1.6358   -0.9459 C   0  0  0  0  0  0  0  0  0  0  0  0
    4.8524    2.0704    0.3656 C   0  0  0  0  0  0  0  0  0  0  0  0
   -5.2278    1.1907   -0.0989 C   0  0  0  0  0  0  0  0  0  0  0  0
   -5.8609    2.4624   -0.6172 C   0  0  0  0  0  0  0  0  0  0  0  0
   -0.2306   -2.2217   -1.2025 H   0  0  0  0  0  0  0  0  0  0  0  0
   -1.7805   -1.6780    1.3596 H   0  0  0  0  0  0  0  0  0  0  0  0
   -2.3530   -2.5373   -0.0451 H   0  0  0  0  0  0  0  0  0  0  0  0
   -2.1503   -0.4562   -1.4169 H   0  0  0  0  0  0  0  0  0  0  0  0
   -1.5949    0.4376    0.0198 H   0  0  0  0  0  0  0  0  0  0  0  0
    1.0953   -3.6132    0.1625 H   0  0  0  0  0  0  0  0  0  0  0  0
   -0.4624   -4.0814    0.2728 H   0  0  0  0  0  0  0  0  0  0  0  0
    2.5907    0.1438    1.9654 H   0  0  0  0  0  0  0  0  0  0  0  0
    3.5614    0.3590   -2.2586 H   0  0  0  0  0  0  0  0  0  0  0  0
    1.9185   -1.2305   -2.4122 H   0  0  0  0  0  0  0  0  0  0  0  0
    3.0457   -2.0630   -1.5644 H   0  0  0  0  0  0  0  0  0  0  0  0
    4.2399    1.8655    2.4200 H   0  0  0  0  0  0  0  0  0  0  0  0
    5.2620    2.0515   -1.7489 H   0  0  0  0  0  0  0  0  0  0  0  0
    5.6067    2.8206    0.5841 H   0  0  0  0  0  0  0  0  0  0  0  0
   -6.7125    2.2078   -1.2547 H   0  0  0  0  0  0  0  0  0  0  0  0
   -6.2141    3.0624    0.2264 H   0  0  0  0  0  0  0  0  0  0  0  0
   -5.1435    3.0498   -1.1972 H   0  0  0  0  0  0  0  0  0  0  0  0
   -6.9776    0.6373    0.9111 H   0  0  0  0  0  0  0  0  0  0  0  0
   -5.6647   -0.4807    1.0707 H   0  0  0  0  0  0  0  0  0  0  0  0
  1  6  1  0  0  0  0
  1 11  1  0  0  0  0
  2 10  2  0  0  0  0
  3  5  1  0  0  0  0
  3 10  1  0  0  0  0
  3 12  1  0  0  0  0
  4  8  1  0  0  0  0
  4 25  1  0  0  0  0
  4 26  1  0  0  0  0
  5 29  1  0  0  0  0
  5 30  1  0  0  0  0
  6 18  2  0  0  0  0
  7 18  1  0  0  0  0
  7 37  1  0  0  0  0
  7 38  1  0  0  0  0
  8  9  1  0  0  0  0
  8 10  1  0  0  0  0
  8 20  1  0  0  0  0
  9 11  1  0  0  0  0
  9 21  1  0  0  0  0
  9 22  1  0  0  0  0
 11 23  1  0  0  0  0
 11 24  1  0  0  0  0
 12 13  2  0  0  0  0
 12 14  1  0  0  0  0
 13 15  1  0  0  0  0
 13 27  1  0  0  0  0
 14 16  2  0  0  0  0
 14 28  1  0  0  0  0
 15 17  2  0  0  0  0
 15 31  1  0  0  0  0
 16 17  1  0  0  0  0
 16 32  1  0  0  0  0
 17 33  1  0  0  0  0
 18 19  1  0  0  0  0
 19 34  1  0  0  0  0
 19 35  1  0  0  0  0
 19 36  1  0  0  0  0
M  END
> <PUBCHEM_COMPOUND_CID>
138454437

> <PUBCHEM_CONFORMER_RMSD>
1.2

> <PUBCHEM_CONFORMER_DIVERSEORDER>
2
6
25
28
49
56
32
37
8
38
54
35
3
39
14
15
23
30
51
7
43
41
27
11
47
1
16
40
20
33
55
13
24
45
12
26
18
44
5
29
34
31
36
4
42
52
22
9
46
50
10
19
21
17
48
53

> <PUBCHEM_MMFF94_PARTIAL_CHARGES>
29
1 -0.22
10 0.57
11 0.28
12 0.12
13 -0.15
14 -0.15
15 -0.15
16 -0.15
17 -0.15
18 0.44
19 0.06
2 -0.57
25 0.36
26 0.36
27 0.15
28 0.15
29 0.36
3 -0.17
30 0.36
31 0.15
32 0.15
33 0.15
37 0.4
38 0.4
4 -0.99
5 -0.73
6 -0.51
7 -0.85
8 0.33

> <PUBCHEM_EFFECTIVE_ROTOR_COUNT>
7

> <PUBCHEM_PHARMACOPHORE_FEATURES>
7
1 2 acceptor
1 4 cation
1 4 donor
1 5 donor
1 7 donor
3 6 7 18 cation
6 12 13 14 15 16 17 rings

> <PUBCHEM_HEAVY_ATOM_COUNT>
19

> <PUBCHEM_ATOM_DEF_STEREO_COUNT>
1

> <PUBCHEM_ATOM_UDEF_STEREO_COUNT>
0

> <PUBCHEM_BOND_DEF_STEREO_COUNT>
1

> <PUBCHEM_BOND_UDEF_STEREO_COUNT>
0

> <PUBCHEM_ISOTOPIC_ATOM_COUNT>
0

> <PUBCHEM_COMPONENT_COUNT>
1

> <PUBCHEM_CACTVS_TAUTO_COUNT>
-1

> <PUBCHEM_CONFORMER_ID>
0840A5A500000002

> <PUBCHEM_MMFF94_ENERGY>
55.4256

> <PUBCHEM_FEATURE_SELFOVERLAP>
35.522

> <PUBCHEM_SHAPE_FINGERPRINT>
10498660 4 18272090517203145097
11796584 16 10303551480066179825
12107183 9 18261095363035551434
12596602 18 16588023532826360057
12633257 1 15140968382595681465
12730499 353 18201449081462846215
12769317 202 18272923917010412961
12788726 201 17027993273605029346
12892183 10 14779531388400526574
13955234 65 18118406142530345875
14123256 34 8646491859520698193
1420 369 9079115566130697293
14251740 57 8357959079380431477
14341114 328 16660649578538491689
14848178 96 18342178847245235193
15188451 53 12973609963076991785
15210252 30 18342458179392663240
15238133 3 18335133250598411520
15342816 4 11383837052056644302
15352361 1 9511463329434300421
15885798 251 9079118855816936315
17834072 32 18337109076454847460
193927 3 8214145174617337397
19784866 34 18411695483133741763
20374829 77 9943535102418267871
20388580 30 11455884788896877058
20645477 70 16772413870988284814
21054139 6 12175638286822348476
212847 35 18410571782287006608
21452121 103 18336260146109127794
23402655 69 17703791431217486183
23557571 272 18267881655401121174
23559900 14 18202004309587471198
270888 7 18409444804027342197
2838139 119 18342165687428555925
2916195 48 18411698816086411721
293599 30 18411140255331013033
3004659 81 12175623983768550944
3014063 24 12035735353451348417
316301 35 9439111048889490405
3472631 163 18262520424093496748
351380 3 10231756695346561269
4028521 119 18131073774416430752
465052 167 7925911499820271712
495365 180 17846776313204059214
5104073 3 18042128653324683345
5352402 22 13118270469669289928
56616090 163 18342183288183442350
59682541 52 16845295982065749901
633830 44 18411412886981104935
7062679 13 9655309128487267532
77188 2 17472413253537868787
7808743 9 18335419122814219217
7970288 3 9871755693170392325
960060 61 14764627508180819861

> <PUBCHEM_SHAPE_MULTIPOLES>
354.37
13.26
2.8
1.18
16.13
1.15
-0.02
-13.68
-0.44
0.65
-0.08
-1.25
-0.13
0.97

> <PUBCHEM_SHAPE_SELFOVERLAP>
712.847

> <PUBCHEM_SHAPE_VOLUME>
205.3

> <PUBCHEM_COORDINATE_TYPE>
2
5
10

$$$$
