REMARK  Name = 13851501
REMARK  12 active torsions:
REMARK  status: ('A' for Active; 'I' for Inactive)
REMARK    1  A    between atoms: CA_3  and  C_10
REMARK    2  A    between atoms: C_7  and  CA_26
REMARK    3  A    between atoms: N_9  and  CA_12
REMARK    4  A    between atoms: CA_12  and  C_14
REMARK    5  A    between atoms: CA_12  and  CB_15
REMARK    6  A    between atoms: CB_15  and  CG_16
REMARK    7  A    between atoms: CG_16  and  CD_17
REMARK    8  A    between atoms: CD_17  and  NE_18
REMARK    9  A    between atoms: NE_18  and  CZ_21
REMARK   10  A    between atoms: CA_26  and  N_27
REMARK   11  A    between atoms: CA_26  and  CB_31
REMARK   12  A    between atoms: CB_31  and  CG_32
REMARK                            x       y       z     vdW  Elec       q    Type
REMARK                         _______ _______ _______ _____ _____    ______ ____
ROOT
ATOM      1  O   PHE A   1      -0.404   1.069  -0.053  0.00  0.00    -0.277 OA
ATOM      2  N   PRO A   2      -1.347  -0.940  -0.706  0.00  0.00    -0.275 N 
ATOM      3  CA  PRO A   2      -0.487  -1.798   0.100  0.00  0.00    +0.152 C 
ATOM      4  CB  PRO A   2      -1.184  -3.153   0.102  0.00  0.00    +0.031 C 
ATOM      5  CG  PRO A   2      -1.930  -3.170  -1.230  0.00  0.00    +0.024 C 
ATOM      6  CD  PRO A   2      -2.361  -1.722  -1.408  0.00  0.00    +0.094 C 
ATOM      7  C   PHE A   1      -1.276   0.443  -0.657  0.00  0.00    +0.206 C 
ENDROOT
BRANCH   3  10
ATOM      8  O   PRO A   2       0.952  -1.751  -1.804  0.00  0.00    -0.273 OA
ATOM      9  N   ARG A   3       1.884  -2.062   0.307  0.00  0.00    -0.298 N 
ATOM     10  C   PRO A   2       0.845  -1.857  -0.585  0.00  0.00    +0.241 C 
ATOM     11  H   ARG A   3       1.671  -2.130   1.266  0.00  0.00    +0.150 HD
BRANCH   9  12
ATOM     12  CA  ARG A   3       3.265  -2.179  -0.102  0.00  0.00    +0.137 C 
BRANCH  12  14
ATOM     13  O   ARG A   3       5.128  -3.246   1.006  0.00  0.00    -0.286 OA
ATOM     14  C   ARG A   3       3.918  -3.202   0.801  0.00  0.00    +0.227 C 
ENDBRANCH  12  14
BRANCH  12  15
ATOM     15  CB  ARG A   3       4.001  -0.838  -0.139  0.00  0.00    +0.030 C 
BRANCH  15  16
ATOM     16  CG  ARG A   3       4.070  -0.114   1.215  0.00  0.00    +0.029 C 
BRANCH  16  17
ATOM     17  CD  ARG A   3       4.770   1.238   1.111  0.00  0.00    +0.129 C 
BRANCH  17  18
ATOM     18  NE  ARG A   3       4.041   2.107   0.187  0.00  0.00    -0.240 NA
BRANCH  18  21
ATOM     19  NH1 ARG A   3       5.651   3.849   0.566  0.00  0.00    -0.370 N 
ATOM     20  NH2 ARG A   3       3.898   4.173  -0.855  0.00  0.00    -0.370 N 
ATOM     21  CZ  ARG A   3       4.525   3.295  -0.001  0.00  0.00    +0.189 C 
ATOM     22 HH11 ARG A   3       6.193   3.324   1.198  0.00  0.00    +0.159 HD
ATOM     23 HH12 ARG A   3       5.914   4.770   0.339  0.00  0.00    +0.159 HD
ATOM     24 HH21 ARG A   3       3.078   3.899  -1.327  0.00  0.00    +0.159 HD
ATOM     25 HH22 ARG A   3       4.269   5.074  -0.994  0.00  0.00    +0.159 HD
ENDBRANCH  18  21
ENDBRANCH  17  18
ENDBRANCH  16  17
ENDBRANCH  15  16
ENDBRANCH  12  15
ENDBRANCH   9  12
ENDBRANCH   3  10
BRANCH   7  26
ATOM     26  CA  PHE A   1      -2.352   1.176  -1.417  0.00  0.00    +0.018 C 
BRANCH  26  27
ATOM     27  N   PHE A   1      -1.653   1.901  -2.470  0.00  0.00    +0.388 N 
ATOM     28  H1  PHE A   1      -1.150   1.239  -3.062  0.00  0.00    -0.089 HD
ATOM     29  H2  PHE A   1      -0.990   2.554  -2.052  0.00  0.00    -0.089 HD
ATOM     30  H3  PHE A   1      -2.329   2.417  -3.034  0.00  0.00    -0.089 HD
ENDBRANCH  26  27
BRANCH  26  31
ATOM     31  CB  PHE A   1      -3.121   2.130  -0.503  0.00  0.00    +0.013 C 
BRANCH  31  32
ATOM     32  CG  PHE A   1      -4.170   1.426   0.325  0.00  0.00    -0.024 C 
ATOM     33  CD1 PHE A   1      -5.467   1.283  -0.168  0.00  0.00    -0.004 C 
ATOM     34  CD2 PHE A   1      -3.841   0.918   1.582  0.00  0.00    -0.004 C 
ATOM     35  CE1 PHE A   1      -6.436   0.632   0.597  0.00  0.00    -0.000 C 
ATOM     36  CE2 PHE A   1      -4.810   0.268   2.346  0.00  0.00    -0.000 C 
ATOM     37  CZ  PHE A   1      -6.107   0.125   1.854  0.00  0.00    -0.000 C 
ENDBRANCH  31  32
ENDBRANCH  26  31
ENDBRANCH   7  26
TORSDOF 12
