13851501
  -OEChem-03292013303D

 59 60  0     1  0  0  0  0  0999 V2000
    0.9518   -1.7512   -1.8038 O   0  0  0  0  0  0  0  0  0  0  0  0
   -0.4036    1.0695   -0.0528 O   0  0  0  0  0  0  0  0  0  0  0  0
    5.1284   -3.2464    1.0058 O   0  0  0  0  0  0  0  0  0  0  0  0
   -1.3471   -0.9404   -0.7058 N   0  0  0  0  0  0  0  0  0  0  0  0
    1.8836   -2.0617    0.3067 N   0  0  0  0  0  0  0  0  0  0  0  0
   -1.6529    1.9009   -2.4705 N   0  0  0  0  0  0  0  0  0  0  0  0
    4.0411    2.1069    0.1867 N   0  0  0  0  0  0  0  0  0  0  0  0
    5.6508    3.8492    0.5657 N   0  0  0  0  0  0  0  0  0  0  0  0
    3.8980    4.1725   -0.8550 N   0  0  0  0  0  0  0  0  0  0  0  0
   -0.4875   -1.7975    0.1001 C   0  0  1  0  0  0  0  0  0  0  0  0
   -1.1843   -3.1533    0.1016 C   0  0  0  0  0  0  0  0  0  0  0  0
   -1.9302   -3.1703   -1.2304 C   0  0  0  0  0  0  0  0  0  0  0  0
   -2.3613   -1.7224   -1.4082 C   0  0  0  0  0  0  0  0  0  0  0  0
    0.8446   -1.8569   -0.5848 C   0  0  0  0  0  0  0  0  0  0  0  0
   -1.2758    0.4431   -0.6568 C   0  0  0  0  0  0  0  0  0  0  0  0
   -2.3519    1.1764   -1.4171 C   0  0  1  0  0  0  0  0  0  0  0  0
    3.2646   -2.1794   -0.1023 C   0  0  1  0  0  0  0  0  0  0  0  0
   -3.1208    2.1304   -0.5033 C   0  0  0  0  0  0  0  0  0  0  0  0
    4.0007   -0.8384   -0.1385 C   0  0  0  0  0  0  0  0  0  0  0  0
    4.0703   -0.1143    1.2147 C   0  0  0  0  0  0  0  0  0  0  0  0
   -4.1699    1.4259    0.3250 C   0  0  0  0  0  0  0  0  0  0  0  0
    3.9179   -3.2019    0.8015 C   0  0  0  0  0  0  0  0  0  0  0  0
    4.7704    1.2378    1.1115 C   0  0  0  0  0  0  0  0  0  0  0  0
   -5.4671    1.2830   -0.1675 C   0  0  0  0  0  0  0  0  0  0  0  0
   -3.8414    0.9182    1.5821 C   0  0  0  0  0  0  0  0  0  0  0  0
   -6.4358    0.6325    0.5968 C   0  0  0  0  0  0  0  0  0  0  0  0
   -4.8100    0.2676    2.3463 C   0  0  0  0  0  0  0  0  0  0  0  0
   -6.1071    0.1248    1.8536 C   0  0  0  0  0  0  0  0  0  0  0  0
    4.5246    3.2953   -0.0013 C   0  0  0  0  0  0  0  0  0  0  0  0
   -0.3874   -1.3780    1.1072 H   0  0  0  0  0  0  0  0  0  0  0  0
   -0.5006   -4.0014    0.2037 H   0  0  0  0  0  0  0  0  0  0  0  0
   -1.9105   -3.1959    0.9226 H   0  0  0  0  0  0  0  0  0  0  0  0
   -2.7761   -3.8633   -1.2352 H   0  0  0  0  0  0  0  0  0  0  0  0
   -1.2482   -3.4639   -2.0372 H   0  0  0  0  0  0  0  0  0  0  0  0
   -2.4107   -1.4417   -2.4641 H   0  0  0  0  0  0  0  0  0  0  0  0
   -3.3295   -1.5387   -0.9299 H   0  0  0  0  0  0  0  0  0  0  0  0
   -3.0686    0.5178   -1.9082 H   0  0  0  0  0  0  0  0  0  0  0  0
    1.6754   -2.1193    1.2999 H   0  0  0  0  0  0  0  0  0  0  0  0
    3.2730   -2.6141   -1.1094 H   0  0  0  0  0  0  0  0  0  0  0  0
   -2.4461    2.6861    0.1618 H   0  0  0  0  0  0  0  0  0  0  0  0
   -3.6281    2.8998   -1.1024 H   0  0  0  0  0  0  0  0  0  0  0  0
    5.0224   -0.9961   -0.5067 H   0  0  0  0  0  0  0  0  0  0  0  0
    3.4993   -0.1942   -0.8714 H   0  0  0  0  0  0  0  0  0  0  0  0
   -1.2348    1.2400   -3.1248 H   0  0  0  0  0  0  0  0  0  0  0  0
   -2.3190    2.4508   -3.0119 H   0  0  0  0  0  0  0  0  0  0  0  0
    4.6032   -0.7311    1.9466 H   0  0  0  0  0  0  0  0  0  0  0  0
    3.0555    0.0406    1.6006 H   0  0  0  0  0  0  0  0  0  0  0  0
    3.2619   -3.9983    1.1950 H   0  0  0  0  0  0  0  0  0  0  0  0
    5.7994    1.0830    0.7645 H   0  0  0  0  0  0  0  0  0  0  0  0
    4.8033    1.6883    2.1108 H   0  0  0  0  0  0  0  0  0  0  0  0
   -5.7349    1.6717   -1.1464 H   0  0  0  0  0  0  0  0  0  0  0  0
   -2.8348    1.0232    1.9779 H   0  0  0  0  0  0  0  0  0  0  0  0
   -7.4455    0.5205    0.2130 H   0  0  0  0  0  0  0  0  0  0  0  0
   -4.5542   -0.1282    3.3248 H   0  0  0  0  0  0  0  0  0  0  0  0
   -6.8612   -0.3822    2.4487 H   0  0  0  0  0  0  0  0  0  0  0  0
    5.9367    4.7963    0.3416 H   0  0  0  0  0  0  0  0  0  0  0  0
    6.2333    3.3397    1.2204 H   0  0  0  0  0  0  0  0  0  0  0  0
    4.2594    5.1063   -1.0151 H   0  0  0  0  0  0  0  0  0  0  0  0
    3.0526    3.9084   -1.3491 H   0  0  0  0  0  0  0  0  0  0  0  0
  1 14  2  0  0  0  0
  2 15  2  0  0  0  0
  3 22  2  0  0  0  0
  4 10  1  0  0  0  0
  4 13  1  0  0  0  0
  4 15  1  0  0  0  0
  5 14  1  0  0  0  0
  5 17  1  0  0  0  0
  5 38  1  0  0  0  0
  6 16  1  0  0  0  0
  6 44  1  0  0  0  0
  6 45  1  0  0  0  0
  7 23  1  0  0  0  0
  7 29  2  0  0  0  0
  8 29  1  0  0  0  0
  8 56  1  0  0  0  0
  8 57  1  0  0  0  0
  9 29  1  0  0  0  0
  9 58  1  0  0  0  0
  9 59  1  0  0  0  0
 10 11  1  0  0  0  0
 10 14  1  0  0  0  0
 10 30  1  0  0  0  0
 11 12  1  0  0  0  0
 11 31  1  0  0  0  0
 11 32  1  0  0  0  0
 12 13  1  0  0  0  0
 12 33  1  0  0  0  0
 12 34  1  0  0  0  0
 13 35  1  0  0  0  0
 13 36  1  0  0  0  0
 15 16  1  0  0  0  0
 16 18  1  0  0  0  0
 16 37  1  0  0  0  0
 17 19  1  0  0  0  0
 17 22  1  0  0  0  0
 17 39  1  0  0  0  0
 18 21  1  0  0  0  0
 18 40  1  0  0  0  0
 18 41  1  0  0  0  0
 19 20  1  0  0  0  0
 19 42  1  0  0  0  0
 19 43  1  0  0  0  0
 20 23  1  0  0  0  0
 20 46  1  0  0  0  0
 20 47  1  0  0  0  0
 21 24  2  0  0  0  0
 21 25  1  0  0  0  0
 22 48  1  0  0  0  0
 23 49  1  0  0  0  0
 23 50  1  0  0  0  0
 24 26  1  0  0  0  0
 24 51  1  0  0  0  0
 25 27  2  0  0  0  0
 25 52  1  0  0  0  0
 26 28  2  0  0  0  0
 26 53  1  0  0  0  0
 27 28  1  0  0  0  0
 27 54  1  0  0  0  0
 28 55  1  0  0  0  0
M  END
> <PUBCHEM_COMPOUND_CID>
13851501

> <PUBCHEM_CONFORMER_RMSD>
1.2

> <PUBCHEM_CONFORMER_DIVERSEORDER>
1
44
39
22
62
79
15
28
11
80
60
12
54
68
35
77
19
71
7
41
18
30
33
76
34
75
64
32
52
24
66
36
16
78
65
49
74
13
25
63
61
50
2
17
69
21
45
6
55
73
38
51
31
58
47
10
26
27
4
29
5
70
20
37
42
48
14
67
72
8
3
23
46
43
9
81
59
57
56
40
53

> <PUBCHEM_MMFF94_PARTIAL_CHARGES>
38
1 -0.57
10 0.36
13 0.3
14 0.57
15 0.57
16 0.33
17 0.36
18 0.14
2 -0.57
21 -0.14
22 0.45
23 0.25
24 -0.15
25 -0.15
26 -0.15
27 -0.15
28 -0.15
29 0.55
3 -0.57
38 0.37
4 -0.66
44 0.36
45 0.36
48 0.06
5 -0.73
51 0.15
52 0.15
53 0.15
54 0.15
55 0.15
56 0.4
57 0.4
58 0.4
59 0.4
6 -0.99
7 -0.7
8 -0.85
9 -0.85

> <PUBCHEM_EFFECTIVE_ROTOR_COUNT>
13

> <PUBCHEM_PHARMACOPHORE_FEATURES>
11
1 1 acceptor
1 2 acceptor
1 3 acceptor
1 5 donor
1 6 cation
1 6 donor
1 8 donor
1 9 donor
4 7 8 9 29 cation
5 4 10 11 12 13 rings
6 21 24 25 26 27 28 rings

> <PUBCHEM_HEAVY_ATOM_COUNT>
29

> <PUBCHEM_ATOM_DEF_STEREO_COUNT>
2

> <PUBCHEM_ATOM_UDEF_STEREO_COUNT>
1

> <PUBCHEM_BOND_DEF_STEREO_COUNT>
0

> <PUBCHEM_BOND_UDEF_STEREO_COUNT>
0

> <PUBCHEM_ISOTOPIC_ATOM_COUNT>
0

> <PUBCHEM_COMPONENT_COUNT>
1

> <PUBCHEM_CACTVS_TAUTO_COUNT>
8

> <PUBCHEM_CONFORMER_ID>
00D35B6D00000001

> <PUBCHEM_MMFF94_ENERGY>
66.5769

> <PUBCHEM_FEATURE_SELFOVERLAP>
55.878

> <PUBCHEM_SHAPE_FINGERPRINT>
10429389 16 11311782739431876723
11045977 3 17968946262558948243
11578080 2 16700362865055818103
12422481 6 18260833674645891541
12633257 1 18199739267988588294
13398642 44 18116160050543541612
13583140 156 17751912528243714843
14251764 75 18195813083970532264
14787075 74 17703222924177881331
14790565 3 18413670201812022047
14955137 171 18048321041971294070
15163728 17 17632025237820526198
15183329 4 9799401218497757899
16760501 71 18410573985425861824
1768 85 18409448089671847528
18785283 64 18411702041569823686
21315764 268 18263079938030616531
21365058 113 17841173064525745246
21458453 9 17970092086919155043
21623110 236 18411972585896964437
21703447 108 7997965748537800454
21987483 16 18261114119200580931
23559900 14 17241336742144126119
392239 28 18199190599049054059
5252454 2 18270674380976834528
6034566 193 18269561713489456873

> <PUBCHEM_SHAPE_MULTIPOLES>
549.31
14.35
4.85
1.74
1.49
1.16
0
8.68
-7.58
-8.68
0.76
1.87
0.13
-0.92

> <PUBCHEM_SHAPE_SELFOVERLAP>
1128.036

> <PUBCHEM_SHAPE_VOLUME>
312.8

> <PUBCHEM_COORDINATE_TYPE>
2
5
10

$$$$
