REMARK  Name = 13854106
REMARK  12 active torsions:
REMARK  status: ('A' for Active; 'I' for Inactive)
REMARK    1  A    between atoms: N_3  and  C_31
REMARK    2  A    between atoms: C_4  and  N_14
REMARK    3  A    between atoms: C_5  and  C_10
REMARK    4  A    between atoms: N_14  and  C_17
REMARK    5  A    between atoms: C_17  and  C_19
REMARK    6  A    between atoms: C_17  and  C_23
REMARK    7  A    between atoms: C_19  and  O_20
REMARK    8  A    between atoms: O_20  and  C_21
REMARK    9  A    between atoms: C_23  and  C_24
REMARK   10  A    between atoms: C_24  and  C_25
REMARK   11  A    between atoms: C_31  and  C_33
REMARK   12  A    between atoms: C_33  and  O_34
REMARK                            x       y       z     vdW  Elec       q    Type
REMARK                         _______ _______ _______ _____ _____    ______ ____
ROOT
ATOM      1  S   UNL     1       2.534   0.115  -2.384  0.00  0.00    -0.136 S 
ATOM      2  O   UNL     1       0.551  -3.235   0.403  0.00  0.00    -0.277 OA
ATOM      3  N   UNL     1       1.851  -1.353   0.720  0.00  0.00    -0.270 N 
ATOM      4  C   UNL     1       0.553  -1.704  -1.407  0.00  0.00    +0.029 C 
ATOM      5  C   UNL     1       3.300   0.095  -0.717  0.00  0.00    +0.095 C 
ATOM      6  C   UNL     1       1.714  -1.507  -2.384  0.00  0.00    +0.046 C 
ATOM      7  C   UNL     1       2.233   0.023   0.382  0.00  0.00    +0.110 C 
ATOM      8  C   UNL     1       0.979  -2.151  -0.015  0.00  0.00    +0.207 C 
ENDROOT
BRANCH   5  10
ATOM      9  S   UNL     1       5.885   1.077  -0.380  0.00  0.00    -0.090 S 
ATOM     10  C   UNL     1       4.200   1.304  -0.573  0.00  0.00    +0.019 C 
ATOM     11  C   UNL     1       3.851   2.634  -0.574  0.00  0.00    +0.004 C 
ATOM     12  C   UNL     1       4.984   3.482  -0.414  0.00  0.00    +0.007 C 
ATOM     13  C   UNL     1       6.154   2.766  -0.297  0.00  0.00    +0.035 C 
ENDBRANCH   5  10
BRANCH   4  14
ATOM     14  N   UNL     1      -0.391  -0.599  -1.300  0.00  0.00    +0.400 N 
ATOM     15  H   UNL     1      -0.675  -0.308  -2.235  0.00  0.00    -0.083 HD
ATOM     16  H   UNL     1       0.061   0.176  -0.814  0.00  0.00    -0.083 HD
BRANCH  14  17
ATOM     17  C   UNL     1      -1.565  -1.004  -0.548  0.00  0.00    +0.041 C 
BRANCH  17  19
ATOM     18  O   UNL     1      -2.207  -2.321  -2.502  0.00  0.00    -0.252 OA
ATOM     19  C   UNL     1      -2.201  -2.170  -1.287  0.00  0.00    +0.297 C 
BRANCH  19  20
ATOM     20  O   UNL     1      -2.760  -3.026  -0.378  0.00  0.00    -0.450 OA
BRANCH  20  21
ATOM     21  C   UNL     1      -3.394  -4.184  -0.928  0.00  0.00    +0.208 C 
ATOM     22  C   UNL     1      -3.956  -5.022   0.200  0.00  0.00    +0.051 C 
ENDBRANCH  20  21
ENDBRANCH  19  20
ENDBRANCH  17  19
BRANCH  17  23
ATOM     23  C   UNL     1      -2.581   0.142  -0.418  0.00  0.00    -0.006 C 
BRANCH  23  24
ATOM     24  C   UNL     1      -2.055   1.410   0.269  0.00  0.00    +0.025 C 
BRANCH  24  25
ATOM     25  C   UNL     1      -3.059   2.533   0.323  0.00  0.00    -0.022 C 
ATOM     26  C   UNL     1      -3.112   3.450  -0.717  0.00  0.00    -0.004 C 
ATOM     27  C   UNL     1      -3.914   2.631   1.410  0.00  0.00    -0.004 C 
ATOM     28  C   UNL     1      -4.041   4.489  -0.667  0.00  0.00    -0.000 C 
ATOM     29  C   UNL     1      -4.843   3.671   1.460  0.00  0.00    -0.000 C 
ATOM     30  C   UNL     1      -4.907   4.600   0.422  0.00  0.00    -0.000 C 
ENDBRANCH  24  25
ENDBRANCH  23  24
ENDBRANCH  17  23
ENDBRANCH  14  17
ENDBRANCH   4  14
BRANCH   3  31
ATOM     31  C   UNL     1       2.401  -1.868   1.970  0.00  0.00    +0.204 C 
BRANCH  31  33
ATOM     32  O   UNL     1       1.830  -1.881   4.308  0.00  0.00    -0.248 OA
ATOM     33  C   UNL     1       1.542  -1.546   3.166  0.00  0.00    +0.334 C 
BRANCH  33  34
ATOM     34  O   UNL     1       0.422  -0.853   2.856  0.00  0.00    -0.479 OA
ATOM     35  H   UNL     1       0.246  -0.620   1.966  0.00  0.00    +0.295 HD
ENDBRANCH  33  34
ENDBRANCH  31  33
ENDBRANCH   3  31
TORSDOF 12
