REMARK  Name = 13854113
REMARK  11 active torsions:
REMARK  status: ('A' for Active; 'I' for Inactive)
REMARK    1  A    between atoms: N_3  and  C_30
REMARK    2  A    between atoms: C_4  and  N_14
REMARK    3  A    between atoms: C_5  and  C_10
REMARK    4  A    between atoms: N_14  and  CA_17
REMARK    5  A    between atoms: CA_17  and  C_19
REMARK    6  A    between atoms: CA_17  and  C_22
REMARK    7  A    between atoms: C_19  and  O_20
REMARK    8  A    between atoms: C_22  and  C_23
REMARK    9  A    between atoms: C_23  and  C_24
REMARK   10  A    between atoms: C_30  and  C_32
REMARK   11  A    between atoms: C_32  and  O_33
REMARK                            x       y       z     vdW  Elec       q    Type
REMARK                         _______ _______ _______ _____ _____    ______ ____
ROOT
ATOM      1  S   UNL     1       3.114  -2.074  -0.992  0.00  0.00    -0.136 S 
ATOM      2  O   UNL     1      -0.058   1.393  -1.349  0.00  0.00    -0.277 OA
ATOM      3  N   UNL     1       2.014   1.197  -0.343  0.00  0.00    -0.270 N 
ATOM      4  C   UNL     1       0.616  -0.829  -0.694  0.00  0.00    +0.029 C 
ATOM      5  C   UNL     1       3.872  -0.435  -0.649  0.00  0.00    +0.095 C 
ATOM      6  C   UNL     1       3.039   0.397   0.337  0.00  0.00    +0.110 C 
ATOM      7  C   UNL     1       1.506  -1.576  -1.690  0.00  0.00    +0.046 C 
ATOM      8  C   UNL     1       0.807   0.685  -0.824  0.00  0.00    +0.207 C 
ENDROOT
BRANCH   5  10
ATOM      9  S   UNL     1       6.612  -0.070  -1.075  0.00  0.00    -0.090 S 
ATOM     10  C   UNL     1       5.294  -0.643  -0.144  0.00  0.00    +0.019 C 
ATOM     11  C   UNL     1       5.710  -1.260   1.016  0.00  0.00    +0.004 C 
ATOM     12  C   UNL     1       7.129  -1.261   1.142  0.00  0.00    +0.007 C 
ATOM     13  C   UNL     1       7.744  -0.646   0.073  0.00  0.00    +0.035 C 
ENDBRANCH   5  10
BRANCH   4  14
ATOM     14  N   UNL     1      -0.791  -1.111  -1.013  0.00  0.00    +0.400 N 
ATOM     15  H1  UNL     1      -0.886  -2.093  -1.272  0.00  0.00    -0.083 HD
ATOM     16  H2  UNL     1      -1.080  -0.513  -1.787  0.00  0.00    -0.083 HD
BRANCH  14  17
ATOM     17  CA  UNL     1      -1.637  -0.835   0.135  0.00  0.00    +0.041 C 
BRANCH  17  19
ATOM     18  OXT UNL     1      -1.382  -3.192   0.692  0.00  0.00    -0.253 OA
ATOM     19  C   UNL     1      -1.530  -2.033   1.061  0.00  0.00    +0.293 C 
BRANCH  19  20
ATOM     20  O   UNL     1      -1.591  -1.684   2.372  0.00  0.00    -0.482 OA
ATOM     21  H   UNL     1      -1.705  -0.786   2.612  0.00  0.00    +0.295 HD
ENDBRANCH  19  20
ENDBRANCH  17  19
BRANCH  17  22
ATOM     22  C   UNL     1      -3.082  -0.630  -0.341  0.00  0.00    -0.006 C 
BRANCH  22  23
ATOM     23  C   UNL     1      -4.082  -0.307   0.781  0.00  0.00    +0.025 C 
BRANCH  23  24
ATOM     24  C   UNL     1      -5.487  -0.030   0.307  0.00  0.00    -0.022 C 
ATOM     25  C   UNL     1      -5.871   1.272  -0.014  0.00  0.00    -0.004 C 
ATOM     26  C   UNL     1      -6.402  -1.076   0.188  0.00  0.00    -0.004 C 
ATOM     27  C   UNL     1      -7.170   1.529  -0.453  0.00  0.00    -0.000 C 
ATOM     28  C   UNL     1      -7.701  -0.819  -0.251  0.00  0.00    -0.000 C 
ATOM     29  C   UNL     1      -8.085   0.483  -0.571  0.00  0.00    -0.000 C 
ENDBRANCH  23  24
ENDBRANCH  22  23
ENDBRANCH  17  22
ENDBRANCH  14  17
ENDBRANCH   4  14
BRANCH   3  30
ATOM     30  C   UNL     1       2.326   2.609  -0.533  0.00  0.00    +0.204 C 
BRANCH  30  32
ATOM     31  O   UNL     1       2.005   4.689   0.635  0.00  0.00    -0.248 OA
ATOM     32  C   UNL     1       1.849   3.474   0.605  0.00  0.00    +0.334 C 
BRANCH  32  33
ATOM     33  O   UNL     1       1.234   2.781   1.591  0.00  0.00    -0.479 OA
ATOM     34  H   UNL     1       1.140   1.851   1.521  0.00  0.00    +0.295 HD
ENDBRANCH  32  33
ENDBRANCH  30  32
ENDBRANCH   3  30
TORSDOF 11
