REMARK  Name = 13871063
REMARK  4 active torsions:
REMARK  status: ('A' for Active; 'I' for Inactive)
REMARK    1  A    between atoms: N_2  and  C1*_13
REMARK    2  A    between atoms: C3*_14  and  O3*_17
REMARK    3  A    between atoms: C4*_16  and  C5*_19
REMARK    4  A    between atoms: C5*_19  and  O5*_20
REMARK                            x       y       z     vdW  Elec       q    Type
REMARK                         _______ _______ _______ _____ _____    ______ ____
ROOT
ATOM      1  O   UNL     1      -1.778  -2.042  -1.329  0.00  0.00    -0.252 OA
ATOM      2  N   UNL     1      -0.793  -0.239  -0.238  0.00  0.00    -0.220 N 
ATOM      3  N   UNL     1      -3.126  -0.484  -0.338  0.00  0.00    -0.242 N 
ATOM      4  N   UNL     1      -2.363   1.409   0.806  0.00  0.00    -0.221 NA
ATOM      5  N   UNL     1      -4.652   1.018   0.577  0.00  0.00    -0.331 N 
ATOM      6  C   UNL     1      -0.992   0.977   0.554  0.00  0.00    +0.228 C 
ATOM      7  C   UNL     1      -1.882  -1.000  -0.681  0.00  0.00    +0.313 C 
ATOM      8  C   UNL     1      -3.340   0.685   0.371  0.00  0.00    +0.183 C 
ATOM      9  H   UNL     1      -3.920  -0.991  -0.622  0.00  0.00    +0.159 HD
ATOM     10  H   UNL     1      -5.367   0.438   0.228  0.00  0.00    +0.145 HD
ATOM     11  H   UNL     1      -4.880   1.838   1.072  0.00  0.00    +0.145 HD
ENDROOT
BRANCH   2  13
ATOM     12  O4* UNL     1       1.374   0.539  -0.678  0.00  0.00    -0.335 OA
ATOM     13  C1* UNL     1       0.558  -0.632  -0.516  0.00  0.00    +0.199 C 
ATOM     14  C3* UNL     1       2.636  -1.084   0.482  0.00  0.00    +0.144 C 
ATOM     15  C2* UNL     1       1.177  -1.456   0.598  0.00  0.00    +0.083 C 
ATOM     16  C4* UNL     1       2.541   0.396   0.149  0.00  0.00    +0.173 C 
BRANCH  14  17
ATOM     17  O3* UNL     1       3.327  -1.321   1.691  0.00  0.00    -0.382 OA
ATOM     18  H3* UNL     1       3.362  -2.275   1.861  0.00  0.00    +0.210 HD
ENDBRANCH  14  17
BRANCH  16  19
ATOM     19  C5* UNL     1       3.756   0.928  -0.591  0.00  0.00    +0.169 C 
BRANCH  19  20
ATOM     20  O5* UNL     1       3.557   2.305  -0.858  0.00  0.00    -0.379 OA
ATOM     21  H5* UNL     1       4.327   2.657  -1.331  0.00  0.00    +0.211 HD
ENDBRANCH  19  20
ENDBRANCH  16  19
ENDBRANCH   2  13
TORSDOF 4
