13873258
  -OEChem-03292013303D

 33 35  0     1  0  0  0  0  0999 V2000
   -2.1993   -0.2760    1.2760 O   0  0  0  0  0  0  0  0  0  0  0  0
   -1.1950    2.4836   -0.7395 O   0  0  0  0  0  0  0  0  0  0  0  0
   -4.0018    1.3865   -1.3586 O   0  0  0  0  0  0  0  0  0  0  0  0
   -3.9003   -2.3812    0.5356 O   0  0  0  0  0  0  0  0  0  0  0  0
    3.8567    2.3795    0.5425 O   0  0  0  0  0  0  0  0  0  0  0  0
   -0.0158   -0.2916    0.3527 N   0  0  0  0  0  0  0  0  0  0  0  0
    1.0906   -2.1324   -0.3827 N   0  0  0  0  0  0  0  0  0  0  0  0
    1.8601    1.2631    0.5193 N   0  0  0  0  0  0  0  0  0  0  0  0
    3.9120    0.1981   -0.1127 N   0  0  0  0  0  0  0  0  0  0  0  0
    4.0649   -2.0800   -0.8194 N   0  0  0  0  0  0  0  0  0  0  0  0
   -1.7336    1.1878   -0.5410 C   0  0  1  0  0  0  0  0  0  0  0  0
   -1.1526    0.5252    0.6990 C   0  0  1  0  0  0  0  0  0  0  0  0
   -3.2043    1.2641   -0.1989 C   0  0  2  0  0  0  0  0  0  0  0  0
   -3.4263   -0.0339    0.5637 C   0  0  1  0  0  0  0  0  0  0  0  0
   -3.7287   -1.2508   -0.3039 C   0  0  0  0  0  0  0  0  0  0  0  0
    1.2893    0.1356    0.2749 C   0  0  0  0  0  0  0  0  0  0  0  0
   -0.0621   -1.6026   -0.0489 C   0  0  0  0  0  0  0  0  0  0  0  0
    1.9957   -1.0924   -0.2026 C   0  0  0  0  0  0  0  0  0  0  0  0
    3.3182   -1.0210   -0.3854 C   0  0  0  0  0  0  0  0  0  0  0  0
    3.2322    1.3385    0.3298 C   0  0  0  0  0  0  0  0  0  0  0  0
   -1.5716    0.6099   -1.4589 H   0  0  0  0  0  0  0  0  0  0  0  0
   -0.8627    1.2682    1.4519 H   0  0  0  0  0  0  0  0  0  0  0  0
   -3.3963    2.1323    0.4440 H   0  0  0  0  0  0  0  0  0  0  0  0
   -4.2225    0.0808    1.3079 H   0  0  0  0  0  0  0  0  0  0  0  0
   -2.9221   -1.4660   -1.0094 H   0  0  0  0  0  0  0  0  0  0  0  0
   -4.6561   -1.1056   -0.8666 H   0  0  0  0  0  0  0  0  0  0  0  0
   -0.2359    2.3838   -0.8652 H   0  0  0  0  0  0  0  0  0  0  0  0
   -1.0253   -2.1257   -0.0544 H   0  0  0  0  0  0  0  0  0  0  0  0
   -4.9319    1.3662   -1.0756 H   0  0  0  0  0  0  0  0  0  0  0  0
   -4.0959   -3.1392   -0.0411 H   0  0  0  0  0  0  0  0  0  0  0  0
    4.9167    0.2583   -0.2498 H   0  0  0  0  0  0  0  0  0  0  0  0
    3.6220   -2.9686   -1.0167 H   0  0  0  0  0  0  0  0  0  0  0  0
    5.0631   -1.9652   -0.9391 H   0  0  0  0  0  0  0  0  0  0  0  0
  1 12  1  0  0  0  0
  1 14  1  0  0  0  0
  2 11  1  0  0  0  0
  2 27  1  0  0  0  0
  3 13  1  0  0  0  0
  3 29  1  0  0  0  0
  4 15  1  0  0  0  0
  4 30  1  0  0  0  0
  5 20  2  0  0  0  0
  6 12  1  0  0  0  0
  6 16  1  0  0  0  0
  6 17  1  0  0  0  0
  7 17  2  0  0  0  0
  7 18  1  0  0  0  0
  8 16  2  0  0  0  0
  8 20  1  0  0  0  0
  9 19  1  0  0  0  0
  9 20  1  0  0  0  0
  9 31  1  0  0  0  0
 10 19  1  0  0  0  0
 10 32  1  0  0  0  0
 10 33  1  0  0  0  0
 11 12  1  0  0  0  0
 11 13  1  0  0  0  0
 11 21  1  0  0  0  0
 12 22  1  0  0  0  0
 13 14  1  0  0  0  0
 13 23  1  0  0  0  0
 14 15  1  0  0  0  0
 14 24  1  0  0  0  0
 15 25  1  0  0  0  0
 15 26  1  0  0  0  0
 16 18  1  0  0  0  0
 17 28  1  0  0  0  0
 18 19  2  0  0  0  0
M  END
> <PUBCHEM_COMPOUND_CID>
13873258

> <PUBCHEM_CONFORMER_RMSD>
0.6

> <PUBCHEM_CONFORMER_DIVERSEORDER>
1
5
14
9
10
7
12
15
3
2
4
16
13
8
11
6

> <PUBCHEM_MMFF94_PARTIAL_CHARGES>
27
1 -0.56
10 -0.9
11 0.28
12 0.65
13 0.28
14 0.28
15 0.28
16 0.49
17 0.44
18 0.19
19 0.21
2 -0.68
20 0.84
27 0.4
28 0.06
29 0.4
3 -0.68
30 0.4
31 0.37
32 0.4
33 0.4
4 -0.68
5 -0.57
6 -0.47
7 -0.62
8 -0.66
9 -0.54

> <PUBCHEM_EFFECTIVE_ROTOR_COUNT>
3

> <PUBCHEM_PHARMACOPHORE_FEATURES>
16
1 1 acceptor
1 10 cation
1 10 donor
1 2 acceptor
1 2 donor
1 3 acceptor
1 3 donor
1 4 acceptor
1 4 donor
1 5 acceptor
1 8 donor
1 9 donor
3 6 7 17 cation
5 1 11 12 13 14 rings
5 6 7 16 17 18 rings
6 8 9 16 18 19 20 rings

> <PUBCHEM_HEAVY_ATOM_COUNT>
20

> <PUBCHEM_ATOM_DEF_STEREO_COUNT>
4

> <PUBCHEM_ATOM_UDEF_STEREO_COUNT>
0

> <PUBCHEM_BOND_DEF_STEREO_COUNT>
0

> <PUBCHEM_BOND_UDEF_STEREO_COUNT>
0

> <PUBCHEM_ISOTOPIC_ATOM_COUNT>
0

> <PUBCHEM_COMPONENT_COUNT>
1

> <PUBCHEM_CACTVS_TAUTO_COUNT>
9

> <PUBCHEM_CONFORMER_ID>
00D3B06A00000001

> <PUBCHEM_MMFF94_ENERGY>
75.772

> <PUBCHEM_FEATURE_SELFOVERLAP>
81.404

> <PUBCHEM_SHAPE_FINGERPRINT>
10498660 4 18333445439318250117
10608611 8 18409165476470696592
10871710 139 16677259093414972108
11132069 177 18187362138503493949
11405975 8 18339080393460546057
11471102 20 18342455890242665268
11615757 297 17988928855274402898
11759241 127 18261671596547320005
12403259 226 18410573951245373932
12403259 415 18409453591566995712
12916754 54 18342745108687032875
12969540 114 17679283206183193205
13224815 77 18409446985864882129
15196674 1 18412546526228584251
15219456 202 18409730651264507153
15375462 6 18409730672723499846
16945 1 18195245520646488027
17357779 13 18192415576018577895
18175812 5 18409450258682748285
18186145 218 18201728327382678538
19930381 70 18126845121442693177
200 152 17774715368769490685
20645477 56 18187647934676149389
20645477 70 18201436939357880326
20681677 76 18409164415624070632
20871999 31 18261663797788576135
221490 88 18412832382351881878
23402539 116 18040429984346305702
23557571 272 18259985993988306009
23559900 14 18339356358363766602
2748010 2 18410298037824056770
2871803 45 18408598189159709351
4028521 119 17969215647366354981
5104073 3 18412265034051003755
633830 44 17703526427319172740
77492 1 16845294908207627600
9709674 26 18336551602568891442

> <PUBCHEM_SHAPE_MULTIPOLES>
357.34
8.19
2.49
0.9
0.36
0.04
0.03
0.33
0.75
0.43
0.29
-0.47
-0.12
1.41

> <PUBCHEM_SHAPE_SELFOVERLAP>
777.627

> <PUBCHEM_SHAPE_VOLUME>
192.3

> <PUBCHEM_COORDINATE_TYPE>
2
5
10

$$$$
