REMARK  Name = 13871382
REMARK  6 active torsions:
REMARK  status: ('A' for Active; 'I' for Inactive)
REMARK    1  A    between atoms: N_3  and  C1*_11
REMARK    2  A    between atoms: N_4  and  C_20
REMARK    3  A    between atoms: C3*_12  and  O3*_15
REMARK    4  A    between atoms: C4*_14  and  C5*_17
REMARK    5  A    between atoms: C5*_17  and  O5*_18
REMARK    6  A    between atoms: C_21  and  C_23
REMARK                            x       y       z     vdW  Elec       q    Type
REMARK                         _______ _______ _______ _____ _____    ______ ____
ROOT
ATOM      1  O   UNL     1      -0.707  -2.227   0.161  0.00  0.00    -0.251 OA
ATOM      2  O   UNL     1      -2.881   1.878  -0.436  0.00  0.00    -0.269 OA
ATOM      3  N   UNL     1       0.514  -0.262   0.097  0.00  0.00    -0.218 N 
ATOM      4  N   UNL     1      -1.854  -0.209  -0.139  0.00  0.00    -0.187 N 
ATOM      5  C   UNL     1       0.544   1.106  -0.027  0.00  0.00    +0.071 C 
ATOM      6  C   UNL     1      -0.682  -0.996   0.049  0.00  0.00    +0.323 C 
ATOM      7  C   UNL     1      -0.544   1.858  -0.204  0.00  0.00    +0.047 C 
ATOM      8  C   UNL     1      -1.872   1.192  -0.272  0.00  0.00    +0.257 C 
ATOM      9  C   UNL     1      -0.496   3.348  -0.338  0.00  0.00    +0.037 C 
ENDROOT
BRANCH   3  11
ATOM     10  O4* UNL     1       2.654  -0.147   1.037  0.00  0.00    -0.335 OA
ATOM     11  C1* UNL     1       1.749  -0.966   0.283  0.00  0.00    +0.202 C 
ATOM     12  C3* UNL     1       3.899  -1.235  -0.662  0.00  0.00    +0.144 C 
ATOM     13  C2* UNL     1       2.435  -1.310  -1.030  0.00  0.00    +0.083 C 
ATOM     14  C4* UNL     1       3.937  -0.128   0.381  0.00  0.00    +0.173 C 
BRANCH  12  15
ATOM     15  O3* UNL     1       4.311  -2.468  -0.077  0.00  0.00    -0.382 OA
ATOM     16  H3* UNL     1       4.284  -3.169  -0.747  0.00  0.00    +0.210 HD
ENDBRANCH  12  15
BRANCH  14  17
ATOM     17  C5* UNL     1       4.130   1.255  -0.228  0.00  0.00    +0.169 C 
BRANCH  17  18
ATOM     18  O5* UNL     1       4.141   2.217   0.814  0.00  0.00    -0.379 OA
ATOM     19  H5* UNL     1       4.264   3.102   0.435  0.00  0.00    +0.211 HD
ENDBRANCH  17  18
ENDBRANCH  14  17
ENDBRANCH   3  11
BRANCH   4  20
ATOM     20  C   UNL     1      -3.068  -0.873  -0.196  0.00  0.00    +0.080 C 
ATOM     21  C   UNL     1      -4.210  -0.311   0.209  0.00  0.00    +0.062 C 
BRANCH  21  23
ATOM     22  O   UNL     1      -6.539  -0.631   0.467  0.00  0.00    -0.283 OA
ATOM     23  C   UNL     1      -5.459  -1.090   0.113  0.00  0.00    +0.236 C 
ENDBRANCH  21  23
ENDBRANCH   4  20
TORSDOF 6
