13871033
  -OEChem-03292013303D

 33 34  0     1  0  0  0  0  0999 V2000
   -1.2270    0.9904   -0.5266 O   0  0  0  0  0  0  0  0  0  0  0  0
   -0.7483   -0.9976    1.6503 O   0  0  0  0  0  0  0  0  0  0  0  0
   -3.4314   -1.3029    1.1410 O   0  0  0  0  0  0  0  0  0  0  0  0
   -3.4371    2.7565   -0.5873 O   0  0  0  0  0  0  0  0  0  0  0  0
    1.7827   -1.4864   -1.7832 O   0  0  0  0  0  0  0  0  0  0  0  0
    0.9123    0.0554   -0.3027 N   0  0  0  0  0  0  0  0  0  0  0  0
    3.2861   -0.3035   -0.5617 N   0  0  0  0  0  0  0  0  0  0  0  0
    4.8212    0.9106    0.6943 N   0  0  0  0  0  0  0  0  0  0  0  0
   -1.1257   -1.2403    0.2929 C   0  0  1  0  0  0  0  0  0  0  0  0
   -2.5825   -0.8420    0.1101 C   0  0  2  0  0  0  0  0  0  0  0  0
   -0.4554   -0.2223   -0.6304 C   0  0  1  0  0  0  0  0  0  0  0  0
   -2.4831    0.6787    0.1050 C   0  0  2  0  0  0  0  0  0  0  0  0
   -0.8240   -2.6904   -0.0487 C   0  0  0  0  0  0  0  0  0  0  0  0
   -3.6154    1.3511   -0.6511 C   0  0  0  0  0  0  0  0  0  0  0  0
    1.1864    1.0187    0.6571 C   0  0  0  0  0  0  0  0  0  0  0  0
    1.9899   -0.6238   -0.9278 C   0  0  0  0  0  0  0  0  0  0  0  0
    2.4255    1.3403    1.0239 C   0  0  0  0  0  0  0  0  0  0  0  0
    3.5258    0.6074    0.3449 C   0  0  0  0  0  0  0  0  0  0  0  0
   -2.9652   -1.2053   -0.8523 H   0  0  0  0  0  0  0  0  0  0  0  0
   -0.5243   -0.5464   -1.6765 H   0  0  0  0  0  0  0  0  0  0  0  0
   -2.4400    1.0799    1.1257 H   0  0  0  0  0  0  0  0  0  0  0  0
   -1.0716   -2.9221   -1.0894 H   0  0  0  0  0  0  0  0  0  0  0  0
    0.2341   -2.9190    0.1170 H   0  0  0  0  0  0  0  0  0  0  0  0
   -1.3895   -3.3702    0.5980 H   0  0  0  0  0  0  0  0  0  0  0  0
   -4.5928    1.0988   -0.2286 H   0  0  0  0  0  0  0  0  0  0  0  0
   -3.6038    1.0710   -1.7091 H   0  0  0  0  0  0  0  0  0  0  0  0
   -1.2873   -1.5775    2.2152 H   0  0  0  0  0  0  0  0  0  0  0  0
   -3.4101   -2.2746    1.1272 H   0  0  0  0  0  0  0  0  0  0  0  0
    0.3492    1.5150    1.1346 H   0  0  0  0  0  0  0  0  0  0  0  0
   -3.4829    3.0175    0.3484 H   0  0  0  0  0  0  0  0  0  0  0  0
    2.6451    2.0857    1.7766 H   0  0  0  0  0  0  0  0  0  0  0  0
    5.6032    0.4353    0.2568 H   0  0  0  0  0  0  0  0  0  0  0  0
    5.0395    1.6122    1.3941 H   0  0  0  0  0  0  0  0  0  0  0  0
  1 11  1  0  0  0  0
  1 12  1  0  0  0  0
  2  9  1  0  0  0  0
  2 27  1  0  0  0  0
  3 10  1  0  0  0  0
  3 28  1  0  0  0  0
  4 14  1  0  0  0  0
  4 30  1  0  0  0  0
  5 16  2  0  0  0  0
  6 11  1  0  0  0  0
  6 15  1  0  0  0  0
  6 16  1  0  0  0  0
  7 16  1  0  0  0  0
  7 18  2  0  0  0  0
  8 18  1  0  0  0  0
  8 32  1  0  0  0  0
  8 33  1  0  0  0  0
  9 10  1  0  0  0  0
  9 11  1  0  0  0  0
  9 13  1  0  0  0  0
 10 12  1  0  0  0  0
 10 19  1  0  0  0  0
 11 20  1  0  0  0  0
 12 14  1  0  0  0  0
 12 21  1  0  0  0  0
 13 22  1  0  0  0  0
 13 23  1  0  0  0  0
 13 24  1  0  0  0  0
 14 25  1  0  0  0  0
 14 26  1  0  0  0  0
 15 17  2  0  0  0  0
 15 29  1  0  0  0  0
 17 18  1  0  0  0  0
 17 31  1  0  0  0  0
M  END
> <PUBCHEM_COMPOUND_CID>
13871033

> <PUBCHEM_CONFORMER_RMSD>
0.6

> <PUBCHEM_CONFORMER_DIVERSEORDER>
17
62
16
42
73
65
13
43
55
2
9
33
24
38
69
18
34
58
35
45
15
37
20
52
57
60
25
75
56
59
61
54
19
71
70
53
31
36
41
68
63
32
44
74
72
64
1
3
30
49
48
21
27
29
76
6
26
28
50
66
7
51
40
5
10
46
39
12
23
4
14
8
47
22
67
11

> <PUBCHEM_MMFF94_PARTIAL_CHARGES>
24
1 -0.56
10 0.28
11 0.58
12 0.28
14 0.28
15 -0.04
16 0.84
17 -0.14
18 0.49
2 -0.68
27 0.4
28 0.4
29 0.15
3 -0.68
30 0.4
31 0.15
32 0.4
33 0.4
4 -0.68
5 -0.57
6 -0.47
7 -0.66
8 -0.85
9 0.28

> <PUBCHEM_EFFECTIVE_ROTOR_COUNT>
3

> <PUBCHEM_PHARMACOPHORE_FEATURES>
12
1 1 acceptor
1 2 acceptor
1 2 donor
1 3 acceptor
1 3 donor
1 4 acceptor
1 4 donor
1 5 acceptor
1 7 donor
1 8 donor
5 1 9 10 11 12 rings
6 6 7 15 16 17 18 rings

> <PUBCHEM_HEAVY_ATOM_COUNT>
18

> <PUBCHEM_ATOM_DEF_STEREO_COUNT>
0

> <PUBCHEM_ATOM_UDEF_STEREO_COUNT>
4

> <PUBCHEM_BOND_DEF_STEREO_COUNT>
0

> <PUBCHEM_BOND_UDEF_STEREO_COUNT>
0

> <PUBCHEM_ISOTOPIC_ATOM_COUNT>
0

> <PUBCHEM_COMPONENT_COUNT>
1

> <PUBCHEM_CACTVS_TAUTO_COUNT>
3

> <PUBCHEM_CONFORMER_ID>
00D3A7B900000011

> <PUBCHEM_MMFF94_ENERGY>
58.0801

> <PUBCHEM_FEATURE_SELFOVERLAP>
60.959

> <PUBCHEM_SHAPE_FINGERPRINT>
10608611 8 18341890831075615016
10646746 165 18336265660757406661
12077114 3 18410287034165369136
12138202 97 18412258458450713598
12236239 1 16298383582387478896
12251169 10 18267021837597908754
124424 183 18413101754305483096
12500047 106 18410848880602261226
13380535 76 18273208707822831518
13464514 151 17981609264898439525
13538477 17 16660935498637516339
13581323 91 18040717021284643610
15219456 202 18272091595350433158
15279308 16 18413669110426072588
15309172 13 17632299033727903574
15375358 24 18272365373988660672
15775835 57 18041273279589360113
15852999 172 18201997724890533270
16945 1 18264205988166420919
17357990 137 16733563640383665126
18186145 218 18199761262209610301
19049666 15 18269284481866542631
19422 9 16732988651742401266
200 152 16702297979507942597
20201158 50 18131072627807868670
20279233 1 18343585148455224380
20510252 161 18411704305022987249
20524608 308 18410006684586348923
20645464 45 18412826914662977979
20645477 56 18412546539155833641
20645477 70 17560802070144773404
21524375 3 18188200993045314981
21639500 275 17132109173691608528
22112679 90 16805611390319659894
23402539 116 18267010829755296711
23493267 7 18410567405815591448
23526113 38 18058447616776192416
23557571 272 18337122219001798581
23559900 14 18338803304421157902
25 1 18131069281780581093
2748010 2 18339092505484754311
276578 36 17677051209540348113
305870 269 18262230019721353019
53812653 166 18337673022924733101
69090 78 18272368728305559839
7364860 26 17905881483940953175
77492 1 16298392378559544630
81228 2 18189339150852312387
84936 182 17834668297774867153

> <PUBCHEM_SHAPE_MULTIPOLES>
326.14
6.81
2.2
1.18
3.1
0.14
-0.02
-3.16
-0.45
-1.77
0.19
0.15
0.27
1.55

> <PUBCHEM_SHAPE_SELFOVERLAP>
687.941

> <PUBCHEM_SHAPE_VOLUME>
182.5

> <PUBCHEM_COORDINATE_TYPE>
2
5
10

$$$$
