REMARK  Name = 13873258
REMARK  6 active torsions:
REMARK  status: ('A' for Active; 'I' for Inactive)
REMARK    1  A    between atoms: N_2  and  C1*_14
REMARK    2  A    between atoms: C_9  and  N_24
REMARK    3  A    between atoms: C2*_13  and  O2*_17
REMARK    4  A    between atoms: C3*_15  and  O3*_19
REMARK    5  A    between atoms: C4*_16  and  C5*_21
REMARK    6  A    between atoms: C5*_21  and  O5*_22
REMARK                            x       y       z     vdW  Elec       q    Type
REMARK                         _______ _______ _______ _____ _____    ______ ____
ROOT
ATOM      1  O   UNL     1       3.857   2.380   0.542  0.00  0.00    -0.193 OA
ATOM      2  N   UNL     1      -0.016  -0.292   0.353  0.00  0.00    -0.236 N 
ATOM      3  N   UNL     1       1.091  -2.132  -0.383  0.00  0.00    -0.245 NA
ATOM      4  N   UNL     1       1.860   1.263   0.519  0.00  0.00    -0.305 NA
ATOM      5  N   UNL     1       3.912   0.198  -0.113  0.00  0.00    -0.235 N 
ATOM      6  C   UNL     1       1.289   0.136   0.275  0.00  0.00    +0.217 C 
ATOM      7  C   UNL     1      -0.062  -1.603  -0.049  0.00  0.00    +0.223 C 
ATOM      8  C   UNL     1       1.996  -1.092  -0.203  0.00  0.00    +0.134 C 
ATOM      9  C   UNL     1       3.318  -1.021  -0.385  0.00  0.00    +0.180 C 
ATOM     10  C   UNL     1       3.232   1.339   0.330  0.00  0.00    +0.268 C 
ATOM     11  H   UNL     1       4.886   0.269  -0.239  0.00  0.00    +0.162 HD
ENDROOT
BRANCH   2  14
ATOM     12  O4* UNL     1      -2.199  -0.276   1.276  0.00  0.00    -0.333 OA
ATOM     13  C2* UNL     1      -1.734   1.188  -0.541  0.00  0.00    +0.187 C 
ATOM     14  C1* UNL     1      -1.153   0.525   0.699  0.00  0.00    +0.226 C 
ATOM     15  C3* UNL     1      -3.204   1.264  -0.199  0.00  0.00    +0.171 C 
ATOM     16  C4* UNL     1      -3.426  -0.034   0.564  0.00  0.00    +0.175 C 
BRANCH  13  17
ATOM     17  O2* UNL     1      -1.195   2.484  -0.740  0.00  0.00    -0.378 OA
ATOM     18  H2* UNL     1      -0.253   2.412  -0.957  0.00  0.00    +0.211 HD
ENDBRANCH  13  17
BRANCH  15  19
ATOM     19  O3* UNL     1      -4.002   1.387  -1.359  0.00  0.00    -0.379 OA
ATOM     20  H3* UNL     1      -3.811   2.232  -1.794  0.00  0.00    +0.211 HD
ENDBRANCH  15  19
BRANCH  16  21
ATOM     21  C5* UNL     1      -3.729  -1.251  -0.304  0.00  0.00    +0.169 C 
BRANCH  21  22
ATOM     22  O5* UNL     1      -3.900  -2.381   0.536  0.00  0.00    -0.379 OA
ATOM     23  H5* UNL     1      -4.093  -3.161  -0.008  0.00  0.00    +0.211 HD
ENDBRANCH  21  22
ENDBRANCH  16  21
ENDBRANCH   2  14
BRANCH   9  24
ATOM     24  N   UNL     1       4.065  -2.080  -0.819  0.00  0.00    -0.301 NA
ATOM     25  H   UNL     1       5.037  -1.981  -0.940  0.00  0.00    +0.121 HD
ATOM     26  H   UNL     1       3.631  -2.942  -1.012  0.00  0.00    +0.121 HD
ENDBRANCH   9  24
TORSDOF 6
