REMARK  Name = 13879996
REMARK  8 active torsions:
REMARK  status: ('A' for Active; 'I' for Inactive)
REMARK    1  A    between atoms: C_5  and  C_27
REMARK    2  A    between atoms: C_7  and  O_19
REMARK    3  A    between atoms: C_9  and  O_17
REMARK    4  A    between atoms: C_13  and  O_23
REMARK    5  A    between atoms: O_19  and  C_21
REMARK    6  A    between atoms: O_23  and  C_25
REMARK    7  A    between atoms: C_27  and  O_28
REMARK    8  A    between atoms: O_28  and  C_30
REMARK                            x       y       z     vdW  Elec       q    Type
REMARK                         _______ _______ _______ _____ _____    ______ ____
ROOT
ATOM      1  O   UNL     1       1.733  -2.373  -2.035  0.00  0.00    -0.351 OA
ATOM      2  O   UNL     1       0.109  -2.258   1.229  0.00  0.00    -0.349 OA
ATOM      3  C   UNL     1       0.684  -0.414  -0.878  0.00  0.00    +0.073 C 
ATOM      4  C   UNL     1       0.859  -1.917  -0.990  0.00  0.00    +0.151 C 
ATOM      5  C   UNL     1      -0.642  -0.195  -0.004  0.00  0.00    +0.079 C 
ATOM      6  C   UNL     1       1.255  -2.362   0.376  0.00  0.00    +0.173 C 
ATOM      7  C   UNL     1       1.968  -0.054  -0.018  0.00  0.00    +0.200 C 
ATOM      8  C   UNL     1       0.376  -2.830  -2.091  0.00  0.00    +0.172 C 
ATOM      9  C   UNL     1       2.371  -1.362   0.711  0.00  0.00    +0.180 C 
ATOM     10  C   UNL     1      -0.482  -0.952   1.361  0.00  0.00    +0.140 C 
ATOM     11  C   UNL     1       0.651   0.318  -2.224  0.00  0.00    +0.006 C 
ATOM     12  C   UNL     1      -1.911  -0.762  -0.723  0.00  0.00    +0.054 C 
ATOM     13  C   UNL     1      -3.201  -0.708   0.114  0.00  0.00    +0.187 C 
ATOM     14  C   UNL     1      -1.772  -1.162   2.108  0.00  0.00    -0.002 C 
ATOM     15  C   UNL     1      -2.998  -1.033   1.572  0.00  0.00    -0.007 C 
ATOM     16  C   UNL     1      -4.235  -1.249   2.396  0.00  0.00    +0.030 C 
ENDROOT
BRANCH   9  17
ATOM     17  O   UNL     1       2.528  -1.184   2.104  0.00  0.00    -0.379 OA
ATOM     18  H   UNL     1       2.779  -2.027   2.512  0.00  0.00    +0.211 HD
ENDBRANCH   9  17
BRANCH   7  19
ATOM     19  O   UNL     1       3.050   0.338  -0.862  0.00  0.00    -0.450 OA
BRANCH  19  21
ATOM     20  O   UNL     1       4.425   0.555   0.982  0.00  0.00    -0.250 OA
ATOM     21  C   UNL     1       4.225   0.614  -0.224  0.00  0.00    +0.318 C 
ATOM     22  C   UNL     1       5.265   1.007  -1.228  0.00  0.00    +0.121 C 
ENDBRANCH  19  21
ENDBRANCH   7  19
BRANCH  13  23
ATOM     23  O   UNL     1      -3.792   0.583  -0.025  0.00  0.00    -0.448 OA
BRANCH  23  25
ATOM     24  O   UNL     1      -4.277   0.268  -2.261  0.00  0.00    -0.250 OA
ATOM     25  C   UNL     1      -4.027   0.991  -1.307  0.00  0.00    +0.318 C 
ATOM     26  C   UNL     1      -3.933   2.485  -1.387  0.00  0.00    +0.121 C 
ENDBRANCH  23  25
ENDBRANCH  13  23
BRANCH   5  27
ATOM     27  C   UNL     1      -0.870   1.318   0.263  0.00  0.00    +0.211 C 
BRANCH  27  28
ATOM     28  O   UNL     1       0.275   1.809   0.919  0.00  0.00    -0.448 OA
BRANCH  28  30
ATOM     29  O   UNL     1      -0.042   3.896  -0.021  0.00  0.00    -0.250 OA
ATOM     30  C   UNL     1       0.588   3.127   0.694  0.00  0.00    +0.318 C 
ATOM     31  C   UNL     1       1.822   3.509   1.452  0.00  0.00    +0.121 C 
ENDBRANCH  28  30
ENDBRANCH  27  28
ENDBRANCH   5  27
TORSDOF 8
