REMARK  Name = 13871040
REMARK  4 active torsions:
REMARK  status: ('A' for Active; 'I' for Inactive)
REMARK    1  A    between atoms: N_2  and  C1*_15
REMARK    2  A    between atoms: C3*_17  and  O3*_19
REMARK    3  A    between atoms: C4*_18  and  C5*_21
REMARK    4  A    between atoms: C5*_21  and  O5*_22
REMARK                            x       y       z     vdW  Elec       q    Type
REMARK                         _______ _______ _______ _____ _____    ______ ____
ROOT
ATOM      1  O   UNL     1      -4.030  -1.974   0.296  0.00  0.00    -0.191 OA
ATOM      2  N   UNL     1       0.122  -0.244  -0.045  0.00  0.00    -0.224 N 
ATOM      3  N   UNL     1      -1.966  -0.993   0.110  0.00  0.00    -0.142 N 
ATOM      4  N   UNL     1      -1.765   1.309  -0.224  0.00  0.00    -0.295 NA
ATOM      5  N   UNL     1      -3.903   0.287  -0.028  0.00  0.00    -0.240 NA
ATOM      6  N   UNL     1      -3.748   2.578  -0.359  0.00  0.00    -0.283 N 
ATOM      7  C   UNL     1      -1.208   0.158  -0.072  0.00  0.00    +0.277 C 
ATOM      8  C   UNL     1       0.145  -1.618   0.143  0.00  0.00    +0.088 C 
ATOM      9  C   UNL     1      -1.116  -2.072   0.240  0.00  0.00    +0.102 C 
ATOM     10  C   UNL     1      -3.343  -0.966   0.138  0.00  0.00    +0.290 C 
ATOM     11  C   UNL     1      -3.152   1.350  -0.198  0.00  0.00    +0.210 C 
ATOM     12  H   UNL     1      -3.194   3.381  -0.488  0.00  0.00    +0.156 HD
ATOM     13  H   UNL     1      -4.730   2.653  -0.347  0.00  0.00    +0.156 HD
ENDROOT
BRANCH   2  15
ATOM     14  O4* UNL     1       2.305  -0.086  -0.965  0.00  0.00    -0.335 OA
ATOM     15  C1* UNL     1       1.262   0.609  -0.262  0.00  0.00    +0.201 C 
ATOM     16  C2* UNL     1       1.856   1.073   1.060  0.00  0.00    +0.083 C 
ATOM     17  C3* UNL     1       3.315   1.253   0.711  0.00  0.00    +0.144 C 
ATOM     18  C4* UNL     1       3.562   0.140  -0.298  0.00  0.00    +0.173 C 
BRANCH  17  19
ATOM     19  O3* UNL     1       3.494   2.507   0.058  0.00  0.00    -0.382 OA
ATOM     20  H3* UNL     1       3.339   3.226   0.691  0.00  0.00    +0.210 HD
ENDBRANCH  17  19
BRANCH  18  21
ATOM     21  C5* UNL     1       3.988  -1.169   0.354  0.00  0.00    +0.169 C 
BRANCH  21  22
ATOM     22  O5* UNL     1       4.183  -2.142  -0.659  0.00  0.00    -0.379 OA
ATOM     23  H5* UNL     1       4.454  -2.981  -0.253  0.00  0.00    +0.211 HD
ENDBRANCH  21  22
ENDBRANCH  18  21
ENDBRANCH   2  15
TORSDOF 4
