REMARK  Name = 13871033
REMARK  5 active torsions:
REMARK  status: ('A' for Active; 'I' for Inactive)
REMARK    1  A    between atoms: C_2  and  O_17
REMARK    2  A    between atoms: C_3  and  O_19
REMARK    3  A    between atoms: C_4  and  N_8
REMARK    4  A    between atoms: C_5  and  C_21
REMARK    5  A    between atoms: C_21  and  O_22
REMARK                            x       y       z     vdW  Elec       q    Type
REMARK                         _______ _______ _______ _____ _____    ______ ____
ROOT
ATOM      1  O   UNL     1      -1.227   0.990  -0.527  0.00  0.00    -0.332 OA
ATOM      2  C   UNL     1      -1.126  -1.240   0.293  0.00  0.00    +0.159 C 
ATOM      3  C   UNL     1      -2.583  -0.842   0.110  0.00  0.00    +0.169 C 
ATOM      4  C   UNL     1      -0.455  -0.222  -0.630  0.00  0.00    +0.234 C 
ATOM      5  C   UNL     1      -2.483   0.679   0.105  0.00  0.00    +0.175 C 
ATOM      6  C   UNL     1      -0.824  -2.690  -0.049  0.00  0.00    +0.036 C 
ENDROOT
BRANCH   4   8
ATOM      7  O   UNL     1       1.783  -1.486  -1.783  0.00  0.00    -0.193 OA
ATOM      8  N   UNL     1       0.912   0.055  -0.303  0.00  0.00    -0.178 N 
ATOM      9  N   UNL     1       3.286  -0.303  -0.562  0.00  0.00    -0.306 NA
ATOM     10  N   UNL     1       4.821   0.911   0.694  0.00  0.00    -0.332 N 
ATOM     11  C   UNL     1       1.186   1.019   0.657  0.00  0.00    +0.083 C 
ATOM     12  C   UNL     1       1.990  -0.624  -0.928  0.00  0.00    +0.276 C 
ATOM     13  C   UNL     1       2.425   1.340   1.024  0.00  0.00    +0.065 C 
ATOM     14  C   UNL     1       3.526   0.607   0.345  0.00  0.00    +0.193 C 
ATOM     15  H   UNL     1       5.571   0.441   0.261  0.00  0.00    +0.145 HD
ATOM     16  H   UNL     1       4.999   1.597   1.377  0.00  0.00    +0.145 HD
ENDBRANCH   4   8
BRANCH   2  17
ATOM     17  O   UNL     1      -0.748  -0.998   1.650  0.00  0.00    -0.380 OA
ATOM     18  H   UNL     1      -0.937  -0.074   1.878  0.00  0.00    +0.211 HD
ENDBRANCH   2  17
BRANCH   3  19
ATOM     19  O   UNL     1      -3.431  -1.303   1.141  0.00  0.00    -0.379 OA
ATOM     20  H   UNL     1      -3.473  -2.272   1.117  0.00  0.00    +0.211 HD
ENDBRANCH   3  19
BRANCH   5  21
ATOM     21  C   UNL     1      -3.615   1.351  -0.651  0.00  0.00    +0.169 C 
BRANCH  21  22
ATOM     22  O   UNL     1      -3.437   2.756  -0.587  0.00  0.00    -0.379 OA
ATOM     23  H   UNL     1      -4.156   3.196  -1.068  0.00  0.00    +0.211 HD
ENDBRANCH  21  22
ENDBRANCH   5  21
TORSDOF 5
