REMARK  Name = 138756762
REMARK  9 active torsions:
REMARK  status: ('A' for Active; 'I' for Inactive)
REMARK    1  A    between atoms: C_2  and  O_18
REMARK    2  A    between atoms: C_3  and  C_20
REMARK    3  A    between atoms: C_4  and  N_8
REMARK    4  A    between atoms: C_12  and  C_15
REMARK    5  A    between atoms: C_15  and  O_16
REMARK    6  A    between atoms: C_20  and  O_21
REMARK    7  A    between atoms: O_21  and  P_22
REMARK    8  A    between atoms: P_22  and  O_24
REMARK    9  A    between atoms: P_22  and  O_26
REMARK                            x       y       z     vdW  Elec       q    Type
REMARK                         _______ _______ _______ _____ _____    ______ ____
ROOT
ATOM      1  O   UNL     1      -0.686   0.521   0.237  0.00  0.00    -0.335 OA
ATOM      2  C   UNL     1      -1.301   2.274  -1.228  0.00  0.00    +0.144 C 
ATOM      3  C   UNL     1      -1.595   0.831  -0.837  0.00  0.00    +0.174 C 
ATOM      4  C   UNL     1       0.389   1.473   0.212  0.00  0.00    +0.202 C 
ATOM      5  C   UNL     1       0.195   2.340  -1.024  0.00  0.00    +0.083 C 
ENDROOT
BRANCH   4   8
ATOM      6  O   UNL     1       2.783   2.401   1.450  0.00  0.00    -0.252 OA
ATOM      7  O   UNL     1       5.120  -1.336   0.137  0.00  0.00    -0.270 OA
ATOM      8  N   UNL     1       1.643   0.777   0.219  0.00  0.00    -0.219 N 
ATOM      9  N   UNL     1       3.936   0.532   0.789  0.00  0.00    -0.236 N 
ATOM     10  C   UNL     1       1.727  -0.454  -0.423  0.00  0.00    +0.074 C 
ATOM     11  C   UNL     1       2.781   1.318   0.861  0.00  0.00    +0.315 C 
ATOM     12  C   UNL     1       2.834  -1.203  -0.491  0.00  0.00    +0.076 C 
ATOM     13  C   UNL     1       4.071  -0.697   0.162  0.00  0.00    +0.252 C 
ATOM     14  H   UNL     1       4.740   0.891   1.230  0.00  0.00    +0.159 HD
BRANCH  12  15
ATOM     15  C   UNL     1       2.897  -2.525  -1.187  0.00  0.00    +0.169 C 
BRANCH  15  16
ATOM     16  O   UNL     1       2.909  -3.573  -0.233  0.00  0.00    -0.377 OA
ATOM     17  H   UNL     1       2.950  -4.427  -0.692  0.00  0.00    +0.211 HD
ENDBRANCH  15  16
ENDBRANCH  12  15
ENDBRANCH   4   8
BRANCH   2  18
ATOM     18  O   UNL     1      -1.921   3.200  -0.345  0.00  0.00    -0.382 OA
ATOM     19  H   UNL     1      -2.883   3.168  -0.466  0.00  0.00    +0.210 HD
ENDBRANCH   2  18
BRANCH   3  20
ATOM     20  C   UNL     1      -3.015   0.544  -0.388  0.00  0.00    +0.186 C 
BRANCH  20  21
ATOM     21  O   UNL     1      -3.127  -0.834  -0.071  0.00  0.00    -0.271 OA
BRANCH  21  22
ATOM     22  P   UNL     1      -4.558  -1.395   0.437  0.00  0.00    +0.473 P 
ATOM     23  O   UNL     1      -4.589  -2.862   0.750  0.00  0.00    -0.227 OA
BRANCH  22  24
ATOM     24  O   UNL     1      -4.902  -0.423   1.683  0.00  0.00    -0.303 OA
ATOM     25  H   UNL     1      -4.859   0.501   1.394  0.00  0.00    +0.222 HD
ENDBRANCH  22  24
BRANCH  22  26
ATOM     26  O   UNL     1      -5.590  -0.909  -0.709  0.00  0.00    -0.303 OA
ATOM     27  H   UNL     1      -5.499   0.047  -0.842  0.00  0.00    +0.222 HD
ENDBRANCH  22  26
ENDBRANCH  21  22
ENDBRANCH  20  21
ENDBRANCH   3  20
TORSDOF 9
