13887579
  -OEChem-03292013303D

 32 33  0     1  0  0  0  0  0999 V2000
   -1.6873   -0.5409    1.0181 O   0  0  0  0  0  0  0  0  0  0  0  0
   -1.5471    2.3545   -1.0929 O   0  0  0  0  0  0  0  0  0  0  0  0
   -3.7252    1.5506    0.3382 O   0  0  0  0  0  0  0  0  0  0  0  0
   -2.6402   -3.0695    0.2665 O   0  0  0  0  0  0  0  0  0  0  0  0
    1.2439    2.3106    0.7221 O   0  0  0  0  0  0  0  0  0  0  0  0
    0.3969    0.2114    0.2732 N   0  0  0  0  0  0  0  0  0  0  0  0
    2.7575    0.7055    0.1888 N   0  0  0  0  0  0  0  0  0  0  0  0
    4.3030   -0.9432   -0.3602 N   0  0  0  0  0  0  0  0  0  0  0  0
    5.3245   -0.0566   -0.1377 N   0  0  0  0  0  0  0  0  0  0  0  0
   -1.6747    0.9781   -0.8006 C   0  0  2  0  0  0  0  0  0  0  0  0
   -3.1070    0.5827   -0.5094 C   0  0  1  0  0  0  0  0  0  0  0  0
   -0.9716    0.5866    0.4877 C   0  0  1  0  0  0  0  0  0  0  0  0
   -2.9273   -0.6980    0.2941 C   0  0  1  0  0  0  0  0  0  0  0  0
   -2.8144   -1.9433   -0.5752 C   0  0  0  0  0  0  0  0  0  0  0  0
    0.6804   -1.0989   -0.0804 C   0  0  0  0  0  0  0  0  0  0  0  0
    1.4612    1.1382    0.4109 C   0  0  0  0  0  0  0  0  0  0  0  0
    1.9198   -1.5342   -0.2994 C   0  0  0  0  0  0  0  0  0  0  0  0
    3.0076   -0.5337   -0.1438 C   0  0  0  0  0  0  0  0  0  0  0  0
   -1.3004    0.4061   -1.6580 H   0  0  0  0  0  0  0  0  0  0  0  0
   -3.7275    0.4778   -1.4031 H   0  0  0  0  0  0  0  0  0  0  0  0
   -1.0091    1.3956    1.2269 H   0  0  0  0  0  0  0  0  0  0  0  0
   -3.7152   -0.8351    1.0435 H   0  0  0  0  0  0  0  0  0  0  0  0
   -1.9774   -1.8981   -1.2759 H   0  0  0  0  0  0  0  0  0  0  0  0
   -3.7354   -2.0855   -1.1501 H   0  0  0  0  0  0  0  0  0  0  0  0
   -0.5982    2.5473   -1.1804 H   0  0  0  0  0  0  0  0  0  0  0  0
   -3.2485    1.5818    1.1843 H   0  0  0  0  0  0  0  0  0  0  0  0
   -0.1332   -1.7997   -0.1807 H   0  0  0  0  0  0  0  0  0  0  0  0
   -2.5843   -3.8515   -0.3087 H   0  0  0  0  0  0  0  0  0  0  0  0
    2.1487   -2.5551   -0.5744 H   0  0  0  0  0  0  0  0  0  0  0  0
    4.5369   -1.9093   -0.5659 H   0  0  0  0  0  0  0  0  0  0  0  0
    6.0811   -0.2605   -0.7892 H   0  0  0  0  0  0  0  0  0  0  0  0
    5.7033   -0.2225    0.7937 H   0  0  0  0  0  0  0  0  0  0  0  0
  1 12  1  0  0  0  0
  1 13  1  0  0  0  0
  2 10  1  0  0  0  0
  2 25  1  0  0  0  0
  3 11  1  0  0  0  0
  3 26  1  0  0  0  0
  4 14  1  0  0  0  0
  4 28  1  0  0  0  0
  5 16  2  0  0  0  0
  6 12  1  0  0  0  0
  6 15  1  0  0  0  0
  6 16  1  0  0  0  0
  7 16  1  0  0  0  0
  7 18  2  0  0  0  0
  8  9  1  0  0  0  0
  8 18  1  0  0  0  0
  8 30  1  0  0  0  0
  9 31  1  0  0  0  0
  9 32  1  0  0  0  0
 10 11  1  0  0  0  0
 10 12  1  0  0  0  0
 10 19  1  0  0  0  0
 11 13  1  0  0  0  0
 11 20  1  0  0  0  0
 12 21  1  0  0  0  0
 13 14  1  0  0  0  0
 13 22  1  0  0  0  0
 14 23  1  0  0  0  0
 14 24  1  0  0  0  0
 15 17  2  0  0  0  0
 15 27  1  0  0  0  0
 17 18  1  0  0  0  0
 17 29  1  0  0  0  0
M  END
> <PUBCHEM_COMPOUND_CID>
13887579

> <PUBCHEM_CONFORMER_RMSD>
0.6

> <PUBCHEM_CONFORMER_DIVERSEORDER>
1
29
15
27
25
14
28
4
23
13
17
19
10
9
16
11
8
18
22
7
20
24
26
12
21
6
5
3
2

> <PUBCHEM_MMFF94_PARTIAL_CHARGES>
26
1 -0.56
10 0.28
11 0.28
12 0.58
13 0.28
14 0.28
15 -0.04
16 0.84
17 -0.14
18 0.49
2 -0.68
25 0.4
26 0.4
27 0.15
28 0.4
29 0.15
3 -0.68
30 0.4
31 0.36
32 0.36
4 -0.68
5 -0.57
6 -0.47
7 -0.66
8 -0.46
9 -0.71

> <PUBCHEM_EFFECTIVE_ROTOR_COUNT>
4

> <PUBCHEM_PHARMACOPHORE_FEATURES>
13
1 1 acceptor
1 2 acceptor
1 2 donor
1 3 acceptor
1 3 donor
1 4 acceptor
1 4 donor
1 5 acceptor
1 7 donor
1 8 donor
1 9 donor
5 1 10 11 12 13 rings
6 6 7 15 16 17 18 rings

> <PUBCHEM_HEAVY_ATOM_COUNT>
18

> <PUBCHEM_ATOM_DEF_STEREO_COUNT>
4

> <PUBCHEM_ATOM_UDEF_STEREO_COUNT>
0

> <PUBCHEM_BOND_DEF_STEREO_COUNT>
0

> <PUBCHEM_BOND_UDEF_STEREO_COUNT>
0

> <PUBCHEM_ISOTOPIC_ATOM_COUNT>
0

> <PUBCHEM_COMPONENT_COUNT>
1

> <PUBCHEM_CACTVS_TAUTO_COUNT>
3

> <PUBCHEM_CONFORMER_ID>
00D3E85B00000001

> <PUBCHEM_MMFF94_ENERGY>
55.6667

> <PUBCHEM_FEATURE_SELFOVERLAP>
67.592

> <PUBCHEM_SHAPE_FINGERPRINT>
10608611 8 18411694409054496017
11132069 177 18413106165089365490
12032990 46 18272093790532538382
12500047 106 18409444748371530815
12932764 1 17967522459182725625
14115302 16 18336838506357799701
14965852 173 18412262852407855593
15196674 1 18413108394398743154
15219456 202 18411978095923423001
16945 1 18264191557176435697
19107657 46 18413389821730231374
19141452 34 18342181111341976427
200 152 17775559832232970135
20201158 50 18339923718763089682
20645477 56 18335983065089799733
21501502 16 18337392741906862645
221490 88 18267869569589821490
22213442 358 18413108381134150110
23402539 116 17458061556251393206
23557571 272 18341620321092070710
23559900 14 18269544091286237769
238 59 15803792165610240797
2748010 2 18266167525547572757
2871803 45 18264759038436899119
3286 77 18200310051561132028
3312278 4 18343023259385170410
34934 24 18340202986353626026
5104073 3 18342174501059936346
5493415 88 18343018930142486658
69090 78 18337948996549413111
74978 22 18341892991607416073
8809292 202 18409168822229166763

> <PUBCHEM_SHAPE_MULTIPOLES>
321.16
7.38
2.4
0.83
6.68
0.47
0.04
1.33
0.62
-1.78
0.08
-0.32
-0.16
0.54

> <PUBCHEM_SHAPE_SELFOVERLAP>
674.909

> <PUBCHEM_SHAPE_VOLUME>
180.4

> <PUBCHEM_COORDINATE_TYPE>
2
5
10

$$$$
