REMARK  Name = 13888976
REMARK  6 active torsions:
REMARK  status: ('A' for Active; 'I' for Inactive)
REMARK    1  A    between atoms: C_3  and  O_12
REMARK    2  A    between atoms: C_3  and  C_16
REMARK    3  A    between atoms: C_11  and  O_14
REMARK    4  A    between atoms: C_16  and  C_17
REMARK    5  A    between atoms: C_20  and  O_23
REMARK    6  A    between atoms: C_22  and  O_25
REMARK                            x       y       z     vdW  Elec       q    Type
REMARK                         _______ _______ _______ _____ _____    ______ ____
ROOT
ATOM      1  O   UNL     1       0.959  -1.018   0.802  0.00  0.00    -0.472 OA
ATOM      2  O   UNL     1       1.794   2.890  -0.155  0.00  0.00    -0.289 OA
ATOM      3  C   UNL     1       0.106   1.249   0.398  0.00  0.00    +0.187 C 
ATOM      4  C   UNL     1       0.220   0.071   1.359  0.00  0.00    +0.240 C 
ATOM      5  C   UNL     1       1.512   1.718   0.067  0.00  0.00    +0.204 C 
ATOM      6  C   UNL     1       2.543   0.659   0.001  0.00  0.00    +0.071 C 
ATOM      7  C   UNL     1       2.203  -0.650   0.359  0.00  0.00    +0.144 C 
ATOM      8  C   UNL     1       3.834   0.957  -0.441  0.00  0.00    +0.009 C 
ATOM      9  C   UNL     1       3.150  -1.668   0.240  0.00  0.00    +0.074 C 
ATOM     10  C   UNL     1       4.782  -0.063  -0.540  0.00  0.00    +0.037 C 
ATOM     11  C   UNL     1       4.439  -1.373  -0.205  0.00  0.00    +0.137 C 
ENDROOT
BRANCH   3  12
ATOM     12  O   UNL     1      -0.577   2.303   1.060  0.00  0.00    -0.376 OA
ATOM     13  H   UNL     1      -1.478   2.017   1.278  0.00  0.00    +0.211 HD
ENDBRANCH   3  12
BRANCH  11  14
ATOM     14  O   UNL     1       5.365  -2.365  -0.311  0.00  0.00    -0.505 OA
ATOM     15  H   UNL     1       5.136  -3.246  -0.086  0.00  0.00    +0.292 HD
ENDBRANCH  11  14
BRANCH   3  16
ATOM     16  C   UNL     1      -0.642   0.894  -0.886  0.00  0.00    +0.065 C 
BRANCH  16  17
ATOM     17  C   UNL     1      -2.042   0.424  -0.600  0.00  0.00    -0.016 C 
ATOM     18  C   UNL     1      -2.280  -0.928  -0.387  0.00  0.00    +0.036 C 
ATOM     19  C   UNL     1      -3.078   1.347  -0.552  0.00  0.00    -0.001 C 
ATOM     20  C   UNL     1      -3.578  -1.364  -0.122  0.00  0.00    +0.167 C 
ATOM     21  C   UNL     1      -4.376   0.910  -0.287  0.00  0.00    +0.039 C 
ATOM     22  C   UNL     1      -4.626  -0.445  -0.072  0.00  0.00    +0.167 C 
BRANCH  20  23
ATOM     23  O   UNL     1      -3.810  -2.690   0.085  0.00  0.00    -0.503 OA
ATOM     24  H   UNL     1      -3.101  -3.301   0.050  0.00  0.00    +0.292 HD
ENDBRANCH  20  23
BRANCH  22  25
ATOM     25  O   UNL     1      -5.898  -0.858   0.186  0.00  0.00    -0.503 OA
ATOM     26  H   UNL     1      -6.074  -1.767   0.332  0.00  0.00    +0.292 HD
ENDBRANCH  22  25
ENDBRANCH  16  17
ENDBRANCH   3  16
TORSDOF 6
