REMARK  Name = 13889849
REMARK  7 active torsions:
REMARK  status: ('A' for Active; 'I' for Inactive)
REMARK    1  A    between atoms: C_13  and  C_25
REMARK    2  A    between atoms: C_25  and  C_26
REMARK    3  A    between atoms: C_26  and  C_27
REMARK    4  A    between atoms: C_27  and  C_28
REMARK    5  A    between atoms: C_28  and  C_29
REMARK    6  A    between atoms: C_29  and  C_31
REMARK    7  A    between atoms: C_31  and  C_33
REMARK                            x       y       z     vdW  Elec       q    Type
REMARK                         _______ _______ _______ _____ _____    ______ ____
ROOT
ATOM      1  O   UNK A   4       1.117  -0.743  -1.742  0.00  0.00    -0.273 OA
ATOM      2  O   PRO A   1       4.820  -1.120   0.659  0.00  0.00    -0.273 OA
ATOM      3  O   ALA A   3       1.683   0.794   2.458  0.00  0.00    -0.273 OA
ATOM      4  O   ALA A   2       2.809   2.315  -1.798  0.00  0.00    -0.273 OA
ATOM      5  N   PRO A   1       1.934  -1.903   0.075  0.00  0.00    -0.272 N 
ATOM      6  N   UNK A   4       0.588   1.007   0.419  0.00  0.00    -0.297 N 
ATOM      7  N   ALA A   2       4.164  -0.315  -1.414  0.00  0.00    -0.297 N 
ATOM      8  N   ALA A   3       3.459   2.087   0.420  0.00  0.00    -0.297 N 
ATOM      9  CA  PRO A   1       3.151  -2.364  -0.594  0.00  0.00    +0.152 C 
ATOM     10  CB  PRO A   1       3.512  -3.655   0.133  0.00  0.00    +0.031 C 
ATOM     11  CD  PRO A   1       1.738  -2.585   1.352  0.00  0.00    +0.094 C 
ATOM     12  CG  PRO A   1       2.975  -3.450   1.546  0.00  0.00    +0.024 C 
ATOM     13  C   UNK A   4       0.027  -0.340   0.356  0.00  0.00    +0.149 C 
ATOM     14  C   UNK A   4       1.036  -1.046  -0.547  0.00  0.00    +0.244 C 
ATOM     15  C   PRO A   1       4.169  -1.241  -0.377  0.00  0.00    +0.241 C 
ATOM     16  CA  ALA A   2       4.778   1.002  -1.303  0.00  0.00    +0.149 C 
ATOM     17  C   ALA A   3       1.460   1.416   1.422  0.00  0.00    +0.241 C 
ATOM     18  CA  ALA A   3       2.257   2.653   1.025  0.00  0.00    +0.149 C 
ATOM     19  C   ALA A   2       3.602   1.906  -0.950  0.00  0.00    +0.241 C 
ATOM     20  CB  ALA A   2       5.426   1.410  -2.616  0.00  0.00    +0.031 C 
ATOM     21  CB  ALA A   3       2.607   3.511   2.229  0.00  0.00    +0.031 C 
ATOM     22  H   UNK A   4       0.338   1.654  -0.279  0.00  0.00    +0.150 HD
ATOM     23  H   ALA A   2       3.725  -0.560  -2.261  0.00  0.00    +0.150 HD
ATOM     24  H   ALA A   3       4.202   1.822   1.010  0.00  0.00    +0.150 HD
ENDROOT
BRANCH  13  25
ATOM     25  C   UNK A   4      -1.359  -0.324  -0.269  0.00  0.00    +0.029 C 
BRANCH  25  26
ATOM     26  C   UNK A   4      -2.379   0.349   0.648  0.00  0.00    +0.002 C 
BRANCH  26  27
ATOM     27  C   UNK A   4      -3.766   0.393   0.002  0.00  0.00    +0.001 C 
BRANCH  27  28
ATOM     28  C   UNK A   4      -4.777   1.103   0.907  0.00  0.00    +0.008 C 
BRANCH  28  29
ATOM     29  C   UNK A   4      -6.165   1.188   0.278  0.00  0.00    +0.067 C 
BRANCH  29  31
ATOM     30  O   UNK A   4      -6.553  -1.142   0.756  0.00  0.00    -0.293 OA
ATOM     31  C   UNK A   4      -6.770  -0.174   0.035  0.00  0.00    +0.180 C 
BRANCH  31  33
ATOM     32  O   UNK A   4      -8.920  -0.909  -0.801  0.00  0.00    -0.343 OA
ATOM     33  C   UNK A   4      -7.678  -0.302  -1.141  0.00  0.00    +0.201 C 
ATOM     34  C   UNK A   4      -8.946   0.477  -1.170  0.00  0.00    +0.180 C 
ENDBRANCH  31  33
ENDBRANCH  29  31
ENDBRANCH  28  29
ENDBRANCH  27  28
ENDBRANCH  26  27
ENDBRANCH  25  26
ENDBRANCH  13  25
TORSDOF 7
