REMARK  Name = 13887579
REMARK  6 active torsions:
REMARK  status: ('A' for Active; 'I' for Inactive)
REMARK    1  A    between atoms: N_2  and  C1*_13
REMARK    2  A    between atoms: N_4  and  N_22
REMARK    3  A    between atoms: C2*_11  and  O2*_15
REMARK    4  A    between atoms: C3*_12  and  O3*_17
REMARK    5  A    between atoms: C4*_14  and  C5*_19
REMARK    6  A    between atoms: C5*_19  and  O5*_20
REMARK                            x       y       z     vdW  Elec       q    Type
REMARK                         _______ _______ _______ _____ _____    ______ ____
ROOT
ATOM      1  O   UNL     1       1.244   2.311   0.722  0.00  0.00    -0.193 OA
ATOM      2  N   UNL     1       0.397   0.211   0.273  0.00  0.00    -0.178 N 
ATOM      3  N   UNL     1       2.757   0.706   0.189  0.00  0.00    -0.305 NA
ATOM      4  N   UNL     1       4.303  -0.943  -0.360  0.00  0.00    -0.256 N 
ATOM      5  C   UNL     1       0.680  -1.099  -0.080  0.00  0.00    +0.084 C 
ATOM      6  C   UNL     1       1.461   1.138   0.411  0.00  0.00    +0.276 C 
ATOM      7  C   UNL     1       1.920  -1.534  -0.299  0.00  0.00    +0.067 C 
ATOM      8  C   UNL     1       3.008  -0.534  -0.144  0.00  0.00    +0.209 C 
ATOM      9  H   UNL     1       4.493  -1.858  -0.670  0.00  0.00    +0.168 HD
ENDROOT
BRANCH   2  13
ATOM     10  O4* UNL     1      -1.687  -0.541   1.018  0.00  0.00    -0.332 OA
ATOM     11  C2* UNL     1      -1.675   0.978  -0.801  0.00  0.00    +0.188 C 
ATOM     12  C3* UNL     1      -3.107   0.583  -0.509  0.00  0.00    +0.171 C 
ATOM     13  C1* UNL     1      -0.972   0.587   0.488  0.00  0.00    +0.236 C 
ATOM     14  C4* UNL     1      -2.927  -0.698   0.294  0.00  0.00    +0.175 C 
BRANCH  11  15
ATOM     15  O2* UNL     1      -1.547   2.354  -1.093  0.00  0.00    -0.378 OA
ATOM     16  H2* UNL     1      -2.011   2.553  -1.921  0.00  0.00    +0.211 HD
ENDBRANCH  11  15
BRANCH  12  17
ATOM     17  O3* UNL     1      -3.725   1.551   0.338  0.00  0.00    -0.379 OA
ATOM     18  H3* UNL     1      -3.850   2.378  -0.153  0.00  0.00    +0.211 HD
ENDBRANCH  12  17
BRANCH  14  19
ATOM     19  C5* UNL     1      -2.814  -1.943  -0.575  0.00  0.00    +0.169 C 
BRANCH  19  20
ATOM     20  O5* UNL     1      -2.640  -3.070   0.267  0.00  0.00    -0.379 OA
ATOM     21  H5* UNL     1      -2.567  -3.870  -0.276  0.00  0.00    +0.211 HD
ENDBRANCH  19  20
ENDBRANCH  14  19
ENDBRANCH   2  13
BRANCH   4  22
ATOM     22  N   UNL     1       5.324  -0.057  -0.138  0.00  0.00    -0.255 NA
ATOM     23  H   UNL     1       4.939   0.834   0.177  0.00  0.00    +0.140 HD
ATOM     24  H   UNL     1       5.846   0.085  -1.003  0.00  0.00    +0.140 HD
ENDBRANCH   4  22
TORSDOF 6
