REMARK  Name = 13894650
REMARK  11 active torsions:
REMARK  status: ('A' for Active; 'I' for Inactive)
REMARK    1  A    between atoms: N_2  and  C_16
REMARK    2  A    between atoms: C_3  and  C_5
REMARK    3  A    between atoms: C_5  and  C_6
REMARK    4  A    between atoms: C_6  and  C_7
REMARK    5  A    between atoms: C_7  and  N_8
REMARK    6  A    between atoms: C_7  and  C_13
REMARK    7  A    between atoms: C_13  and  O_14
REMARK    8  A    between atoms: C_16  and  C_18
REMARK    9  A    between atoms: C_16  and  C_21
REMARK   10  A    between atoms: C_18  and  O_19
REMARK   11  A    between atoms: C_21  and  S_22
REMARK                            x       y       z     vdW  Elec       q    Type
REMARK                         _______ _______ _______ _____ _____    ______ ____
ROOT
ATOM      1  O   UNK     1      -0.038   0.872  -1.913  0.00  0.00    -0.275 OA
ATOM      2  N   UNK     1      -1.131   0.497   0.102  0.00  0.00    -0.296 N 
ATOM      3  C   UNK     1      -0.013   0.655  -0.705  0.00  0.00    +0.223 C 
ATOM      4  H   UNK     1      -0.998   0.326   1.062  0.00  0.00    +0.150 HD
ENDROOT
BRANCH   3   5
ATOM      5  C   UNK     1       1.274   0.516   0.090  0.00  0.00    +0.083 C 
BRANCH   5   6
ATOM      6  C   UNK     1       2.520   0.687  -0.781  0.00  0.00    -0.001 C 
BRANCH   6   7
ATOM      7  C   UNK     1       3.823   0.622   0.024  0.00  0.00    +0.036 C 
BRANCH   7   8
ATOM      8  N   UNK     1       4.964   0.792  -0.879  0.00  0.00    +0.389 N 
ATOM      9  H   UNK     1       4.893   1.693  -1.351  0.00  0.00    -0.088 HD
ATOM     10  H   UNK     1       4.964   0.044  -1.572  0.00  0.00    -0.088 HD
ATOM     11  H   UNK     1       5.830   0.757  -0.341  0.00  0.00    -0.088 HD
ENDBRANCH   7   8
BRANCH   7  13
ATOM     12  O   UNK     1       4.496  -1.717   0.163  0.00  0.00    -0.253 OA
ATOM     13  C   UNK     1       3.993  -0.732   0.689  0.00  0.00    +0.293 C 
BRANCH  13  14
ATOM     14  O   UNK     1       3.493  -0.751   1.952  0.00  0.00    -0.482 OA
ATOM     15  H   UNK     1       3.115   0.024   2.318  0.00  0.00    +0.295 HD
ENDBRANCH  13  14
ENDBRANCH   7  13
ENDBRANCH   6   7
ENDBRANCH   5   6
ENDBRANCH   3   5
BRANCH   2  16
ATOM     16  C   UNK     1      -2.481   0.574  -0.406  0.00  0.00    +0.182 C 
BRANCH  16  18
ATOM     17  O   UNK     1      -4.601   1.474   0.352  0.00  0.00    -0.248 OA
ATOM     18  C   UNK     1      -3.429   1.210   0.596  0.00  0.00    +0.333 C 
BRANCH  18  19
ATOM     19  O   UNK     1      -2.848   1.473   1.791  0.00  0.00    -0.479 OA
ATOM     20  H   UNK     1      -1.948   1.253   1.933  0.00  0.00    +0.295 HD
ENDBRANCH  18  19
ENDBRANCH  16  18
BRANCH  16  21
ATOM     21  C   UNK     1      -2.983  -0.784  -0.904  0.00  0.00    +0.089 C 
BRANCH  21  22
ATOM     22  S   UNK     1      -3.206  -2.016   0.422  0.00  0.00    -0.137 S 
ATOM     23  C   UNK     1      -3.832  -3.372  -0.593  0.00  0.00    +0.069 C 
ENDBRANCH  21  22
ENDBRANCH  16  21
ENDBRANCH   2  16
TORSDOF 11
