REMARK  Name = 139061834
REMARK  8 active torsions:
REMARK  status: ('A' for Active; 'I' for Inactive)
REMARK    1  A    between atoms: C_1  and  C_3
REMARK    2  A    between atoms: C_1  and  C_17
REMARK    3  A    between atoms: C_3  and  N_4
REMARK    4  A    between atoms: C_11  and  S_13
REMARK    5  A    between atoms: C_12  and  S_15
REMARK    6  A    between atoms: C_17  and  N_18
REMARK    7  A    between atoms: C_25  and  S_27
REMARK    8  A    between atoms: C_26  and  S_29
REMARK                            x       y       z     vdW  Elec       q    Type
REMARK                         _______ _______ _______ _____ _____    ______ ____
ROOT
ATOM      1  C   UNL     1       3.364   0.566  -0.761  0.00  0.00    -0.003 C 
ATOM      2  C   UNL     1       3.656   0.122  -1.996  0.00  0.00    -0.006 C 
ENDROOT
BRANCH   1   3
ATOM      3  C   UNL     1       3.003   2.018  -0.526  0.00  0.00    +0.119 C 
BRANCH   3   4
ATOM      4  N   UNL     1       1.599   2.240  -0.017  0.00  0.00    -0.257 N 
ATOM      5  N   UNL     1      -0.050   2.921   1.320  0.00  0.00    -0.241 NA
ATOM      6  N   UNL     1       0.300   1.181  -1.775  0.00  0.00    -0.318 NA
ATOM      7  N   UNL     1      -2.094   1.327  -1.319  0.00  0.00    -0.327 NA
ATOM      8  C   UNL     1       0.437   1.844  -0.617  0.00  0.00    +0.218 C 
ATOM      9  C   UNL     1      -0.573   2.276   0.227  0.00  0.00    +0.159 C 
ATOM     10  C   UNL     1       1.254   2.882   1.143  0.00  0.00    +0.222 C 
ATOM     11  C   UNL     1      -1.879   1.995  -0.160  0.00  0.00    +0.191 C 
ATOM     12  C   UNL     1      -1.007   0.966  -2.043  0.00  0.00    +0.170 C 
BRANCH  11  13
ATOM     13  S   UNL     1      -3.236   2.499   0.841  0.00  0.00    -0.079 S 
ATOM     14  C   UNL     1      -4.667   1.894  -0.106  0.00  0.00    +0.077 C 
ENDBRANCH  11  13
BRANCH  12  15
ATOM     15  S   UNL     1      -1.350   0.089  -3.561  0.00  0.00    -0.017 S 
ATOM     16  C   UNL     1      -2.893  -0.770  -3.144  0.00  0.00    +0.087 C 
ENDBRANCH  12  15
ENDBRANCH   3   4
ENDBRANCH   1   3
BRANCH   1  17
ATOM     17  C   UNL     1       3.486  -0.350   0.439  0.00  0.00    +0.142 C 
BRANCH  17  18
ATOM     18  N   UNL     1       2.265  -0.517   1.191  0.00  0.00    -0.183 N 
ATOM     19  N   UNL     1       2.097   0.160   2.342  0.00  0.00    -0.178 NA
ATOM     20  N   UNL     1       1.091  -2.102  -0.213  0.00  0.00    -0.322 NA
ATOM     21  N   UNL     1      -1.089  -2.685   0.712  0.00  0.00    -0.332 NA
ATOM     22  C   UNL     1       1.208  -1.315   0.868  0.00  0.00    +0.205 C 
ATOM     23  C   UNL     1       0.280  -1.149   1.881  0.00  0.00    +0.171 C 
ATOM     24  C   UNL     1       0.886  -0.229   2.758  0.00  0.00    +0.107 C 
ATOM     25  C   UNL     1      -0.905  -1.870   1.779  0.00  0.00    +0.161 C 
ATOM     26  C   UNL     1      -0.095  -2.749  -0.204  0.00  0.00    +0.169 C 
BRANCH  25  27
ATOM     27  S   UNL     1      -2.154  -1.736   3.013  0.00  0.00    -0.084 S 
ATOM     28  C   UNL     1      -3.676  -2.034   2.060  0.00  0.00    +0.076 C 
ENDBRANCH  25  27
BRANCH  26  29
ATOM     29  S   UNL     1      -0.392  -3.838  -1.588  0.00  0.00    -0.017 S 
ATOM     30  C   UNL     1       1.135  -3.637  -2.546  0.00  0.00    +0.087 C 
ENDBRANCH  26  29
ENDBRANCH  17  18
ENDBRANCH   1  17
TORSDOF 8
