REMARK  Name = 139060044
REMARK  8 active torsions:
REMARK  status: ('A' for Active; 'I' for Inactive)
REMARK    1  A    between atoms: C_3  and  C_16
REMARK    2  A    between atoms: C_5  and  C_9
REMARK    3  A    between atoms: N_8  and  C_11
REMARK    4  A    between atoms: C_11  and  C_13
REMARK    5  A    between atoms: C_13  and  O_14
REMARK    6  A    between atoms: C_16  and  N_18
REMARK    7  A    between atoms: C_19  and  O_21
REMARK    8  A    between atoms: O_21  and  C_22
REMARK                            x       y       z     vdW  Elec       q    Type
REMARK                         _______ _______ _______ _____ _____    ______ ____
ROOT
ATOM      1  O   UNL     1      -0.196  -0.061   0.327  0.00  0.00    -0.273 OA
ATOM      2  N   UNL     1       0.657  -2.224   0.187  0.00  0.00    -0.282 N 
ATOM      3  C   UNL     1      -0.327  -1.278   0.441  0.00  0.00    +0.246 C 
ATOM      4  H   UNL     1       0.432  -3.174   0.315  0.00  0.00    +0.155 HD
ATOM      5  C   UNL     1       1.919  -1.910  -0.231  0.00  0.00    +0.082 C 
ATOM      6  C   UNL     1       2.831  -2.863  -0.464  0.00  0.00    +0.052 C 
ENDROOT
BRANCH   5   9
ATOM      7  O   UNL     1       2.148   0.058  -1.549  0.00  0.00    -0.269 OA
ATOM      8  N   UNL     1       2.835   0.141   0.660  0.00  0.00    -0.291 N 
ATOM      9  C   UNL     1       2.299  -0.481  -0.454  0.00  0.00    +0.256 C 
ATOM     10  H   UNL     1       2.916  -0.372   1.496  0.00  0.00    +0.150 HD
BRANCH   8  11
ATOM     11  C   UNL     1       3.279   1.516   0.642  0.00  0.00    +0.201 C 
BRANCH  11  13
ATOM     12  O   UNL     1       5.277   2.763   0.181  0.00  0.00    -0.248 OA
ATOM     13  C   UNL     1       4.732   1.667   0.256  0.00  0.00    +0.337 C 
BRANCH  13  14
ATOM     14  O   UNL     1       5.331   0.470   0.011  0.00  0.00    -0.443 OA
ATOM     15  C   UNL     1       6.712   0.530  -0.362  0.00  0.00    +0.256 C 
ENDBRANCH  13  14
ENDBRANCH  11  13
ENDBRANCH   8  11
ENDBRANCH   5   9
BRANCH   3  16
ATOM     16  C   UNL     1      -1.631  -1.935   0.841  0.00  0.00    +0.179 C 
BRANCH  16  18
ATOM     17  O   UNL     1      -3.511  -0.738  -1.023  0.00  0.00    -0.226 OA
ATOM     18  N   UNL     1      -2.621  -0.934   1.112  0.00  0.00    -0.262 N 
ATOM     19  C   UNL     1      -3.482  -0.415   0.160  0.00  0.00    +0.402 C 
ATOM     20  H   UNL     1      -2.693  -0.594   2.034  0.00  0.00    +0.153 HD
BRANCH  19  21
ATOM     21  O   UNL     1      -4.303   0.518   0.729  0.00  0.00    -0.442 OA
BRANCH  21  22
ATOM     22  C   UNL     1      -5.249   1.137  -0.150  0.00  0.00    +0.138 C 
ATOM     23  C   UNL     1      -6.153   0.052  -0.733  0.00  0.00    +0.044 C 
ATOM     24  C   UNL     1      -6.064   2.129   0.676  0.00  0.00    +0.044 C 
ATOM     25  C   UNL     1      -4.483   1.860  -1.256  0.00  0.00    +0.044 C 
ENDBRANCH  21  22
ENDBRANCH  19  21
ENDBRANCH  16  18
ENDBRANCH   3  16
TORSDOF 8
