REMARK  Name = 139044387
REMARK  7 active torsions:
REMARK  status: ('A' for Active; 'I' for Inactive)
REMARK    1  A    between atoms: C_5  and  O_23
REMARK    2  A    between atoms: C_8  and  O_25
REMARK    3  A    between atoms: C_9  and  C_33
REMARK    4  A    between atoms: C_16  and  O_27
REMARK    5  A    between atoms: C_18  and  O_29
REMARK    6  A    between atoms: C_19  and  C_35
REMARK    7  A    between atoms: C_20  and  O_31
REMARK                            x       y       z     vdW  Elec       q    Type
REMARK                         _______ _______ _______ _____ _____    ______ ____
ROOT
ATOM      1  O   UNL     1      -2.234  -2.322  -0.592  0.00  0.00    -0.334 OA
ATOM      2  O   UNL     1      -0.712   1.985  -2.001  0.00  0.00    -0.426 OA
ATOM      3  O   UNL     1      -0.059   0.274   2.712  0.00  0.00    -0.291 OA
ATOM      4  O   UNL     1      -0.696   4.244  -2.217  0.00  0.00    -0.244 OA
ATOM      5  C   UNL     1      -0.944  -2.108   0.016  0.00  0.00    +0.218 C 
ATOM      6  C   UNL     1      -1.199  -1.160   1.175  0.00  0.00    +0.122 C 
ATOM      7  C   UNL     1      -2.333  -0.285   0.661  0.00  0.00    +0.067 C 
ATOM      8  C   UNL     1       0.029  -1.531  -1.036  0.00  0.00    +0.161 C 
ATOM      9  C   UNL     1      -3.148  -1.295  -0.162  0.00  0.00    +0.122 C 
ATOM     10  C   UNL     1      -0.600  -0.435  -1.932  0.00  0.00    +0.100 C 
ATOM     11  C   UNL     1      -1.868   0.913  -0.166  0.00  0.00    +0.045 C 
ATOM     12  C   UNL     1       1.298  -1.007  -0.374  0.00  0.00    +0.015 C 
ATOM     13  C   UNL     1       0.009  -0.404   1.690  0.00  0.00    +0.181 C 
ATOM     14  C   UNL     1      -1.115   0.825  -1.284  0.00  0.00    +0.128 C 
ATOM     15  C   UNL     1       1.276  -0.476   0.925  0.00  0.00    +0.067 C 
ATOM     16  C   UNL     1      -2.243   2.250   0.276  0.00  0.00    +0.144 C 
ATOM     17  C   UNL     1       2.516  -0.984  -1.078  0.00  0.00    +0.035 C 
ATOM     18  C   UNL     1       2.443   0.035   1.511  0.00  0.00    +0.135 C 
ATOM     19  C   UNL     1       3.642   0.026   0.802  0.00  0.00    +0.045 C 
ATOM     20  C   UNL     1       3.678  -0.478  -0.493  0.00  0.00    +0.137 C 
ATOM     21  C   UNL     1      -1.865   3.348  -0.387  0.00  0.00    +0.119 C 
ATOM     22  C   UNL     1      -1.048   3.243  -1.603  0.00  0.00    +0.349 C 
ENDROOT
BRANCH   5  23
ATOM     23  O   UNL     1      -0.451  -3.331   0.565  0.00  0.00    -0.361 OA
ATOM     24  H   UNL     1      -1.081  -3.669   1.220  0.00  0.00    +0.213 HD
ENDBRANCH   5  23
BRANCH   8  25
ATOM     25  O   UNL     1       0.327  -2.616  -1.938  0.00  0.00    -0.377 OA
ATOM     26  H   UNL     1      -0.494  -2.932  -2.345  0.00  0.00    +0.211 HD
ENDBRANCH   8  25
BRANCH  16  27
ATOM     27  O   UNL     1      -3.010   2.333   1.421  0.00  0.00    -0.471 OA
ATOM     28  C   UNL     1      -4.387   2.296   1.104  0.00  0.00    +0.252 C 
ENDBRANCH  16  27
BRANCH  18  29
ATOM     29  O   UNL     1       2.456   0.536   2.781  0.00  0.00    -0.506 OA
ATOM     30  H   UNL     1       1.666   0.556   3.285  0.00  0.00    +0.292 HD
ENDBRANCH  18  29
BRANCH  20  31
ATOM     31  O   UNL     1       4.838  -0.484  -1.209  0.00  0.00    -0.472 OA
ATOM     32  C   UNL     1       4.781  -1.021  -2.529  0.00  0.00    +0.252 C 
ENDBRANCH  20  31
BRANCH   9  33
ATOM     33  C   UNL     1      -4.247  -1.972   0.652  0.00  0.00    +0.030 C 
ATOM     34  C   UNL     1      -4.946  -3.053  -0.150  0.00  0.00    +0.003 C 
ENDBRANCH   9  33
BRANCH  19  35
ATOM     35  C   UNL     1       4.891   0.564   1.425  0.00  0.00    +0.033 C 
ATOM     36  C   UNL     1       4.920   2.089   1.435  0.00  0.00    +0.005 C 
ENDBRANCH  19  35
TORSDOF 7
