REMARK  Name = 139061835
REMARK  6 active torsions:
REMARK  status: ('A' for Active; 'I' for Inactive)
REMARK    1  A    between atoms: C_1  and  C_3
REMARK    2  A    between atoms: C_1  and  C_17
REMARK    3  A    between atoms: C_3  and  N_5
REMARK    4  A    between atoms: C_13  and  S_15
REMARK    5  A    between atoms: C_17  and  N_19
REMARK    6  A    between atoms: C_27  and  S_29
REMARK                            x       y       z     vdW  Elec       q    Type
REMARK                         _______ _______ _______ _____ _____    ______ ____
ROOT
ATOM      1  C   UNL     1      -0.367  -2.808   0.837  0.00  0.00    -0.004 C 
ATOM      2  C   UNL     1       0.273  -2.683   2.012  0.00  0.00    -0.006 C 
ENDROOT
BRANCH   1   3
ATOM      3  C   UNL     1       0.409  -2.930  -0.458  0.00  0.00    +0.122 C 
BRANCH   3   5
ATOM      4  O   UNL     1       2.443   2.419  -2.298  0.00  0.00    -0.274 OA
ATOM      5  N   UNL     1       0.681  -1.617  -1.153  0.00  0.00    -0.261 N 
ATOM      6  N   UNL     1       3.399   1.261  -0.475  0.00  0.00    -0.227 N 
ATOM      7  N   UNL     1       2.503  -0.881   0.216  0.00  0.00    -0.369 NA
ATOM      8  C   UNL     1       1.648  -0.712  -0.814  0.00  0.00    +0.179 C 
ATOM      9  C   UNL     1       1.564   0.346  -1.689  0.00  0.00    +0.167 C 
ATOM     10  C   UNL     1      -0.019  -1.146  -2.236  0.00  0.00    +0.064 C 
ATOM     11  C   UNL     1       0.511   0.078  -2.591  0.00  0.00    +0.007 C 
ATOM     12  C   UNL     1       2.485   1.449  -1.549  0.00  0.00    +0.243 C 
ATOM     13  C   UNL     1       3.344   0.106   0.358  0.00  0.00    +0.218 C 
ATOM     14  C   UNL     1       4.421   2.278  -0.220  0.00  0.00    +0.123 C 
BRANCH  13  15
ATOM     15  S   UNL     1       4.494  -0.024   1.683  0.00  0.00    -0.066 S 
ATOM     16  C   UNL     1       5.320  -1.545   1.179  0.00  0.00    +0.078 C 
ENDBRANCH  13  15
ENDBRANCH   3   5
ENDBRANCH   1   3
BRANCH   1  17
ATOM     17  C   UNL     1      -1.876  -2.928   0.787  0.00  0.00    +0.122 C 
BRANCH  17  19
ATOM     18  O   UNL     1      -4.005   2.302  -1.085  0.00  0.00    -0.274 OA
ATOM     19  N   UNL     1      -2.543  -1.839   0.109  0.00  0.00    -0.261 N 
ATOM     20  N   UNL     1      -2.515   2.127   0.739  0.00  0.00    -0.227 N 
ATOM     21  N   UNL     1      -1.710  -0.042   1.455  0.00  0.00    -0.369 NA
ATOM     22  C   UNL     1      -2.452  -0.513   0.431  0.00  0.00    +0.179 C 
ATOM     23  C   UNL     1      -3.235   0.193  -0.451  0.00  0.00    +0.167 C 
ATOM     24  C   UNL     1      -3.377  -1.984  -0.973  0.00  0.00    +0.064 C 
ATOM     25  C   UNL     1      -3.824  -0.731  -1.343  0.00  0.00    +0.007 C 
ATOM     26  C   UNL     1      -3.313   1.630  -0.328  0.00  0.00    +0.243 C 
ATOM     27  C   UNL     1      -1.768   1.256   1.582  0.00  0.00    +0.218 C 
ATOM     28  C   UNL     1      -2.460   3.572   0.977  0.00  0.00    +0.123 C 
BRANCH  27  29
ATOM     29  S   UNL     1      -0.837   1.960   2.898  0.00  0.00    -0.066 S 
ATOM     30  C   UNL     1       0.804   1.404   2.400  0.00  0.00    +0.078 C 
ENDBRANCH  27  29
ENDBRANCH  17  19
ENDBRANCH   1  17
TORSDOF 6
