REMARK  Name = 139059412
REMARK  6 active torsions:
REMARK  status: ('A' for Active; 'I' for Inactive)
REMARK    1  A    between atoms: N_3  and  C_17
REMARK    2  A    between atoms: C_5  and  C_11
REMARK    3  A    between atoms: C_17  and  C_18
REMARK    4  A    between atoms: C_18  and  S_19
REMARK    5  A    between atoms: S_19  and  C_21
REMARK    6  A    between atoms: C_21  and  N_23
REMARK                            x       y       z     vdW  Elec       q    Type
REMARK                         _______ _______ _______ _____ _____    ______ ____
ROOT
ATOM      1  O   UNL     1       0.176   3.437  -1.792  0.00  0.00    -0.274 OA
ATOM      2  O   UNL     1      -0.694   1.584   2.407  0.00  0.00    -0.252 OA
ATOM      3  N   UNL     1      -0.392   2.419   0.241  0.00  0.00    -0.213 N 
ATOM      4  N   UNL     1       1.063   0.809   1.172  0.00  0.00    -0.286 N 
ATOM      5  C   UNL     1       1.724   0.678  -0.114  0.00  0.00    +0.105 C 
ATOM      6  C   UNL     1       1.821   2.051  -0.763  0.00  0.00    +0.110 C 
ATOM      7  C   UNL     1       0.453   2.688  -0.855  0.00  0.00    +0.235 C 
ATOM      8  C   UNL     1      -0.062   1.601   1.349  0.00  0.00    +0.310 C 
ATOM      9  H   UNL     1       1.425   0.318   1.945  0.00  0.00    +0.151 HD
ENDROOT
BRANCH   5  11
ATOM     10 CL   UNL     1       4.816  -3.368  -1.248  0.00  0.00    -0.082 Cl
ATOM     11  C   UNL     1       3.073   0.005   0.009  0.00  0.00    -0.003 C 
ATOM     12  C   UNL     1       3.297  -1.227  -0.605  0.00  0.00    +0.009 C 
ATOM     13  C   UNL     1       4.094   0.618   0.736  0.00  0.00    -0.003 C 
ATOM     14  C   UNL     1       4.541  -1.847  -0.492  0.00  0.00    +0.057 C 
ATOM     15  C   UNL     1       5.338  -0.002   0.849  0.00  0.00    +0.001 C 
ATOM     16  C   UNL     1       5.562  -1.234   0.235  0.00  0.00    +0.011 C 
ENDBRANCH   5  11
BRANCH   3  17
ATOM     17  C   UNL     1      -1.670   3.118   0.283  0.00  0.00    +0.114 C 
BRANCH  17  18
ATOM     18  C   UNL     1      -2.866   2.175   0.278  0.00  0.00    +0.086 C 
BRANCH  18  19
ATOM     19  S   UNL     1      -2.934   1.159  -1.229  0.00  0.00    -0.090 S 
BRANCH  19  21
ATOM     20  S   UNL     1      -5.695   0.018  -0.807  0.00  0.00    -0.028 S 
ATOM     21  C   UNL     1      -4.036  -0.083  -0.681  0.00  0.00    +0.111 C 
BRANCH  21  23
ATOM     22  O   UNL     1      -2.426  -3.681   0.518  0.00  0.00    -0.350 OA
ATOM     23  N   UNL     1      -3.404  -1.133  -0.104  0.00  0.00    -0.292 N 
ATOM     24  C   UNL     1      -2.034  -1.490  -0.444  0.00  0.00    +0.124 C 
ATOM     25  C   UNL     1      -4.014  -1.905   0.970  0.00  0.00    +0.124 C 
ATOM     26  C   UNL     1      -3.815  -3.394   0.720  0.00  0.00    +0.164 C 
ATOM     27  C   UNL     1      -1.918  -2.996  -0.632  0.00  0.00    +0.164 C 
ENDBRANCH  21  23
ENDBRANCH  19  21
ENDBRANCH  18  19
ENDBRANCH  17  18
ENDBRANCH   3  17
TORSDOF 6
