REMARK  Name = 139072
REMARK  9 active torsions:
REMARK  status: ('A' for Active; 'I' for Inactive)
REMARK    1  A    between atoms: C_4  and  N_13
REMARK    2  A    between atoms: C_8  and  N_12
REMARK    3  A    between atoms: N_13  and  C_15
REMARK    4  A    between atoms: C_15  and  C_16
REMARK    5  A    between atoms: C_16  and  C_17
REMARK    6  A    between atoms: C_17  and  C_18
REMARK    7  A    between atoms: C_18  and  C_19
REMARK    8  A    between atoms: C_19  and  C_21
REMARK    9  A    between atoms: C_21  and  O_22
REMARK                            x       y       z     vdW  Elec       q    Type
REMARK                         _______ _______ _______ _____ _____    ______ ____
ROOT
ATOM      1  O   UNL     1      -3.603   2.739  -0.005  0.00  0.00    -0.241 OA
ATOM      2  N   UNL     1      -2.274   2.351  -0.003  0.00  0.00    -0.047 NA
ATOM      3  N   UNL     1      -4.457   1.650  -0.002  0.00  0.00    -0.047 NA
ATOM      4  C   UNL     1      -1.186   0.115   0.004  0.00  0.00    +0.068 C 
ATOM      5  C   UNL     1      -2.282   1.012   0.001  0.00  0.00    +0.158 A 
ATOM      6  C   UNL     1      -1.577  -1.245   0.008  0.00  0.00    +0.018 C 
ATOM      7  C   UNL     1      -3.670   0.566   0.001  0.00  0.00    +0.167 A 
ATOM      8  C   UNL     1      -4.024  -0.795   0.005  0.00  0.00    +0.165 C 
ATOM      9  C   UNL     1      -2.929  -1.679   0.008  0.00  0.00    +0.027 C 
ENDROOT
BRANCH   8  12
ATOM     10  O   UNL     1      -5.626  -2.454   0.004  0.00  0.00    -0.126 OA
ATOM     11  O   UNL     1      -6.288  -0.360   0.001  0.00  0.00    -0.126 OA
ATOM     12  N   UNL     1      -5.370  -1.221   0.003  0.00  0.00    +0.059 N 
ENDBRANCH   8  12
BRANCH   4  13
ATOM     13  N   UNL     1       0.145   0.497   0.004  0.00  0.00    -0.331 N 
ATOM     14  H   UNL     1       0.353   1.459   0.002  0.00  0.00    +0.147 HD
BRANCH  13  15
ATOM     15  C   UNL     1       1.247  -0.438   0.009  0.00  0.00    +0.087 C 
BRANCH  15  16
ATOM     16  C   UNL     1       2.571   0.320  -0.027  0.00  0.00    +0.021 C 
BRANCH  16  17
ATOM     17  C   UNL     1       3.798  -0.596  -0.028  0.00  0.00    +0.002 C 
BRANCH  17  18
ATOM     18  C   UNL     1       5.125   0.165  -0.032  0.00  0.00    +0.012 C 
BRANCH  18  19
ATOM     19  C   UNL     1       6.314  -0.796  -0.019  0.00  0.00    +0.109 C 
BRANCH  19  21
ATOM     20  O   UNL     1       7.769   1.154   0.046  0.00  0.00    -0.250 OA
ATOM     21  C   UNL     1       7.634  -0.061   0.015  0.00  0.00    +0.314 C 
BRANCH  21  22
ATOM     22  O   UNL     1       8.683  -0.924   0.007  0.00  0.00    -0.480 OA
ATOM     23  H   UNL     1       8.529  -1.848  -0.018  0.00  0.00    +0.295 HD
ENDBRANCH  21  22
ENDBRANCH  19  21
ENDBRANCH  18  19
ENDBRANCH  17  18
ENDBRANCH  16  17
ENDBRANCH  15  16
ENDBRANCH  13  15
ENDBRANCH   4  13
TORSDOF 9
