REMARK  Name = 139060698
REMARK  7 active torsions:
REMARK  status: ('A' for Active; 'I' for Inactive)
REMARK    1  A    between atoms: C_7  and  O_11
REMARK    2  A    between atoms: C_8  and  O_22
REMARK    3  A    between atoms: C_9  and  O_26
REMARK    4  A    between atoms: O_11  and  S_12
REMARK    5  A    between atoms: S_12  and  C_15
REMARK    6  A    between atoms: O_22  and  C_24
REMARK    7  A    between atoms: O_26  and  C_28
REMARK                            x       y       z     vdW  Elec       q    Type
REMARK                         _______ _______ _______ _____ _____    ______ ____
ROOT
ATOM      1  O   UNL     1       0.651   1.964  -1.548  0.00  0.00    -0.303 OA
ATOM      2  O   UNL     1       0.520  -0.203  -2.516  0.00  0.00    -0.303 OA
ATOM      3  O   UNL     1       2.617   0.934  -2.425  0.00  0.00    -0.302 OA
ATOM      4  C   UNL     1       0.755  -0.849  -1.252  0.00  0.00    +0.194 C 
ATOM      5  C   UNL     1       0.891   1.429  -0.234  0.00  0.00    +0.194 C 
ATOM      6  C   UNL     1       2.940   0.346  -1.152  0.00  0.00    +0.205 C 
ATOM      7  C   UNL     1       0.214   0.054  -0.131  0.00  0.00    +0.205 C 
ATOM      8  C   UNL     1       2.413   1.301  -0.064  0.00  0.00    +0.229 C 
ATOM      9  C   UNL     1       2.272  -1.041  -1.110  0.00  0.00    +0.229 C 
ATOM     10  C   UNL     1       1.188   1.070  -2.537  0.00  0.00    +0.375 C 
ENDROOT
BRANCH   7  11
ATOM     11  O   UNL     1      -1.196   0.192  -0.286  0.00  0.00    -0.236 OA
BRANCH  11  12
ATOM     12  S   UNL     1      -2.083   0.666   1.000  0.00  0.00    +0.013 S 
ATOM     13  O   UNL     1      -2.088   2.116   1.029  0.00  0.00    -0.067 OA
ATOM     14  O   UNL     1      -1.693  -0.114   2.159  0.00  0.00    -0.067 OA
BRANCH  12  15
ATOM     15  C   UNL     1      -3.723   0.151   0.599  0.00  0.00    +0.110 C 
ATOM     16  C   UNL     1      -4.167  -1.117   0.973  0.00  0.00    +0.018 C 
ATOM     17  C   UNL     1      -4.574   1.012  -0.095  0.00  0.00    +0.018 C 
ATOM     18  C   UNL     1      -5.462  -1.524   0.654  0.00  0.00    -0.003 C 
ATOM     19  C   UNL     1      -5.869   0.604  -0.414  0.00  0.00    -0.003 C 
ATOM     20  C   UNL     1      -6.313  -0.664  -0.039  0.00  0.00    -0.022 C 
ATOM     21  C   UNL     1      -7.698  -1.100  -0.381  0.00  0.00    +0.031 C 
ENDBRANCH  12  15
ENDBRANCH  11  12
ENDBRANCH   7  11
BRANCH   8  22
ATOM     22  O   UNL     1       2.754   0.836   1.230  0.00  0.00    -0.447 OA
BRANCH  22  24
ATOM     23  O   UNL     1       4.750   1.996   1.145  0.00  0.00    -0.250 OA
ATOM     24  C   UNL     1       3.960   1.262   1.722  0.00  0.00    +0.318 C 
ATOM     25  C   UNL     1       4.186   0.695   3.091  0.00  0.00    +0.121 C 
ENDBRANCH  22  24
ENDBRANCH   8  22
BRANCH   9  26
ATOM     26  O   UNL     1       2.599  -1.728   0.085  0.00  0.00    -0.447 OA
BRANCH  26  28
ATOM     27  O   UNL     1       4.472  -2.634  -0.920  0.00  0.00    -0.250 OA
ATOM     28  C   UNL     1       3.733  -2.496   0.045  0.00  0.00    +0.318 C 
ATOM     29  C   UNL     1       3.952  -3.160   1.371  0.00  0.00    +0.121 C 
ENDBRANCH  26  28
ENDBRANCH   9  26
TORSDOF 7
