139061834
  -OEChem-03292013293D

 50 53  0     0  0  0  0  0  0999 V2000
   -2.1542   -1.7356    3.0126 S   0  0  0  0  0  0  0  0  0  0  0  0
   -3.2358    2.4993    0.8411 S   0  0  0  0  0  0  0  0  0  0  0  0
   -0.3924   -3.8383   -1.5882 S   0  0  0  0  0  0  0  0  0  0  0  0
   -1.3500    0.0888   -3.5611 S   0  0  0  0  0  0  0  0  0  0  0  0
    1.5985    2.2401   -0.0169 N   0  0  0  0  0  0  0  0  0  0  0  0
    2.2650   -0.5170    1.1912 N   0  0  0  0  0  0  0  0  0  0  0  0
    2.0966    0.1597    2.3425 N   0  0  0  0  0  0  0  0  0  0  0  0
   -0.0503    2.9213    1.3198 N   0  0  0  0  0  0  0  0  0  0  0  0
    0.2996    1.1806   -1.7747 N   0  0  0  0  0  0  0  0  0  0  0  0
    1.0909   -2.1020   -0.2131 N   0  0  0  0  0  0  0  0  0  0  0  0
   -1.0895   -2.6846    0.7124 N   0  0  0  0  0  0  0  0  0  0  0  0
   -2.0936    1.3268   -1.3188 N   0  0  0  0  0  0  0  0  0  0  0  0
    3.0031    2.0177   -0.5258 C   0  0  0  0  0  0  0  0  0  0  0  0
    3.4859   -0.3499    0.4392 C   0  0  0  0  0  0  0  0  0  0  0  0
    3.3641    0.5657   -0.7610 C   0  0  0  0  0  0  0  0  0  0  0  0
    0.4374    1.8444   -0.6172 C   0  0  0  0  0  0  0  0  0  0  0  0
    1.2079   -1.3150    0.8683 C   0  0  0  0  0  0  0  0  0  0  0  0
    0.2802   -1.1486    1.8815 C   0  0  0  0  0  0  0  0  0  0  0  0
   -0.5729    2.2763    0.2272 C   0  0  0  0  0  0  0  0  0  0  0  0
    1.2539    2.8822    1.1429 C   0  0  0  0  0  0  0  0  0  0  0  0
    0.8861   -0.2292    2.7580 C   0  0  0  0  0  0  0  0  0  0  0  0
    3.6556    0.1222   -1.9956 C   0  0  0  0  0  0  0  0  0  0  0  0
   -0.9047   -1.8700    1.7789 C   0  0  0  0  0  0  0  0  0  0  0  0
   -1.8794    1.9949   -0.1599 C   0  0  0  0  0  0  0  0  0  0  0  0
   -0.0946   -2.7490   -0.2042 C   0  0  0  0  0  0  0  0  0  0  0  0
   -1.0069    0.9664   -2.0434 C   0  0  0  0  0  0  0  0  0  0  0  0
   -3.6757   -2.0341    2.0604 C   0  0  0  0  0  0  0  0  0  0  0  0
   -4.6671    1.8943   -0.1059 C   0  0  0  0  0  0  0  0  0  0  0  0
    1.1353   -3.6371   -2.5459 C   0  0  0  0  0  0  0  0  0  0  0  0
   -2.8928   -0.7702   -3.1445 C   0  0  0  0  0  0  0  0  0  0  0  0
    3.6719    2.4641    0.2186 H   0  0  0  0  0  0  0  0  0  0  0  0
    3.0581    2.6203   -1.4402 H   0  0  0  0  0  0  0  0  0  0  0  0
    3.8194   -1.3541    0.1495 H   0  0  0  0  0  0  0  0  0  0  0  0
    4.2502    0.0450    1.1201 H   0  0  0  0  0  0  0  0  0  0  0  0
    1.9910    3.3004    1.8147 H   0  0  0  0  0  0  0  0  0  0  0  0
    0.5028    0.1793    3.6823 H   0  0  0  0  0  0  0  0  0  0  0  0
    3.9466   -0.9080   -2.1722 H   0  0  0  0  0  0  0  0  0  0  0  0
    3.6034    0.7782   -2.8581 H   0  0  0  0  0  0  0  0  0  0  0  0
   -4.5402   -1.8984    2.7155 H   0  0  0  0  0  0  0  0  0  0  0  0
   -3.6890   -3.0556    1.6715 H   0  0  0  0  0  0  0  0  0  0  0  0
   -3.7492   -1.3256    1.2309 H   0  0  0  0  0  0  0  0  0  0  0  0
   -5.5837    2.1525    0.4309 H   0  0  0  0  0  0  0  0  0  0  0  0
   -4.6221    0.8073   -0.2148 H   0  0  0  0  0  0  0  0  0  0  0  0
   -4.6981    2.3623   -1.0935 H   0  0  0  0  0  0  0  0  0  0  0  0
    2.0045   -3.9523   -1.9620 H   0  0  0  0  0  0  0  0  0  0  0  0
    1.2592   -2.5984   -2.8650 H   0  0  0  0  0  0  0  0  0  0  0  0
    1.0772   -4.2646   -3.4395 H   0  0  0  0  0  0  0  0  0  0  0  0
   -3.1558   -1.4474   -3.9614 H   0  0  0  0  0  0  0  0  0  0  0  0
   -3.7088   -0.0544   -3.0135 H   0  0  0  0  0  0  0  0  0  0  0  0
   -2.7721   -1.3580   -2.2305 H   0  0  0  0  0  0  0  0  0  0  0  0
  1 23  1  0  0  0  0
  1 27  1  0  0  0  0
  2 24  1  0  0  0  0
  2 28  1  0  0  0  0
  3 25  1  0  0  0  0
  3 29  1  0  0  0  0
  4 26  1  0  0  0  0
  4 30  1  0  0  0  0
  5 13  1  0  0  0  0
  5 16  1  0  0  0  0
  5 20  1  0  0  0  0
  6  7  1  0  0  0  0
  6 14  1  0  0  0  0
  6 17  1  0  0  0  0
  7 21  2  0  0  0  0
  8 19  1  0  0  0  0
  8 20  2  0  0  0  0
  9 16  1  0  0  0  0
  9 26  2  0  0  0  0
 10 17  1  0  0  0  0
 10 25  2  0  0  0  0
 11 23  2  0  0  0  0
 11 25  1  0  0  0  0
 12 24  2  0  0  0  0
 12 26  1  0  0  0  0
 13 15  1  0  0  0  0
 13 31  1  0  0  0  0
 13 32  1  0  0  0  0
 14 15  1  0  0  0  0
 14 33  1  0  0  0  0
 14 34  1  0  0  0  0
 15 22  2  0  0  0  0
 16 19  2  0  0  0  0
 17 18  2  0  0  0  0
 18 21  1  0  0  0  0
 18 23  1  0  0  0  0
 19 24  1  0  0  0  0
 20 35  1  0  0  0  0
 21 36  1  0  0  0  0
 22 37  1  0  0  0  0
 22 38  1  0  0  0  0
 27 39  1  0  0  0  0
 27 40  1  0  0  0  0
 27 41  1  0  0  0  0
 28 42  1  0  0  0  0
 28 43  1  0  0  0  0
 28 44  1  0  0  0  0
 29 45  1  0  0  0  0
 29 46  1  0  0  0  0
 29 47  1  0  0  0  0
 30 48  1  0  0  0  0
 30 49  1  0  0  0  0
 30 50  1  0  0  0  0
M  END
> <PUBCHEM_COMPOUND_CID>
139061834

> <PUBCHEM_CONFORMER_RMSD>
1

> <PUBCHEM_CONFORMER_DIVERSEORDER>
1
51
60
11
23
71
3
34
57
32
43
41
36
55
6
54
48
61
22
35
52
70
38
66
58
7
56
4
73
47
13
50
29
2
59
28
21
44
26
46
64
8
10
39
27
30
53
62
24
17
49
65
19
74
25
69
20
37
68
12
67
18
15
63
45
33
40
5
31
16
72
14
9
42

> <PUBCHEM_MMFF94_PARTIAL_CHARGES>
33
1 -0.33
10 -0.57
11 -0.62
12 -0.62
13 0.39
14 0.39
15 -0.28
16 0.11
17 0.11
19 0.23
2 -0.33
20 0.04
21 0.14
22 -0.3
23 0.41
24 0.41
25 0.72
26 0.72
27 0.23
28 0.23
29 0.23
3 -0.33
30 0.23
35 0.15
36 0.15
37 0.15
38 0.15
4 -0.33
5 0.05
6 0.31
7 -0.71
8 -0.57
9 -0.57

> <PUBCHEM_EFFECTIVE_ROTOR_COUNT>
8

> <PUBCHEM_PHARMACOPHORE_FEATURES>
15
1 11 acceptor
1 12 acceptor
1 22 hydrophobe
1 27 hydrophobe
1 28 hydrophobe
1 29 hydrophobe
1 30 hydrophobe
1 7 acceptor
3 10 11 25 cation
3 5 8 20 cation
3 9 12 26 cation
5 5 8 16 19 20 rings
5 6 7 17 18 21 rings
6 10 11 17 18 23 25 rings
6 9 12 16 19 24 26 rings

> <PUBCHEM_HEAVY_ATOM_COUNT>
30

> <PUBCHEM_ATOM_DEF_STEREO_COUNT>
0

> <PUBCHEM_ATOM_UDEF_STEREO_COUNT>
0

> <PUBCHEM_BOND_DEF_STEREO_COUNT>
0

> <PUBCHEM_BOND_UDEF_STEREO_COUNT>
0

> <PUBCHEM_ISOTOPIC_ATOM_COUNT>
0

> <PUBCHEM_COMPONENT_COUNT>
1

> <PUBCHEM_CACTVS_TAUTO_COUNT>
-1

> <PUBCHEM_CONFORMER_ID>
0849EA4A00000001

> <PUBCHEM_MMFF94_ENERGY>
43.1684

> <PUBCHEM_FEATURE_SELFOVERLAP>
76.372

> <PUBCHEM_SHAPE_FINGERPRINT>
104564 63 17898312703324213040
11578080 2 18129653240449629976
12156800 1 18270665575892859846
12422481 6 17756190869863601513
13761468 95 13137710299674433773
17492 54 17894643525526939453
20905425 154 17898313803152228739
23419403 2 18044370758458365781
238 59 17534307138376752653
35225 105 17969202590212114087
513532 50 16907557963067217489
57527452 28 17036066708298621842
5845 1 17398388014732263964

> <PUBCHEM_SHAPE_MULTIPOLES>
592.94
5.3
4.5
3.62
1.44
2.12
-1.23
-2.1
-0.18
0.86
-0.55
1.62
1.99
1.17

> <PUBCHEM_SHAPE_SELFOVERLAP>
1219.135

> <PUBCHEM_SHAPE_VOLUME>
348.6

> <PUBCHEM_COORDINATE_TYPE>
2
5
10

$$$$
