13915589
  -OEChem-03292013303D

 52 52  0     1  0  0  0  0  0999 V2000
   -1.1837    1.2708    1.2569 O   0  0  0  0  0  0  0  0  0  0  0  0
    1.2924    1.5893   -0.1078 O   0  0  0  0  0  0  0  0  0  0  0  0
   -0.8285    1.3473   -1.5707 O   0  0  0  0  0  0  0  0  0  0  0  0
    1.3346   -1.9908    0.5786 O   0  0  0  0  0  0  0  0  0  0  0  0
    1.5666   -4.2460    0.6175 O   0  0  0  0  0  0  0  0  0  0  0  0
   -0.9864    0.0767    3.2247 O   0  0  0  0  0  0  0  0  0  0  0  0
    2.2764    2.3948    1.8209 O   0  0  0  0  0  0  0  0  0  0  0  0
   -0.7399    0.2011   -3.5745 O   0  0  0  0  0  0  0  0  0  0  0  0
   -0.5756    0.2000    0.5366 C   0  0  2  0  0  0  0  0  0  0  0  0
    0.9531    0.3775    0.5602 C   0  0  1  0  0  0  0  0  0  0  0  0
   -1.1660    0.1377   -0.8867 C   0  0  1  0  0  0  0  0  0  0  0  0
    1.6719   -0.7755   -0.1255 C   0  0  1  0  0  0  0  0  0  0  0  0
   -2.6940   -0.0197   -0.9358 C   0  0  0  0  0  0  0  0  0  0  0  0
    3.1800   -0.5654   -0.1359 C   0  0  0  0  0  0  0  0  0  0  0  0
   -3.1960   -1.3265   -0.3207 C   0  0  0  0  0  0  0  0  0  0  0  0
   -4.7242   -1.3829   -0.3116 C   0  0  0  0  0  0  0  0  0  0  0  0
    3.8389   -1.8187   -0.6026 C   0  0  0  0  0  0  0  0  0  0  0  0
    1.9877   -3.1454    0.2789 C   0  0  0  0  0  0  0  0  0  0  0  0
    3.2660   -3.0156   -0.4446 C   0  0  0  0  0  0  0  0  0  0  0  0
   -5.2299   -2.6937    0.2695 C   0  0  0  0  0  0  0  0  0  0  0  0
   -1.3272    1.0722    2.6001 C   0  0  0  0  0  0  0  0  0  0  0  0
    1.9559    2.5155    0.6462 C   0  0  0  0  0  0  0  0  0  0  0  0
   -0.6441    1.2285   -2.9169 C   0  0  0  0  0  0  0  0  0  0  0  0
   -1.9757    2.2718    3.2219 C   0  0  0  0  0  0  0  0  0  0  0  0
    2.2460    3.7302   -0.1823 C   0  0  0  0  0  0  0  0  0  0  0  0
   -0.2987    2.5667   -3.4964 C   0  0  0  0  0  0  0  0  0  0  0  0
   -0.8157   -0.7515    1.0251 H   0  0  0  0  0  0  0  0  0  0  0  0
    1.2554    0.3925    1.6151 H   0  0  0  0  0  0  0  0  0  0  0  0
   -0.7340   -0.7285   -1.4006 H   0  0  0  0  0  0  0  0  0  0  0  0
    1.3396   -0.8783   -1.1655 H   0  0  0  0  0  0  0  0  0  0  0  0
   -3.0343    0.0387   -1.9777 H   0  0  0  0  0  0  0  0  0  0  0  0
   -3.1641    0.8363   -0.4345 H   0  0  0  0  0  0  0  0  0  0  0  0
    3.4459    0.2576   -0.8083 H   0  0  0  0  0  0  0  0  0  0  0  0
    3.5621   -0.3238    0.8629 H   0  0  0  0  0  0  0  0  0  0  0  0
   -2.7928   -2.1754   -0.8856 H   0  0  0  0  0  0  0  0  0  0  0  0
   -2.8443   -1.4260    0.7112 H   0  0  0  0  0  0  0  0  0  0  0  0
   -5.1068   -1.2723   -1.3330 H   0  0  0  0  0  0  0  0  0  0  0  0
   -5.1245   -0.5494    0.2773 H   0  0  0  0  0  0  0  0  0  0  0  0
    4.8115   -1.7458   -1.0789 H   0  0  0  0  0  0  0  0  0  0  0  0
    3.7585   -3.9221   -0.7769 H   0  0  0  0  0  0  0  0  0  0  0  0
   -4.8914   -2.8213    1.3027 H   0  0  0  0  0  0  0  0  0  0  0  0
   -6.3242   -2.7127    0.2657 H   0  0  0  0  0  0  0  0  0  0  0  0
   -4.8733   -3.5463   -0.3170 H   0  0  0  0  0  0  0  0  0  0  0  0
   -1.3466    3.1525    3.0699 H   0  0  0  0  0  0  0  0  0  0  0  0
   -2.0902    2.1061    4.2969 H   0  0  0  0  0  0  0  0  0  0  0  0
   -2.9658    2.4252    2.7855 H   0  0  0  0  0  0  0  0  0  0  0  0
    2.8753    3.4562   -1.0327 H   0  0  0  0  0  0  0  0  0  0  0  0
    2.7812    4.4652    0.4257 H   0  0  0  0  0  0  0  0  0  0  0  0
    1.3089    4.1763   -0.5247 H   0  0  0  0  0  0  0  0  0  0  0  0
   -1.1052    3.2767   -3.2969 H   0  0  0  0  0  0  0  0  0  0  0  0
   -0.1783    2.4728   -4.5795 H   0  0  0  0  0  0  0  0  0  0  0  0
    0.6424    2.9226   -3.0699 H   0  0  0  0  0  0  0  0  0  0  0  0
  1  9  1  0  0  0  0
  1 21  1  0  0  0  0
  2 10  1  0  0  0  0
  2 22  1  0  0  0  0
  3 11  1  0  0  0  0
  3 23  1  0  0  0  0
  4 12  1  0  0  0  0
  4 18  1  0  0  0  0
  5 18  2  0  0  0  0
  6 21  2  0  0  0  0
  7 22  2  0  0  0  0
  8 23  2  0  0  0  0
  9 10  1  0  0  0  0
  9 11  1  0  0  0  0
  9 27  1  0  0  0  0
 10 12  1  0  0  0  0
 10 28  1  0  0  0  0
 11 13  1  0  0  0  0
 11 29  1  0  0  0  0
 12 14  1  0  0  0  0
 12 30  1  0  0  0  0
 13 15  1  0  0  0  0
 13 31  1  0  0  0  0
 13 32  1  0  0  0  0
 14 17  1  0  0  0  0
 14 33  1  0  0  0  0
 14 34  1  0  0  0  0
 15 16  1  0  0  0  0
 15 35  1  0  0  0  0
 15 36  1  0  0  0  0
 16 20  1  0  0  0  0
 16 37  1  0  0  0  0
 16 38  1  0  0  0  0
 17 19  2  0  0  0  0
 17 39  1  0  0  0  0
 18 19  1  0  0  0  0
 19 40  1  0  0  0  0
 20 41  1  0  0  0  0
 20 42  1  0  0  0  0
 20 43  1  0  0  0  0
 21 24  1  0  0  0  0
 22 25  1  0  0  0  0
 23 26  1  0  0  0  0
 24 44  1  0  0  0  0
 24 45  1  0  0  0  0
 24 46  1  0  0  0  0
 25 47  1  0  0  0  0
 25 48  1  0  0  0  0
 25 49  1  0  0  0  0
 26 50  1  0  0  0  0
 26 51  1  0  0  0  0
 26 52  1  0  0  0  0
M  END
> <PUBCHEM_COMPOUND_CID>
13915589

> <PUBCHEM_CONFORMER_RMSD>
1.2

> <PUBCHEM_CONFORMER_DIVERSEORDER>
1
41
295
189
49
181
114
30
52
317
183
299
284
268
328
57
252
314
153
254
335
262
12
69
115
166
342
142
231
104
323
137
315
21
163
118
66
143
138
85
98
186
140
119
155
164
218
286
301
283
334
307
197
209
157
318
125
92
308
151
77
61
145
168
340
45
272
236
63
171
224
306
89
278
99
260
121
139
343
239
206
321
312
309
225
180
274
26
68
280
313
172
36
71
103
23
320
122
205
84
226
296
302
133
258
86
7
208
124
229
230
207
50
330
101
327
220
132
298
174
112
264
15
248
55
51
161
93
91
273
331
20
290
325
251
105
158
159
282
202
109
255
198
275
47
285
271
291
80
16
22
339
294
276
141
281
2
221
279
113
304
35
297
128
148
29
265
288
341
102
147
149
188
227
322
185
127
5
303
34
241
200
150
6
167
259
94
156
24
293
266
96
210
213
187
76
39
194
217
215
250
87
111
238
204
8
152
240
162
196
78
261
244
25
242
11
311
257
263
90
28
131
144
305
292
160
234
64
79
245
33
81
48
326
120
270
289
203
136
106
175
211
199
116
179
219
27
75
110
129
130
324
37
338
165
246
53
247
44
178
212
13
117
31
146
235
9
135
123
10
54
190
267
192
42
249
316
191
126
228
40
193
154
56
58
277
38
73
253
300
182
269
329
62
3
19
72
4
256
319
83
287
201
337
332
32
100
108
222
237
195
134
60
216
243
14
18
70
65
169
67
310
88
232
177
107
97
46
17
173
336
176
95
82
59
184
333
43
214
233
170
223
74

> <PUBCHEM_MMFF94_PARTIAL_CHARGES>
24
1 -0.43
10 0.28
11 0.28
12 0.28
14 0.14
17 -0.29
18 0.71
19 -0.14
2 -0.43
21 0.66
22 0.66
23 0.66
24 0.06
25 0.06
26 0.06
3 -0.43
39 0.15
4 -0.43
40 0.15
5 -0.57
6 -0.57
7 -0.57
8 -0.57
9 0.28

> <PUBCHEM_EFFECTIVE_ROTOR_COUNT>
12.6

> <PUBCHEM_PHARMACOPHORE_FEATURES>
6
1 20 hydrophobe
1 5 acceptor
1 6 acceptor
1 7 acceptor
1 8 acceptor
6 4 12 14 17 18 19 rings

> <PUBCHEM_HEAVY_ATOM_COUNT>
26

> <PUBCHEM_ATOM_DEF_STEREO_COUNT>
0

> <PUBCHEM_ATOM_UDEF_STEREO_COUNT>
4

> <PUBCHEM_BOND_DEF_STEREO_COUNT>
0

> <PUBCHEM_BOND_UDEF_STEREO_COUNT>
0

> <PUBCHEM_ISOTOPIC_ATOM_COUNT>
0

> <PUBCHEM_COMPONENT_COUNT>
1

> <PUBCHEM_CACTVS_TAUTO_COUNT>
1

> <PUBCHEM_CONFORMER_ID>
00D455C500000001

> <PUBCHEM_MMFF94_ENERGY>
45.057

> <PUBCHEM_FEATURE_SELFOVERLAP>
30.448

> <PUBCHEM_SHAPE_FINGERPRINT>
10064457 181 17619058877756856483
11578080 2 18335694984385232204
12058002 1 16976226088958499973
12788726 201 17047362940944530292
14863182 85 17973450094177966775
15664445 248 17458895029104637071
17980427 26 17126458929724019953
20600515 1 15388138935848653096
229495 10 18128798902376535581
23598288 3 17203320087904748077
25222932 49 17270323438050394935
4340502 62 17982728872509076827
484985 159 17545319674984264870
59755656 520 17695051598399968568
6287921 2 18116713117586667879

> <PUBCHEM_SHAPE_MULTIPOLES>
488.11
6.39
4.51
3.28
6.15
1.67
-0.97
6.07
0.25
-3.54
0.54
1.92
-3.53
-0.25

> <PUBCHEM_SHAPE_SELFOVERLAP>
976.862

> <PUBCHEM_SHAPE_VOLUME>
284.5

> <PUBCHEM_COORDINATE_TYPE>
2
5
10

$$$$
