REMARK  Name = 13915589
REMARK  12 active torsions:
REMARK  status: ('A' for Active; 'I' for Inactive)
REMARK    1  A    between atoms: C_1  and  O_2
REMARK    2  A    between atoms: C_1  and  C_6
REMARK    3  A    between atoms: C_1  and  C_18
REMARK    4  A    between atoms: O_2  and  C_4
REMARK    5  A    between atoms: C_6  and  C_9
REMARK    6  A    between atoms: C_6  and  O_14
REMARK    7  A    between atoms: O_14  and  C_16
REMARK    8  A    between atoms: C_18  and  O_19
REMARK    9  A    between atoms: C_18  and  C_23
REMARK   10  A    between atoms: O_19  and  C_21
REMARK   11  A    between atoms: C_23  and  C_24
REMARK   12  A    between atoms: C_24  and  C_25
REMARK                            x       y       z     vdW  Elec       q    Type
REMARK                         _______ _______ _______ _____ _____    ______ ____
ROOT
ATOM      1  C   UNL     1      -0.576   0.200   0.537  0.00  0.00    +0.252 C 
ENDROOT
BRANCH   1   2
ATOM      2  O   UNL     1      -1.184   1.271   1.257  0.00  0.00    -0.445 OA
BRANCH   2   4
ATOM      3  O   UNL     1      -0.986   0.077   3.225  0.00  0.00    -0.250 OA
ATOM      4  C   UNL     1      -1.327   1.072   2.600  0.00  0.00    +0.318 C 
ATOM      5  C   UNL     1      -1.976   2.272   3.222  0.00  0.00    +0.121 C 
ENDBRANCH   2   4
ENDBRANCH   1   2
BRANCH   1   6
ATOM      6  C   UNL     1       0.953   0.378   0.560  0.00  0.00    +0.252 C 
BRANCH   6   9
ATOM      7  O   UNL     1       1.335  -1.991   0.579  0.00  0.00    -0.445 OA
ATOM      8  O   UNL     1       1.567  -4.246   0.618  0.00  0.00    -0.245 OA
ATOM      9  C   UNL     1       1.672  -0.775  -0.126  0.00  0.00    +0.217 C 
ATOM     10  C   UNL     1       3.180  -0.565  -0.136  0.00  0.00    +0.074 C 
ATOM     11  C   UNL     1       3.839  -1.819  -0.603  0.00  0.00    -0.016 C 
ATOM     12  C   UNL     1       1.988  -3.145   0.279  0.00  0.00    +0.341 C 
ATOM     13  C   UNL     1       3.266  -3.016  -0.445  0.00  0.00    +0.077 C 
ENDBRANCH   6   9
BRANCH   6  14
ATOM     14  O   UNL     1       1.292   1.589  -0.108  0.00  0.00    -0.445 OA
BRANCH  14  16
ATOM     15  O   UNL     1       2.276   2.395   1.821  0.00  0.00    -0.250 OA
ATOM     16  C   UNL     1       1.956   2.515   0.646  0.00  0.00    +0.318 C 
ATOM     17  C   UNL     1       2.246   3.730  -0.182  0.00  0.00    +0.121 C 
ENDBRANCH  14  16
ENDBRANCH   6  14
ENDBRANCH   1   6
BRANCH   1  18
ATOM     18  C   UNL     1      -1.166   0.138  -0.887  0.00  0.00    +0.212 C 
BRANCH  18  19
ATOM     19  O   UNL     1      -0.829   1.347  -1.571  0.00  0.00    -0.448 OA
BRANCH  19  21
ATOM     20  O   UNL     1      -0.740   0.201  -3.575  0.00  0.00    -0.250 OA
ATOM     21  C   UNL     1      -0.644   1.228  -2.917  0.00  0.00    +0.318 C 
ATOM     22  C   UNL     1      -0.299   2.567  -3.496  0.00  0.00    +0.121 C 
ENDBRANCH  19  21
ENDBRANCH  18  19
BRANCH  18  23
ATOM     23  C   UNL     1      -2.694  -0.020  -0.936  0.00  0.00    +0.048 C 
BRANCH  23  24
ATOM     24  C   UNL     1      -3.196  -1.327  -0.321  0.00  0.00    +0.004 C 
BRANCH  24  25
ATOM     25  C   UNL     1      -4.724  -1.383  -0.312  0.00  0.00    +0.000 C 
ATOM     26  C   UNL     1      -5.230  -2.694   0.270  0.00  0.00    +0.000 C 
ENDBRANCH  24  25
ENDBRANCH  23  24
ENDBRANCH  18  23
ENDBRANCH   1  18
TORSDOF 12
