REMARK  Name = 13936691
REMARK  5 active torsions:
REMARK  status: ('A' for Active; 'I' for Inactive)
REMARK    1  A    between atoms: C_8  and  O_25
REMARK    2  A    between atoms: C_9  and  O_27
REMARK    3  A    between atoms: C_14  and  O_29
REMARK    4  A    between atoms: C_16  and  O_31
REMARK    5  A    between atoms: C_17  and  O_33
REMARK                            x       y       z     vdW  Elec       q    Type
REMARK                         _______ _______ _______ _____ _____    ______ ____
ROOT
ATOM      1  O   UNL     1      -0.824   1.933  -1.826  0.00  0.00    -0.332 OA
ATOM      2  O   UNL     1      -0.755  -2.544   0.112  0.00  0.00    -0.450 OA
ATOM      3  O   UNL     1      -2.133  -3.339   1.698  0.00  0.00    -0.247 OA
ATOM      4  O   UNL     1       4.715   1.220   1.492  0.00  0.00    -0.289 OA
ATOM      5  C   UNL     1      -0.963  -0.244  -0.852  0.00  0.00    +0.098 C 
ATOM      6  C   UNL     1       0.006   0.640  -0.014  0.00  0.00    +0.065 C 
ATOM      7  C   UNL     1       1.568   0.392  -0.229  0.00  0.00    +0.040 C 
ATOM      8  C   UNL     1      -2.407  -0.263  -0.217  0.00  0.00    +0.146 C 
ATOM      9  C   UNL     1      -0.597   2.014  -0.403  0.00  0.00    +0.213 C 
ATOM     10  C   UNL     1      -0.515  -1.693  -1.047  0.00  0.00    +0.174 C 
ATOM     11  C   UNL     1       1.829  -1.162  -0.269  0.00  0.00    +0.025 C 
ATOM     12  C   UNL     1      -1.002   0.548  -2.175  0.00  0.00    +0.151 C 
ATOM     13  C   UNL     1       0.977  -1.840  -1.357  0.00  0.00    +0.048 C 
ATOM     14  C   UNL     1      -1.964   2.238   0.292  0.00  0.00    +0.182 C 
ATOM     15  C   UNL     1      -2.966   1.151  -0.033  0.00  0.00    +0.014 C 
ATOM     16  C   UNL     1       2.366   0.887   1.028  0.00  0.00    +0.172 C 
ATOM     17  C   UNL     1      -2.369  -1.021   1.114  0.00  0.00    +0.238 C 
ATOM     18  C   UNL     1       2.138   1.095  -1.492  0.00  0.00    +0.003 C 
ATOM     19  C   UNL     1       3.314  -1.517  -0.294  0.00  0.00    -0.041 C 
ATOM     20  C   UNL     1      -1.776  -2.404   0.985  0.00  0.00    +0.347 C 
ATOM     21  C   UNL     1       3.844   0.523   0.972  0.00  0.00    +0.199 C 
ATOM     22  C   UNL     1       4.235  -0.733   0.291  0.00  0.00    +0.031 C 
ATOM     23  C   UNL     1      -4.260   1.471  -0.219  0.00  0.00    -0.004 C 
ATOM     24  C   UNL     1       3.746  -2.813  -0.922  0.00  0.00    +0.026 C 
ENDROOT
BRANCH   8  25
ATOM     25  O   UNL     1      -3.279  -1.031  -1.072  0.00  0.00    -0.380 OA
ATOM     26  H   UNL     1      -3.346  -0.599  -1.938  0.00  0.00    +0.211 HD
ENDBRANCH   8  25
BRANCH   9  27
ATOM     27  O   UNL     1       0.245   3.109  -0.093  0.00  0.00    -0.362 OA
ATOM     28  H   UNL     1       1.107   2.986  -0.520  0.00  0.00    +0.213 HD
ENDBRANCH   9  27
BRANCH  14  29
ATOM     29  O   UNL     1      -1.788   2.272   1.709  0.00  0.00    -0.376 OA
ATOM     30  H   UNL     1      -1.148   2.963   1.939  0.00  0.00    +0.211 HD
ENDBRANCH  14  29
BRANCH  16  31
ATOM     31  O   UNL     1       2.305   2.291   1.196  0.00  0.00    -0.377 OA
ATOM     32  H   UNL     1       1.377   2.572   1.237  0.00  0.00    +0.211 HD
ENDBRANCH  16  31
BRANCH  17  33
ATOM     33  O   UNL     1      -3.690  -1.180   1.626  0.00  0.00    -0.372 OA
ATOM     34  H   UNL     1      -4.106  -0.310   1.723  0.00  0.00    +0.211 HD
ENDBRANCH  17  33
TORSDOF 5
