REMARK  Name = 139330
REMARK  5 active torsions:
REMARK  status: ('A' for Active; 'I' for Inactive)
REMARK    1  A    between atoms: C_1  and  C_15
REMARK    2  A    between atoms: C_6  and  N_7
REMARK    3  A    between atoms: N_7  and  C_10
REMARK    4  A    between atoms: C_15  and  C_19
REMARK    5  A    between atoms: C_21  and  C_22
REMARK                            x       y       z     vdW  Elec       q    Type
REMARK                         _______ _______ _______ _____ _____    ______ ____
ROOT
ATOM      1  C   UNL     1      -1.345   1.596   0.578  0.00  0.00    -0.020 C 
ATOM      2  C   UNL     1      -2.422   2.031  -0.178  0.00  0.00    -0.003 C 
ATOM      3  C   UNL     1      -1.398   0.400   1.280  0.00  0.00    -0.003 C 
ATOM      4  C   UNL     1      -3.580   1.254  -0.234  0.00  0.00    +0.019 C 
ATOM      5  C   UNL     1      -2.555  -0.376   1.225  0.00  0.00    +0.019 C 
ATOM      6  C   UNL     1      -3.646   0.051   0.467  0.00  0.00    +0.084 C 
ENDROOT
BRANCH   6   7
ATOM      7  N   UNL     1      -4.807  -0.728   0.412  0.00  0.00    -0.214 NA
BRANCH   7  10
ATOM      8  N   UNL     1      -6.042  -2.422  -0.616  0.00  0.00    -0.370 N 
ATOM      9  N   UNL     1      -3.998  -1.937  -1.510  0.00  0.00    -0.370 N 
ATOM     10  C   UNL     1      -4.917  -1.636  -0.527  0.00  0.00    +0.193 C 
ATOM     11  H   UNL     1      -6.776  -2.307   0.029  0.00  0.00    +0.159 HD
ATOM     12  H   UNL     1      -6.113  -3.101  -1.326  0.00  0.00    +0.159 HD
ATOM     13  H   UNL     1      -3.148  -1.444  -1.556  0.00  0.00    +0.159 HD
ATOM     14  H   UNL     1      -4.193  -2.646  -2.165  0.00  0.00    +0.159 HD
ENDBRANCH   7  10
ENDBRANCH   6   7
BRANCH   1  15
ATOM     15  C   UNL     1      -0.095   2.435   0.639  0.00  0.00    +0.059 C 
BRANCH  15  19
ATOM     16  S   UNL     1       3.551   1.903  -0.246  0.00  0.00    -0.030 S 
ATOM     17  O   UNL     1       2.171   4.129  -0.397  0.00  0.00    -0.282 OA
ATOM     18  N   UNL     1       1.265   0.655  -0.314  0.00  0.00    -0.257 NA
ATOM     19  C   UNL     1       0.888   2.070  -0.460  0.00  0.00    +0.176 C 
ATOM     20  C   UNL     1       2.133   2.908  -0.376  0.00  0.00    +0.226 C 
ATOM     21  C   UNL     1       2.541   0.479  -0.215  0.00  0.00    +0.108 C 
BRANCH  21  22
ATOM     22  C   UNL     1       3.143  -0.868  -0.064  0.00  0.00    +0.023 C 
ATOM     23  C   UNL     1       2.433  -1.881   0.581  0.00  0.00    +0.002 C 
ATOM     24  C   UNL     1       4.420  -1.123  -0.566  0.00  0.00    +0.002 C 
ATOM     25  C   UNL     1       2.999  -3.148   0.723  0.00  0.00    +0.000 C 
ATOM     26  C   UNL     1       4.986  -2.390  -0.424  0.00  0.00    +0.000 C 
ATOM     27  C   UNL     1       4.275  -3.402   0.221  0.00  0.00    +0.000 C 
ENDBRANCH  21  22
ENDBRANCH  15  19
ENDBRANCH   1  15
TORSDOF 5
