13936691
  -OEChem-03292013303D

 53 57  0     1  0  0  0  0  0999 V2000
   -0.8240    1.9335   -1.8263 O   0  0  0  0  0  0  0  0  0  0  0  0
   -0.7554   -2.5443    0.1120 O   0  0  0  0  0  0  0  0  0  0  0  0
   -3.2794   -1.0310   -1.0716 O   0  0  0  0  0  0  0  0  0  0  0  0
    0.2451    3.1092   -0.0929 O   0  0  0  0  0  0  0  0  0  0  0  0
   -1.7884    2.2715    1.7091 O   0  0  0  0  0  0  0  0  0  0  0  0
    2.3048    2.2913    1.1956 O   0  0  0  0  0  0  0  0  0  0  0  0
   -3.6900   -1.1803    1.6256 O   0  0  0  0  0  0  0  0  0  0  0  0
   -2.1333   -3.3388    1.6976 O   0  0  0  0  0  0  0  0  0  0  0  0
    4.7151    1.2199    1.4916 O   0  0  0  0  0  0  0  0  0  0  0  0
   -0.9631   -0.2444   -0.8518 C   0  0  2  0  0  0  0  0  0  0  0  0
    0.0065    0.6403   -0.0140 C   0  0  1  0  0  0  0  0  0  0  0  0
    1.5683    0.3917   -0.2293 C   0  0  2  0  0  0  0  0  0  0  0  0
   -2.4071   -0.2629   -0.2172 C   0  0  1  0  0  0  0  0  0  0  0  0
   -0.5967    2.0136   -0.4027 C   0  0  2  0  0  0  0  0  0  0  0  0
   -0.5148   -1.6927   -1.0469 C   0  0  1  0  0  0  0  0  0  0  0  0
    1.8292   -1.1619   -0.2693 C   0  0  1  0  0  0  0  0  0  0  0  0
   -1.0024    0.5483   -2.1750 C   0  0  0  0  0  0  0  0  0  0  0  0
    0.9767   -1.8403   -1.3575 C   0  0  0  0  0  0  0  0  0  0  0  0
   -1.9642    2.2376    0.2925 C   0  0  1  0  0  0  0  0  0  0  0  0
   -2.9665    1.1510   -0.0333 C   0  0  0  0  0  0  0  0  0  0  0  0
    2.3659    0.8871    1.0275 C   0  0  1  0  0  0  0  0  0  0  0  0
   -2.3690   -1.0211    1.1143 C   0  0  2  0  0  0  0  0  0  0  0  0
    2.1383    1.0954   -1.4922 C   0  0  0  0  0  0  0  0  0  0  0  0
    3.3144   -1.5166   -0.2938 C   0  0  0  0  0  0  0  0  0  0  0  0
   -1.7759   -2.4037    0.9852 C   0  0  0  0  0  0  0  0  0  0  0  0
    3.8440    0.5234    0.9723 C   0  0  0  0  0  0  0  0  0  0  0  0
    4.2353   -0.7334    0.2912 C   0  0  0  0  0  0  0  0  0  0  0  0
   -4.2595    1.4708   -0.2189 C   0  0  0  0  0  0  0  0  0  0  0  0
    3.7460   -2.8131   -0.9217 C   0  0  0  0  0  0  0  0  0  0  0  0
   -0.1456    0.4667    1.0557 H   0  0  0  0  0  0  0  0  0  0  0  0
   -1.0632   -2.1557   -1.8765 H   0  0  0  0  0  0  0  0  0  0  0  0
    1.4797   -1.5754    0.6902 H   0  0  0  0  0  0  0  0  0  0  0  0
   -0.2203    0.2675   -2.8818 H   0  0  0  0  0  0  0  0  0  0  0  0
   -1.9516    0.4456   -2.7113 H   0  0  0  0  0  0  0  0  0  0  0  0
    1.2143   -1.4491   -2.3512 H   0  0  0  0  0  0  0  0  0  0  0  0
    1.1970   -2.9143   -1.3874 H   0  0  0  0  0  0  0  0  0  0  0  0
   -2.3645    3.2154   -0.0051 H   0  0  0  0  0  0  0  0  0  0  0  0
    1.9626    0.4333    1.9410 H   0  0  0  0  0  0  0  0  0  0  0  0
   -1.7989   -0.4954    1.8848 H   0  0  0  0  0  0  0  0  0  0  0  0
    1.9259    2.1659   -1.5164 H   0  0  0  0  0  0  0  0  0  0  0  0
    3.2269    1.0082   -1.5648 H   0  0  0  0  0  0  0  0  0  0  0  0
    1.7527    0.6711   -2.4189 H   0  0  0  0  0  0  0  0  0  0  0  0
   -3.0328   -1.9689   -1.0439 H   0  0  0  0  0  0  0  0  0  0  0  0
   -0.2919    3.9186   -0.0714 H   0  0  0  0  0  0  0  0  0  0  0  0
    5.2896   -0.9880    0.2973 H   0  0  0  0  0  0  0  0  0  0  0  0
   -5.0028    0.7243   -0.4761 H   0  0  0  0  0  0  0  0  0  0  0  0
   -4.6092    2.4918   -0.1058 H   0  0  0  0  0  0  0  0  0  0  0  0
   -1.1135    2.9442    1.9029 H   0  0  0  0  0  0  0  0  0  0  0  0
    2.7250    2.7159    0.4297 H   0  0  0  0  0  0  0  0  0  0  0  0
    3.2261   -3.6556   -0.4541 H   0  0  0  0  0  0  0  0  0  0  0  0
    4.8207   -2.9920   -0.8058 H   0  0  0  0  0  0  0  0  0  0  0  0
    3.5331   -2.8113   -1.9953 H   0  0  0  0  0  0  0  0  0  0  0  0
   -4.2316   -1.5920    0.9307 H   0  0  0  0  0  0  0  0  0  0  0  0
  1 14  1  0  0  0  0
  1 17  1  0  0  0  0
  2 15  1  0  0  0  0
  2 25  1  0  0  0  0
  3 13  1  0  0  0  0
  3 43  1  0  0  0  0
  4 14  1  0  0  0  0
  4 44  1  0  0  0  0
  5 19  1  0  0  0  0
  5 48  1  0  0  0  0
  6 21  1  0  0  0  0
  6 49  1  0  0  0  0
  7 22  1  0  0  0  0
  7 53  1  0  0  0  0
  8 25  2  0  0  0  0
  9 26  2  0  0  0  0
 10 11  1  0  0  0  0
 10 13  1  0  0  0  0
 10 15  1  0  0  0  0
 10 17  1  0  0  0  0
 11 12  1  0  0  0  0
 11 14  1  0  0  0  0
 11 30  1  0  0  0  0
 12 16  1  0  0  0  0
 12 21  1  0  0  0  0
 12 23  1  0  0  0  0
 13 20  1  0  0  0  0
 13 22  1  0  0  0  0
 14 19  1  0  0  0  0
 15 18  1  0  0  0  0
 15 31  1  0  0  0  0
 16 18  1  0  0  0  0
 16 24  1  0  0  0  0
 16 32  1  0  0  0  0
 17 33  1  0  0  0  0
 17 34  1  0  0  0  0
 18 35  1  0  0  0  0
 18 36  1  0  0  0  0
 19 20  1  0  0  0  0
 19 37  1  0  0  0  0
 20 28  2  0  0  0  0
 21 26  1  0  0  0  0
 21 38  1  0  0  0  0
 22 25  1  0  0  0  0
 22 39  1  0  0  0  0
 23 40  1  0  0  0  0
 23 41  1  0  0  0  0
 23 42  1  0  0  0  0
 24 27  2  0  0  0  0
 24 29  1  0  0  0  0
 26 27  1  0  0  0  0
 27 45  1  0  0  0  0
 28 46  1  0  0  0  0
 28 47  1  0  0  0  0
 29 50  1  0  0  0  0
 29 51  1  0  0  0  0
 29 52  1  0  0  0  0
M  END
> <PUBCHEM_COMPOUND_CID>
13936691

> <PUBCHEM_CONFORMER_RMSD>
0.6

> <PUBCHEM_CONFORMER_DIVERSEORDER>
1

> <PUBCHEM_MMFF94_PARTIAL_CHARGES>
32
1 -0.56
13 0.42
14 0.56
15 0.28
16 0.14
17 0.28
19 0.42
2 -0.43
20 -0.28
21 0.34
22 0.34
24 -0.28
25 0.66
26 0.49
27 -0.14
28 -0.3
29 0.14
3 -0.68
4 -0.68
43 0.4
44 0.4
45 0.15
46 0.15
47 0.15
48 0.4
49 0.4
5 -0.68
53 0.4
6 -0.68
7 -0.68
8 -0.57
9 -0.57

> <PUBCHEM_EFFECTIVE_ROTOR_COUNT>
1.4

> <PUBCHEM_PHARMACOPHORE_FEATURES>
17
1 1 acceptor
1 3 acceptor
1 3 donor
1 4 acceptor
1 4 donor
1 5 acceptor
1 5 donor
1 6 acceptor
1 6 donor
1 7 acceptor
1 7 donor
1 8 acceptor
1 9 acceptor
6 10 11 12 15 16 18 rings
6 12 16 21 24 26 27 rings
6 2 10 13 15 22 25 rings
8 1 10 11 13 14 17 19 20 rings

> <PUBCHEM_HEAVY_ATOM_COUNT>
29

> <PUBCHEM_ATOM_DEF_STEREO_COUNT>
10

> <PUBCHEM_ATOM_UDEF_STEREO_COUNT>
0

> <PUBCHEM_BOND_DEF_STEREO_COUNT>
0

> <PUBCHEM_BOND_UDEF_STEREO_COUNT>
0

> <PUBCHEM_ISOTOPIC_ATOM_COUNT>
0

> <PUBCHEM_COMPONENT_COUNT>
1

> <PUBCHEM_CACTVS_TAUTO_COUNT>
13

> <PUBCHEM_CONFORMER_ID>
00D4A83300000001

> <PUBCHEM_MMFF94_ENERGY>
114.7786

> <PUBCHEM_FEATURE_SELFOVERLAP>
86.533

> <PUBCHEM_SHAPE_FINGERPRINT>
10165383 225 17396156637678040748
10366900 7 18271519896791261986
10863032 1 18131344181193841277
10906281 52 18411144662173518573
10948715 1 18129374900276746541
11370993 70 18340762637592692721
11578080 2 15478960400315867561
11640471 11 15482673459430240742
12011746 2 18193561064659009519
12035758 1 18261115184172283785
12156800 1 14209919395110767818
12422481 6 18119000003742529627
12553582 1 18193007121141367751
12633257 1 18195531389474963274
12714826 92 17385721421895266391
13140716 1 18197506125148411360
13224815 77 18408609166900465084
133893 2 16300084647277268748
14223421 5 18340770450391268656
14787075 74 18272356556526401085
15209289 33 18051978026208350598
16945 1 18192717971358649669
1813 80 17095530629290403231
20600515 1 18040152941665003725
20691752 17 18187078400094563479
20905425 154 17758138246647978167
21421861 104 17608396832045686051
2334 1 18411145727150938445
23419403 2 17320954852522153191
23558518 356 18198065781163188081
23559900 14 18335428907208824782
238 59 17473793175053146620
2748010 2 18412549781824240567
3493558 16 14686674075186280249
350125 39 18198626527787460332
35225 105 17895462631645889554
392239 28 18268722610498344667
4340502 62 18264773164974472377
57527452 28 14135202396120241761
81228 2 18333733515627955062
9709674 26 18413103961739695414
9981440 41 17483913342637498480

> <PUBCHEM_SHAPE_MULTIPOLES>
543.98
6.89
3.35
1.65
3.63
0.71
0.11
0.3
-1.84
-0.48
-0.75
-0.23
0.03
1.6

> <PUBCHEM_SHAPE_SELFOVERLAP>
1210.582

> <PUBCHEM_SHAPE_VOLUME>
280.9

> <PUBCHEM_COORDINATE_TYPE>
2
5
10

$$$$
