REMARK  Name = 13935024
REMARK  9 active torsions:
REMARK  status: ('A' for Active; 'I' for Inactive)
REMARK    1  A    between atoms: N_1  and  C1*_12
REMARK    2  A    between atoms: C2*_11  and  O2*_15
REMARK    3  A    between atoms: C3*_13  and  O3*_17
REMARK    4  A    between atoms: C4*_14  and  C5*_19
REMARK    5  A    between atoms: C5*_19  and  O5*_20
REMARK    6  A    between atoms: N_22  and  C_24
REMARK    7  A    between atoms: C_24  and  C_25
REMARK    8  A    between atoms: C_26  and  C_28
REMARK    9  A    between atoms: C_28  and  O_29
REMARK                            x       y       z     vdW  Elec       q    Type
REMARK                         _______ _______ _______ _____ _____    ______ ____
ROOT
ATOM      1  N   UNL     1       1.513  -0.301   0.326  0.00  0.00    -0.247 N 
ATOM      2  N   UNL     1      -0.300   0.966   0.617  0.00  0.00    -0.242 NA
ATOM      3  N   UNL     1       0.465  -2.483   0.114  0.00  0.00    -0.228 NA
ATOM      4  N   UNL     1      -1.963  -2.323   0.303  0.00  0.00    -0.228 NA
ATOM      5  C   UNL     1       0.445  -1.153   0.289  0.00  0.00    +0.152 C 
ATOM      6  C   UNL     1       1.014   0.960   0.525  0.00  0.00    +0.223 C 
ATOM      7  C   UNL     1      -0.669  -0.348   0.471  0.00  0.00    +0.140 C 
ATOM      8  C   UNL     1      -1.908  -0.980   0.474  0.00  0.00    +0.146 C 
ATOM      9  C   UNL     1      -0.790  -2.981   0.137  0.00  0.00    +0.253 C 
ATOM     10  N   UNL     1      -3.091  -0.241   0.650  0.00  0.00    -0.313 N 
ATOM     11  H   UNL     1      -3.021   0.733   0.771  0.00  0.00    +0.149 HD
ENDROOT
BRANCH   1  14
ATOM     12  O4* UNL     1       3.728   0.216   1.006  0.00  0.00    -0.333 OA
ATOM     13  C2* UNL     1       3.444  -0.540  -1.254  0.00  0.00    +0.187 C 
ATOM     14  C1* UNL     1       2.926  -0.656   0.181  0.00  0.00    +0.225 C 
ATOM     15  C3* UNL     1       4.234   0.755  -1.223  0.00  0.00    +0.171 C 
ATOM     16  C4* UNL     1       4.778   0.767   0.195  0.00  0.00    +0.175 C 
BRANCH  13  17
ATOM     17  O2* UNL     1       4.288  -1.654  -1.540  0.00  0.00    -0.378 OA
ATOM     18  H2* UNL     1       3.759  -2.466  -1.553  0.00  0.00    +0.211 HD
ENDBRANCH  13  17
BRANCH  15  19
ATOM     19  O3* UNL     1       5.263   0.809  -2.188  0.00  0.00    -0.379 OA
ATOM     20  H3* UNL     1       4.874   0.798  -3.076  0.00  0.00    +0.211 HD
ENDBRANCH  15  19
BRANCH  16  21
ATOM     21  C5* UNL     1       5.137   2.156   0.693  0.00  0.00    +0.169 C 
BRANCH  21  22
ATOM     22  O5* UNL     1       5.620   2.051   2.021  0.00  0.00    -0.379 OA
ATOM     23  H5* UNL     1       5.853   2.933   2.351  0.00  0.00    +0.211 HD
ENDBRANCH  21  22
ENDBRANCH  16  21
ENDBRANCH   1  14
BRANCH  10  24
ATOM     24  C   UNL     1      -4.392  -0.840   0.662  0.00  0.00    +0.115 C 
BRANCH  24  25
ATOM     25  C   UNL     1      -5.418   0.226   0.894  0.00  0.00    -0.011 C 
ATOM     26  C   UNL     1      -6.070   0.956  -0.032  0.00  0.00    -0.018 C 
ATOM     27  C   UNL     1      -7.093   2.014   0.280  0.00  0.00    +0.029 C 
BRANCH  26  28
ATOM     28  C   UNL     1      -5.822   0.716  -1.500  0.00  0.00    +0.159 C 
BRANCH  28  29
ATOM     29  O   UNL     1      -5.338   1.910  -2.101  0.00  0.00    -0.378 OA
ATOM     30  H   UNL     1      -5.178   1.755  -3.045  0.00  0.00    +0.211 HD
ENDBRANCH  28  29
ENDBRANCH  26  28
ENDBRANCH  24  25
ENDBRANCH  10  24
TORSDOF 9
