13942676
  -OEChem-03292013303D

 53 55  0     0  0  0  0  0  0999 V2000
   -0.3537    0.6045   -0.1224 O   0  0  0  0  0  0  0  0  0  0  0  0
    0.8230   -2.7477    0.8604 O   0  0  0  0  0  0  0  0  0  0  0  0
   -1.9107    2.7255   -0.7667 O   0  0  0  0  0  0  0  0  0  0  0  0
   -5.8513    0.0859   -0.2157 O   0  0  0  0  0  0  0  0  0  0  0  0
    1.8658    0.5179    2.4787 O   0  0  0  0  0  0  0  0  0  0  0  0
   -4.3385   -2.0858    0.4416 O   0  0  0  0  0  0  0  0  0  0  0  0
   -1.9434   -3.0306    0.8067 O   0  0  0  0  0  0  0  0  0  0  0  0
   -4.6553    2.4920   -0.8194 O   0  0  0  0  0  0  0  0  0  0  0  0
    4.6526   -0.2077   -2.2253 O   0  0  0  0  0  0  0  0  0  0  0  0
    5.9426    0.7531    0.0415 O   0  0  0  0  0  0  0  0  0  0  0  0
   -2.3182   -0.7903    0.1726 C   0  0  0  0  0  0  0  0  0  0  0  0
   -1.7130    0.4267   -0.1330 C   0  0  0  0  0  0  0  0  0  0  0  0
    0.4523   -0.4775    0.1949 C   0  0  0  0  0  0  0  0  0  0  0  0
    1.8891   -0.1506    0.1703 C   0  0  0  0  0  0  0  0  0  0  0  0
   -0.0052   -1.7010    0.5173 C   0  0  0  0  0  0  0  0  0  0  0  0
   -1.4688   -1.9388    0.5235 C   0  0  0  0  0  0  0  0  0  0  0  0
   -2.4968    1.5316   -0.4666 C   0  0  0  0  0  0  0  0  0  0  0  0
   -3.7097   -0.9125    0.1467 C   0  0  0  0  0  0  0  0  0  0  0  0
   -4.4915    0.1938   -0.1878 C   0  0  0  0  0  0  0  0  0  0  0  0
   -3.8865    1.4135   -0.4938 C   0  0  0  0  0  0  0  0  0  0  0  0
    2.5394    0.3327    1.3077 C   0  0  0  0  0  0  0  0  0  0  0  0
    2.6055   -0.3298   -1.0148 C   0  0  0  0  0  0  0  0  0  0  0  0
    3.9664   -0.0276   -1.0624 C   0  0  0  0  0  0  0  0  0  0  0  0
    3.9002    0.6351    1.2601 C   0  0  0  0  0  0  0  0  0  0  0  0
    4.6138    0.4549    0.0751 C   0  0  0  0  0  0  0  0  0  0  0  0
    1.1957   -3.4909   -0.2845 C   0  0  0  0  0  0  0  0  0  0  0  0
   -1.6842    3.6252    0.3157 C   0  0  0  0  0  0  0  0  0  0  0  0
   -6.4437   -0.2992   -1.4536 C   0  0  0  0  0  0  0  0  0  0  0  0
    1.2695    1.7961    2.6866 C   0  0  0  0  0  0  0  0  0  0  0  0
    5.2555   -1.4838   -2.4311 C   0  0  0  0  0  0  0  0  0  0  0  0
    6.2989    2.0853   -0.3223 C   0  0  0  0  0  0  0  0  0  0  0  0
    2.1082   -0.6941   -1.9114 H   0  0  0  0  0  0  0  0  0  0  0  0
    4.4055    1.0100    2.1468 H   0  0  0  0  0  0  0  0  0  0  0  0
   -3.6940   -2.7797    0.6470 H   0  0  0  0  0  0  0  0  0  0  0  0
   -5.5918    2.2419   -0.7394 H   0  0  0  0  0  0  0  0  0  0  0  0
    1.8063   -4.3361    0.0480 H   0  0  0  0  0  0  0  0  0  0  0  0
    0.3172   -3.8990   -0.7972 H   0  0  0  0  0  0  0  0  0  0  0  0
    1.7957   -2.9091   -0.9868 H   0  0  0  0  0  0  0  0  0  0  0  0
   -1.2088    3.1186    1.1608 H   0  0  0  0  0  0  0  0  0  0  0  0
   -1.0223    4.4224   -0.0330 H   0  0  0  0  0  0  0  0  0  0  0  0
   -2.6310    4.0708    0.6362 H   0  0  0  0  0  0  0  0  0  0  0  0
   -6.1888    0.4122   -2.2456 H   0  0  0  0  0  0  0  0  0  0  0  0
   -6.1203   -1.3057   -1.7373 H   0  0  0  0  0  0  0  0  0  0  0  0
   -7.5297   -0.3049   -1.3263 H   0  0  0  0  0  0  0  0  0  0  0  0
    1.9749    2.4386    3.2218 H   0  0  0  0  0  0  0  0  0  0  0  0
    0.3754    1.6646    3.3019 H   0  0  0  0  0  0  0  0  0  0  0  0
    0.9843    2.2760    1.7453 H   0  0  0  0  0  0  0  0  0  0  0  0
    4.4935   -2.2696   -2.4474 H   0  0  0  0  0  0  0  0  0  0  0  0
    5.9933   -1.6919   -1.6497 H   0  0  0  0  0  0  0  0  0  0  0  0
    5.7650   -1.4701   -3.3985 H   0  0  0  0  0  0  0  0  0  0  0  0
    5.9430    2.3177   -1.3311 H   0  0  0  0  0  0  0  0  0  0  0  0
    5.8876    2.8018    0.3958 H   0  0  0  0  0  0  0  0  0  0  0  0
    7.3894    2.1639   -0.3096 H   0  0  0  0  0  0  0  0  0  0  0  0
  1 12  1  0  0  0  0
  1 13  1  0  0  0  0
  2 15  1  0  0  0  0
  2 26  1  0  0  0  0
  3 17  1  0  0  0  0
  3 27  1  0  0  0  0
  4 19  1  0  0  0  0
  4 28  1  0  0  0  0
  5 21  1  0  0  0  0
  5 29  1  0  0  0  0
  6 18  1  0  0  0  0
  6 34  1  0  0  0  0
  7 16  2  0  0  0  0
  8 20  1  0  0  0  0
  8 35  1  0  0  0  0
  9 23  1  0  0  0  0
  9 30  1  0  0  0  0
 10 25  1  0  0  0  0
 10 31  1  0  0  0  0
 11 12  1  0  0  0  0
 11 16  1  0  0  0  0
 11 18  2  0  0  0  0
 12 17  2  0  0  0  0
 13 14  1  0  0  0  0
 13 15  2  0  0  0  0
 14 21  1  0  0  0  0
 14 22  2  0  0  0  0
 15 16  1  0  0  0  0
 17 20  1  0  0  0  0
 18 19  1  0  0  0  0
 19 20  2  0  0  0  0
 21 24  2  0  0  0  0
 22 23  1  0  0  0  0
 22 32  1  0  0  0  0
 23 25  2  0  0  0  0
 24 25  1  0  0  0  0
 24 33  1  0  0  0  0
 26 36  1  0  0  0  0
 26 37  1  0  0  0  0
 26 38  1  0  0  0  0
 27 39  1  0  0  0  0
 27 40  1  0  0  0  0
 27 41  1  0  0  0  0
 28 42  1  0  0  0  0
 28 43  1  0  0  0  0
 28 44  1  0  0  0  0
 29 45  1  0  0  0  0
 29 46  1  0  0  0  0
 29 47  1  0  0  0  0
 30 48  1  0  0  0  0
 30 49  1  0  0  0  0
 30 50  1  0  0  0  0
 31 51  1  0  0  0  0
 31 52  1  0  0  0  0
 31 53  1  0  0  0  0
M  END
> <PUBCHEM_COMPOUND_CID>
13942676

> <PUBCHEM_CONFORMER_RMSD>
1

> <PUBCHEM_CONFORMER_DIVERSEORDER>
1
7
5
2
4
6
3

> <PUBCHEM_MMFF94_PARTIAL_CHARGES>
35
1 -0.16
10 -0.36
11 0.09
12 0.08
13 0.05
14 0.03
15 0.09
16 0.47
17 0.08
18 0.08
19 0.08
2 -0.36
20 0.08
21 0.08
22 -0.15
23 0.08
24 -0.15
25 0.08
26 0.28
27 0.28
28 0.28
29 0.28
3 -0.36
30 0.28
31 0.28
32 0.15
33 0.15
34 0.45
35 0.45
4 -0.36
5 -0.36
6 -0.53
7 -0.57
8 -0.53
9 -0.36

> <PUBCHEM_EFFECTIVE_ROTOR_COUNT>
7

> <PUBCHEM_PHARMACOPHORE_FEATURES>
13
1 1 acceptor
1 10 acceptor
1 2 acceptor
1 3 acceptor
1 4 acceptor
1 5 acceptor
1 6 donor
1 7 acceptor
1 8 donor
1 9 acceptor
6 1 11 12 13 15 16 rings
6 11 12 17 18 19 20 rings
6 14 21 22 23 24 25 rings

> <PUBCHEM_HEAVY_ATOM_COUNT>
31

> <PUBCHEM_ATOM_DEF_STEREO_COUNT>
0

> <PUBCHEM_ATOM_UDEF_STEREO_COUNT>
0

> <PUBCHEM_BOND_DEF_STEREO_COUNT>
0

> <PUBCHEM_BOND_UDEF_STEREO_COUNT>
0

> <PUBCHEM_ISOTOPIC_ATOM_COUNT>
0

> <PUBCHEM_COMPONENT_COUNT>
1

> <PUBCHEM_CACTVS_TAUTO_COUNT>
12

> <PUBCHEM_CONFORMER_ID>
00D4BF9400000001

> <PUBCHEM_MMFF94_ENERGY>
153.9885

> <PUBCHEM_FEATURE_SELFOVERLAP>
66.022

> <PUBCHEM_SHAPE_FINGERPRINT>
10165383 225 18413110563130485241
10366900 7 18342449344744148521
10411042 1 17614005513789974283
10498660 4 18335417928882110157
10670039 82 18187934919652640316
10906281 52 18041001679755312549
12236239 1 17168419454572597354
12390115 104 18267873796328426585
12596602 18 16298389071861994905
12633257 1 14129060348532708696
12788726 201 18114737153853714065
13140716 1 18118404175381810075
13402501 40 18271519896501579648
13617811 41 18260829298100993741
13782708 43 17988926664867988791
14251757 17 18130792226926462008
14341114 328 16081095887119938566
14840074 17 16950293888062457333
15131766 46 15069769575991036502
15324884 4 18126565867095657467
18608769 82 18337113475250665963
18681886 176 18188768465198807660
20511986 3 16950827159734308069
20645477 70 17275114894996398934
21033648 29 18200864197184960144
21033650 10 18188791469797733232
21792961 116 18131361817389900716
22122407 14 15357707365895335949
221357 26 17846498114712350080
23366157 5 17606678019987799690
23536364 44 17843979043779397228
23557571 272 18339081596426266224
23559900 14 18339357578065978173
23569914 152 16906928900703301605
3298306 158 18271527507395060014
34797466 226 18341900714011686844
46194498 28 18131067173500784748
469060 322 18190201082095666737
5104073 3 18117276952967912617
5265222 85 18266463286392761358
57527295 17 17773051764906763350
59755656 215 18409729538915827239
7808743 9 18333726940054078528
9981440 41 18113060428195555611

> <PUBCHEM_SHAPE_MULTIPOLES>
579.27
13.09
3.24
1.72
1.18
0.19
-0.23
-3.03
6.45
-1.22
-0.35
2.02
-0.16
1.87

> <PUBCHEM_SHAPE_SELFOVERLAP>
1258.927

> <PUBCHEM_SHAPE_VOLUME>
317.6

> <PUBCHEM_COORDINATE_TYPE>
2
5
10

$$$$
