REMARK  Name = 13942676
REMARK  9 active torsions:
REMARK  status: ('A' for Active; 'I' for Inactive)
REMARK    1  A    between atoms: C_5  and  C_12
REMARK    2  A    between atoms: C_6  and  O_24
REMARK    3  A    between atoms: C_8  and  O_26
REMARK    4  A    between atoms: C_9  and  O_30
REMARK    5  A    between atoms: C_10  and  O_28
REMARK    6  A    between atoms: C_11  and  O_32
REMARK    7  A    between atoms: C_13  and  O_18
REMARK    8  A    between atoms: C_15  and  O_20
REMARK    9  A    between atoms: C_17  and  O_22
REMARK                            x       y       z     vdW  Elec       q    Type
REMARK                         _______ _______ _______ _____ _____    ______ ____
ROOT
ATOM      1  O   UNL     1      -0.354   0.605  -0.122  0.00  0.00    -0.447 OA
ATOM      2  O   UNL     1      -1.943  -3.031   0.807  0.00  0.00    -0.283 OA
ATOM      3  C   UNL     1      -2.318  -0.790   0.173  0.00  0.00    +0.117 A 
ATOM      4  C   UNL     1      -1.713   0.427  -0.133  0.00  0.00    +0.188 A 
ATOM      5  C   UNL     1       0.452  -0.477   0.195  0.00  0.00    +0.185 A 
ATOM      6  C   UNL     1      -0.005  -1.701   0.517  0.00  0.00    +0.212 A 
ATOM      7  C   UNL     1      -1.469  -1.939   0.523  0.00  0.00    +0.238 A 
ATOM      8  C   UNL     1      -2.497   1.532  -0.467  0.00  0.00    +0.210 A 
ATOM      9  C   UNL     1      -3.710  -0.912   0.147  0.00  0.00    +0.177 A 
ATOM     10  C   UNL     1      -4.492   0.194  -0.188  0.00  0.00    +0.209 A 
ATOM     11  C   UNL     1      -3.886   1.413  -0.494  0.00  0.00    +0.209 A 
ENDROOT
BRANCH   5  12
ATOM     12  C   UNL     1       1.889  -0.151   0.170  0.00  0.00    +0.075 C 
ATOM     13  C   UNL     1       2.539   0.333   1.308  0.00  0.00    +0.145 C 
ATOM     14  C   UNL     1       2.606  -0.330  -1.015  0.00  0.00    +0.046 C 
ATOM     15  C   UNL     1       3.966  -0.028  -1.062  0.00  0.00    +0.173 C 
ATOM     16  C   UNL     1       3.900   0.635   1.260  0.00  0.00    +0.077 C 
ATOM     17  C   UNL     1       4.614   0.455   0.075  0.00  0.00    +0.175 C 
BRANCH  13  18
ATOM     18  O   UNL     1       1.866   0.518   2.479  0.00  0.00    -0.471 OA
ATOM     19  C   UNL     1       1.270   1.796   2.687  0.00  0.00    +0.252 C 
ENDBRANCH  13  18
BRANCH  15  20
ATOM     20  O   UNL     1       4.653  -0.208  -2.225  0.00  0.00    -0.468 OA
ATOM     21  C   UNL     1       5.255  -1.484  -2.431  0.00  0.00    +0.253 C 
ENDBRANCH  15  20
BRANCH  17  22
ATOM     22  O   UNL     1       5.943   0.753   0.042  0.00  0.00    -0.468 OA
ATOM     23  C   UNL     1       6.299   2.085  -0.322  0.00  0.00    +0.253 C 
ENDBRANCH  17  22
ENDBRANCH   5  12
BRANCH   6  24
ATOM     24  O   UNL     1       0.823  -2.748   0.860  0.00  0.00    -0.465 OA
ATOM     25  C   UNL     1       1.196  -3.491  -0.284  0.00  0.00    +0.253 C 
ENDBRANCH   6  24
BRANCH   8  26
ATOM     26  O   UNL     1      -1.911   2.725  -0.767  0.00  0.00    -0.465 OA
ATOM     27  C   UNL     1      -1.684   3.625   0.316  0.00  0.00    +0.253 C 
ENDBRANCH   8  26
BRANCH  10  28
ATOM     28  O   UNL     1      -5.851   0.086  -0.216  0.00  0.00    -0.465 OA
ATOM     29  C   UNL     1      -6.444  -0.299  -1.454  0.00  0.00    +0.253 C 
ENDBRANCH  10  28
BRANCH   9  30
ATOM     30  O   UNL     1      -4.338  -2.086   0.442  0.00  0.00    -0.503 OA
ATOM     31  H   UNL     1      -3.835  -2.843   0.669  0.00  0.00    +0.292 HD
ENDBRANCH   9  30
BRANCH  11  32
ATOM     32  O   UNL     1      -4.655   2.492  -0.819  0.00  0.00    -0.501 OA
ATOM     33  H   UNL     1      -4.250   3.311  -1.025  0.00  0.00    +0.292 HD
ENDBRANCH  11  32
TORSDOF 9
