13943200
  -OEChem-03292013303D

 50 53  0     1  0  0  0  0  0999 V2000
    6.4386    0.9845    1.5087 Cl  0  0  0  0  0  0  0  0  0  0  0  0
   -3.9860   -0.4565    2.2771 O   0  0  0  0  0  0  0  0  0  0  0  0
   -2.1840    1.9446   -0.0418 O   0  0  0  0  0  0  0  0  0  0  0  0
   -5.1798   -0.7692   -0.8688 O   0  0  0  0  0  0  0  0  0  0  0  0
    2.2418    0.2821   -0.1581 O   0  0  0  0  0  0  0  0  0  0  0  0
   -1.6460    4.1198   -0.5757 O   0  0  0  0  0  0  0  0  0  0  0  0
    3.2082   -1.2521   -1.5783 O   0  0  0  0  0  0  0  0  0  0  0  0
    5.3495   -1.4820   -0.0546 O   0  0  0  0  0  0  0  0  0  0  0  0
   -3.6008   -0.3461    0.8872 C   0  0  1  0  0  0  0  0  0  0  0  0
   -2.0948   -0.4047    0.7053 C   0  0  1  0  0  0  0  0  0  0  0  0
   -1.8887   -1.8549    0.1631 C   0  0  1  0  0  0  0  0  0  0  0  0
   -4.2816   -1.3831    0.0420 C   0  0  2  0  0  0  0  0  0  0  0  0
   -1.5506    0.6674   -0.2567 C   0  0  2  0  0  0  0  0  0  0  0  0
   -4.3411    0.7569    1.6197 C   0  0  0  0  0  0  0  0  0  0  0  0
   -3.1424   -2.0668   -0.7151 C   0  0  0  0  0  0  0  0  0  0  0  0
   -0.0686    0.9656   -0.0241 C   0  0  1  0  0  0  0  0  0  0  0  0
   -0.5700   -2.1500   -0.5242 C   0  0  0  0  0  0  0  0  0  0  0  0
    0.9126   -0.0928   -0.5389 C   0  0  2  0  0  0  0  0  0  0  0  0
    0.6640   -1.4934    0.0374 C   0  0  0  0  0  0  0  0  0  0  0  0
   -0.0200    2.3269   -0.6445 C   0  0  0  0  0  0  0  0  0  0  0  0
   -1.3484    2.9471   -0.4431 C   0  0  0  0  0  0  0  0  0  0  0  0
   -0.4500   -2.9850   -1.5714 C   0  0  0  0  0  0  0  0  0  0  0  0
    0.9414    2.9617   -1.3187 C   0  0  0  0  0  0  0  0  0  0  0  0
    3.2341   -0.5644   -0.5647 C   0  0  0  0  0  0  0  0  0  0  0  0
    4.3958   -0.5353    0.4259 C   0  0  2  0  0  0  0  0  0  0  0  0
    5.0467    0.8527    0.4006 C   0  0  0  0  0  0  0  0  0  0  0  0
    3.9203   -0.9731    1.8115 C   0  0  0  0  0  0  0  0  0  0  0  0
   -1.6073   -0.3006    1.6836 H   0  0  0  0  0  0  0  0  0  0  0  0
   -1.9645   -2.5364    1.0239 H   0  0  0  0  0  0  0  0  0  0  0  0
   -4.8329   -2.1052    0.6551 H   0  0  0  0  0  0  0  0  0  0  0  0
   -1.7575    0.3909   -1.2998 H   0  0  0  0  0  0  0  0  0  0  0  0
   -3.8098    1.6498    1.9204 H   0  0  0  0  0  0  0  0  0  0  0  0
   -5.3868    0.9175    1.3902 H   0  0  0  0  0  0  0  0  0  0  0  0
   -3.0179   -1.6202   -1.7101 H   0  0  0  0  0  0  0  0  0  0  0  0
   -3.3652   -3.1292   -0.8646 H   0  0  0  0  0  0  0  0  0  0  0  0
    0.1195    1.1219    1.0490 H   0  0  0  0  0  0  0  0  0  0  0  0
    0.8676   -0.1198   -1.6366 H   0  0  0  0  0  0  0  0  0  0  0  0
    0.5915   -1.4377    1.1324 H   0  0  0  0  0  0  0  0  0  0  0  0
    1.5062   -2.1756   -0.1198 H   0  0  0  0  0  0  0  0  0  0  0  0
   -5.5317   -1.4681   -1.4462 H   0  0  0  0  0  0  0  0  0  0  0  0
   -1.2988   -3.5044   -2.0003 H   0  0  0  0  0  0  0  0  0  0  0  0
    0.5160   -3.1755   -2.0285 H   0  0  0  0  0  0  0  0  0  0  0  0
    1.9095    2.5058   -1.4898 H   0  0  0  0  0  0  0  0  0  0  0  0
    0.7902    3.9574   -1.7226 H   0  0  0  0  0  0  0  0  0  0  0  0
    5.4216    1.0932   -0.6000 H   0  0  0  0  0  0  0  0  0  0  0  0
    4.3360    1.6341    0.6886 H   0  0  0  0  0  0  0  0  0  0  0  0
    3.2612   -0.2287    2.2701 H   0  0  0  0  0  0  0  0  0  0  0  0
    4.7619   -1.1616    2.4861 H   0  0  0  0  0  0  0  0  0  0  0  0
    3.3664   -1.9172    1.7475 H   0  0  0  0  0  0  0  0  0  0  0  0
    5.6929   -1.1639   -0.9071 H   0  0  0  0  0  0  0  0  0  0  0  0
  1 26  1  0  0  0  0
  2  9  1  0  0  0  0
  2 14  1  0  0  0  0
  3 13  1  0  0  0  0
  3 21  1  0  0  0  0
  4 12  1  0  0  0  0
  4 40  1  0  0  0  0
  5 18  1  0  0  0  0
  5 24  1  0  0  0  0
  6 21  2  0  0  0  0
  7 24  2  0  0  0  0
  8 25  1  0  0  0  0
  8 50  1  0  0  0  0
  9 10  1  0  0  0  0
  9 12  1  0  0  0  0
  9 14  1  0  0  0  0
 10 11  1  0  0  0  0
 10 13  1  0  0  0  0
 10 28  1  0  0  0  0
 11 15  1  0  0  0  0
 11 17  1  0  0  0  0
 11 29  1  0  0  0  0
 12 15  1  0  0  0  0
 12 30  1  0  0  0  0
 13 16  1  0  0  0  0
 13 31  1  0  0  0  0
 14 32  1  0  0  0  0
 14 33  1  0  0  0  0
 15 34  1  0  0  0  0
 15 35  1  0  0  0  0
 16 18  1  0  0  0  0
 16 20  1  0  0  0  0
 16 36  1  0  0  0  0
 17 19  1  0  0  0  0
 17 22  2  0  0  0  0
 18 19  1  0  0  0  0
 18 37  1  0  0  0  0
 19 38  1  0  0  0  0
 19 39  1  0  0  0  0
 20 21  1  0  0  0  0
 20 23  2  0  0  0  0
 22 41  1  0  0  0  0
 22 42  1  0  0  0  0
 23 43  1  0  0  0  0
 23 44  1  0  0  0  0
 24 25  1  0  0  0  0
 25 26  1  0  0  0  0
 25 27  1  0  0  0  0
 26 45  1  0  0  0  0
 26 46  1  0  0  0  0
 27 47  1  0  0  0  0
 27 48  1  0  0  0  0
 27 49  1  0  0  0  0
M  END
> <PUBCHEM_COMPOUND_CID>
13943200

> <PUBCHEM_CONFORMER_RMSD>
0.8

> <PUBCHEM_CONFORMER_DIVERSEORDER>
1
29
19
13
32
28
24
7
16
26
18
22
4
21
10
20
15
27
25
8
23
11
31
12
14
30
9
5
6
17
2
3

> <PUBCHEM_MMFF94_PARTIAL_CHARGES>
33
1 -0.29
10 0.09
11 0.14
12 0.38
13 0.28
14 -0.05
16 0.14
17 -0.28
18 0.28
19 0.14
2 -0.3
20 -0.12
21 0.71
22 -0.3
23 -0.3
24 0.66
25 0.34
26 0.29
3 -0.43
32 0.1
33 0.1
4 -0.68
40 0.4
41 0.15
42 0.15
43 0.15
44 0.15
5 -0.43
50 0.4
6 -0.57
7 -0.57
8 -0.68
9 -0.04

> <PUBCHEM_EFFECTIVE_ROTOR_COUNT>
5.4

> <PUBCHEM_PHARMACOPHORE_FEATURES>
10
1 2 acceptor
1 4 acceptor
1 4 donor
1 6 acceptor
1 7 acceptor
1 8 acceptor
1 8 donor
5 3 13 16 20 21 rings
5 9 10 11 12 15 rings
7 10 11 13 16 17 18 19 rings

> <PUBCHEM_HEAVY_ATOM_COUNT>
27

> <PUBCHEM_ATOM_DEF_STEREO_COUNT>
7

> <PUBCHEM_ATOM_UDEF_STEREO_COUNT>
1

> <PUBCHEM_BOND_DEF_STEREO_COUNT>
0

> <PUBCHEM_BOND_UDEF_STEREO_COUNT>
0

> <PUBCHEM_ISOTOPIC_ATOM_COUNT>
0

> <PUBCHEM_COMPONENT_COUNT>
1

> <PUBCHEM_CACTVS_TAUTO_COUNT>
1

> <PUBCHEM_CONFORMER_ID>
00D4C1A000000001

> <PUBCHEM_MMFF94_ENERGY>
74.9854

> <PUBCHEM_FEATURE_SELFOVERLAP>
50.812

> <PUBCHEM_SHAPE_FINGERPRINT>
10319926 262 18266160748954473610
10369192 42 17130704067437517576
10906281 52 18263380126559663485
10930396 42 18046312440591305272
11132069 177 18271815596568093399
11595378 159 18188192248745037016
12035758 1 18189068525374844697
12403259 415 18200877271555823948
12403814 3 18411978074495903354
12422481 6 18266478511360671297
12553582 1 18263381281314970615
12633257 1 18060133258828649800
12788726 201 18261404342597696604
13004483 165 18263346097195985276
13009979 54 18057333983913457283
13140716 1 18266472068951899035
13583140 156 17603853491080527060
13965767 371 17768279845892660995
14420673 8 17468750794050473010
14840074 17 18410577309577626458
15183329 4 10880004562470928384
15685185 35 16666870779445218108
17349148 13 18200876296271616047
17980427 23 17632023039298586009
1813 80 18186809097023404340
20600515 1 18270694176027050756
21033648 29 18058433345228077256
21304303 282 16807832271202338805
2132832 1 17626085809172774783
21756936 100 15267050489634527594
22182313 1 18050584949518650967
23402539 116 18411696578192250775
23557571 272 18411990135492083964
23559900 14 17488172884510672762
23845131 108 17330284870267948265
25147074 1 18053110798310838711
2748010 2 17834131753316694519
3009799 131 18261377967282400167
314173 85 18408326596438068480
392239 28 18115019827215523104
5104073 3 18264480695034192768
5171179 24 17838338480004190135
5265222 85 18340217293918928878
7064713 232 18131080319946641961
90316 7 18408884035790115427
9862522 239 18268702818888357791
9925002 15 18127126609245549455

> <PUBCHEM_SHAPE_MULTIPOLES>
516.43
10.88
3.46
1.49
11.64
2.67
0.49
-2
5.2
-1.59
-1.71
-0.08
-0.17
-0.1

> <PUBCHEM_SHAPE_SELFOVERLAP>
1096.591

> <PUBCHEM_SHAPE_VOLUME>
288.8

> <PUBCHEM_COORDINATE_TYPE>
2
5
10

$$$$
