REMARK  Name = 13945563
REMARK  2 active torsions:
REMARK  status: ('A' for Active; 'I' for Inactive)
REMARK    1  A    between atoms: N_7  and  O_21
REMARK    2  A    between atoms: C_19  and  O_23
REMARK                            x       y       z     vdW  Elec       q    Type
REMARK                         _______ _______ _______ _____ _____    ______ ____
ROOT
ATOM      1 CL   UNL     1      -5.141   1.532   0.689  0.00  0.00    -0.079 Cl
ATOM      2  S   UNL     1       0.571   2.559  -0.095  0.00  0.00    -0.070 S 
ATOM      3  S   UNL     1       2.584   2.630   0.333  0.00  0.00    -0.053 S 
ATOM      4  O   UNL     1      -0.147  -1.357  -0.254  0.00  0.00    -0.454 OA
ATOM      5  O   UNL     1       0.671  -0.234  -2.571  0.00  0.00    -0.269 OA
ATOM      6  O   UNL     1       4.005  -0.119   1.564  0.00  0.00    -0.270 OA
ATOM      7  N   UNL     1       1.996  -0.731   0.587  0.00  0.00    -0.124 N 
ATOM      8  N   UNL     1       2.565   0.629  -1.582  0.00  0.00    -0.285 N 
ATOM      9  C   UNL     1       0.807  -0.276  -0.133  0.00  0.00    +0.300 C 
ATOM     10  C   UNL     1       0.123   0.931   0.576  0.00  0.00    +0.149 C 
ATOM     11  C   UNL     1      -1.301   0.552   0.360  0.00  0.00    +0.029 C 
ATOM     12  C   UNL     1       1.327  -0.002  -1.557  0.00  0.00    +0.282 C 
ATOM     13  C   UNL     1       3.240   1.087  -0.380  0.00  0.00    +0.210 C 
ATOM     14  C   UNL     1      -1.370  -0.762  -0.079  0.00  0.00    +0.141 C 
ATOM     15  C   UNL     1       3.160  -0.002   0.679  0.00  0.00    +0.280 C 
ATOM     16  C   UNL     1      -2.462   1.266   0.613  0.00  0.00    +0.014 C 
ATOM     17  C   UNL     1      -2.575  -1.403  -0.300  0.00  0.00    +0.074 C 
ATOM     18  C   UNL     1      -3.692   0.642   0.386  0.00  0.00    +0.091 C 
ATOM     19  C   UNL     1      -3.748  -0.684  -0.068  0.00  0.00    +0.147 C 
ATOM     20  H   UNL     1       3.003   0.772  -2.452  0.00  0.00    +0.151 HD
ENDROOT
BRANCH   7  21
ATOM     21  O   UNL     1       1.946  -1.981   1.220  0.00  0.00    -0.257 OA
ATOM     22  C   UNL     1       2.387  -2.974   0.299  0.00  0.00    +0.206 C 
ENDBRANCH   7  21
BRANCH  19  23
ATOM     23  O   UNL     1      -4.945  -1.302  -0.287  0.00  0.00    -0.505 OA
ATOM     24  H   UNL     1      -4.967  -2.188  -0.590  0.00  0.00    +0.292 HD
ENDBRANCH  19  23
TORSDOF 2
