REMARK  Name = 13943200
REMARK  6 active torsions:
REMARK  status: ('A' for Active; 'I' for Inactive)
REMARK    1  A    between atoms: C_7  and  O_19
REMARK    2  A    between atoms: C_13  and  O_21
REMARK    3  A    between atoms: O_21  and  C_23
REMARK    4  A    between atoms: C_23  and  C_24
REMARK    5  A    between atoms: C_24  and  C_27
REMARK    6  A    between atoms: C_24  and  O_28
REMARK                            x       y       z     vdW  Elec       q    Type
REMARK                         _______ _______ _______ _____ _____    ______ ____
ROOT
ATOM      1  O   UNL     1      -3.986  -0.457   2.277  0.00  0.00    -0.351 OA
ATOM      2  O   UNL     1      -2.184   1.945  -0.042  0.00  0.00    -0.449 OA
ATOM      3  O   UNL     1      -1.646   4.120  -0.576  0.00  0.00    -0.245 OA
ATOM      4  C   UNL     1      -3.601  -0.346   0.887  0.00  0.00    +0.148 C 
ATOM      5  C   UNL     1      -2.095  -0.405   0.705  0.00  0.00    +0.074 C 
ATOM      6  C   UNL     1      -1.889  -1.855   0.163  0.00  0.00    +0.027 C 
ATOM      7  C   UNL     1      -4.282  -1.383   0.042  0.00  0.00    +0.138 C 
ATOM      8  C   UNL     1      -1.551   0.667  -0.257  0.00  0.00    +0.179 C 
ATOM      9  C   UNL     1      -4.341   0.757   1.620  0.00  0.00    +0.172 C 
ATOM     10  C   UNL     1      -3.142  -2.067  -0.715  0.00  0.00    +0.036 C 
ATOM     11  C   UNL     1      -0.069   0.966  -0.024  0.00  0.00    +0.109 C 
ATOM     12  C   UNL     1      -0.570  -2.150  -0.524  0.00  0.00    -0.041 C 
ATOM     13  C   UNL     1       0.913  -0.093  -0.539  0.00  0.00    +0.181 C 
ATOM     14  C   UNL     1       0.664  -1.493   0.037  0.00  0.00    +0.066 C 
ATOM     15  C   UNL     1      -0.020   2.327  -0.644  0.00  0.00    +0.060 C 
ATOM     16  C   UNL     1      -1.348   2.947  -0.443  0.00  0.00    +0.337 C 
ATOM     17  C   UNL     1      -0.450  -2.985  -1.571  0.00  0.00    -0.009 C 
ATOM     18  C   UNL     1       0.941   2.962  -1.319  0.00  0.00    +0.002 C 
ENDROOT
BRANCH   7  19
ATOM     19  O   UNL     1      -5.180  -0.769  -0.869  0.00  0.00    -0.382 OA
ATOM     20  H   UNL     1      -5.897  -0.340  -0.376  0.00  0.00    +0.210 HD
ENDBRANCH   7  19
BRANCH  13  21
ATOM     21  O   UNL     1       2.242   0.282  -0.158  0.00  0.00    -0.450 OA
BRANCH  21  23
ATOM     22  O   UNL     1       3.208  -1.252  -1.578  0.00  0.00    -0.247 OA
ATOM     23  C   UNL     1       3.234  -0.564  -0.565  0.00  0.00    +0.342 C 
BRANCH  23  24
ATOM     24  C   UNL     1       4.396  -0.535   0.426  0.00  0.00    +0.192 C 
ATOM     25  C   UNL     1       3.920  -0.973   1.812  0.00  0.00    +0.042 C 
BRANCH  24  27
ATOM     26 CL   UNL     1       6.439   0.985   1.509  0.00  0.00    -0.111 Cl
ATOM     27  C   UNL     1       5.047   0.853   0.401  0.00  0.00    +0.133 C 
ENDBRANCH  24  27
BRANCH  24  28
ATOM     28  O   UNL     1       5.349  -1.482  -0.055  0.00  0.00    -0.375 OA
ATOM     29  H   UNL     1       5.658  -1.213  -0.934  0.00  0.00    +0.211 HD
ENDBRANCH  24  28
ENDBRANCH  23  24
ENDBRANCH  21  23
ENDBRANCH  13  21
TORSDOF 6
