REMARK  Name = 139583973
REMARK  5 active torsions:
REMARK  status: ('A' for Active; 'I' for Inactive)
REMARK    1  A    between atoms: C_3  and  C_23
REMARK    2  A    between atoms: C_4  and  C_19
REMARK    3  A    between atoms: C_13  and  O_26
REMARK    4  A    between atoms: C_15  and  O_28
REMARK    5  A    between atoms: C_23  and  O_24
REMARK                            x       y       z     vdW  Elec       q    Type
REMARK                         _______ _______ _______ _____ _____    ______ ____
ROOT
ATOM      1  O   UNL     1      -0.161  -3.146   0.633  0.00  0.00    -0.291 OA
ATOM      2  O   UNL     1       0.955   1.444  -2.771  0.00  0.00    -0.290 OA
ATOM      3  C   UNL     1       0.903   0.746  -0.439  0.00  0.00    +0.167 C 
ATOM      4  C   UNL     1       1.885  -0.194   0.310  0.00  0.00    +0.054 C 
ATOM      5  C   UNL     1       1.549  -1.639  -0.084  0.00  0.00    +0.086 C 
ATOM      6  C   UNL     1      -0.549   0.392  -0.117  0.00  0.00    -0.001 A 
ATOM      7  C   UNL     1      -0.909  -0.919   0.254  0.00  0.00    +0.065 A 
ATOM      8  C   UNL     1       1.646  -1.835  -1.582  0.00  0.00    -0.034 C 
ATOM      9  C   UNL     1       0.122  -1.993   0.319  0.00  0.00    +0.179 C 
ATOM     10  C   UNL     1       1.114   0.539  -1.952  0.00  0.00    +0.186 C 
ATOM     11  C   UNL     1       1.467  -0.823  -2.446  0.00  0.00    +0.030 C 
ATOM     12  C   UNL     1      -1.571   1.349  -0.244  0.00  0.00    +0.009 A 
ATOM     13  C   UNL     1      -2.242  -1.243   0.537  0.00  0.00    +0.135 A 
ATOM     14  C   UNL     1       1.976  -3.220  -2.061  0.00  0.00    +0.027 C 
ATOM     15  C   UNL     1      -2.900   1.022   0.036  0.00  0.00    +0.128 A 
ATOM     16  C   UNL     1      -3.233  -0.270   0.432  0.00  0.00    +0.045 A 
ATOM     17  C   UNL     1      -1.313   2.738  -0.744  0.00  0.00    +0.034 C 
ATOM     18  C   UNL     1      -4.658  -0.612   0.732  0.00  0.00    +0.037 C 
ENDROOT
BRANCH   4  19
ATOM     19  C   UNL     1       1.921  -0.047   1.810  0.00  0.00    -0.029 C 
ATOM     20  C   UNL     1       3.019   0.289   2.501  0.00  0.00    -0.030 C 
ATOM     21  C   UNL     1       3.055   0.436   3.987  0.00  0.00    +0.030 C 
ENDBRANCH   4  19
BRANCH   3  23
ATOM     22  O   UNL     1       0.843   2.752   0.930  0.00  0.00    -0.249 OA
ATOM     23  C   UNL     1       1.310   2.141  -0.019  0.00  0.00    +0.324 C 
BRANCH  23  24
ATOM     24  O   UNL     1       2.269   2.629  -0.844  0.00  0.00    -0.480 OA
ATOM     25  H   UNL     1       2.585   2.107  -1.555  0.00  0.00    +0.295 HD
ENDBRANCH  23  24
ENDBRANCH   3  23
BRANCH  13  26
ATOM     26  O   UNL     1      -2.619  -2.500   0.912  0.00  0.00    -0.506 OA
ATOM     27  H   UNL     1      -1.977  -3.178   0.992  0.00  0.00    +0.292 HD
ENDBRANCH  13  26
BRANCH  15  28
ATOM     28  O   UNL     1      -3.880   1.964  -0.090  0.00  0.00    -0.506 OA
ATOM     29  H   UNL     1      -3.661   2.836  -0.356  0.00  0.00    +0.292 HD
ENDBRANCH  15  28
TORSDOF 5
