REMARK  Name = 139589298
REMARK  5 active torsions:
REMARK  status: ('A' for Active; 'I' for Inactive)
REMARK    1  A    between atoms: C_3  and  O_21
REMARK    2  A    between atoms: C_7  and  O_23
REMARK    3  A    between atoms: C_10  and  O_25
REMARK    4  A    between atoms: C_10  and  C_30
REMARK    5  A    between atoms: C_14  and  O_27
REMARK                            x       y       z     vdW  Elec       q    Type
REMARK                         _______ _______ _______ _____ _____    ______ ____
ROOT
ATOM      1  O   UNL     1      -0.731  -1.804   2.087  0.00  0.00    -0.291 OA
ATOM      2  C   UNL     1      -0.528  -0.009  -1.149  0.00  0.00    +0.034 C 
ATOM      3  C   UNL     1       0.009  -1.034  -0.095  0.00  0.00    +0.141 C 
ATOM      4  C   UNL     1       1.485  -0.684   0.454  0.00  0.00    +0.029 C 
ATOM      5  C   UNL     1       2.209   0.303  -0.542  0.00  0.00    +0.003 C 
ATOM      6  C   UNL     1      -1.918  -0.439  -1.677  0.00  0.00    +0.035 C 
ATOM      7  C   UNL     1      -2.792  -0.148  -0.462  0.00  0.00    +0.149 C 
ATOM      8  C   UNL     1      -0.875   1.369  -0.505  0.00  0.00    +0.040 C 
ATOM      9  C   UNL     1       0.447   0.092  -2.348  0.00  0.00    +0.003 C 
ATOM     10  C   UNL     1      -2.363   1.291  -0.115  0.00  0.00    +0.171 C 
ATOM     11  C   UNL     1       1.931  -0.077  -1.997  0.00  0.00    +0.000 C 
ATOM     12  C   UNL     1       3.705   0.639  -0.202  0.00  0.00    +0.000 C 
ATOM     13  C   UNL     1       1.485   0.021   1.853  0.00  0.00    +0.003 C 
ATOM     14  C   UNL     1      -2.510  -1.180   0.639  0.00  0.00    +0.197 C 
ATOM     15  C   UNL     1      -1.041  -1.326   0.994  0.00  0.00    +0.203 C 
ATOM     16  C   UNL     1       2.267  -2.018   0.628  0.00  0.00    +0.003 C 
ATOM     17  C   UNL     1       3.911   0.692   1.337  0.00  0.00    +0.000 C 
ATOM     18  C   UNL     1       2.625   1.025   2.089  0.00  0.00    +0.000 C 
ATOM     19  C   UNL     1       4.725  -0.327  -0.834  0.00  0.00    +0.000 C 
ATOM     20  C   UNL     1       4.034   2.049  -0.768  0.00  0.00    +0.000 C 
ENDROOT
BRANCH   3  21
ATOM     21  O   UNL     1       0.039  -2.296  -0.803  0.00  0.00    -0.380 OA
ATOM     22  H   UNL     1       0.678  -2.244  -1.531  0.00  0.00    +0.211 HD
ENDBRANCH   3  21
BRANCH   7  23
ATOM     23  O   UNL     1      -4.165  -0.210  -0.818  0.00  0.00    -0.381 OA
ATOM     24  H   UNL     1      -4.349   0.441  -1.513  0.00  0.00    +0.210 HD
ENDBRANCH   7  23
BRANCH  10  25
ATOM     25  O   UNL     1      -3.068   2.241  -0.911  0.00  0.00    -0.377 OA
ATOM     26  H   UNL     1      -2.936   2.037  -1.851  0.00  0.00    +0.211 HD
ENDBRANCH  10  25
BRANCH  14  27
ATOM     27  O   UNL     1      -2.896  -2.486   0.217  0.00  0.00    -0.375 OA
ATOM     28  H   UNL     1      -3.833  -2.481  -0.031  0.00  0.00    +0.211 HD
ENDBRANCH  14  27
BRANCH  10  30
ATOM     29  O   UNL     1      -3.358   2.624   1.621  0.00  0.00    -0.286 OA
ATOM     30  C   UNL     1      -2.628   1.691   1.306  0.00  0.00    +0.236 C 
ENDBRANCH  10  30
TORSDOF 5
