139589042
  -OEChem-03292013293D

 41 42  0     1  0  0  0  0  0999 V2000
   -1.5150   -1.1555   -0.5235 S   0  0  0  0  0  0  0  0  0  0  0  0
    3.7849    0.0018   -1.4891 O   0  0  0  0  0  0  0  0  0  0  0  0
    1.8665    3.5070    0.7950 O   0  0  0  0  0  0  0  0  0  0  0  0
    1.2344   -3.6872   -1.0041 O   0  0  0  0  0  0  0  0  0  0  0  0
    2.2826   -3.1987    0.9603 O   0  0  0  0  0  0  0  0  0  0  0  0
   -5.3814    1.3575    0.9122 O   0  0  0  0  0  0  0  0  0  0  0  0
    2.2887   -0.5961    0.2286 N   0  0  0  0  0  0  0  0  0  0  0  0
   -4.5496   -0.2138   -0.5922 N   0  0  0  0  0  0  0  0  0  0  0  0
    1.8068    0.4788    1.1228 C   0  0  1  0  0  0  0  0  0  0  0  0
    2.9266    1.3680    0.4967 C   0  0  1  0  0  0  0  0  0  0  0  0
    0.3151    0.5059    0.7746 C   0  0  0  0  0  0  0  0  0  0  0  0
    1.2495   -1.4431   -0.3295 C   0  0  2  0  0  0  0  0  0  0  0  0
    0.0102   -0.9730    0.4390 C   0  0  2  0  0  0  0  0  0  0  0  0
    3.1657    0.1813   -0.4648 C   0  0  0  0  0  0  0  0  0  0  0  0
    2.5315    2.6775   -0.1545 C   0  0  2  0  0  0  0  0  0  0  0  0
    1.6553   -2.8466   -0.0276 C   0  0  0  0  0  0  0  0  0  0  0  0
    3.7563    3.4184   -0.6774 C   0  0  0  0  0  0  0  0  0  0  0  0
   -2.7024   -1.0226    0.8333 C   0  0  0  0  0  0  0  0  0  0  0  0
   -4.1383   -1.2079    0.3619 C   0  0  0  0  0  0  0  0  0  0  0  0
   -5.1395    0.9911   -0.2349 C   0  0  0  0  0  0  0  0  0  0  0  0
   -5.4480    1.8570   -1.4269 C   0  0  0  0  0  0  0  0  0  0  0  0
    1.9882    0.2187    2.1734 H   0  0  0  0  0  0  0  0  0  0  0  0
    3.7690    1.4981    1.1916 H   0  0  0  0  0  0  0  0  0  0  0  0
   -0.2830    0.8685    1.6164 H   0  0  0  0  0  0  0  0  0  0  0  0
    0.1262    1.1540   -0.0888 H   0  0  0  0  0  0  0  0  0  0  0  0
    1.2094   -1.2603   -1.4095 H   0  0  0  0  0  0  0  0  0  0  0  0
   -0.0833   -1.5481    1.3694 H   0  0  0  0  0  0  0  0  0  0  0  0
    1.8339    2.5051   -0.9818 H   0  0  0  0  0  0  0  0  0  0  0  0
    4.2996    2.8236   -1.4176 H   0  0  0  0  0  0  0  0  0  0  0  0
    3.4640    4.3679   -1.1385 H   0  0  0  0  0  0  0  0  0  0  0  0
    4.4444    3.6624    0.1397 H   0  0  0  0  0  0  0  0  0  0  0  0
    1.6130    4.3287    0.3409 H   0  0  0  0  0  0  0  0  0  0  0  0
   -2.5928   -0.0400    1.3039 H   0  0  0  0  0  0  0  0  0  0  0  0
   -2.4745   -1.7886    1.5817 H   0  0  0  0  0  0  0  0  0  0  0  0
    1.4925   -4.6164   -0.8241 H   0  0  0  0  0  0  0  0  0  0  0  0
   -4.8101   -1.1632    1.2267 H   0  0  0  0  0  0  0  0  0  0  0  0
   -4.2728   -2.1894   -0.1066 H   0  0  0  0  0  0  0  0  0  0  0  0
   -4.3791   -0.4059   -1.5752 H   0  0  0  0  0  0  0  0  0  0  0  0
   -5.9407    1.2695   -2.2068 H   0  0  0  0  0  0  0  0  0  0  0  0
   -6.1151    2.6704   -1.1282 H   0  0  0  0  0  0  0  0  0  0  0  0
   -4.5188    2.2782   -1.8201 H   0  0  0  0  0  0  0  0  0  0  0  0
  1 13  1  0  0  0  0
  1 18  1  0  0  0  0
  2 14  2  0  0  0  0
  3 15  1  0  0  0  0
  3 32  1  0  0  0  0
  4 16  1  0  0  0  0
  4 35  1  0  0  0  0
  5 16  2  0  0  0  0
  6 20  2  0  0  0  0
  7  9  1  0  0  0  0
  7 12  1  0  0  0  0
  7 14  1  0  0  0  0
  8 19  1  0  0  0  0
  8 20  1  0  0  0  0
  8 38  1  0  0  0  0
  9 10  1  0  0  0  0
  9 11  1  0  0  0  0
  9 22  1  0  0  0  0
 10 14  1  0  0  0  0
 10 15  1  0  0  0  0
 10 23  1  0  0  0  0
 11 13  1  0  0  0  0
 11 24  1  0  0  0  0
 11 25  1  0  0  0  0
 12 13  1  0  0  0  0
 12 16  1  0  0  0  0
 12 26  1  0  0  0  0
 13 27  1  0  0  0  0
 15 17  1  0  0  0  0
 15 28  1  0  0  0  0
 17 29  1  0  0  0  0
 17 30  1  0  0  0  0
 17 31  1  0  0  0  0
 18 19  1  0  0  0  0
 18 33  1  0  0  0  0
 18 34  1  0  0  0  0
 19 36  1  0  0  0  0
 19 37  1  0  0  0  0
 20 21  1  0  0  0  0
 21 39  1  0  0  0  0
 21 40  1  0  0  0  0
 21 41  1  0  0  0  0
M  END
> <PUBCHEM_COMPOUND_CID>
139589042

> <PUBCHEM_CONFORMER_RMSD>
1.2

> <PUBCHEM_CONFORMER_DIVERSEORDER>
1
43
4
75
56
41
15
46
79
57
71
32
83
74
6
47
36
30
9
11
3
87
84
37
59
28
77
82
73
52
70
26
21
23
55
8
24
45
81
25
42
29
5
51
53
44
22
72
69
19
20
27
85
68
40
61
86
39
49
34
54
62
58
2
78
63
16
67
12
33
38
50
80
60
14
7
35
31
66
10
17
65
76
18
88
48
13
64

> <PUBCHEM_MMFF94_PARTIAL_CHARGES>
22
1 -0.46
10 0.05
12 0.36
13 0.23
14 0.58
15 0.28
16 0.66
18 0.23
19 0.3
2 -0.57
20 0.57
21 0.06
3 -0.68
32 0.4
35 0.5
38 0.37
4 -0.65
5 -0.57
6 -0.57
7 -0.59
8 -0.73
9 0.22

> <PUBCHEM_EFFECTIVE_ROTOR_COUNT>
7.8

> <PUBCHEM_PHARMACOPHORE_FEATURES>
9
1 2 acceptor
1 3 acceptor
1 3 donor
1 4 acceptor
1 5 acceptor
1 6 acceptor
1 8 donor
3 4 5 16 anion
7 7 9 10 11 12 13 14 rings

> <PUBCHEM_HEAVY_ATOM_COUNT>
21

> <PUBCHEM_ATOM_DEF_STEREO_COUNT>
2

> <PUBCHEM_ATOM_UDEF_STEREO_COUNT>
3

> <PUBCHEM_BOND_DEF_STEREO_COUNT>
0

> <PUBCHEM_BOND_UDEF_STEREO_COUNT>
0

> <PUBCHEM_ISOTOPIC_ATOM_COUNT>
0

> <PUBCHEM_COMPONENT_COUNT>
1

> <PUBCHEM_CACTVS_TAUTO_COUNT>
-1

> <PUBCHEM_CONFORMER_ID>
0851F5B200000001

> <PUBCHEM_MMFF94_ENERGY>
47.5071

> <PUBCHEM_FEATURE_SELFOVERLAP>
45.729

> <PUBCHEM_SHAPE_FINGERPRINT>
11796584 16 12391250265932887847
12173636 292 17907011034190098527
12293681 160 17773327926908949464
12549972 3 17531262616723480467
12596602 18 14562823157415606285
12730499 353 18336836368002253891
12769317 202 18411695508650526369
13878862 14 18117536476277492405
14790565 3 18191589859359916772
14848178 96 18410007762955670465
15163728 17 18117014366397883740
1601671 61 18334576832445864860
17134986 127 18340206400963461086
17539 30 17044585539929063574
17868525 174 17826498986282706323
18186145 218 18127987484027148514
20645477 70 18270964536188230935
21709351 56 18342172293251735695
22289505 5 18263922146609775077
22393880 68 18201719587161693895
23559900 14 18341326700180169995
3060560 45 18341897407081872134
394222 165 18262510506998147546
474 4 18338232773180273113
543358 83 18342745061647822243
57724786 102 18269564849559407673
633830 44 18341049721823104847
7808743 9 17687748659126557836
8272917 22 18341898454880026687

> <PUBCHEM_SHAPE_MULTIPOLES>
396.71
10.34
4.13
1.14
17.55
0.14
-0.12
-7.74
-1.98
-4.15
-0.44
0.11
-0.11
0.55

> <PUBCHEM_SHAPE_SELFOVERLAP>
796.448

> <PUBCHEM_SHAPE_VOLUME>
235.7

> <PUBCHEM_COORDINATE_TYPE>
2
5
10

$$$$
