REMARK  Name = 139584675
REMARK  10 active torsions:
REMARK  status: ('A' for Active; 'I' for Inactive)
REMARK    1  A    between atoms: N_5  and  C_30
REMARK    2  A    between atoms: C_11  and  C_19
REMARK    3  A    between atoms: C_15  and  C_24
REMARK    4  A    between atoms: C_19  and  C_20
REMARK    5  A    between atoms: C_25  and  C_26
REMARK    6  A    between atoms: C_26  and  C_28
REMARK    7  A    between atoms: C_30  and  C_31
REMARK    8  A    between atoms: C_31  and  C_32
REMARK    9  A    between atoms: C_32  and  C_34
REMARK   10  A    between atoms: C_34  and  O_35
REMARK                            x       y       z     vdW  Elec       q    Type
REMARK                         _______ _______ _______ _____ _____    ______ ____
ROOT
ATOM      1 CL   UNL     1      -0.693  -4.495   0.883  0.00  0.00    -0.102 Cl
ATOM      2  O   UNL     1      -4.425  -1.427  -0.978  0.00  0.00    -0.441 OA
ATOM      3  O   UNL     1      -3.463  -3.689   0.280  0.00  0.00    -0.290 OA
ATOM      4  O   UNL     1      -5.640   0.485  -0.592  0.00  0.00    -0.245 OA
ATOM      5  N   UNL     1       1.307   0.334  -0.355  0.00  0.00    -0.304 N 
ATOM      6  C   UNL     1      -3.038  -1.735  -1.070  0.00  0.00    +0.207 C 
ATOM      7  C   UNL     1      -2.367  -0.493  -0.612  0.00  0.00    +0.027 C 
ATOM      8  C   UNL     1      -0.947  -0.600  -0.349  0.00  0.00    -0.005 C 
ATOM      9  C   UNL     1      -0.373  -1.887   0.127  0.00  0.00    -0.002 C 
ATOM     10  C   UNL     1      -2.642  -2.866  -0.121  0.00  0.00    +0.209 C 
ATOM     11  C   UNL     1      -3.254   0.475  -0.375  0.00  0.00    +0.114 C 
ATOM     12  C   UNL     1      -2.733  -2.119  -2.518  0.00  0.00    +0.056 C 
ATOM     13  C   UNL     1      -0.072   0.398  -0.585  0.00  0.00    +0.117 C 
ATOM     14  C   UNL     1      -1.190  -2.955   0.275  0.00  0.00    +0.163 C 
ATOM     15  C   UNL     1       1.846  -0.853   0.199  0.00  0.00    +0.047 C 
ATOM     16  C   UNL     1       1.062  -1.929   0.446  0.00  0.00    +0.012 C 
ATOM     17  C   UNL     1      -4.576  -0.107  -0.663  0.00  0.00    +0.345 C 
ENDROOT
BRANCH  11  19
ATOM     18  O   UNL     1      -3.321   2.815  -0.472  0.00  0.00    -0.287 OA
ATOM     19  C   UNL     1      -3.030   1.804   0.177  0.00  0.00    +0.197 C 
BRANCH  19  20
ATOM     20  C   UNL     1      -2.439   1.895   1.559  0.00  0.00    +0.013 C 
ATOM     21  C   UNL     1      -2.777   0.827   2.555  0.00  0.00    +0.034 C 
ATOM     22  C   UNL     1      -1.685   2.982   1.809  0.00  0.00    -0.027 C 
ATOM     23  C   UNL     1      -0.977   3.311   3.085  0.00  0.00    +0.030 C 
ENDBRANCH  19  20
ENDBRANCH  11  19
BRANCH  15  24
ATOM     24  C   UNL     1       3.254  -0.950   0.528  0.00  0.00    +0.010 C 
ATOM     25  C   UNL     1       3.974  -2.051   0.313  0.00  0.00    -0.025 C 
BRANCH  25  26
ATOM     26  C   UNL     1       5.442  -2.155   0.653  0.00  0.00    +0.022 C 
ATOM     27  C   UNL     1       5.642  -3.248   1.706  0.00  0.00    +0.005 C 
BRANCH  26  28
ATOM     28  C   UNL     1       6.296  -2.456  -0.592  0.00  0.00    +0.004 C 
ATOM     29  C   UNL     1       6.202  -1.376  -1.662  0.00  0.00    +0.000 C 
ENDBRANCH  26  28
ENDBRANCH  25  26
ENDBRANCH  15  24
BRANCH   5  30
ATOM     30  C   UNL     1       2.141   1.499  -0.666  0.00  0.00    +0.092 C 
BRANCH  30  31
ATOM     31  C   UNL     1       2.185   2.466   0.517  0.00  0.00    +0.033 C 
BRANCH  31  32
ATOM     32  C   UNL     1       2.995   3.738   0.252  0.00  0.00    +0.111 C 
BRANCH  32  34
ATOM     33  O   UNL     1       1.335   4.538  -1.343  0.00  0.00    -0.250 OA
ATOM     34  C   UNL     1       2.486   4.535  -0.929  0.00  0.00    +0.314 C 
BRANCH  34  35
ATOM     35  O   UNL     1       3.473   5.289  -1.482  0.00  0.00    -0.480 OA
ATOM     36  H   UNL     1       4.341   5.254  -1.131  0.00  0.00    +0.295 HD
ENDBRANCH  34  35
ENDBRANCH  32  34
ENDBRANCH  31  32
ENDBRANCH  30  31
ENDBRANCH   5  30
TORSDOF 10
