REMARK  Name = 139587871
REMARK  10 active torsions:
REMARK  status: ('A' for Active; 'I' for Inactive)
REMARK    1  A    between atoms: C_6  and  O_16
REMARK    2  A    between atoms: C_7  and  O_14
REMARK    3  A    between atoms: C_7  and  C_19
REMARK    4  A    between atoms: C_10  and  C_26
REMARK    5  A    between atoms: C_19  and  C_20
REMARK    6  A    between atoms: C_26  and  O_27
REMARK    7  A    between atoms: C_26  and  C_29
REMARK    8  A    between atoms: C_29  and  O_30
REMARK    9  A    between atoms: C_29  and  C_32
REMARK   10  A    between atoms: C_33  and  C_34
REMARK                            x       y       z     vdW  Elec       q    Type
REMARK                         _______ _______ _______ _____ _____    ______ ____
ROOT
ATOM      1  O   UNL     1      -0.956  -0.596   0.394  0.00  0.00    -0.466 OA
ATOM      2  O   UNL     1      -0.263  -0.386  -2.581  0.00  0.00    -0.271 OA
ATOM      3  O   UNL     1      -1.631  -3.336  -1.651  0.00  0.00    -0.287 OA
ATOM      4  N   UNL     1       1.646  -0.870  -1.314  0.00  0.00    -0.275 N 
ATOM      5  C   UNL     1      -0.411  -1.602  -0.469  0.00  0.00    +0.282 C 
ATOM      6  C   UNL     1       0.726  -2.357   0.239  0.00  0.00    +0.213 C 
ATOM      7  C   UNL     1       1.949  -1.488  -0.056  0.00  0.00    +0.238 C 
ATOM      8  C   UNL     1       0.283  -0.881  -1.607  0.00  0.00    +0.270 C 
ATOM      9  C   UNL     1      -1.610  -2.423  -0.841  0.00  0.00    +0.219 C 
ATOM     10  C   UNL     1      -2.301  -0.913   0.568  0.00  0.00    +0.145 C 
ATOM     11  C   UNL     1      -2.785  -1.958  -0.106  0.00  0.00    +0.049 C 
ATOM     12  C   UNL     1      -4.121  -2.581  -0.199  0.00  0.00    +0.037 C 
ATOM     13  H   UNL     1       2.327  -0.479  -1.907  0.00  0.00    +0.152 HD
ENDROOT
BRANCH   7  14
ATOM     14  O   UNL     1       3.146  -2.228  -0.134  0.00  0.00    -0.331 OA
ATOM     15  C   UNL     1       3.480  -2.836   1.112  0.00  0.00    +0.176 C 
ENDBRANCH   7  14
BRANCH   6  16
ATOM     16  O   UNL     1       0.899  -3.647  -0.340  0.00  0.00    -0.377 OA
ATOM     17  H   UNL     1       0.120  -4.193  -0.151  0.00  0.00    +0.211 HD
ENDBRANCH   6  16
BRANCH   7  19
ATOM     18  O   UNL     1       1.783  -0.592   2.141  0.00  0.00    -0.287 OA
ATOM     19  C   UNL     1       2.142  -0.418   0.979  0.00  0.00    +0.218 C 
BRANCH  19  20
ATOM     20  C   UNL     1       2.778   0.869   0.579  0.00  0.00    +0.039 C 
ATOM     21  C   UNL     1       2.079   2.067   0.726  0.00  0.00    +0.003 C 
ATOM     22  C   UNL     1       4.072   0.875   0.058  0.00  0.00    +0.003 C 
ATOM     23  C   UNL     1       2.674   3.272   0.350  0.00  0.00    +0.000 C 
ATOM     24  C   UNL     1       4.667   2.080  -0.317  0.00  0.00    +0.000 C 
ATOM     25  C   UNL     1       3.968   3.278  -0.171  0.00  0.00    +0.000 C 
ENDBRANCH  19  20
ENDBRANCH   7  19
BRANCH  10  26
ATOM     26  C   UNL     1      -3.043  -0.014   1.495  0.00  0.00    +0.198 C 
BRANCH  26  27
ATOM     27  O   UNL     1      -2.159   0.388   2.542  0.00  0.00    -0.375 OA
ATOM     28  H   UNL     1      -1.772  -0.399   2.958  0.00  0.00    +0.211 HD
ENDBRANCH  26  27
BRANCH  26  29
ATOM     29  C   UNL     1      -3.654   1.242   0.841  0.00  0.00    +0.166 C 
BRANCH  29  30
ATOM     30  O   UNL     1      -4.399   1.977   1.811  0.00  0.00    -0.377 OA
ATOM     31  H   UNL     1      -5.064   1.398   2.215  0.00  0.00    +0.211 HD
ENDBRANCH  29  30
BRANCH  29  32
ATOM     32  C   UNL     1      -2.635   2.172   0.237  0.00  0.00    +0.001 C 
ATOM     33  C   UNL     1      -2.634   2.535  -1.054  0.00  0.00    -0.028 C 
BRANCH  33  34
ATOM     34  C   UNL     1      -1.619   3.460  -1.659  0.00  0.00    +0.026 C 
ATOM     35  C   UNL     1      -2.069   4.910  -1.572  0.00  0.00    +0.005 C 
ENDBRANCH  33  34
ENDBRANCH  29  32
ENDBRANCH  26  29
ENDBRANCH  10  26
TORSDOF 10
