REMARK  Name = 139583837
REMARK  15 active torsions:
REMARK  status: ('A' for Active; 'I' for Inactive)
REMARK    1  A    between atoms: C_3  and  C_23
REMARK    2  A    between atoms: C_4  and  O_16
REMARK    3  A    between atoms: C_9  and  O_14
REMARK    4  A    between atoms: O_16  and  C_18
REMARK    5  A    between atoms: C_18  and  C_19
REMARK    6  A    between atoms: C_19  and  C_21
REMARK    7  A    between atoms: C_23  and  C_24
REMARK    8  A    between atoms: C_24  and  C_25
REMARK    9  A    between atoms: C_25  and  O_26
REMARK   10  A    between atoms: C_25  and  C_28
REMARK   11  A    between atoms: C_28  and  C_29
REMARK   12  A    between atoms: C_29  and  O_30
REMARK   13  A    between atoms: C_29  and  C_32
REMARK   14  A    between atoms: C_32  and  C_34
REMARK   15  A    between atoms: C_34  and  O_35
REMARK                            x       y       z     vdW  Elec       q    Type
REMARK                         _______ _______ _______ _____ _____    ______ ____
ROOT
ATOM      1  O   UNL     1       2.227  -4.054   1.978  0.00  0.00    -0.291 OA
ATOM      2  C   UNL     1       1.379  -1.018  -0.749  0.00  0.00    +0.061 C 
ATOM      3  C   UNL     1       0.507  -1.299   0.512  0.00  0.00    +0.015 C 
ATOM      4  C   UNL     1       1.616   0.504  -0.944  0.00  0.00    +0.173 C 
ATOM      5  C   UNL     1       2.693  -1.800  -0.738  0.00  0.00    -0.012 C 
ATOM      6  C   UNL     1       0.494  -2.790   0.892  0.00  0.00    +0.062 C 
ATOM      7  C   UNL     1       3.933   0.068  -1.964  0.00  0.00    +0.034 C 
ATOM      8  C   UNL     1       2.603   0.829  -2.071  0.00  0.00    +0.047 C 
ATOM      9  C   UNL     1       3.653  -1.441  -1.864  0.00  0.00    +0.129 C 
ATOM     10  C   UNL     1       2.956  -2.779   0.144  0.00  0.00    +0.031 C 
ATOM     11  C   UNL     1       1.924  -3.251   1.099  0.00  0.00    +0.172 C 
ATOM     12  C   UNL     1      -0.201  -3.714  -0.105  0.00  0.00    +0.008 C 
ATOM     13  C   UNL     1       4.827   0.599  -0.837  0.00  0.00    +0.003 C 
ENDROOT
BRANCH   9  14
ATOM     14  O   UNL     1       4.882  -2.164  -1.811  0.00  0.00    -0.380 OA
ATOM     15  H   UNL     1       4.695  -3.114  -1.748  0.00  0.00    +0.211 HD
ENDBRANCH   9  14
BRANCH   4  16
ATOM     16  O   UNL     1       2.062   1.100   0.273  0.00  0.00    -0.452 OA
BRANCH  16  18
ATOM     17  O   UNL     1       0.979   3.060  -0.278  0.00  0.00    -0.250 OA
ATOM     18  C   UNL     1       1.668   2.394   0.483  0.00  0.00    +0.316 C 
BRANCH  18  19
ATOM     19  C   UNL     1       2.240   2.901   1.796  0.00  0.00    +0.099 C 
ATOM     20  C   UNL     1       1.247   2.579   2.909  0.00  0.00    +0.012 C 
BRANCH  19  21
ATOM     21  C   UNL     1       2.527   4.409   1.739  0.00  0.00    +0.011 C 
ATOM     22  C   UNL     1       3.525   4.773   0.647  0.00  0.00    +0.001 C 
ENDBRANCH  19  21
ENDBRANCH  18  19
ENDBRANCH  16  18
ENDBRANCH   4  16
BRANCH   3  23
ATOM     23  C   UNL     1      -0.915  -0.747   0.363  0.00  0.00    +0.003 C 
BRANCH  23  24
ATOM     24  C   UNL     1      -1.726  -0.998   1.631  0.00  0.00    +0.029 C 
BRANCH  24  25
ATOM     25  C   UNL     1      -3.146  -0.433   1.512  0.00  0.00    +0.113 C 
BRANCH  25  26
ATOM     26  O   UNL     1      -3.819  -0.630   2.758  0.00  0.00    -0.384 OA
ATOM     27  H   UNL     1      -3.312  -0.208   3.470  0.00  0.00    +0.210 HD
ENDBRANCH  25  26
BRANCH  25  28
ATOM     28  C   UNL     1      -3.979  -1.114   0.418  0.00  0.00    +0.059 C 
BRANCH  28  29
ATOM     29  C   UNL     1      -5.443  -0.676   0.295  0.00  0.00    +0.124 C 
BRANCH  29  30
ATOM     30  O   UNL     1      -6.028  -1.495  -0.723  0.00  0.00    -0.384 OA
ATOM     31  H   UNL     1      -5.935  -2.429  -0.480  0.00  0.00    +0.210 HD
ENDBRANCH  29  30
BRANCH  29  32
ATOM     32  C   UNL     1      -5.598   0.795  -0.103  0.00  0.00    +0.139 C 
BRANCH  32  34
ATOM     33  O   UNL     1      -5.071   0.601  -2.474  0.00  0.00    -0.250 OA
ATOM     34  C   UNL     1      -4.869   1.129  -1.389  0.00  0.00    +0.320 C 
BRANCH  34  35
ATOM     35  O   UNL     1      -3.958   2.116  -1.137  0.00  0.00    -0.444 OA
ATOM     36  C   UNL     1      -3.189   2.547  -2.264  0.00  0.00    +0.256 C 
ENDBRANCH  34  35
ENDBRANCH  32  34
ENDBRANCH  29  32
ENDBRANCH  28  29
ENDBRANCH  25  28
ENDBRANCH  24  25
ENDBRANCH  23  24
ENDBRANCH   3  23
TORSDOF 15
