REMARK  Name = 139588420
REMARK  11 active torsions:
REMARK  status: ('A' for Active; 'I' for Inactive)
REMARK    1  A    between atoms: C_5  and  O_15
REMARK    2  A    between atoms: C_6  and  O_26
REMARK    3  A    between atoms: C_14  and  C_17
REMARK    4  A    between atoms: C_18  and  C_19
REMARK    5  A    between atoms: C_20  and  C_22
REMARK    6  A    between atoms: C_22  and  C_24
REMARK    7  A    between atoms: O_26  and  C_28
REMARK    8  A    between atoms: C_28  and  C_29
REMARK    9  A    between atoms: C_30  and  C_32
REMARK   10  A    between atoms: C_32  and  C_34
REMARK   11  A    between atoms: C_34  and  O_35
REMARK                            x       y       z     vdW  Elec       q    Type
REMARK                         _______ _______ _______ _____ _____    ______ ____
ROOT
ATOM      1 CL   UNL     1       0.726   1.955   2.901  0.00  0.00    -0.079 Cl
ATOM      2  O   UNL     1      -2.444  -0.213  -0.857  0.00  0.00    -0.472 OA
ATOM      3  O   UNL     1       1.516  -0.403  -2.237  0.00  0.00    -0.289 OA
ATOM      4  O   UNL     1       3.139   2.014   1.297  0.00  0.00    -0.286 OA
ATOM      5  C   UNL     1      -0.183   0.761  -0.976  0.00  0.00    +0.203 C 
ATOM      6  C   UNL     1       2.328   1.397  -0.870  0.00  0.00    +0.244 C 
ATOM      7  C   UNL     1       1.250   0.484  -1.424  0.00  0.00    +0.225 C 
ATOM      8  C   UNL     1      -0.246   1.137   0.491  0.00  0.00    +0.029 C 
ATOM      9  C   UNL     1      -1.082  -0.455  -1.235  0.00  0.00    +0.243 C 
ATOM     10  C   UNL     1       2.173   1.677   0.611  0.00  0.00    +0.226 C 
ATOM     11  C   UNL     1       0.812   1.552   1.216  0.00  0.00    +0.095 C 
ATOM     12  C   UNL     1       2.364   2.716  -1.637  0.00  0.00    +0.060 C 
ATOM     13  C   UNL     1      -1.590   0.987   1.049  0.00  0.00    +0.036 C 
ATOM     14  C   UNL     1      -2.586   0.377   0.382  0.00  0.00    +0.138 C 
ENDROOT
BRANCH   5  15
ATOM     15  O   UNL     1      -0.645   1.859  -1.756  0.00  0.00    -0.373 OA
ATOM     16  H   UNL     1      -0.079   2.631  -1.595  0.00  0.00    +0.211 HD
ENDBRANCH   5  15
BRANCH  14  17
ATOM     17  C   UNL     1      -3.920   0.283   0.909  0.00  0.00    +0.037 C 
ATOM     18  C   UNL     1      -4.925  -0.322   0.257  0.00  0.00    -0.001 C 
BRANCH  18  19
ATOM     19  C   UNL     1      -6.308  -0.463   0.721  0.00  0.00    -0.026 C 
ATOM     20  C   UNL     1      -7.190  -1.106  -0.074  0.00  0.00    -0.031 C 
ATOM     21  C   UNL     1      -6.654   0.131   2.061  0.00  0.00    +0.031 C 
BRANCH  20  22
ATOM     22  C   UNL     1      -8.657  -1.384   0.171  0.00  0.00    +0.022 C 
ATOM     23  C   UNL     1      -8.880  -2.899   0.216  0.00  0.00    +0.005 C 
BRANCH  22  24
ATOM     24  C   UNL     1      -9.539  -0.755  -0.925  0.00  0.00    +0.004 C 
ATOM     25  C   UNL     1      -9.444   0.765  -0.971  0.00  0.00    +0.000 C 
ENDBRANCH  22  24
ENDBRANCH  20  22
ENDBRANCH  18  19
ENDBRANCH  14  17
BRANCH   6  26
ATOM     26  O   UNL     1       3.585   0.765  -1.061  0.00  0.00    -0.438 OA
BRANCH  26  28
ATOM     27  O   UNL     1       2.950  -0.973   0.317  0.00  0.00    -0.245 OA
ATOM     28  C   UNL     1       3.764  -0.421  -0.405  0.00  0.00    +0.341 C 
BRANCH  28  29
ATOM     29  C   UNL     1       5.129  -0.908  -0.717  0.00  0.00    +0.074 C 
ATOM     30  C   UNL     1       5.894  -1.650   0.106  0.00  0.00    -0.026 C 
ATOM     31  C   UNL     1       5.365  -2.042   1.463  0.00  0.00    +0.027 C 
BRANCH  30  32
ATOM     32  C   UNL     1       7.295  -2.128  -0.183  0.00  0.00    +0.132 C 
BRANCH  32  34
ATOM     33  O   UNL     1       8.088  -0.051   0.827  0.00  0.00    -0.250 OA
ATOM     34  C   UNL     1       8.326  -1.124   0.289  0.00  0.00    +0.318 C 
BRANCH  34  35
ATOM     35  O   UNL     1       9.589  -1.564   0.044  0.00  0.00    -0.480 OA
ATOM     36  H   UNL     1       9.724  -2.394  -0.370  0.00  0.00    +0.295 HD
ENDBRANCH  34  35
ENDBRANCH  32  34
ENDBRANCH  30  32
ENDBRANCH  28  29
ENDBRANCH  26  28
ENDBRANCH   6  26
TORSDOF 11
