REMARK  Name = 139583980
REMARK  2 active torsions:
REMARK  status: ('A' for Active; 'I' for Inactive)
REMARK    1  A    between atoms: C_9  and  C_30
REMARK    2  A    between atoms: C_30  and  C_31
REMARK                            x       y       z     vdW  Elec       q    Type
REMARK                         _______ _______ _______ _____ _____    ______ ____
ROOT
ATOM      1  O   UNL     1      -1.782  -0.280   0.259  0.00  0.00    -0.439 OA
ATOM      2  O   UNL     1      -0.662   2.819  -0.623  0.00  0.00    -0.271 OA
ATOM      3  O   UNL     1       2.915   3.736   0.497  0.00  0.00    -0.273 OA
ATOM      4  O   UNL     1      -0.442  -0.240  -1.638  0.00  0.00    -0.245 OA
ATOM      5  O   UNL     1       3.608  -2.274   1.157  0.00  0.00    -0.270 OA
ATOM      6  N   UNL     1      -0.073   1.950   1.441  0.00  0.00    -0.267 N 
ATOM      7  N   UNL     1       2.561   1.422   0.527  0.00  0.00    -0.282 N 
ATOM      8  N   UNL     1       1.780  -1.443  -0.063  0.00  0.00    -0.280 N 
ATOM      9  C   UNL     1      -2.115   1.113   0.245  0.00  0.00    +0.249 C 
ATOM     10  C   UNL     1      -0.885   2.030   0.302  0.00  0.00    +0.267 C 
ATOM     11  C   UNL     1       0.977   2.951   1.605  0.00  0.00    +0.180 C 
ATOM     12  C   UNL     1      -0.285   1.062   2.583  0.00  0.00    +0.115 C 
ATOM     13  C   UNL     1       2.232   2.749   0.769  0.00  0.00    +0.246 C 
ATOM     14  C   UNL     1      -0.556  -2.126  -0.187  0.00  0.00    +0.089 C 
ATOM     15  C   UNL     1      -0.927  -0.783  -0.662  0.00  0.00    +0.343 C 
ATOM     16  C   UNL     1       3.694   0.938  -0.187  0.00  0.00    +0.055 C 
ATOM     17  C   UNL     1       0.777  -2.422   0.155  0.00  0.00    +0.057 C 
ATOM     18  C   UNL     1       3.959  -0.447  -0.234  0.00  0.00    +0.067 C 
ATOM     19  C   UNL     1       3.092  -1.483   0.376  0.00  0.00    +0.251 C 
ATOM     20  C   UNL     1      -1.578  -3.071  -0.021  0.00  0.00    +0.008 C 
ATOM     21  C   UNL     1       1.055  -3.692   0.676  0.00  0.00    +0.015 C 
ATOM     22  C   UNL     1       4.590   1.792  -0.850  0.00  0.00    +0.015 C 
ATOM     23  C   UNL     1       5.101  -0.942  -0.886  0.00  0.00    +0.006 C 
ATOM     24  C   UNL     1      -1.277  -4.327   0.495  0.00  0.00    +0.000 C 
ATOM     25  C   UNL     1       0.035  -4.635   0.845  0.00  0.00    +0.001 C 
ATOM     26  C   UNL     1       5.720   1.292  -1.508  0.00  0.00    +0.001 C 
ATOM     27  C   UNL     1       5.980  -0.071  -1.520  0.00  0.00    +0.000 C 
ATOM     28  H   UNL     1       1.946   0.743   0.888  0.00  0.00    +0.155 HD
ATOM     29  H   UNL     1       1.514  -0.650  -0.583  0.00  0.00    +0.155 HD
ENDROOT
BRANCH   9  30
ATOM     30  C   UNL     1      -3.040   1.422  -0.929  0.00  0.00    +0.080 C 
BRANCH  30  31
ATOM     31  C   UNL     1      -4.442   0.940  -0.674  0.00  0.00    -0.018 C 
ATOM     32  C   UNL     1      -5.367   1.782  -0.058  0.00  0.00    -0.004 C 
ATOM     33  C   UNL     1      -4.816  -0.349  -1.053  0.00  0.00    -0.004 C 
ATOM     34  C   UNL     1      -6.667   1.336   0.179  0.00  0.00    -0.000 C 
ATOM     35  C   UNL     1      -6.116  -0.796  -0.816  0.00  0.00    -0.000 C 
ATOM     36  C   UNL     1      -7.042   0.047  -0.200  0.00  0.00    -0.000 C 
ENDBRANCH  30  31
ENDBRANCH   9  30
TORSDOF 2
