REMARK  Name = 139588023
REMARK  9 active torsions:
REMARK  status: ('A' for Active; 'I' for Inactive)
REMARK    1  A    between atoms: N_2  and  CA_15
REMARK    2  A    between atoms: C_3  and  C_5
REMARK    3  A    between atoms: C_6  and  O_11
REMARK    4  A    between atoms: C_8  and  O_13
REMARK    5  A    between atoms: CA_15  and  C_17
REMARK    6  A    between atoms: CA_15  and  C_21
REMARK    7  A    between atoms: C_17  and  O_18
REMARK    8  A    between atoms: O_18  and  C_19
REMARK    9  A    between atoms: C_21  and  O_22
REMARK                            x       y       z     vdW  Elec       q    Type
REMARK                         _______ _______ _______ _____ _____    ______ ____
ROOT
ATOM      1  O   UNL     1       0.629  -1.849  -1.251  0.00  0.00    -0.270 OA
ATOM      2  N   UNL     1      -0.786  -0.466  -0.039  0.00  0.00    -0.291 N 
ATOM      3  C   UNL     1       0.441  -0.847  -0.565  0.00  0.00    +0.249 C 
ATOM      4  H   UNL     1      -0.835   0.356   0.499  0.00  0.00    +0.150 HD
ENDROOT
BRANCH   3   5
ATOM      5  C   UNL     1       1.592   0.031  -0.233  0.00  0.00    +0.090 C 
ATOM      6  C   UNL     1       2.884  -0.486  -0.133  0.00  0.00    +0.172 C 
ATOM      7  C   UNL     1       1.367   1.391  -0.021  0.00  0.00    +0.008 C 
ATOM      8  C   UNL     1       3.950   0.357   0.180  0.00  0.00    +0.168 C 
ATOM      9  C   UNL     1       2.434   2.234   0.292  0.00  0.00    +0.003 C 
ATOM     10  C   UNL     1       3.725   1.717   0.392  0.00  0.00    +0.040 C 
BRANCH   6  11
ATOM     11  O   UNL     1       3.112  -1.815  -0.340  0.00  0.00    -0.503 OA
ATOM     12  H   UNL     1       2.399  -2.385  -0.551  0.00  0.00    +0.292 HD
ENDBRANCH   6  11
BRANCH   8  13
ATOM     13  O   UNL     1       5.217  -0.134   0.281  0.00  0.00    -0.503 OA
ATOM     14  H   UNL     1       5.378  -1.046   0.140  0.00  0.00    +0.292 HD
ENDBRANCH   8  13
ENDBRANCH   3   5
BRANCH   2  15
ATOM     15  CA  UNL     1      -1.990  -1.228  -0.252  0.00  0.00    +0.201 C 
BRANCH  15  17
ATOM     16  O   UNL     1      -4.336  -0.773  -0.612  0.00  0.00    -0.248 OA
ATOM     17  C   UNL     1      -3.220  -0.336  -0.351  0.00  0.00    +0.338 C 
BRANCH  17  18
ATOM     18  O   UNL     1      -2.924   0.975  -0.127  0.00  0.00    -0.447 OA
BRANCH  18  19
ATOM     19  C   UNL     1      -4.026   1.885  -0.211  0.00  0.00    +0.209 C 
ATOM     20  C   UNL     1      -3.529   3.289   0.061  0.00  0.00    +0.051 C 
ENDBRANCH  18  19
ENDBRANCH  17  18
ENDBRANCH  15  17
BRANCH  15  21
ATOM     21  C   UNL     1      -2.164  -2.285   0.834  0.00  0.00    +0.168 C 
BRANCH  21  22
ATOM     22  O   UNL     1      -2.375  -1.661   2.096  0.00  0.00    -0.380 OA
ATOM     23  H   UNL     1      -2.484  -2.341   2.779  0.00  0.00    +0.211 HD
ENDBRANCH  21  22
ENDBRANCH  15  21
ENDBRANCH   2  15
TORSDOF 9
