139586985
  -OEChem-03292013293D

 49 50  0     1  0  0  0  0  0999 V2000
    0.4106   -2.1760   -0.1324 O   0  0  0  0  0  0  0  0  0  0  0  0
    3.1199    0.9242    1.8948 O   0  0  0  0  0  0  0  0  0  0  0  0
   -1.2306   -0.8170    0.1258 O   0  0  0  0  0  0  0  0  0  0  0  0
    0.4162    1.9231   -1.0616 O   0  0  0  0  0  0  0  0  0  0  0  0
    2.9885    1.7093   -1.1663 O   0  0  0  0  0  0  0  0  0  0  0  0
   -3.2743    2.6863   -1.0376 O   0  0  0  0  0  0  0  0  0  0  0  0
   -3.2467   -1.7582   -0.4983 O   0  0  0  0  0  0  0  0  0  0  0  0
   -1.9106    0.9034   -1.4125 N   0  0  0  0  0  0  0  0  0  0  0  0
   -4.0362   -1.5532    2.1615 N   0  0  0  0  0  0  0  0  0  0  0  0
    1.6938   -1.5830   -0.3654 C   0  0  2  0  0  0  0  0  0  0  0  0
    2.5529   -1.8554    0.8825 C   0  0  0  0  0  0  0  0  0  0  0  0
    1.5433   -0.0965   -0.5957 C   0  0  0  0  0  0  0  0  0  0  0  0
    3.8871   -1.1097    0.8601 C   0  0  0  0  0  0  0  0  0  0  0  0
    3.6963    0.3955    0.7114 C   0  0  1  0  0  0  0  0  0  0  0  0
    2.7698    0.7447   -0.4361 C   0  0  0  0  0  0  0  0  0  0  0  0
   -0.9106   -0.1334   -1.1021 C   0  0  1  0  0  0  0  0  0  0  0  0
    0.4105    0.5508   -0.9050 C   0  0  0  0  0  0  0  0  0  0  0  0
    2.2789   -2.2478   -1.6184 C   0  0  0  0  0  0  0  0  0  0  0  0
   -0.7792   -1.1368   -2.2505 C   0  0  0  0  0  0  0  0  0  0  0  0
   -2.9422   -0.7131    1.6823 C   0  0  2  0  0  0  0  0  0  0  0  0
   -3.3987    0.7502    1.5618 C   0  0  0  0  0  0  0  0  0  0  0  0
   -2.3576    1.6877    0.9282 C   0  0  0  0  0  0  0  0  0  0  0  0
   -2.5366    1.8070   -0.5797 C   0  0  0  0  0  0  0  0  0  0  0  0
   -2.5211   -1.2196    0.3241 C   0  0  0  0  0  0  0  0  0  0  0  0
    3.3766    2.3174    2.0288 C   0  0  0  0  0  0  0  0  0  0  0  0
    2.7372   -2.9328    0.9830 H   0  0  0  0  0  0  0  0  0  0  0  0
    1.9899   -1.5758    1.7839 H   0  0  0  0  0  0  0  0  0  0  0  0
    4.4199   -1.3230    1.7946 H   0  0  0  0  0  0  0  0  0  0  0  0
    4.5079   -1.4885    0.0404 H   0  0  0  0  0  0  0  0  0  0  0  0
    4.6823    0.8404    0.5258 H   0  0  0  0  0  0  0  0  0  0  0  0
    3.2765   -1.8672   -1.8612 H   0  0  0  0  0  0  0  0  0  0  0  0
    1.6592   -2.1072   -2.5065 H   0  0  0  0  0  0  0  0  0  0  0  0
    2.3584   -3.3320   -1.4749 H   0  0  0  0  0  0  0  0  0  0  0  0
    0.5431   -3.1248    0.0353 H   0  0  0  0  0  0  0  0  0  0  0  0
   -2.0773    1.0604   -2.4024 H   0  0  0  0  0  0  0  0  0  0  0  0
   -1.7551   -1.2180   -2.7524 H   0  0  0  0  0  0  0  0  0  0  0  0
   -0.5586   -2.1752   -2.0100 H   0  0  0  0  0  0  0  0  0  0  0  0
   -0.1033   -0.7822   -3.0380 H   0  0  0  0  0  0  0  0  0  0  0  0
   -2.1025   -0.8020    2.3814 H   0  0  0  0  0  0  0  0  0  0  0  0
   -3.6249    1.1203    2.5704 H   0  0  0  0  0  0  0  0  0  0  0  0
   -4.3347    0.8069    0.9897 H   0  0  0  0  0  0  0  0  0  0  0  0
   -1.3344    1.4196    1.2022 H   0  0  0  0  0  0  0  0  0  0  0  0
   -2.5129    2.6979    1.3298 H   0  0  0  0  0  0  0  0  0  0  0  0
    1.2430    2.3150   -0.7436 H   0  0  0  0  0  0  0  0  0  0  0  0
    2.9498    2.6487    2.9797 H   0  0  0  0  0  0  0  0  0  0  0  0
    2.9005    2.8888    1.2273 H   0  0  0  0  0  0  0  0  0  0  0  0
    4.4530    2.5142    2.0501 H   0  0  0  0  0  0  0  0  0  0  0  0
   -4.3511   -1.2184    3.0713 H   0  0  0  0  0  0  0  0  0  0  0  0
   -3.6987   -2.5036    2.3098 H   0  0  0  0  0  0  0  0  0  0  0  0
  1 10  1  0  0  0  0
  1 34  1  0  0  0  0
  2 14  1  0  0  0  0
  2 25  1  0  0  0  0
  3 16  1  0  0  0  0
  3 24  1  0  0  0  0
  4 17  1  0  0  0  0
  4 44  1  0  0  0  0
  5 15  2  0  0  0  0
  6 23  2  0  0  0  0
  7 24  2  0  0  0  0
  8 16  1  0  0  0  0
  8 23  1  0  0  0  0
  8 35  1  0  0  0  0
  9 20  1  0  0  0  0
  9 48  1  0  0  0  0
  9 49  1  0  0  0  0
 10 11  1  0  0  0  0
 10 12  1  0  0  0  0
 10 18  1  0  0  0  0
 11 13  1  0  0  0  0
 11 26  1  0  0  0  0
 11 27  1  0  0  0  0
 12 15  1  0  0  0  0
 12 17  2  3  0  0  0
 13 14  1  0  0  0  0
 13 28  1  0  0  0  0
 13 29  1  0  0  0  0
 14 15  1  0  0  0  0
 14 30  1  0  0  0  0
 16 17  1  0  0  0  0
 16 19  1  0  0  0  0
 18 31  1  0  0  0  0
 18 32  1  0  0  0  0
 18 33  1  0  0  0  0
 19 36  1  0  0  0  0
 19 37  1  0  0  0  0
 19 38  1  0  0  0  0
 20 21  1  0  0  0  0
 20 24  1  0  0  0  0
 20 39  1  0  0  0  0
 21 22  1  0  0  0  0
 21 40  1  0  0  0  0
 21 41  1  0  0  0  0
 22 23  1  0  0  0  0
 22 42  1  0  0  0  0
 22 43  1  0  0  0  0
 25 45  1  0  0  0  0
 25 46  1  0  0  0  0
 25 47  1  0  0  0  0
M  END
> <PUBCHEM_COMPOUND_CID>
139586985

> <PUBCHEM_CONFORMER_RMSD>
0.8

> <PUBCHEM_CONFORMER_DIVERSEORDER>
2
6
10
8
17
18
23
21
14
15
16
9
3
12
1
7
24
5
11
19
4
13

> <PUBCHEM_MMFF94_PARTIAL_CHARGES>
25
1 -0.68
10 0.42
12 -0.12
14 0.34
15 0.49
16 0.72
17 -0.06
2 -0.56
20 0.33
22 0.06
23 0.57
24 0.66
25 0.28
3 -0.43
34 0.4
35 0.37
4 -0.53
44 0.45
48 0.36
49 0.36
5 -0.57
6 -0.57
7 -0.57
8 -0.73
9 -0.99

> <PUBCHEM_EFFECTIVE_ROTOR_COUNT>
4

> <PUBCHEM_PHARMACOPHORE_FEATURES>
11
1 1 acceptor
1 1 donor
1 2 acceptor
1 4 donor
1 5 acceptor
1 6 acceptor
1 7 acceptor
1 8 donor
1 9 cation
1 9 donor
6 10 11 12 13 14 15 rings

> <PUBCHEM_HEAVY_ATOM_COUNT>
25

> <PUBCHEM_ATOM_DEF_STEREO_COUNT>
3

> <PUBCHEM_ATOM_UDEF_STEREO_COUNT>
1

> <PUBCHEM_BOND_DEF_STEREO_COUNT>
0

> <PUBCHEM_BOND_UDEF_STEREO_COUNT>
1

> <PUBCHEM_ISOTOPIC_ATOM_COUNT>
0

> <PUBCHEM_COMPONENT_COUNT>
1

> <PUBCHEM_CACTVS_TAUTO_COUNT>
-1

> <PUBCHEM_CONFORMER_ID>
0851EDA900000002

> <PUBCHEM_MMFF94_ENERGY>
99.0981

> <PUBCHEM_FEATURE_SELFOVERLAP>
55.838

> <PUBCHEM_SHAPE_FINGERPRINT>
10366900 7 18340211893904645626
10498660 4 13182727109701518435
1100329 8 15379359670302432821
11640471 11 16271636776699367319
12077114 3 18261954038097419621
12422481 6 17901138285969654969
12553582 1 18116724108408036271
12633257 1 18116732728497128993
12670545 47 18043258946212883997
12824470 246 16226044539406447057
128993 33 17489594467103589520
13083527 12 17751922664545478565
13140716 1 18187930508531166732
13224815 77 18413668015319974076
13583140 156 18341040861268584888
14178342 30 17967809405821105930
14223421 5 18412269436429274607
14289901 80 18260265273983293450
15295992 7 18269263573960640145
16945 1 18189626105737794599
18186145 218 16199884894233566502
18981168 100 17489872617765154398
19862831 5 7925913681521025058
20775530 9 13913139272566078808
21731516 1 15141260822576452047
21756936 100 16415196853611929752
21864079 5 16917077620086044017
22907989 373 15050866754716257821
23419403 2 16555902490774516249
23559900 14 18187653440117081343
2748010 2 18336267838305904198
3797600 57 18198367197451027440
469060 322 18123457547718178961
474 4 17344904118741064345
49207404 50 18411425002861715952
5104073 3 18041267795665248856
5262128 65 7853571335667872850
6049 1 18266756700349998007
633830 44 16773805835059681192

> <PUBCHEM_SHAPE_MULTIPOLES>
463.44
7.24
2.71
2.05
0.21
0.4
-0.28
1.36
-3.57
-0.51
0.08
0.74
0.14
1.33

> <PUBCHEM_SHAPE_SELFOVERLAP>
976.827

> <PUBCHEM_SHAPE_VOLUME>
253.9

> <PUBCHEM_COORDINATE_TYPE>
2
5
10

$$$$
