REMARK  Name = 139589739
REMARK  6 active torsions:
REMARK  status: ('A' for Active; 'I' for Inactive)
REMARK    1  A    between atoms: C_2  and  O_10
REMARK    2  A    between atoms: C_2  and  C_24
REMARK    3  A    between atoms: C_3  and  C_12
REMARK    4  A    between atoms: C_5  and  N_7
REMARK    5  A    between atoms: C_12  and  C_16
REMARK    6  A    between atoms: C_17  and  O_22
REMARK                            x       y       z     vdW  Elec       q    Type
REMARK                         _______ _______ _______ _____ _____    ______ ____
ROOT
ATOM      1  O   UNL     1      -1.058  -1.379   1.004  0.00  0.00    -0.289 OA
ATOM      2  C   UNL     1      -2.899  -0.478  -0.308  0.00  0.00    +0.166 C 
ATOM      3  C   UNL     1      -0.985   0.918   0.389  0.00  0.00    +0.028 C 
ATOM      4  C   UNL     1      -3.026   0.943  -0.863  0.00  0.00    +0.079 C 
ATOM      5  C   UNL     1      -1.823   1.679  -0.328  0.00  0.00    +0.021 C 
ATOM      6  C   UNL     1      -1.576  -0.435   0.424  0.00  0.00    +0.198 C 
ENDROOT
BRANCH   5   7
ATOM      7  N   UNL     1      -1.701   3.001  -0.625  0.00  0.00    -0.360 N 
ATOM      8  H   UNL     1      -0.928   3.511  -0.292  0.00  0.00    +0.142 HD
ATOM      9  H   UNL     1      -2.386   3.448  -1.173  0.00  0.00    +0.142 HD
ENDBRANCH   5   7
BRANCH   2  10
ATOM     10  O   UNL     1      -3.912  -0.721   0.652  0.00  0.00    -0.375 OA
ATOM     11  H   UNL     1      -3.906  -0.014   1.315  0.00  0.00    +0.211 HD
ENDBRANCH   2  10
BRANCH   3  12
ATOM     12  C   UNL     1       0.291   1.247   1.066  0.00  0.00    +0.058 C 
ATOM     13  C   UNL     1       0.185   1.018   2.576  0.00  0.00    +0.010 C 
BRANCH  12  16
ATOM     14  O   UNL     1       3.188   0.422  -1.203  0.00  0.00    -0.425 OA
ATOM     15  O   UNL     1       1.778   2.186  -1.092  0.00  0.00    -0.245 OA
ATOM     16  C   UNL     1       1.440   0.460   0.505  0.00  0.00    +0.091 C 
ATOM     17  C   UNL     1       1.870  -0.731   0.950  0.00  0.00    +0.139 C 
ATOM     18  C   UNL     1       2.134   1.097  -0.650  0.00  0.00    +0.345 C 
ATOM     19  C   UNL     1       2.983  -1.404   0.338  0.00  0.00    +0.070 C 
ATOM     20  C   UNL     1       3.604  -0.831  -0.699  0.00  0.00    +0.130 C 
ATOM     21  C   UNL     1       4.768  -1.428  -1.417  0.00  0.00    +0.073 C 
BRANCH  17  22
ATOM     22  O   UNL     1       1.330  -1.433   2.002  0.00  0.00    -0.506 OA
ATOM     23  H   UNL     1       0.599  -1.084   2.472  0.00  0.00    +0.292 HD
ENDBRANCH  17  22
ENDBRANCH  12  16
ENDBRANCH   3  12
BRANCH   2  24
ATOM     24  C   UNL     1      -2.874  -1.546  -1.348  0.00  0.00    +0.008 C 
ATOM     25  C   UNL     1      -3.716  -2.585  -1.373  0.00  0.00    -0.002 C 
ENDBRANCH   2  24
TORSDOF 6
