REMARK  Name = 139586039
REMARK  9 active torsions:
REMARK  status: ('A' for Active; 'I' for Inactive)
REMARK    1  A    between atoms: C_4  and  C_16
REMARK    2  A    between atoms: C_7  and  O_12
REMARK    3  A    between atoms: C_8  and  O_14
REMARK    4  A    between atoms: C_16  and  C_17
REMARK    5  A    between atoms: C_18  and  C_20
REMARK    6  A    between atoms: C_20  and  O_21
REMARK    7  A    between atoms: C_20  and  C_23
REMARK    8  A    between atoms: C_23  and  C_25
REMARK    9  A    between atoms: C_25  and  O_26
REMARK                            x       y       z     vdW  Elec       q    Type
REMARK                         _______ _______ _______ _____ _____    ______ ____
ROOT
ATOM      1  O   UNL     1      -4.813   0.324   1.681  0.00  0.00    -0.440 OA
ATOM      2  O   UNL     1      -4.424  -1.942   1.453  0.00  0.00    -0.245 OA
ATOM      3  C   UNL     1      -3.006   1.095   0.521  0.00  0.00    +0.029 A 
ATOM      4  C   UNL     1      -0.976  -0.286  -0.762  0.00  0.00    +0.050 A 
ATOM      5  C   UNL     1      -2.976  -0.284   0.515  0.00  0.00    +0.109 A 
ATOM      6  C   UNL     1      -2.017   1.821  -0.118  0.00  0.00    +0.012 A 
ATOM      7  C   UNL     1      -1.980  -1.007  -0.114  0.00  0.00    +0.144 A 
ATOM      8  C   UNL     1      -0.994   1.119  -0.764  0.00  0.00    +0.134 A 
ATOM      9  C   UNL     1      -4.185   1.565   1.269  0.00  0.00    +0.235 C 
ATOM     10  C   UNL     1      -4.126  -0.781   1.254  0.00  0.00    +0.344 C 
ATOM     11  C   UNL     1      -2.046   3.311  -0.114  0.00  0.00    +0.034 C 
ENDROOT
BRANCH   7  12
ATOM     12  O   UNL     1      -1.976  -2.365  -0.104  0.00  0.00    -0.471 OA
ATOM     13  C   UNL     1      -2.658  -3.028  -1.170  0.00  0.00    +0.252 C 
ENDBRANCH   7  12
BRANCH   8  14
ATOM     14  O   UNL     1      -0.003   1.807  -1.403  0.00  0.00    -0.472 OA
ATOM     15  C   UNL     1      -0.219   2.122  -2.776  0.00  0.00    +0.252 C 
ENDBRANCH   8  14
BRANCH   4  16
ATOM     16  C   UNL     1       0.137  -1.021  -1.466  0.00  0.00    +0.058 C 
BRANCH  16  17
ATOM     17  C   UNL     1       1.387  -1.097  -0.634  0.00  0.00    -0.027 C 
ATOM     18  C   UNL     1       2.630  -0.687  -0.958  0.00  0.00    -0.021 C 
ATOM     19  C   UNL     1       2.995  -0.051  -2.275  0.00  0.00    +0.028 C 
BRANCH  18  20
ATOM     20  C   UNL     1       3.760  -0.853   0.046  0.00  0.00    +0.140 C 
BRANCH  20  21
ATOM     21  O   UNL     1       4.722  -1.755  -0.503  0.00  0.00    -0.380 OA
ATOM     22  H   UNL     1       4.291  -2.599  -0.713  0.00  0.00    +0.211 HD
ENDBRANCH  20  21
BRANCH  20  23
ATOM     23  C   UNL     1       4.438   0.483   0.379  0.00  0.00    +0.143 C 
BRANCH  23  25
ATOM     24  O   UNL     1       5.329  -0.550   2.401  0.00  0.00    -0.250 OA
ATOM     25  C   UNL     1       5.216   0.430   1.678  0.00  0.00    +0.317 C 
BRANCH  25  26
ATOM     26  O   UNL     1       5.784   1.631   1.964  0.00  0.00    -0.480 OA
ATOM     27  H   UNL     1       5.670   2.355   1.380  0.00  0.00    +0.295 HD
ENDBRANCH  25  26
ENDBRANCH  23  25
ENDBRANCH  20  23
ENDBRANCH  18  20
ENDBRANCH  16  17
ENDBRANCH   4  16
TORSDOF 9
