REMARK  Name = 139589197
REMARK  4 active torsions:
REMARK  status: ('A' for Active; 'I' for Inactive)
REMARK    1  A    between atoms: C_7  and  C_21
REMARK    2  A    between atoms: C_8  and  C_25
REMARK    3  A    between atoms: C_21  and  C_23
REMARK    4  A    between atoms: C_25  and  C_27
REMARK                            x       y       z     vdW  Elec       q    Type
REMARK                         _______ _______ _______ _____ _____    ______ ____
ROOT
ATOM      1  O   UNL     1       2.504  -0.417   0.151  0.00  0.00    -0.449 OA
ATOM      2  O   UNL     1      -2.235   0.832  -0.885  0.00  0.00    -0.449 OA
ATOM      3  O   UNL     1       2.221   2.791  -1.393  0.00  0.00    -0.291 OA
ATOM      4  O   UNL     1      -2.613  -3.250   0.591  0.00  0.00    -0.291 OA
ATOM      5  O   UNL     1       1.853  -1.541   2.064  0.00  0.00    -0.245 OA
ATOM      6  O   UNL     1      -1.954   1.686   1.247  0.00  0.00    -0.245 OA
ATOM      7  C   UNL     1       3.715   0.063   0.775  0.00  0.00    +0.177 C 
ATOM      8  C   UNL     1      -3.400   0.070  -0.508  0.00  0.00    +0.177 C 
ATOM      9  C   UNL     1       3.441   1.345   1.583  0.00  0.00    +0.052 C 
ATOM     10  C   UNL     1      -3.460  -1.185  -1.395  0.00  0.00    +0.052 C 
ATOM     11  C   UNL     1       3.202   2.631   0.785  0.00  0.00    +0.073 C 
ATOM     12  C   UNL     1      -2.161  -2.000  -1.398  0.00  0.00    +0.073 C 
ATOM     13  C   UNL     1       2.045   2.585  -0.194  0.00  0.00    +0.173 C 
ATOM     14  C   UNL     1      -1.819  -2.527  -0.016  0.00  0.00    +0.173 C 
ATOM     15  C   UNL     1       1.676  -1.191   0.908  0.00  0.00    +0.341 C 
ATOM     16  C   UNL     1      -1.589   1.516   0.095  0.00  0.00    +0.341 C 
ATOM     17  C   UNL     1       0.693   2.300   0.363  0.00  0.00    +0.044 C 
ATOM     18  C   UNL     1      -0.537  -2.167   0.657  0.00  0.00    +0.044 C 
ATOM     19  C   UNL     1      -0.296   1.957  -0.470  0.00  0.00    +0.085 C 
ATOM     20  C   UNL     1       0.489  -1.525   0.087  0.00  0.00    +0.085 C 
ENDROOT
BRANCH   7  21
ATOM     21  C   UNL     1       4.760   0.242  -0.319  0.00  0.00    +0.108 C 
BRANCH  21  23
ATOM     22  O   UNL     1       5.049  -2.157  -0.272  0.00  0.00    -0.296 OA
ATOM     23  C   UNL     1       5.365  -1.075  -0.763  0.00  0.00    +0.155 C 
ATOM     24  C   UNL     1       6.394  -0.990  -1.860  0.00  0.00    +0.072 C 
ENDBRANCH  21  23
ENDBRANCH   7  21
BRANCH   8  25
ATOM     25  C   UNL     1      -4.639   0.936  -0.696  0.00  0.00    +0.108 C 
BRANCH  25  27
ATOM     26  O   UNL     1      -5.785  -0.590   0.786  0.00  0.00    -0.296 OA
ATOM     27  C   UNL     1      -5.827   0.424   0.092  0.00  0.00    +0.155 C 
ATOM     28  C   UNL     1      -7.091   1.237  -0.019  0.00  0.00    +0.072 C 
ENDBRANCH  25  27
ENDBRANCH   8  25
TORSDOF 4
