REMARK  Name = 139591311
REMARK  10 active torsions:
REMARK  status: ('A' for Active; 'I' for Inactive)
REMARK    1  A    between atoms: C_1  and  C_4
REMARK    2  A    between atoms: C_1  and  C_17
REMARK    3  A    between atoms: C_6  and  O_14
REMARK    4  A    between atoms: C_8  and  O_12
REMARK    5  A    between atoms: C_16  and  C_19
REMARK    6  A    between atoms: C_19  and  C_20
REMARK    7  A    between atoms: C_20  and  C_21
REMARK    8  A    between atoms: C_20  and  O_28
REMARK    9  A    between atoms: C_22  and  C_25
REMARK   10  A    between atoms: C_25  and  O_26
REMARK                            x       y       z     vdW  Elec       q    Type
REMARK                         _______ _______ _______ _____ _____    ______ ____
ROOT
ATOM      1  C   UNL     1       0.647  -2.424   0.828  0.00  0.00    +0.058 C 
ENDROOT
BRANCH   1   4
ATOM      2  O   UNL     1       3.689   2.775   0.369  0.00  0.00    -0.440 OA
ATOM      3  O   UNL     1       5.368   1.844  -0.923  0.00  0.00    -0.245 OA
ATOM      4  C   UNL     1       1.656  -1.353   0.495  0.00  0.00    +0.050 C 
ATOM      5  C   UNL     1       2.410   0.906   0.648  0.00  0.00    +0.061 C 
ATOM      6  C   UNL     1       1.466  -0.051   0.969  0.00  0.00    +0.133 C 
ATOM      7  C   UNL     1       3.508   0.577  -0.120  0.00  0.00    +0.081 C 
ATOM      8  C   UNL     1       2.779  -1.676  -0.286  0.00  0.00    +0.138 C 
ATOM      9  C   UNL     1       2.463   2.335   1.006  0.00  0.00    +0.239 C 
ATOM     10  C   UNL     1       3.726  -0.701  -0.603  0.00  0.00    +0.043 C 
ATOM     11  C   UNL     1       4.328   1.764  -0.301  0.00  0.00    +0.342 C 
BRANCH   8  12
ATOM     12  O   UNL     1       2.961  -2.947  -0.746  0.00  0.00    -0.472 OA
ATOM     13  C   UNL     1       4.125  -3.190  -1.531  0.00  0.00    +0.252 C 
ENDBRANCH   8  12
BRANCH   6  14
ATOM     14  O   UNL     1       0.385   0.273   1.725  0.00  0.00    -0.506 OA
ATOM     15  H   UNL     1      -0.251  -0.381   1.939  0.00  0.00    +0.292 HD
ENDBRANCH   6  14
ENDBRANCH   1   4
BRANCH   1  17
ATOM     16  C   UNL     1      -1.884  -2.162   0.486  0.00  0.00    -0.045 C 
ATOM     17  C   UNL     1      -0.625  -2.324   0.032  0.00  0.00    -0.030 C 
ATOM     18  C   UNL     1      -2.124  -2.059   1.971  0.00  0.00    +0.026 C 
BRANCH  16  19
ATOM     19  C   UNL     1      -3.119  -2.112  -0.396  0.00  0.00    +0.056 C 
BRANCH  19  20
ATOM     20  C   UNL     1      -3.992  -0.845  -0.283  0.00  0.00    +0.141 C 
BRANCH  20  21
ATOM     21  C   UNL     1      -3.300   0.415  -0.733  0.00  0.00    +0.005 C 
ATOM     22  C   UNL     1      -3.096   1.529  -0.006  0.00  0.00    +0.052 C 
ATOM     23  C   UNL     1      -3.574   1.758   1.397  0.00  0.00    +0.038 C 
BRANCH  22  25
ATOM     24  O   UNL     1      -2.377   2.855  -1.894  0.00  0.00    -0.245 OA
ATOM     25  C   UNL     1      -2.360   2.627  -0.694  0.00  0.00    +0.334 C 
BRANCH  25  26
ATOM     26  O   UNL     1      -1.651   3.359   0.198  0.00  0.00    -0.477 OA
ATOM     27  H   UNL     1      -1.674   3.139   1.109  0.00  0.00    +0.295 HD
ENDBRANCH  25  26
ENDBRANCH  22  25
ENDBRANCH  20  21
BRANCH  20  28
ATOM     28  O   UNL     1      -5.184  -0.997  -1.054  0.00  0.00    -0.349 OA
ATOM     29  C   UNL     1      -6.228  -0.176  -0.554  0.00  0.00    +0.174 C 
ENDBRANCH  20  28
ENDBRANCH  19  20
ENDBRANCH  16  19
ENDBRANCH   1  17
TORSDOF 10
