REMARK  Name = 139585486
REMARK  2 active torsions:
REMARK  status: ('A' for Active; 'I' for Inactive)
REMARK    1  A    between atoms: C_19  and  O_27
REMARK    2  A    between atoms: C_20  and  O_29
REMARK                            x       y       z     vdW  Elec       q    Type
REMARK                         _______ _______ _______ _____ _____    ______ ____
ROOT
ATOM      1  O   UNL     1       0.105   0.568   2.214  0.00  0.00    -0.354 OA
ATOM      2  O   UNL     1       4.471  -0.430   0.444  0.00  0.00    -0.343 OA
ATOM      3  O   UNL     1      -4.375  -1.917  -0.206  0.00  0.00    -0.343 OA
ATOM      4  O   UNL     1       1.107   0.871  -2.850  0.00  0.00    -0.477 OA
ATOM      5  O   UNL     1       2.717   2.052   0.900  0.00  0.00    -0.293 OA
ATOM      6  O   UNL     1      -3.803   1.326  -0.799  0.00  0.00    -0.289 OA
ATOM      7  C   UNL     1       1.175   0.323   0.041  0.00  0.00    +0.106 C 
ATOM      8  C   UNL     1       0.338   1.517  -0.581  0.00  0.00    +0.059 C 
ATOM      9  C   UNL     1      -0.934   1.739   0.305  0.00  0.00    +0.056 C 
ATOM     10  C   UNL     1       0.267  -0.379   1.114  0.00  0.00    +0.146 C 
ATOM     11  C   UNL     1      -1.135  -0.642   0.604  0.00  0.00    +0.011 C 
ATOM     12  C   UNL     1      -1.768   0.492   0.213  0.00  0.00    +0.014 C 
ATOM     13  C   UNL     1       1.791  -0.569  -1.034  0.00  0.00    +0.030 C 
ATOM     14  C   UNL     1       2.439   0.868   0.759  0.00  0.00    +0.186 C 
ATOM     15  C   UNL     1      -0.474   1.829   1.784  0.00  0.00    +0.120 C 
ATOM     16  C   UNL     1       3.360  -0.154   1.311  0.00  0.00    +0.202 C 
ATOM     17  C   UNL     1       3.499  -1.473   0.607  0.00  0.00    +0.181 C 
ATOM     18  C   UNL     1      -0.024   1.273  -2.070  0.00  0.00    +0.167 C 
ATOM     19  C   UNL     1       2.654  -1.743  -0.602  0.00  0.00    +0.162 C 
ATOM     20  C   UNL     1      -1.818  -2.010   0.580  0.00  0.00    +0.161 C 
ATOM     21  C   UNL     1      -2.984  -1.907  -0.345  0.00  0.00    +0.181 C 
ATOM     22  C   UNL     1      -3.851  -0.754   0.364  0.00  0.00    +0.206 C 
ATOM     23  C   UNL     1      -3.209   0.458  -0.184  0.00  0.00    +0.198 C 
ATOM     24  C   UNL     1       1.758  -0.208  -2.326  0.00  0.00    +0.166 C 
ATOM     25  C   UNL     1      -1.598   2.184   2.753  0.00  0.00    +0.032 C 
ATOM     26  C   UNL     1      -0.588   2.527  -2.736  0.00  0.00    +0.047 C 
ENDROOT
BRANCH  19  27
ATOM     27  O   UNL     1       1.803  -2.853  -0.332  0.00  0.00    -0.378 OA
ATOM     28  H   UNL     1       1.252  -3.035  -1.109  0.00  0.00    +0.211 HD
ENDBRANCH  19  27
BRANCH  20  29
ATOM     29  O   UNL     1      -0.922  -2.987   0.072  0.00  0.00    -0.378 OA
ATOM     30  H   UNL     1      -0.159  -3.065   0.665  0.00  0.00    +0.211 HD
ENDBRANCH  20  29
TORSDOF 2
