REMARK  Name = 139586305
REMARK  8 active torsions:
REMARK  status: ('A' for Active; 'I' for Inactive)
REMARK    1  A    between atoms: C_3  and  O_21
REMARK    2  A    between atoms: C_11  and  S_15
REMARK    3  A    between atoms: C_12  and  C_18
REMARK    4  A    between atoms: C_18  and  O_19
REMARK    5  A    between atoms: O_21  and  C_27
REMARK    6  A    between atoms: C_23  and  O_29
REMARK    7  A    between atoms: C_24  and  O_31
REMARK    8  A    between atoms: C_25  and  O_33
REMARK                            x       y       z     vdW  Elec       q    Type
REMARK                         _______ _______ _______ _____ _____    ______ ____
ROOT
ATOM      1  N   UNL     1      -0.733  -0.264   0.745  0.00  0.00    -0.393 NA
ATOM      2  N   UNL     1      -2.718   1.396  -0.199  0.00  0.00    -0.396 NA
ATOM      3  C   UNL     1       0.792   1.558   0.746  0.00  0.00    +0.173 C 
ATOM      4  C   UNL     1      -0.478   1.034   0.513  0.00  0.00    +0.195 C 
ATOM      5  C   UNL     1       1.075   2.901   0.511  0.00  0.00    +0.040 C 
ATOM      6  C   UNL     1      -1.486   1.876   0.033  0.00  0.00    +0.164 C 
ATOM      7  C   UNL     1      -1.965  -0.745   0.513  0.00  0.00    +0.167 C 
ATOM      8  C   UNL     1       0.076   3.737   0.035  0.00  0.00    +0.006 C 
ATOM      9  C   UNL     1      -1.196   3.219  -0.200  0.00  0.00    +0.035 C 
ATOM     10  C   UNL     1      -2.973   0.098   0.033  0.00  0.00    +0.168 C 
ATOM     11  C   UNL     1      -2.255  -2.087   0.746  0.00  0.00    +0.057 C 
ATOM     12  C   UNL     1      -4.243  -0.425  -0.200  0.00  0.00    +0.108 C 
ATOM     13  C   UNL     1      -3.527  -2.605   0.511  0.00  0.00    +0.009 C 
ATOM     14  C   UNL     1      -4.527  -1.769   0.035  0.00  0.00    +0.010 C 
ENDROOT
BRANCH  11  15
ATOM     15  S   UNL     1      -1.003  -3.219   1.361  0.00  0.00    -0.110 S 
ATOM     16  C   UNL     1      -0.288  -3.833  -0.187  0.00  0.00    +0.074 C 
ENDBRANCH  11  15
BRANCH  12  18
ATOM     17  O   UNL     1      -5.167   1.411  -1.425  0.00  0.00    -0.245 OA
ATOM     18  C   UNL     1      -5.318   0.424  -0.700  0.00  0.00    +0.341 C 
BRANCH  18  19
ATOM     19  O   UNL     1      -6.542   0.011  -0.278  0.00  0.00    -0.477 OA
ATOM     20  H   UNL     1      -6.618  -0.744   0.273  0.00  0.00    +0.295 HD
ENDBRANCH  18  19
ENDBRANCH  12  18
BRANCH   3  21
ATOM     21  O   UNL     1       1.792   0.751   1.216  0.00  0.00    -0.448 OA
BRANCH  21  27
ATOM     22  O   UNL     1       2.585   0.087  -0.875  0.00  0.00    -0.319 OA
ATOM     23  C   UNL     1       5.153  -0.624   0.233  0.00  0.00    +0.173 C 
ATOM     24  C   UNL     1       4.725  -1.052  -1.173  0.00  0.00    +0.167 C 
ATOM     25  C   UNL     1       3.930  -0.313   1.103  0.00  0.00    +0.210 C 
ATOM     26  C   UNL     1       3.696  -0.072  -1.764  0.00  0.00    +0.148 C 
ATOM     27  C   UNL     1       2.953   0.627   0.395  0.00  0.00    +0.318 C 
ATOM     28  C   UNL     1       3.142  -0.551  -3.101  0.00  0.00    +0.035 C 
BRANCH  23  29
ATOM     29  O   UNL     1       6.011   0.514   0.144  0.00  0.00    -0.379 OA
ATOM     30  H   UNL     1       6.778   0.299  -0.410  0.00  0.00    +0.211 HD
ENDBRANCH  23  29
BRANCH  24  31
ATOM     31  O   UNL     1       4.148  -2.355  -1.105  0.00  0.00    -0.379 OA
ATOM     32  H   UNL     1       4.794  -2.976  -0.733  0.00  0.00    +0.211 HD
ENDBRANCH  24  31
BRANCH  25  33
ATOM     33  O   UNL     1       4.342   0.270   2.335  0.00  0.00    -0.377 OA
ATOM     34  H   UNL     1       4.961  -0.327   2.784  0.00  0.00    +0.211 HD
ENDBRANCH  25  33
ENDBRANCH  21  27
ENDBRANCH   3  21
TORSDOF 8
