REMARK  Name = 139588160
REMARK  9 active torsions:
REMARK  status: ('A' for Active; 'I' for Inactive)
REMARK    1  A    between atoms: C_1  and  C_3
REMARK    2  A    between atoms: C_1  and  C_17
REMARK    3  A    between atoms: C_1  and  O_32
REMARK    4  A    between atoms: C_2  and  C_6
REMARK    5  A    between atoms: C_5  and  C_12
REMARK    6  A    between atoms: C_17  and  C_21
REMARK    7  A    between atoms: C_17  and  O_30
REMARK    8  A    between atoms: C_23  and  O_28
REMARK    9  A    between atoms: O_32  and  C_34
REMARK                            x       y       z     vdW  Elec       q    Type
REMARK                         _______ _______ _______ _____ _____    ______ ____
ROOT
ATOM      1  C   UNL     1      -0.882   0.282   0.325  0.00  0.00    +0.218 C 
ENDROOT
BRANCH   1   3
ATOM      2  C   UNL     1       1.435  -0.051  -0.671  0.00  0.00    -0.009 C 
ATOM      3  C   UNL     1       0.588   0.637   0.123  0.00  0.00    -0.002 C 
ATOM      4  C   UNL     1       1.109   1.846   0.863  0.00  0.00    +0.030 C 
BRANCH   2   6
ATOM      5  C   UNL     1       3.716   0.627   0.018  0.00  0.00    -0.002 C 
ATOM      6  C   UNL     1       2.839   0.225  -0.922  0.00  0.00    -0.024 C 
ATOM      7  C   UNL     1       3.272  -0.020  -2.341  0.00  0.00    +0.031 C 
BRANCH   5  12
ATOM      8  O   UNL     1       7.428   0.733   0.859  0.00  0.00    -0.351 OA
ATOM      9  O   UNL     1       5.689   0.054  -1.200  0.00  0.00    -0.352 OA
ATOM     10  C   UNL     1       6.797  -0.556   0.788  0.00  0.00    +0.145 C 
ATOM     11  C   UNL     1       6.008   0.663   1.053  0.00  0.00    +0.171 C 
ATOM     12  C   UNL     1       5.170   0.929  -0.162  0.00  0.00    +0.138 C 
ATOM     13  C   UNL     1       6.476  -1.005  -0.597  0.00  0.00    +0.143 C 
ATOM     14  C   UNL     1       7.214  -1.493   1.861  0.00  0.00    +0.035 C 
ATOM     15  C   UNL     1       5.338   2.369  -0.648  0.00  0.00    +0.037 C 
ATOM     16  C   UNL     1       5.667  -2.292  -0.658  0.00  0.00    +0.035 C 
ENDBRANCH   5  12
ENDBRANCH   2   6
ENDBRANCH   1   3
BRANCH   1  17
ATOM     17  C   UNL     1      -1.880   0.905  -0.693  0.00  0.00    +0.179 C 
ATOM     18  C   UNL     1      -1.522   0.565  -2.143  0.00  0.00    +0.041 C 
BRANCH  17  21
ATOM     19  O   UNL     1      -3.620  -0.696  -1.227  0.00  0.00    -0.423 OA
ATOM     20  O   UNL     1      -5.115  -2.270  -1.855  0.00  0.00    -0.245 OA
ATOM     21  C   UNL     1      -3.284   0.426  -0.434  0.00  0.00    +0.153 A 
ATOM     22  C   UNL     1      -4.169   0.965   0.424  0.00  0.00    +0.045 A 
ATOM     23  C   UNL     1      -5.496   0.372   0.504  0.00  0.00    +0.140 A 
ATOM     24  C   UNL     1      -3.832   2.116   1.335  0.00  0.00    +0.037 C 
ATOM     25  C   UNL     1      -5.846  -0.699  -0.234  0.00  0.00    +0.088 A 
ATOM     26  C   UNL     1      -4.846  -1.290  -1.166  0.00  0.00    +0.344 A 
ATOM     27  C   UNL     1      -7.196  -1.354  -0.203  0.00  0.00    +0.041 C 
BRANCH  23  28
ATOM     28  O   UNL     1      -6.424   0.947   1.356  0.00  0.00    -0.472 OA
ATOM     29  C   UNL     1      -7.154   1.955   0.688  0.00  0.00    +0.252 C 
ENDBRANCH  23  28
ENDBRANCH  17  21
BRANCH  17  30
ATOM     30  O   UNL     1      -1.886   2.328  -0.573  0.00  0.00    -0.376 OA
ATOM     31  H   UNL     1      -2.110   2.575   0.338  0.00  0.00    +0.211 HD
ENDBRANCH  17  30
ENDBRANCH   1  17
BRANCH   1  32
ATOM     32  O   UNL     1      -0.983  -1.146   0.300  0.00  0.00    -0.445 OA
BRANCH  32  34
ATOM     33  O   UNL     1      -1.720  -1.139   2.490  0.00  0.00    -0.250 OA
ATOM     34  C   UNL     1      -1.417  -1.722   1.457  0.00  0.00    +0.318 C 
ATOM     35  C   UNL     1      -1.473  -3.209   1.285  0.00  0.00    +0.121 C 
ENDBRANCH  32  34
ENDBRANCH   1  32
TORSDOF 9
