REMARK  Name = 139583494
REMARK  9 active torsions:
REMARK  status: ('A' for Active; 'I' for Inactive)
REMARK    1  A    between atoms: C_2  and  C_17
REMARK    2  A    between atoms: C_5  and  C_28
REMARK    3  A    between atoms: C_17  and  O_23
REMARK    4  A    between atoms: CA_21  and  C_25
REMARK    5  A    between atoms: C_25  and  O_26
REMARK    6  A    between atoms: C_29  and  C_30
REMARK    7  A    between atoms: C_31  and  C_32
REMARK    8  A    between atoms: C_32  and  C_33
REMARK    9  A    between atoms: C_33  and  O_35
REMARK                            x       y       z     vdW  Elec       q    Type
REMARK                         _______ _______ _______ _____ _____    ______ ____
ROOT
ATOM      1  C   UNL     1       1.202   1.354  -0.469  0.00  0.00    +0.011 C 
ATOM      2  C   UNL     1       0.563  -0.026  -0.075  0.00  0.00    +0.058 C 
ATOM      3  C   UNL     1       1.597   2.154   0.802  0.00  0.00    +0.022 C 
ATOM      4  C   UNL     1       0.322   2.194  -1.423  0.00  0.00    +0.001 C 
ATOM      5  C   UNL     1      -0.687   0.159   0.871  0.00  0.00    +0.047 C 
ATOM      6  C   UNL     1       2.108   3.567   0.469  0.00  0.00    +0.004 C 
ATOM      7  C   UNL     1       1.174   4.355  -0.452  0.00  0.00    +0.000 C 
ATOM      8  C   UNL     1       0.924   3.562  -1.734  0.00  0.00    +0.000 C 
ATOM      9  C   UNL     1       0.504   2.166   1.841  0.00  0.00    -0.035 C 
ATOM     10  C   UNL     1      -0.511   1.283   1.891  0.00  0.00    -0.044 C 
ATOM     11  C   UNL     1       0.226  -0.867  -1.327  0.00  0.00    +0.008 C 
ATOM     12  C   UNL     1       1.765   5.727  -0.775  0.00  0.00    +0.000 C 
ATOM     13  C   UNL     1      -1.510   1.336   3.018  0.00  0.00    +0.026 C 
ENDROOT
BRANCH   2  17
ATOM     14  O   UNL     1       3.768  -2.422   1.956  0.00  0.00    -0.289 OA
ATOM     15  O   UNL     1       2.669  -0.177  -2.037  0.00  0.00    -0.270 OA
ATOM     16  N   UNL     1       4.538  -1.394  -1.280  0.00  0.00    -0.294 N 
ATOM     17  C   UNL     1       1.613  -0.843   0.670  0.00  0.00    +0.118 C 
ATOM     18  C   UNL     1       2.798  -1.179   0.148  0.00  0.00    +0.119 C 
ATOM     19  C   UNL     1       3.847  -1.968   0.827  0.00  0.00    +0.200 C 
ATOM     20  C   UNL     1       3.270  -0.825  -1.201  0.00  0.00    +0.252 C 
ATOM     21  CA  UNL     1       5.026  -2.120  -0.109  0.00  0.00    +0.164 C 
ATOM     22  H   UNL     1       5.086  -1.311  -2.094  0.00  0.00    +0.150 HD
BRANCH  17  23
ATOM     23  O   UNL     1       1.283  -1.236   1.952  0.00  0.00    -0.510 OA
ATOM     24  H   UNL     1       0.453  -1.000   2.316  0.00  0.00    +0.292 HD
ENDBRANCH  17  23
BRANCH  21  25
ATOM     25  C   UNL     1       5.318  -3.572  -0.423  0.00  0.00    +0.165 C 
BRANCH  25  26
ATOM     26  O   UNL     1       4.174  -4.153  -1.030  0.00  0.00    -0.380 OA
ATOM     27  H   UNL     1       4.354  -5.084  -1.234  0.00  0.00    +0.211 HD
ENDBRANCH  25  26
ENDBRANCH  21  25
ENDBRANCH   2  17
BRANCH   5  28
ATOM     28  C   UNL     1      -1.998   0.313   0.144  0.00  0.00    -0.022 C 
ATOM     29  C   UNL     1      -3.011  -0.560   0.245  0.00  0.00    -0.005 C 
BRANCH  29  30
ATOM     30  C   UNL     1      -4.264  -0.401  -0.457  0.00  0.00    -0.005 C 
ATOM     31  C   UNL     1      -5.277  -1.275  -0.356  0.00  0.00    -0.024 C 
BRANCH  31  32
ATOM     32  C   UNL     1      -6.585  -1.125  -1.084  0.00  0.00    +0.055 C 
BRANCH  32  33
ATOM     33  C   UNL     1      -7.771  -1.091  -0.115  0.00  0.00    +0.115 C 
ATOM     34  C   UNL     1      -9.009  -0.509  -0.785  0.00  0.00    +0.032 C 
BRANCH  33  35
ATOM     35  O   UNL     1      -8.065  -2.424   0.299  0.00  0.00    -0.384 OA
ATOM     36  H   UNL     1      -7.285  -2.809   0.728  0.00  0.00    +0.210 HD
ENDBRANCH  33  35
ENDBRANCH  32  33
ENDBRANCH  31  32
ENDBRANCH  29  30
ENDBRANCH   5  28
TORSDOF 9
