REMARK  Name = 139583809
REMARK  8 active torsions:
REMARK  status: ('A' for Active; 'I' for Inactive)
REMARK    1  A    between atoms: C_5  and  C_18
REMARK    2  A    between atoms: C_12  and  O_27
REMARK    3  A    between atoms: C_14  and  C_29
REMARK    4  A    between atoms: C_20  and  O_25
REMARK    5  A    between atoms: C_29  and  C_30
REMARK    6  A    between atoms: C_29  and  O_36
REMARK    7  A    between atoms: C_32  and  C_33
REMARK    8  A    between atoms: C_33  and  C_34
REMARK                            x       y       z     vdW  Elec       q    Type
REMARK                         _______ _______ _______ _____ _____    ______ ____
ROOT
ATOM      1  O   UNL     1       1.161   2.543   0.356  0.00  0.00    -0.317 OA
ATOM      2  O   UNL     1       1.172   0.249   1.189  0.00  0.00    -0.451 OA
ATOM      3  O   UNL     1      -4.804   0.779   0.249  0.00  0.00    -0.453 OA
ATOM      4  O   UNL     1      -5.576  -1.165  -0.688  0.00  0.00    -0.250 OA
ATOM      5  C   UNL     1       1.643   1.195   0.199  0.00  0.00    +0.282 C 
ATOM      6  C   UNL     1       0.665   1.808  -0.772  0.00  0.00    +0.189 C 
ATOM      7  C   UNL     1      -0.781   1.421  -0.717  0.00  0.00    +0.058 C 
ATOM      8  C   UNL     1      -1.126   0.492   0.419  0.00  0.00    -0.001 C 
ATOM      9  C   UNL     1      -2.583   0.158   0.623  0.00  0.00    +0.074 C 
ATOM     10  C   UNL     1      -1.674   2.670  -0.689  0.00  0.00    +0.040 C 
ATOM     11  C   UNL     1      -3.514   1.373   0.517  0.00  0.00    +0.164 C 
ATOM     12  C   UNL     1      -3.159   2.300  -0.670  0.00  0.00    +0.148 C 
ATOM     13  C   UNL     1      -0.177   0.010   1.238  0.00  0.00    +0.167 C 
ATOM     14  C   UNL     1      -3.182  -0.799  -0.409  0.00  0.00    +0.137 C 
ATOM     15  C   UNL     1      -3.614   2.122   1.850  0.00  0.00    +0.047 C 
ATOM     16  C   UNL     1      -4.651  -0.463  -0.310  0.00  0.00    +0.319 C 
ENDROOT
BRANCH   5  18
ATOM     17  O   UNL     1       3.517   1.691  -1.344  0.00  0.00    -0.349 OA
ATOM     18  C   UNL     1       3.129   1.079  -0.096  0.00  0.00    +0.204 C 
ATOM     19  C   UNL     1       3.692   0.269  -1.268  0.00  0.00    +0.128 C 
ATOM     20  C   UNL     1       4.069   1.433   1.044  0.00  0.00    +0.165 C 
ATOM     21  C   UNL     1       5.140  -0.153  -1.269  0.00  0.00    +0.056 C 
ATOM     22  C   UNL     1       2.788  -0.495  -2.185  0.00  0.00    +0.033 C 
ATOM     23  C   UNL     1       5.519   1.092   0.864  0.00  0.00    +0.001 C 
ATOM     24  C   UNL     1       5.997   0.385  -0.166  0.00  0.00    -0.026 C 
BRANCH  20  25
ATOM     25  O   UNL     1       3.648   0.766   2.237  0.00  0.00    -0.377 OA
ATOM     26  H   UNL     1       2.710   0.956   2.399  0.00  0.00    +0.211 HD
ENDBRANCH  20  25
ENDBRANCH   5  18
BRANCH  12  27
ATOM     27  O   UNL     1      -3.940   3.492  -0.610  0.00  0.00    -0.381 OA
ATOM     28  H   UNL     1      -3.711   4.067  -1.357  0.00  0.00    +0.210 HD
ENDBRANCH  12  27
BRANCH  14  29
ATOM     29  C   UNL     1      -2.902  -2.261  -0.099  0.00  0.00    +0.139 C 
BRANCH  29  30
ATOM     30  C   UNL     1      -1.529  -2.704  -0.569  0.00  0.00    -0.021 C 
ATOM     31  C   UNL     1      -1.280  -2.643  -2.058  0.00  0.00    +0.028 C 
ATOM     32  C   UNL     1      -0.547  -3.147   0.242  0.00  0.00    -0.032 C 
BRANCH  32  33
ATOM     33  C   UNL     1       0.835  -3.615  -0.123  0.00  0.00    +0.025 C 
BRANCH  33  34
ATOM     34  C   UNL     1       1.839  -3.437   1.019  0.00  0.00    +0.005 C 
ATOM     35  C   UNL     1       3.226  -3.969   0.685  0.00  0.00    +0.000 C 
ENDBRANCH  33  34
ENDBRANCH  32  33
ENDBRANCH  29  30
BRANCH  29  36
ATOM     36  O   UNL     1      -3.002  -2.475   1.311  0.00  0.00    -0.380 OA
ATOM     37  H   UNL     1      -3.878  -2.194   1.619  0.00  0.00    +0.211 HD
ENDBRANCH  29  36
ENDBRANCH  14  29
TORSDOF 8
