REMARK  Name = 139591647
REMARK  5 active torsions:
REMARK  status: ('A' for Active; 'I' for Inactive)
REMARK    1  A    between atoms: C_11  and  O_27
REMARK    2  A    between atoms: C_16  and  C_31
REMARK    3  A    between atoms: C_20  and  O_29
REMARK    4  A    between atoms: C_23  and  N_24
REMARK    5  A    between atoms: C_31  and  O_32
REMARK                            x       y       z     vdW  Elec       q    Type
REMARK                         _______ _______ _______ _____ _____    ______ ____
ROOT
ATOM      1  O   UNL     1       2.734   1.861  -0.646  0.00  0.00    -0.446 OA
ATOM      2  O   UNL     1      -4.572   1.572   0.106  0.00  0.00    -0.296 OA
ATOM      3  O   UNL     1      -0.558  -3.037   1.254  0.00  0.00    -0.284 OA
ATOM      4  O   UNL     1       4.864   1.323  -0.157  0.00  0.00    -0.245 OA
ATOM      5  C   UNL     1      -3.523  -0.496  -0.648  0.00  0.00    +0.058 C 
ATOM      6  C   UNL     1      -2.550  -1.395   0.158  0.00  0.00    +0.032 C 
ATOM      7  C   UNL     1      -2.865   0.100  -1.893  0.00  0.00    +0.041 C 
ATOM      8  C   UNL     1      -0.564  -0.114  -0.796  0.00  0.00    -0.012 C 
ATOM      9  C   UNL     1      -1.066  -1.100  -0.025  0.00  0.00    +0.015 C 
ATOM     10  C   UNL     1       0.953   0.153  -0.946  0.00  0.00    +0.078 C 
ATOM     11  C   UNL     1      -1.513   0.761  -1.604  0.00  0.00    +0.129 C 
ATOM     12  C   UNL     1      -3.009  -1.195   1.618  0.00  0.00    +0.013 C 
ATOM     13  C   UNL     1      -3.912   0.573   0.368  0.00  0.00    +0.150 C 
ATOM     14  C   UNL     1      -3.377   0.276   1.741  0.00  0.00    +0.065 C 
ATOM     15  C   UNL     1      -4.802  -1.254  -1.033  0.00  0.00    +0.008 C 
ATOM     16  C   UNL     1       1.317   1.591  -0.487  0.00  0.00    +0.206 C 
ATOM     17  C   UNL     1       1.821  -0.773  -0.098  0.00  0.00    +0.029 C 
ATOM     18  C   UNL     1      -0.139  -2.038   0.673  0.00  0.00    +0.224 C 
ATOM     19  C   UNL     1       1.337  -0.067  -2.437  0.00  0.00    +0.012 C 
ATOM     20  C   UNL     1       1.313  -1.756   0.667  0.00  0.00    +0.169 C 
ATOM     21  C   UNL     1       3.248  -0.441  -0.135  0.00  0.00    +0.089 C 
ATOM     22  C   UNL     1       3.696   0.972  -0.286  0.00  0.00    +0.342 C 
ATOM     23  C   UNL     1       4.230  -1.359  -0.179  0.00  0.00    +0.061 C 
ENDROOT
BRANCH  23  24
ATOM     24  N   UNL     1       4.100  -2.704  -0.197  0.00  0.00    -0.356 N 
ATOM     25  H   UNL     1       4.901  -3.275  -0.229  0.00  0.00    +0.142 HD
ATOM     26  H   UNL     1       3.205  -3.112  -0.177  0.00  0.00    +0.142 HD
ENDBRANCH  23  24
BRANCH  11  27
ATOM     27  O   UNL     1      -1.709   1.999  -0.925  0.00  0.00    -0.380 OA
ATOM     28  H   UNL     1      -2.313   2.557  -1.439  0.00  0.00    +0.211 HD
ENDBRANCH  11  27
BRANCH  20  29
ATOM     29  O   UNL     1       2.099  -2.539   1.489  0.00  0.00    -0.503 OA
ATOM     30  H   UNL     1       3.026  -2.402   1.522  0.00  0.00    +0.292 HD
ENDBRANCH  20  29
BRANCH  16  31
ATOM     31  C   UNL     1       0.947   1.950   0.958  0.00  0.00    +0.186 C 
BRANCH  31  32
ATOM     32  O   UNL     1       0.918   3.358   1.071  0.00  0.00    -0.347 OA
ATOM     33  C   UNL     1       0.581   3.777   2.389  0.00  0.00    +0.174 C 
ENDBRANCH  31  32
ENDBRANCH  16  31
TORSDOF 5
