REMARK  Name = 139585938
REMARK  7 active torsions:
REMARK  status: ('A' for Active; 'I' for Inactive)
REMARK    1  A    between atoms: C_1  and  O_13
REMARK    2  A    between atoms: C_4  and  O_15
REMARK    3  A    between atoms: C_7  and  C_17
REMARK    4  A    between atoms: C_17  and  O_19
REMARK    5  A    between atoms: C_17  and  C_21
REMARK    6  A    between atoms: C_21  and  O_22
REMARK    7  A    between atoms: O_22  and  S_23
REMARK                            x       y       z     vdW  Elec       q    Type
REMARK                         _______ _______ _______ _____ _____    ______ ____
ROOT
ATOM      1  C   UNL     1       2.885  -0.081  -0.435  0.00  0.00    +0.110 C 
ATOM      2  C   UNL     1       1.994  -0.778   0.611  0.00  0.00    +0.027 C 
ATOM      3  C   UNL     1       2.548  -2.225   0.686  0.00  0.00    +0.002 C 
ATOM      4  C   UNL     1       2.747   1.467  -0.475  0.00  0.00    +0.111 C 
ATOM      5  C   UNL     1       0.485  -0.653   0.389  0.00  0.00    +0.005 C 
ATOM      6  C   UNL     1       4.265  -0.607  -0.005  0.00  0.00    +0.029 C 
ATOM      7  C   UNL     1      -0.039   0.726   0.822  0.00  0.00    +0.027 C 
ATOM      8  C   UNL     1       4.031  -2.092   0.289  0.00  0.00    +0.003 C 
ATOM      9  C   UNL     1       1.393   1.904  -1.080  0.00  0.00    +0.029 C 
ATOM     10  C   UNL     1       0.139   1.853  -0.205  0.00  0.00    +0.005 C 
ATOM     11  C   UNL     1       1.832  -3.269  -0.169  0.00  0.00    +0.000 C 
ATOM     12  C   UNL     1       3.871   2.099  -1.321  0.00  0.00    +0.032 C 
ENDROOT
BRANCH   1  13
ATOM     13  O   UNL     1       2.598  -0.617  -1.733  0.00  0.00    -0.384 OA
ATOM     14  H   UNL     1       1.730  -0.300  -2.029  0.00  0.00    +0.210 HD
ENDBRANCH   1  13
BRANCH   4  15
ATOM     15  O   UNL     1       2.881   1.999   0.843  0.00  0.00    -0.384 OA
ATOM     16  H   UNL     1       2.190   1.626   1.414  0.00  0.00    +0.210 HD
ENDBRANCH   4  15
BRANCH   7  17
ATOM     17  C   UNL     1      -1.526   0.626   1.195  0.00  0.00    +0.118 C 
ATOM     18  C   UNL     1      -2.033   1.974   1.700  0.00  0.00    +0.032 C 
BRANCH  17  19
ATOM     19  O   UNL     1      -1.646  -0.307   2.269  0.00  0.00    -0.384 OA
ATOM     20  H   UNL     1      -1.331  -1.178   1.979  0.00  0.00    +0.210 HD
ENDBRANCH  17  19
BRANCH  17  21
ATOM     21  C   UNL     1      -2.335   0.114  -0.001  0.00  0.00    +0.203 C 
BRANCH  21  22
ATOM     22  O   UNL     1      -3.716   0.046   0.334  0.00  0.00    -0.198 OA
BRANCH  22  23
ATOM     23  S   UNL     1      -4.795  -0.473  -0.778  0.00  0.00    +0.239 S 
ATOM     24  O   UNL     1      -6.237  -0.231  -0.056  0.00  0.00    -0.022 OA
ATOM     25  O   UNL     1      -4.718   0.428  -1.913  0.00  0.00    -0.116 OA
ATOM     26  O   UNL     1      -4.625  -1.902  -0.969  0.00  0.00    -0.116 OA
ENDBRANCH  22  23
ENDBRANCH  21  22
ENDBRANCH  17  21
ENDBRANCH   7  17
TORSDOF 7
