REMARK  Name = 139584023
REMARK  8 active torsions:
REMARK  status: ('A' for Active; 'I' for Inactive)
REMARK    1  A    between atoms: C_7  and  O_20
REMARK    2  A    between atoms: C_12  and  C_22
REMARK    3  A    between atoms: C_15  and  O_27
REMARK    4  A    between atoms: C_23  and  C_24
REMARK    5  A    between atoms: O_27  and  C_29
REMARK    6  A    between atoms: C_29  and  C_30
REMARK    7  A    between atoms: C_30  and  C_31
REMARK    8  A    between atoms: C_31  and  O_33
REMARK                            x       y       z     vdW  Elec       q    Type
REMARK                         _______ _______ _______ _____ _____    ______ ____
ROOT
ATOM      1  O   UNL     1       3.755   0.714   1.055  0.00  0.00    -0.475 OA
ATOM      2  O   UNL     1      -2.602   1.510  -1.749  0.00  0.00    -0.287 OA
ATOM      3  O   UNL     1      -2.112  -2.669   0.251  0.00  0.00    -0.287 OA
ATOM      4  N   UNL     1       1.040   2.729  -0.027  0.00  0.00    -0.301 N 
ATOM      5  C   UNL     1       1.635   1.883   1.018  0.00  0.00    +0.141 C 
ATOM      6  C   UNL     1       3.149   2.018   1.187  0.00  0.00    +0.215 C 
ATOM      7  C   UNL     1       3.789   3.015   0.222  0.00  0.00    +0.154 C 
ATOM      8  C   UNL     1       1.511   0.443   0.629  0.00  0.00    +0.033 C 
ATOM      9  C   UNL     1       2.973   4.301   0.259  0.00  0.00    +0.054 C 
ATOM     10  C   UNL     1       1.528   4.097  -0.208  0.00  0.00    +0.094 C 
ATOM     11  C   UNL     1       0.212   0.015   0.122  0.00  0.00    +0.008 C 
ATOM     12  C   UNL     1       2.714  -0.131   0.673  0.00  0.00    +0.136 C 
ATOM     13  C   UNL     1      -0.125   2.286  -0.656  0.00  0.00    +0.065 C 
ATOM     14  C   UNL     1      -0.585   1.022  -0.590  0.00  0.00    +0.053 C 
ATOM     15  C   UNL     1      -2.205  -0.821  -1.300  0.00  0.00    +0.244 C 
ATOM     16  C   UNL     1      -1.867   0.659  -1.253  0.00  0.00    +0.217 C 
ATOM     17  C   UNL     1      -0.268  -1.218   0.354  0.00  0.00    +0.041 C 
ATOM     18  C   UNL     1      -1.586  -1.645  -0.183  0.00  0.00    +0.216 C 
ATOM     19  C   UNL     1      -1.751  -1.389  -2.645  0.00  0.00    +0.060 C 
ENDROOT
BRANCH   7  20
ATOM     20  O   UNL     1       3.803   2.511  -1.111  0.00  0.00    -0.381 OA
ATOM     21  H   UNL     1       4.322   1.692  -1.141  0.00  0.00    +0.210 HD
ENDBRANCH   7  20
BRANCH  12  22
ATOM     22  C   UNL     1       3.114  -1.448   0.286  0.00  0.00    +0.037 C 
ATOM     23  C   UNL     1       4.376  -1.899   0.385  0.00  0.00    +0.003 C 
BRANCH  23  24
ATOM     24  C   UNL     1       4.772  -3.233  -0.010  0.00  0.00    -0.004 C 
ATOM     25  C   UNL     1       6.031  -3.684   0.089  0.00  0.00    -0.026 C 
ATOM     26  C   UNL     1       6.452  -5.059  -0.316  0.00  0.00    +0.031 C 
ENDBRANCH  23  24
ENDBRANCH  12  22
BRANCH  15  27
ATOM     27  O   UNL     1      -3.613  -0.959  -1.231  0.00  0.00    -0.441 OA
BRANCH  27  29
ATOM     28  O   UNL     1      -3.611  -0.078   0.901  0.00  0.00    -0.250 OA
ATOM     29  C   UNL     1      -4.203  -0.546  -0.062  0.00  0.00    +0.320 C 
BRANCH  29  30
ATOM     30  C   UNL     1      -5.700  -0.758  -0.152  0.00  0.00    +0.139 C 
BRANCH  30  31
ATOM     31  C   UNL     1      -6.432  -0.289   1.105  0.00  0.00    +0.122 C 
ATOM     32  C   UNL     1      -7.920  -0.100   0.836  0.00  0.00    +0.032 C 
BRANCH  31  33
ATOM     33  O   UNL     1      -6.276  -1.279   2.120  0.00  0.00    -0.384 OA
ATOM     34  H   UNL     1      -5.332  -1.409   2.301  0.00  0.00    +0.210 HD
ENDBRANCH  31  33
ENDBRANCH  30  31
ENDBRANCH  29  30
ENDBRANCH  27  29
ENDBRANCH  15  27
TORSDOF 8
