REMARK  Name = 139583965
REMARK  8 active torsions:
REMARK  status: ('A' for Active; 'I' for Inactive)
REMARK    1  A    between atoms: C_1  and  O_22
REMARK    2  A    between atoms: C_3  and  O_20
REMARK    3  A    between atoms: C_4  and  C_9
REMARK    4  A    between atoms: C_17  and  O_18
REMARK    5  A    between atoms: O_22  and  C_28
REMARK    6  A    between atoms: C_24  and  O_30
REMARK    7  A    between atoms: C_25  and  O_32
REMARK    8  A    between atoms: C_26  and  O_34
REMARK                            x       y       z     vdW  Elec       q    Type
REMARK                         _______ _______ _______ _____ _____    ______ ____
ROOT
ATOM      1  C   UNL     1      -1.573  -1.486   0.270  0.00  0.00    +0.175 C 
ATOM      2  C   UNL     1      -0.310  -0.902   0.366  0.00  0.00    +0.040 C 
ATOM      3  C   UNL     1      -1.692  -2.847  -0.015  0.00  0.00    +0.168 C 
ATOM      4  C   UNL     1       0.834  -1.677   0.177  0.00  0.00    +0.009 C 
ATOM      5  C   UNL     1      -0.548  -3.622  -0.204  0.00  0.00    +0.040 C 
ATOM      6  C   UNL     1       0.715  -3.037  -0.108  0.00  0.00    +0.004 C 
ENDROOT
BRANCH   4   9
ATOM      7  O   UNL     1       4.328  -1.014   1.384  0.00  0.00    -0.450 OA
ATOM      8  O   UNL     1       1.853   0.522  -1.473  0.00  0.00    -0.286 OA
ATOM      9  C   UNL     1       2.166  -1.059   0.279  0.00  0.00    +0.077 C 
ATOM     10  C   UNL     1       2.595   0.042  -0.626  0.00  0.00    +0.202 C 
ATOM     11  C   UNL     1       3.970   0.543  -0.443  0.00  0.00    +0.074 C 
ATOM     12  C   UNL     1       3.053  -1.487   1.190  0.00  0.00    +0.183 C 
ATOM     13  C   UNL     1       4.767  -0.012   0.557  0.00  0.00    +0.151 C 
ATOM     14  C   UNL     1       4.470   1.563  -1.257  0.00  0.00    +0.009 C 
ATOM     15  C   UNL     1       6.069   0.450   0.750  0.00  0.00    +0.074 C 
ATOM     16  C   UNL     1       5.773   2.023  -1.062  0.00  0.00    +0.037 C 
ATOM     17  C   UNL     1       6.571   1.468  -0.061  0.00  0.00    +0.137 C 
BRANCH  17  18
ATOM     18  O   UNL     1       7.841   1.921   0.125  0.00  0.00    -0.505 OA
ATOM     19  H   UNL     1       8.378   1.549   0.797  0.00  0.00    +0.292 HD
ENDBRANCH  17  18
ENDBRANCH   4   9
BRANCH   3  20
ATOM     20  O   UNL     1      -2.919  -3.430  -0.112  0.00  0.00    -0.503 OA
ATOM     21  H   UNL     1      -3.693  -2.917   0.013  0.00  0.00    +0.292 HD
ENDBRANCH   3  20
BRANCH   1  22
ATOM     22  O   UNL     1      -2.689  -0.715   0.457  0.00  0.00    -0.447 OA
BRANCH  22  28
ATOM     23  O   UNL     1      -2.846   1.643   0.243  0.00  0.00    -0.319 OA
ATOM     24  C   UNL     1      -5.380   0.408  -0.304  0.00  0.00    +0.173 C 
ATOM     25  C   UNL     1      -5.281   1.730   0.458  0.00  0.00    +0.167 C 
ATOM     26  C   UNL     1      -4.167   0.209  -1.214  0.00  0.00    +0.210 C 
ATOM     27  C   UNL     1      -3.923   1.830   1.167  0.00  0.00    +0.148 C 
ATOM     28  C   UNL     1      -2.865   0.382  -0.434  0.00  0.00    +0.318 C 
ATOM     29  C   UNL     1      -3.718   3.194   1.821  0.00  0.00    +0.035 C 
BRANCH  24  30
ATOM     30  O   UNL     1      -6.576   0.403  -1.081  0.00  0.00    -0.379 OA
ATOM     31  H   UNL     1      -7.340   0.529  -0.498  0.00  0.00    +0.211 HD
ENDBRANCH  24  30
BRANCH  25  32
ATOM     32  O   UNL     1      -6.340   1.773   1.412  0.00  0.00    -0.379 OA
ATOM     33  H   UNL     1      -7.192   1.709   0.952  0.00  0.00    +0.211 HD
ENDBRANCH  25  32
BRANCH  26  34
ATOM     34  O   UNL     1      -4.179   1.181  -2.261  0.00  0.00    -0.377 OA
ATOM     35  H   UNL     1      -4.997   1.093  -2.774  0.00  0.00    +0.211 HD
ENDBRANCH  26  34
ENDBRANCH  22  28
ENDBRANCH   1  22
TORSDOF 8
