REMARK  Name = 139587010
REMARK  5 active torsions:
REMARK  status: ('A' for Active; 'I' for Inactive)
REMARK    1  A    between atoms: C_4  and  O_17
REMARK    2  A    between atoms: C_13  and  C_24
REMARK    3  A    between atoms: C_15  and  O_19
REMARK    4  A    between atoms: C_16  and  O_21
REMARK    5  A    between atoms: C_24  and  O_25
REMARK                            x       y       z     vdW  Elec       q    Type
REMARK                         _______ _______ _______ _____ _____    ______ ____
ROOT
ATOM      1  O   UNL     1      -4.146  -0.482   0.021  0.00  0.00    -0.328 OA
ATOM      2  O   UNL     1      -0.943   1.338  -0.196  0.00  0.00    -0.453 OA
ATOM      3  O   UNL     1       0.442  -2.483   0.126  0.00  0.00    -0.287 OA
ATOM      4  C   UNL     1      -3.278   0.635  -0.240  0.00  0.00    +0.240 C 
ATOM      5  C   UNL     1      -1.810   0.257  -0.167  0.00  0.00    +0.173 A 
ATOM      6  C   UNL     1      -1.421  -1.026  -0.069  0.00  0.00    +0.054 A 
ATOM      7  C   UNL     1      -2.407  -2.153  -0.064  0.00  0.00    +0.065 C 
ATOM      8  C   UNL     1      -3.750  -1.694  -0.616  0.00  0.00    +0.150 C 
ATOM      9  C   UNL     1       0.025  -1.337   0.022  0.00  0.00    +0.198 A 
ATOM     10  C   UNL     1       0.939  -0.185  -0.017  0.00  0.00    +0.083 A 
ATOM     11  C   UNL     1      -3.623   1.248  -1.602  0.00  0.00    +0.070 C 
ATOM     12  C   UNL     1       0.405   1.097  -0.126  0.00  0.00    +0.151 A 
ATOM     13  C   UNL     1       2.323  -0.368   0.053  0.00  0.00    +0.118 C 
ATOM     14  C   UNL     1       1.251   2.205  -0.165  0.00  0.00    +0.077 C 
ATOM     15  C   UNL     1       3.167   0.742   0.013  0.00  0.00    +0.174 C 
ATOM     16  C   UNL     1       2.633   2.026  -0.096  0.00  0.00    +0.171 C 
ENDROOT
BRANCH   4  17
ATOM     17  O   UNL     1      -3.509   1.621   0.775  0.00  0.00    -0.326 OA
ATOM     18  C   UNL     1      -3.656   1.019   2.051  0.00  0.00    +0.177 C 
ENDBRANCH   4  17
BRANCH  15  19
ATOM     19  O   UNL     1       4.522   0.588   0.080  0.00  0.00    -0.503 OA
ATOM     20  H   UNL     1       4.893  -0.270   0.153  0.00  0.00    +0.292 HD
ENDBRANCH  15  19
BRANCH  16  21
ATOM     21  O   UNL     1       3.450   3.116  -0.135  0.00  0.00    -0.503 OA
ATOM     22  H   UNL     1       3.082   3.975  -0.207  0.00  0.00    +0.292 HD
ENDBRANCH  16  21
BRANCH  13  24
ATOM     23  O   UNL     1       3.213  -2.252   1.228  0.00  0.00    -0.245 OA
ATOM     24  C   UNL     1       2.950  -1.682   0.168  0.00  0.00    +0.341 C 
BRANCH  24  25
ATOM     25  O   UNL     1       3.223  -2.230  -1.045  0.00  0.00    -0.477 OA
ATOM     26  H   UNL     1       3.007  -1.764  -1.829  0.00  0.00    +0.295 HD
ENDBRANCH  24  25
ENDBRANCH  13  24
TORSDOF 5
