REMARK  Name = 139583167
REMARK  5 active torsions:
REMARK  status: ('A' for Active; 'I' for Inactive)
REMARK    1  A    between atoms: CA_7  and  CB_24
REMARK    2  A    between atoms: C_13  and  O_18
REMARK    3  A    between atoms: C_15  and  O_20
REMARK    4  A    between atoms: C_16  and  O_22
REMARK    5  A    between atoms: CB_24  and  CG_26
REMARK                            x       y       z     vdW  Elec       q    Type
REMARK                         _______ _______ _______ _____ _____    ______ ____
ROOT
ATOM      1  O   TRP A   2       0.231   1.837   2.400  0.00  0.00    -0.273 OA
ATOM      2  O   UNK A   1      -0.098  -0.341  -2.397  0.00  0.00    -0.273 OA
ATOM      3  N   UNK A   1      -0.952   1.518   0.415  0.00  0.00    -0.267 N 
ATOM      4  N   TRP A   2       1.165   0.290  -0.575  0.00  0.00    -0.297 N 
ATOM      5  C   UNK A   1      -0.848   1.547  -1.053  0.00  0.00    +0.156 C 
ATOM      6  C   UNK A   1      -2.195   1.521  -1.790  0.00  0.00    +0.055 C 
ATOM      7  CA  TRP A   2       1.478   1.340   0.386  0.00  0.00    +0.153 C 
ATOM      8  C   UNK A   1      -2.276   1.589   1.036  0.00  0.00    +0.123 C 
ATOM      9  C   TRP A   2       0.207   1.563   1.202  0.00  0.00    +0.244 C 
ATOM     10  C   UNK A   1      -3.211   0.661  -1.086  0.00  0.00    -0.016 C 
ATOM     11  C   UNK A   1      -3.258   0.706   0.318  0.00  0.00    +0.031 C 
ATOM     12  C   UNK A   1       0.061   0.376  -1.413  0.00  0.00    +0.241 C 
ATOM     13  C   UNK A   1      -4.227  -0.030   1.005  0.00  0.00    +0.168 C 
ATOM     14  C   UNK A   1      -4.132  -0.119  -1.790  0.00  0.00    +0.036 C 
ATOM     15  C   UNK A   1      -5.136  -0.817   0.297  0.00  0.00    +0.205 C 
ATOM     16  C   UNK A   1      -5.088  -0.862  -1.096  0.00  0.00    +0.170 C 
ATOM     17  H   TRP A   2       1.752  -0.498  -0.632  0.00  0.00    +0.150 HD
ENDROOT
BRANCH  13  18
ATOM     18  O   UNK A   1      -4.299   0.014   2.366  0.00  0.00    -0.503 OA
ATOM     19  H   UNK A   1      -3.694   0.540   2.851  0.00  0.00    +0.292 HD
ENDBRANCH  13  18
BRANCH  15  20
ATOM     20  O   UNK A   1      -6.077  -1.541   0.968  0.00  0.00    -0.465 OA
ATOM     21  C   UNK A   1      -5.723  -2.870   1.345  0.00  0.00    +0.253 C 
ENDBRANCH  15  20
BRANCH  16  22
ATOM     22  O   UNK A   1      -5.977  -1.623  -1.794  0.00  0.00    -0.503 OA
ATOM     23  H   UNK A   1      -5.938  -1.649  -2.730  0.00  0.00    +0.292 HD
ENDBRANCH  16  22
BRANCH   7  24
ATOM     24  CB  TRP A   2       2.658   0.949   1.262  0.00  0.00    +0.057 C 
BRANCH  24  26
ATOM     25  NE1 TRP A   2       5.604   1.007  -0.943  0.00  0.00    -0.312 N 
ATOM     26  CG  TRP A   2       3.902   0.703   0.449  0.00  0.00    -0.004 C 
ATOM     27  CD2 TRP A   2       4.664  -0.498   0.410  0.00  0.00    +0.011 C 
ATOM     28  CD1 TRP A   2       4.504   1.609  -0.393  0.00  0.00    +0.058 C 
ATOM     29  CE2 TRP A   2       5.726  -0.281  -0.471  0.00  0.00    +0.048 C 
ATOM     30  CE3 TRP A   2       4.553  -1.753   1.041  0.00  0.00    +0.001 C 
ATOM     31  CZ2 TRP A   2       6.686  -1.259  -0.753  0.00  0.00    +0.015 C 
ATOM     32  CZ3 TRP A   2       5.505  -2.741   0.768  0.00  0.00    +0.000 C 
ATOM     33  CH2 TRP A   2       6.554  -2.496  -0.115  0.00  0.00    +0.001 C 
ATOM     34  HE1 TRP A   2       6.218   1.433  -1.583  0.00  0.00    +0.152 HD
ENDBRANCH  24  26
ENDBRANCH   7  24
TORSDOF 5
