REMARK  Name = 139583186
REMARK  5 active torsions:
REMARK  status: ('A' for Active; 'I' for Inactive)
REMARK    1  A    between atoms: C_9  and  O_24
REMARK    2  A    between atoms: C_11  and  O_26
REMARK    3  A    between atoms: C_16  and  C_30
REMARK    4  A    between atoms: C_21  and  O_28
REMARK    5  A    between atoms: C_30  and  C_31
REMARK                            x       y       z     vdW  Elec       q    Type
REMARK                         _______ _______ _______ _____ _____    ______ ____
ROOT
ATOM      1  O   UNL     1      -1.358  -0.751   0.277  0.00  0.00    -0.358 OA
ATOM      2  O   UNL     1       1.903   0.390  -1.437  0.00  0.00    -0.448 OA
ATOM      3  O   UNL     1       0.172   2.438  -1.696  0.00  0.00    -0.296 OA
ATOM      4  O   UNL     1       1.167  -1.445  -2.513  0.00  0.00    -0.245 OA
ATOM      5  C   UNL     1      -1.659  -2.151   0.414  0.00  0.00    +0.093 C 
ATOM      6  C   UNL     1      -3.259  -1.188  -1.067  0.00  0.00    +0.032 C 
ATOM      7  C   UNL     1      -2.382  -0.075  -0.481  0.00  0.00    +0.144 C 
ATOM      8  C   UNL     1      -3.110  -2.309  -0.058  0.00  0.00    +0.030 C 
ATOM      9  C   UNL     1      -3.073   0.968   0.420  0.00  0.00    +0.165 C 
ATOM     10  C   UNL     1      -0.703  -2.974  -0.483  0.00  0.00    +0.032 C 
ATOM     11  C   UNL     1      -2.131   2.011   1.066  0.00  0.00    +0.146 C 
ATOM     12  C   UNL     1      -1.520  -2.532   1.888  0.00  0.00    +0.030 C 
ATOM     13  C   UNL     1      -4.700  -0.832  -1.392  0.00  0.00    +0.003 C 
ATOM     14  C   UNL     1       0.797  -2.973  -0.124  0.00  0.00    +0.038 C 
ATOM     15  C   UNL     1      -1.334   2.943   0.124  0.00  0.00    +0.087 C 
ATOM     16  C   UNL     1       2.977   0.175   0.735  0.00  0.00    +0.097 C 
ATOM     17  C   UNL     1       2.186   1.095  -0.205  0.00  0.00    +0.183 C 
ATOM     18  C   UNL     1       1.516  -1.645  -0.174  0.00  0.00    +0.083 C 
ATOM     19  C   UNL     1       0.899   1.624   0.453  0.00  0.00    +0.109 C 
ATOM     20  C   UNL     1      -0.071   2.321  -0.494  0.00  0.00    +0.156 C 
ATOM     21  C   UNL     1       2.258  -1.147   0.832  0.00  0.00    +0.116 C 
ATOM     22  C   UNL     1      -2.208   3.584  -0.961  0.00  0.00    +0.010 C 
ATOM     23  C   UNL     1       1.505  -0.907  -1.464  0.00  0.00    +0.340 C 
ENDROOT
BRANCH   9  24
ATOM     24  O   UNL     1      -3.734   0.279   1.490  0.00  0.00    -0.380 OA
ATOM     25  H   UNL     1      -4.337  -0.387   1.122  0.00  0.00    +0.211 HD
ENDBRANCH   9  24
BRANCH  11  26
ATOM     26  O   UNL     1      -2.929   2.854   1.918  0.00  0.00    -0.381 OA
ATOM     27  H   UNL     1      -3.446   2.303   2.526  0.00  0.00    +0.210 HD
ENDBRANCH  11  26
BRANCH  21  28
ATOM     28  O   UNL     1       2.378  -1.816   2.035  0.00  0.00    -0.510 OA
ATOM     29  H   UNL     1       2.899  -1.453   2.724  0.00  0.00    +0.292 HD
ENDBRANCH  21  28
BRANCH  16  30
ATOM     30  C   UNL     1       4.411  -0.042   0.244  0.00  0.00    +0.011 C 
BRANCH  30  31
ATOM     31  C   UNL     1       5.287   1.165   0.558  0.00  0.00    +0.001 C 
ATOM     32  C   UNL     1       6.717   0.940   0.094  0.00  0.00    +0.000 C 
ENDBRANCH  30  31
ENDBRANCH  16  30
TORSDOF 5
