REMARK  Name = 139589003
REMARK  11 active torsions:
REMARK  status: ('A' for Active; 'I' for Inactive)
REMARK    1  A    between atoms: C_3  and  C_10
REMARK    2  A    between atoms: C_7  and  C_20
REMARK    3  A    between atoms: N_9  and  CA_12
REMARK    4  A    between atoms: CA_12  and  CB_13
REMARK    5  A    between atoms: CA_12  and  C_17
REMARK    6  A    between atoms: C_17  and  O_18
REMARK    7  A    between atoms: C_20  and  C_21
REMARK    8  A    between atoms: C_20  and  C_25
REMARK    9  A    between atoms: C_21  and  C_22
REMARK   10  A    between atoms: C_25  and  C_28
REMARK   11  A    between atoms: N_27  and  O_30
REMARK                            x       y       z     vdW  Elec       q    Type
REMARK                         _______ _______ _______ _____ _____    ______ ____
ROOT
ATOM      1  O   UNL     1       0.538  -1.461   0.225  0.00  0.00    -0.275 OA
ATOM      2  N   UNL     1       0.378   0.518  -0.964  0.00  0.00    -0.273 N 
ATOM      3  C   UNL     1      -1.006   0.347  -1.387  0.00  0.00    +0.152 C 
ATOM      4  C   UNL     1      -1.201   1.373  -2.497  0.00  0.00    +0.031 C 
ATOM      5  C   UNL     1       0.957   1.731  -1.535  0.00  0.00    +0.094 C 
ATOM      6  C   UNL     1      -0.223   2.486  -2.128  0.00  0.00    +0.024 C 
ATOM      7  C   UNL     1       1.061  -0.449  -0.243  0.00  0.00    +0.226 C 
ENDROOT
BRANCH   3  10
ATOM      8  O   UNL     1      -1.526   1.436   0.673  0.00  0.00    -0.273 OA
ATOM      9  N   UNL     1      -3.046  -0.091  -0.211  0.00  0.00    -0.295 N 
ATOM     10  C   ACE A   0      -1.871   0.642  -0.199  0.00  0.00    +0.241 C 
ATOM     11  H   UNL     1      -3.211  -0.698  -0.967  0.00  0.00    +0.150 HD
BRANCH   9  12
ATOM     12  CA  UNL     1      -4.041  -0.006   0.834  0.00  0.00    +0.171 C 
BRANCH  12  13
ATOM     13  CB  UNL     1      -4.200  -1.384   1.512  0.00  0.00    +0.029 C 
ATOM     14  CG1 UNL     1      -2.881  -1.897   2.097  0.00  0.00    +0.002 C 
ATOM     15  CG2 UNL     1      -4.819  -2.441   0.593  0.00  0.00    +0.002 C 
ENDBRANCH  12  13
BRANCH  12  17
ATOM     16  OXT UNL     1      -6.298   0.871   1.019  0.00  0.00    -0.248 OA
ATOM     17  C   UNL     1      -5.341   0.592   0.305  0.00  0.00    +0.332 C 
BRANCH  17  18
ATOM     18  O   UNL     1      -5.384   0.748  -1.041  0.00  0.00    -0.479 OA
ATOM     19  H   UNL     1      -4.638   0.526  -1.562  0.00  0.00    +0.295 HD
ENDBRANCH  17  18
ENDBRANCH  12  17
ENDBRANCH   9  12
ENDBRANCH   3  10
BRANCH   7  20
ATOM     20  C   UNL     1       2.532  -0.187  -0.037  0.00  0.00    +0.086 C 
BRANCH  20  21
ATOM     21  C   UNL     1       3.297  -1.515   0.087  0.00  0.00    +0.010 C 
BRANCH  21  22
ATOM     22  C   UNL     1       3.226  -2.424  -1.158  0.00  0.00    +0.000 C 
ATOM     23  C   UNL     1       3.800  -1.752  -2.406  0.00  0.00    +0.000 C 
ATOM     24  C   UNL     1       3.978  -3.731  -0.886  0.00  0.00    +0.000 C 
ENDBRANCH  21  22
ENDBRANCH  20  21
BRANCH  20  25
ATOM     25  C   UNL     1       2.685   0.671   1.226  0.00  0.00    +0.096 C 
BRANCH  25  28
ATOM     26  O   UNL     1       4.170   2.550   0.848  0.00  0.00    -0.273 OA
ATOM     27  N   UNL     1       4.976   0.673   1.925  0.00  0.00    -0.197 N 
ATOM     28  C   UNL     1       4.008   1.417   1.293  0.00  0.00    +0.245 C 
ATOM     29  H   UNL     1       4.799  -0.233   2.267  0.00  0.00    +0.182 HD
BRANCH  27  30
ATOM     30  O   UNL     1       6.231   1.285   2.054  0.00  0.00    -0.295 OA
ATOM     31  H   UNL     1       6.839   0.682   2.510  0.00  0.00    +0.241 HD
ENDBRANCH  27  30
ENDBRANCH  25  28
ENDBRANCH  20  25
ENDBRANCH   7  20
TORSDOF 11
