REMARK  Name = 139589056
REMARK  8 active torsions:
REMARK  status: ('A' for Active; 'I' for Inactive)
REMARK    1  A    between atoms: O_1  and  C_3
REMARK    2  A    between atoms: O_1  and  C_19
REMARK    3  A    between atoms: C_4  and  O_8
REMARK    4  A    between atoms: C_5  and  O_10
REMARK    5  A    between atoms: C_6  and  O_12
REMARK    6  A    between atoms: C_7  and  C_15
REMARK    7  A    between atoms: C_15  and  O_16
REMARK    8  A    between atoms: C_19  and  C_29
REMARK                            x       y       z     vdW  Elec       q    Type
REMARK                         _______ _______ _______ _____ _____    ______ ____
ROOT
ATOM      1  O   UNL     1      -0.741  -0.187  -0.502  0.00  0.00    -0.419 OA
ENDROOT
BRANCH   1   3
ATOM      2  O   UNL     1      -2.838   0.649   0.138  0.00  0.00    -0.307 OA
ATOM      3  C   UNL     1      -2.124  -0.118  -0.834  0.00  0.00    +0.321 C 
ATOM      4  C   UNL     1      -2.687  -1.539  -0.889  0.00  0.00    +0.211 C 
ATOM      5  C   UNL     1      -4.175  -1.491  -1.233  0.00  0.00    +0.173 C 
ATOM      6  C   UNL     1      -4.928  -0.559  -0.281  0.00  0.00    +0.178 C 
ATOM      7  C   UNL     1      -4.219   0.791  -0.186  0.00  0.00    +0.246 C 
BRANCH   4   8
ATOM      8  O   UNL     1      -2.510  -2.141   0.397  0.00  0.00    -0.377 OA
ATOM      9  H   UNL     1      -1.565  -2.170   0.613  0.00  0.00    +0.211 HD
ENDBRANCH   4   8
BRANCH   5  10
ATOM     10  O   UNL     1      -4.739  -2.797  -1.152  0.00  0.00    -0.379 OA
ATOM     11  H   UNL     1      -4.264  -3.392  -1.753  0.00  0.00    +0.211 HD
ENDBRANCH   5  10
BRANCH   6  12
ATOM     12  O   UNL     1      -6.247  -0.345  -0.782  0.00  0.00    -0.379 OA
ATOM     13  H   UNL     1      -6.709  -1.196  -0.848  0.00  0.00    +0.211 HD
ENDBRANCH   6  12
BRANCH   7  15
ATOM     14  O   UNL     1      -4.110   1.943   1.932  0.00  0.00    -0.247 OA
ATOM     15  C   UNL     1      -4.755   1.594   0.955  0.00  0.00    +0.344 C 
BRANCH  15  16
ATOM     16  O   UNL     1      -6.065   1.883   0.762  0.00  0.00    -0.478 OA
ATOM     17  H   UNL     1      -6.502   1.585  -0.011  0.00  0.00    +0.295 HD
ENDBRANCH  15  16
ENDBRANCH   7  15
ENDBRANCH   1   3
BRANCH   1  19
ATOM     18  O   UNL     1      -0.572   2.119  -0.602  0.00  0.00    -0.245 OA
ATOM     19  C   UNL     1      -0.091   1.005  -0.421  0.00  0.00    +0.339 C 
BRANCH  19  29
ATOM     20  C   UNL     1       3.410  -0.311   0.313  0.00  0.00    +0.008 C 
ATOM     21  C   UNL     1       3.546   1.247   0.388  0.00  0.00    +0.022 C 
ATOM     22  C   UNL     1       1.884  -0.594   0.126  0.00  0.00    +0.029 C 
ATOM     23  C   UNL     1       4.253  -0.693  -0.920  0.00  0.00    +0.001 C 
ATOM     24  C   UNL     1       3.776  -0.992   1.664  0.00  0.00    +0.001 C 
ATOM     25  C   UNL     1       5.342   0.385  -1.044  0.00  0.00    +0.000 C 
ATOM     26  C   UNL     1       4.577   1.663  -0.674  0.00  0.00    +0.004 C 
ATOM     27  C   UNL     1       1.398  -1.261   1.418  0.00  0.00    +0.005 C 
ATOM     28  C   UNL     1       2.463  -0.938   2.454  0.00  0.00    +0.000 C 
ATOM     29  C   UNL     1       1.302   0.766  -0.076  0.00  0.00    +0.049 C 
ATOM     30  C   UNL     1       2.178   1.760   0.071  0.00  0.00    -0.024 C 
ATOM     31  C   UNL     1       4.270  -2.436   1.548  0.00  0.00    +0.000 C 
ATOM     32  C   UNL     1       6.521   0.144  -0.091  0.00  0.00    +0.000 C 
ATOM     33  C   UNL     1       5.881   0.454  -2.478  0.00  0.00    +0.000 C 
ENDBRANCH  19  29
ENDBRANCH   1  19
TORSDOF 8
