REMARK  Name = 139586670
REMARK  8 active torsions:
REMARK  status: ('A' for Active; 'I' for Inactive)
REMARK    1  A    between atoms: N_5  and  C_32
REMARK    2  A    between atoms: C_12  and  C_29
REMARK    3  A    between atoms: C_13  and  C_31
REMARK    4  A    between atoms: C_14  and  C_36
REMARK    5  A    between atoms: C_21  and  O_26
REMARK    6  A    between atoms: C_32  and  C_33
REMARK    7  A    between atoms: C_33  and  O_34
REMARK    8  A    between atoms: C_36  and  O_37
REMARK                            x       y       z     vdW  Elec       q    Type
REMARK                         _______ _______ _______ _____ _____    ______ ____
ROOT
ATOM      1  O   UNL     1      -2.185  -2.075  -1.583  0.00  0.00    -0.287 OA
ATOM      2  O   UNL     1      -3.022   2.543   0.859  0.00  0.00    -0.284 OA
ATOM      3  N   UNL     1       3.312   1.259  -1.445  0.00  0.00    +0.386 N 
ATOM      4  N   UNL     1       1.049   1.285   0.303  0.00  0.00    +0.400 N 
ATOM      5  N   UNL     1       0.809  -1.595   0.394  0.00  0.00    +0.401 N 
ATOM      6  C   UNL     1       2.448   0.071  -1.444  0.00  0.00    -0.080 C 
ATOM      7  C   UNL     1       1.044   0.503  -0.949  0.00  0.00    -0.091 C 
ATOM      8  C   UNL     1       3.108  -0.876  -0.443  0.00  0.00    -0.028 C 
ATOM      9  C   UNL     1       3.499   1.497  -0.002  0.00  0.00    -0.064 C 
ATOM     10  C   UNL     1       0.185  -0.762  -0.682  0.00  0.00    -0.051 C 
ATOM     11  C   UNL     1       3.659   0.091   0.625  0.00  0.00    -0.025 C 
ATOM     12  C   UNL     1       2.199   2.179   0.501  0.00  0.00    +0.018 C 
ATOM     13  C   UNL     1       2.179  -2.023   0.011  0.00  0.00    +0.035 C 
ATOM     14  C   UNL     1      -0.276   1.765   0.736  0.00  0.00    -0.001 C 
ATOM     15  C   UNL     1      -1.228  -0.282  -0.365  0.00  0.00    -0.007 C 
ATOM     16  C   UNL     1      -1.432   0.885   0.264  0.00  0.00    +0.000 C 
ATOM     17  C   UNL     1       4.571   1.081  -2.159  0.00  0.00    -0.101 C 
ATOM     18  C   UNL     1      -2.372  -1.079  -0.887  0.00  0.00    +0.188 C 
ATOM     19  C   UNL     1      -2.814   1.409   0.435  0.00  0.00    +0.223 C 
ATOM     20  C   UNL     1      -3.757  -0.650  -0.535  0.00  0.00    +0.054 C 
ATOM     21  C   UNL     1      -3.954   0.527   0.080  0.00  0.00    +0.176 C 
ATOM     22  C   UNL     1      -4.835  -1.621  -0.934  0.00  0.00    +0.038 C 
ATOM     23  H   UNL     1       2.901   2.047  -1.947  0.00  0.00    -0.080 HD
ATOM     24  H   UNL     1       1.256   0.591   1.022  0.00  0.00    -0.078 HD
ATOM     25  H   UNL     1       0.875  -1.014   1.230  0.00  0.00    -0.078 HD
ENDROOT
BRANCH  21  26
ATOM     26  O   UNL     1      -5.194   1.035   0.409  0.00  0.00    -0.468 OA
ATOM     27  C   UNL     1      -5.709   1.823  -0.646  0.00  0.00    +0.253 C 
ENDBRANCH  21  26
BRANCH  12  29
ATOM     28  N   UNL     1       1.901   4.541  -0.637  0.00  0.00    -0.198 NA
ATOM     29  C   UNL     1       2.032   3.503  -0.137  0.00  0.00    +0.049 C 
ENDBRANCH  12  29
BRANCH  13  31
ATOM     30  N   UNL     1       3.391  -3.346   1.948  0.00  0.00    -0.198 NA
ATOM     31  C   UNL     1       2.858  -2.764   1.097  0.00  0.00    +0.051 C 
ENDBRANCH  13  31
BRANCH   5  32
ATOM     32  C   UNL     1      -0.024  -2.766   0.714  0.00  0.00    -0.043 C 
BRANCH  32  33
ATOM     33  C   UNL     1      -0.094  -3.716  -0.471  0.00  0.00    +0.115 C 
BRANCH  33  34
ATOM     34  O   UNL     1      -0.891  -4.837  -0.112  0.00  0.00    -0.384 OA
ATOM     35  H   UNL     1      -0.943  -5.450  -0.862  0.00  0.00    +0.210 HD
ENDBRANCH  33  34
ENDBRANCH  32  33
ENDBRANCH   5  32
BRANCH  14  36
ATOM     36  C   UNL     1      -0.293   1.851   2.272  0.00  0.00    +0.121 C 
BRANCH  36  37
ATOM     37  O   UNL     1      -0.162   0.543   2.786  0.00  0.00    -0.384 OA
ATOM     38  H   UNL     1      -0.171   0.573   3.755  0.00  0.00    +0.210 HD
ENDBRANCH  36  37
ENDBRANCH  14  36
TORSDOF 8
