139587026
  -OEChem-03292013293D

 44 46  0     1  0  0  0  0  0999 V2000
   -0.2603   -2.2423    0.2114 O   0  0  0  0  0  0  0  0  0  0  0  0
    0.3405    0.9907    1.4743 O   0  0  0  0  0  0  0  0  0  0  0  0
    3.2604   -2.9185    0.1633 O   0  0  0  0  0  0  0  0  0  0  0  0
   -0.9671   -0.7794    2.1767 O   0  0  0  0  0  0  0  0  0  0  0  0
    0.7102   -4.3180    0.4272 O   0  0  0  0  0  0  0  0  0  0  0  0
   -6.0313    0.1922   -0.5163 O   0  0  0  0  0  0  0  0  0  0  0  0
    5.3404    3.1519   -0.8843 O   0  0  0  0  0  0  0  0  0  0  0  0
   -3.6899    3.2794    0.7482 O   0  0  0  0  0  0  0  0  0  0  0  0
    0.2282   -0.8923    0.0860 C   0  0  2  0  0  0  0  0  0  0  0  0
   -0.4238   -0.2515   -1.1307 C   0  0  0  0  0  0  0  0  0  0  0  0
    1.7095   -1.0513    0.0026 C   0  0  0  0  0  0  0  0  0  0  0  0
   -1.9157   -0.1279   -0.9664 C   0  0  0  0  0  0  0  0  0  0  0  0
    2.0281   -2.3424    0.1476 C   0  0  0  0  0  0  0  0  0  0  0  0
   -0.2173   -0.2489    1.3684 C   0  0  0  0  0  0  0  0  0  0  0  0
    2.6599    0.0511   -0.2296 C   0  0  0  0  0  0  0  0  0  0  0  0
    0.7886   -3.1108    0.2841 C   0  0  0  0  0  0  0  0  0  0  0  0
   -2.4613    1.0208   -0.3933 C   0  0  0  0  0  0  0  0  0  0  0  0
   -2.7520   -1.1624   -1.3863 C   0  0  0  0  0  0  0  0  0  0  0  0
    3.0036    0.4127   -1.5323 C   0  0  0  0  0  0  0  0  0  0  0  0
    3.2165    0.7320    0.8531 C   0  0  0  0  0  0  0  0  0  0  0  0
   -3.8429    1.1353   -0.2403 C   0  0  0  0  0  0  0  0  0  0  0  0
   -4.1336   -1.0481   -1.2333 C   0  0  0  0  0  0  0  0  0  0  0  0
   -4.6791    0.1008   -0.6603 C   0  0  0  0  0  0  0  0  0  0  0  0
    3.9041    1.4548   -1.7522 C   0  0  0  0  0  0  0  0  0  0  0  0
    4.1172    1.7741    0.6332 C   0  0  0  0  0  0  0  0  0  0  0  0
    4.4610    2.1356   -0.6694 C   0  0  0  0  0  0  0  0  0  0  0  0
   -0.0019    1.7200    2.6571 C   0  0  0  0  0  0  0  0  0  0  0  0
   -4.3921    2.3422    0.3617 C   0  0  0  0  0  0  0  0  0  0  0  0
   -0.2184   -0.8429   -2.0335 H   0  0  0  0  0  0  0  0  0  0  0  0
   -0.0104    0.7471   -1.3240 H   0  0  0  0  0  0  0  0  0  0  0  0
   -1.8040    1.8285   -0.0811 H   0  0  0  0  0  0  0  0  0  0  0  0
   -2.3401   -2.0625   -1.8349 H   0  0  0  0  0  0  0  0  0  0  0  0
    2.5791   -0.1090   -2.3866 H   0  0  0  0  0  0  0  0  0  0  0  0
    2.9722    0.4546    1.8755 H   0  0  0  0  0  0  0  0  0  0  0  0
   -4.7729   -1.8620   -1.5645 H   0  0  0  0  0  0  0  0  0  0  0  0
    3.1310   -3.8756    0.2805 H   0  0  0  0  0  0  0  0  0  0  0  0
    4.1684    1.7317   -2.7692 H   0  0  0  0  0  0  0  0  0  0  0  0
    4.5463    2.2944    1.4853 H   0  0  0  0  0  0  0  0  0  0  0  0
    0.4968    2.6918    2.6126 H   0  0  0  0  0  0  0  0  0  0  0  0
   -1.0830    1.8816    2.7038 H   0  0  0  0  0  0  0  0  0  0  0  0
    0.3486    1.1853    3.5449 H   0  0  0  0  0  0  0  0  0  0  0  0
   -5.4878    2.4013    0.4679 H   0  0  0  0  0  0  0  0  0  0  0  0
   -6.4432   -0.6181   -0.8624 H   0  0  0  0  0  0  0  0  0  0  0  0
    5.6249    3.5091   -0.0255 H   0  0  0  0  0  0  0  0  0  0  0  0
  1  9  1  0  0  0  0
  1 16  1  0  0  0  0
  2 14  1  0  0  0  0
  2 27  1  0  0  0  0
  3 13  1  0  0  0  0
  3 36  1  0  0  0  0
  4 14  2  0  0  0  0
  5 16  2  0  0  0  0
  6 23  1  0  0  0  0
  6 43  1  0  0  0  0
  7 26  1  0  0  0  0
  7 44  1  0  0  0  0
  8 28  2  0  0  0  0
  9 10  1  0  0  0  0
  9 11  1  0  0  0  0
  9 14  1  0  0  0  0
 10 12  1  0  0  0  0
 10 29  1  0  0  0  0
 10 30  1  0  0  0  0
 11 13  2  0  0  0  0
 11 15  1  0  0  0  0
 12 17  2  0  0  0  0
 12 18  1  0  0  0  0
 13 16  1  0  0  0  0
 15 19  2  0  0  0  0
 15 20  1  0  0  0  0
 17 21  1  0  0  0  0
 17 31  1  0  0  0  0
 18 22  2  0  0  0  0
 18 32  1  0  0  0  0
 19 24  1  0  0  0  0
 19 33  1  0  0  0  0
 20 25  2  0  0  0  0
 20 34  1  0  0  0  0
 21 23  2  0  0  0  0
 21 28  1  0  0  0  0
 22 23  1  0  0  0  0
 22 35  1  0  0  0  0
 24 26  2  0  0  0  0
 24 37  1  0  0  0  0
 25 26  1  0  0  0  0
 25 38  1  0  0  0  0
 27 39  1  0  0  0  0
 27 40  1  0  0  0  0
 27 41  1  0  0  0  0
 28 42  1  0  0  0  0
M  END
> <PUBCHEM_COMPOUND_CID>
139587026

> <PUBCHEM_CONFORMER_RMSD>
0.8

> <PUBCHEM_CONFORMER_DIVERSEORDER>
1
16
5
20
30
26
14
8
31
27
25
19
4
3
13
24
9
6
18
15
7
17
21
28
12
22
11
23
2
10
29

> <PUBCHEM_MMFF94_PARTIAL_CHARGES>
39
1 -0.43
10 0.14
11 -0.17
12 -0.14
13 0.09
14 0.66
15 0.03
16 0.71
17 -0.15
18 -0.15
19 -0.15
2 -0.43
20 -0.15
21 0.09
22 -0.15
23 0.08
24 -0.15
25 -0.15
26 0.08
27 0.28
28 0.42
3 -0.53
31 0.15
32 0.15
33 0.15
34 0.15
35 0.15
36 0.45
37 0.15
38 0.15
4 -0.57
42 0.06
43 0.45
44 0.45
5 -0.57
6 -0.53
7 -0.53
8 -0.57
9 0.48

> <PUBCHEM_EFFECTIVE_ROTOR_COUNT>
6.4

> <PUBCHEM_PHARMACOPHORE_FEATURES>
9
1 3 donor
1 4 acceptor
1 5 acceptor
1 6 donor
1 7 donor
1 8 acceptor
5 1 9 11 13 16 rings
6 12 17 18 21 22 23 rings
6 15 19 20 24 25 26 rings

> <PUBCHEM_HEAVY_ATOM_COUNT>
28

> <PUBCHEM_ATOM_DEF_STEREO_COUNT>
1

> <PUBCHEM_ATOM_UDEF_STEREO_COUNT>
0

> <PUBCHEM_BOND_DEF_STEREO_COUNT>
0

> <PUBCHEM_BOND_UDEF_STEREO_COUNT>
0

> <PUBCHEM_ISOTOPIC_ATOM_COUNT>
0

> <PUBCHEM_COMPONENT_COUNT>
1

> <PUBCHEM_CACTVS_TAUTO_COUNT>
-1

> <PUBCHEM_CONFORMER_ID>
0851EDD200000001

> <PUBCHEM_MMFF94_ENERGY>
75.9404

> <PUBCHEM_FEATURE_SELFOVERLAP>
45.672

> <PUBCHEM_SHAPE_FINGERPRINT>
10366900 7 18270950350216694187
10759866 29 18271245998189738841
11578080 2 17244748573605739162
12035759 4 17703238308101863016
12293681 160 18060143175829171000
12633257 1 14924504286141722836
12788726 201 17322125867119206238
13583140 156 17830479192900942129
13590594 115 17758962515497043312
13617811 41 18337939187129699613
13726171 33 17489601034483820657
14068700 675 18055906607504609970
14251757 17 17346878974515595113
14713325 29 18044101369519782403
14739800 52 18129644379404720048
14849402 71 18335141952090772758
15163728 17 18189070818480796196
15238133 3 17559389146485395545
19319366 153 18340758291487287447
19765921 60 18343299284111841706
21033650 10 18057627493241163244
22149856 69 18115610192440995427
22393880 68 18202004291679277180
23559900 14 18195234521536312915
394222 165 18337386054690743242
469060 322 18046083802339062955
474 4 18186802473972928173
59755656 520 18335415833428472846
6034566 193 17971212544902583780
6287921 2 18188495644607195941
633830 44 18412544292940646998
70251023 43 18057055605154785230
7808743 9 18046065127985023932
84936 182 18341609300517147456
9981440 41 18334574689431121442

> <PUBCHEM_SHAPE_MULTIPOLES>
529.27
9.99
3.7
1.71
4.27
1.99
0.65
-7.98
-3.87
-2.08
0.74
-0.34
-0.63
-1.65

> <PUBCHEM_SHAPE_SELFOVERLAP>
1166.877

> <PUBCHEM_SHAPE_VOLUME>
281.8

> <PUBCHEM_COORDINATE_TYPE>
2
5
10

$$$$
