REMARK  Name = 139587716
REMARK  7 active torsions:
REMARK  status: ('A' for Active; 'I' for Inactive)
REMARK    1  A    between atoms: C_14  and  O_24
REMARK    2  A    between atoms: C_17  and  C_26
REMARK    3  A    between atoms: C_26  and  C_28
REMARK    4  A    between atoms: C_29  and  C_30
REMARK    5  A    between atoms: C_30  and  C_32
REMARK    6  A    between atoms: C_32  and  C_35
REMARK    7  A    between atoms: C_35  and  O_36
REMARK                            x       y       z     vdW  Elec       q    Type
REMARK                         _______ _______ _______ _____ _____    ______ ____
ROOT
ATOM      1  O   UNL     1      -5.231   0.169   1.076  0.00  0.00    -0.346 OA
ATOM      2  O   UNL     1      -4.845  -2.238   0.034  0.00  0.00    -0.351 OA
ATOM      3  O   UNL     1      -1.320  -0.531  -1.232  0.00  0.00    -0.355 OA
ATOM      4  O   UNL     1      -4.888   3.104   0.166  0.00  0.00    -0.289 OA
ATOM      5  C   UNL     1      -3.704  -0.178  -0.890  0.00  0.00    +0.085 C 
ATOM      6  C   UNL     1      -4.623   0.752  -0.095  0.00  0.00    +0.179 C 
ATOM      7  C   UNL     1      -2.280  -0.186  -0.206  0.00  0.00    +0.113 C 
ATOM      8  C   UNL     1      -4.241  -1.586  -1.093  0.00  0.00    +0.150 C 
ATOM      9  C   UNL     1      -6.107   0.441  -0.022  0.00  0.00    +0.177 C 
ATOM     10  C   UNL     1       0.149  -0.172   0.704  0.00  0.00    +0.031 C 
ATOM     11  C   UNL     1      -5.722  -1.849  -1.031  0.00  0.00    +0.171 C 
ATOM     12  C   UNL     1      -0.492   1.215   0.916  0.00  0.00    +0.023 C 
ATOM     13  C   UNL     1      -1.889   1.191   0.356  0.00  0.00    -0.017 C 
ATOM     14  C   UNL     1      -6.693  -0.765  -0.685  0.00  0.00    +0.170 C 
ATOM     15  C   UNL     1      -2.109  -1.223   0.944  0.00  0.00    +0.031 C 
ATOM     16  C   UNL     1      -0.668  -1.192   1.509  0.00  0.00    +0.005 C 
ATOM     17  C   UNL     1       1.583   0.093   1.177  0.00  0.00    +0.007 C 
ATOM     18  C   UNL     1      -4.144   2.133   0.175  0.00  0.00    +0.199 C 
ATOM     19  C   UNL     1      -3.616   0.436  -2.328  0.00  0.00    +0.008 C 
ATOM     20  C   UNL     1       0.035  -0.588  -0.777  0.00  0.00    +0.143 C 
ATOM     21  C   UNL     1       0.542   2.179   0.341  0.00  0.00    +0.004 C 
ATOM     22  C   UNL     1      -2.708   2.243   0.503  0.00  0.00    +0.034 C 
ATOM     23  C   UNL     1       1.897   1.497   0.611  0.00  0.00    +0.001 C 
ENDROOT
BRANCH  14  24
ATOM     24  O   UNL     1      -7.705  -1.319   0.155  0.00  0.00    -0.379 OA
ATOM     25  H   UNL     1      -8.344  -0.628   0.389  0.00  0.00    +0.211 HD
ENDBRANCH  14  24
BRANCH  17  26
ATOM     26  C   UNL     1       2.618  -0.950   0.782  0.00  0.00    +0.022 C 
ATOM     27  C   UNL     1       2.553  -2.161   1.718  0.00  0.00    +0.005 C 
BRANCH  26  28
ATOM     28  C   UNL     1       4.004  -0.351   0.817  0.00  0.00    -0.031 C 
ATOM     29  C   UNL     1       4.881  -0.237  -0.194  0.00  0.00    -0.030 C 
BRANCH  29  30
ATOM     30  C   UNL     1       6.269   0.363  -0.155  0.00  0.00    +0.032 C 
ATOM     31  C   UNL     1       6.306   1.614  -1.042  0.00  0.00    +0.005 C 
BRANCH  30  32
ATOM     32  C   UNL     1       7.379  -0.642  -0.555  0.00  0.00    +0.103 C 
ATOM     33  C   UNL     1       7.445  -1.901   0.315  0.00  0.00    +0.012 C 
BRANCH  32  35
ATOM     34  O   UNL     1       9.279   0.562   0.393  0.00  0.00    -0.250 OA
ATOM     35  C   UNL     1       8.738   0.048  -0.577  0.00  0.00    +0.314 C 
BRANCH  35  36
ATOM     36  O   UNL     1       9.307   0.025  -1.810  0.00  0.00    -0.480 OA
ATOM     37  H   UNL     1       8.857  -0.380  -2.526  0.00  0.00    +0.295 HD
ENDBRANCH  35  36
ENDBRANCH  32  35
ENDBRANCH  30  32
ENDBRANCH  29  30
ENDBRANCH  26  28
ENDBRANCH  17  26
TORSDOF 7
