REMARK  Name = 139589606
REMARK  7 active torsions:
REMARK  status: ('A' for Active; 'I' for Inactive)
REMARK    1  A    between atoms: C_10  and  C_38
REMARK    2  A    between atoms: C_25  and  O_26
REMARK    3  A    between atoms: C_25  and  C_28
REMARK    4  A    between atoms: C_28  and  N_29
REMARK    5  A    between atoms: C_28  and  C_34
REMARK    6  A    between atoms: C_34  and  O_35
REMARK    7  A    between atoms: C_38  and  O_39
REMARK                            x       y       z     vdW  Elec       q    Type
REMARK                         _______ _______ _______ _____ _____    ______ ____
ROOT
ATOM      1  O   UNL     1       1.493   3.494  -0.179  0.00  0.00    -0.283 OA
ATOM      2  O   UNL     1       3.508   3.391   1.609  0.00  0.00    -0.282 OA
ATOM      3  N   UNL     1       2.204  -1.146  -1.323  0.00  0.00    -0.300 N 
ATOM      4  N   UNL     1       5.046   0.743   1.683  0.00  0.00    -0.309 N 
ATOM      5  C   UNL     1       0.591   1.242  -1.813  0.00  0.00    +0.033 C 
ATOM      6  C   UNL     1       2.471   0.068  -0.669  0.00  0.00    +0.048 C 
ATOM      7  C   UNL     1       0.697   0.091  -2.843  0.00  0.00    +0.026 C 
ATOM      8  C   UNL     1       1.742   1.194  -0.832  0.00  0.00    +0.033 C 
ATOM      9  C   UNL     1       1.041  -1.264  -2.213  0.00  0.00    +0.092 C 
ATOM     10  C   UNL     1       2.848  -2.422  -0.905  0.00  0.00    +0.177 C 
ATOM     11  C   UNL     1       3.576   0.073   0.212  0.00  0.00    +0.027 C 
ATOM     12  C   UNL     1       4.299  -2.257  -0.369  0.00  0.00    +0.059 C 
ATOM     13  C   UNL     1       4.456  -0.996   0.403  0.00  0.00    -0.003 C 
ATOM     14  C   UNL     1       3.944   1.145   0.970  0.00  0.00    +0.092 C 
ATOM     15  C   UNL     1       2.098   2.438  -0.053  0.00  0.00    +0.233 C 
ATOM     16  C   UNL     1       5.372  -0.559   1.338  0.00  0.00    +0.058 C 
ATOM     17  C   UNL     1       3.256   2.399   0.944  0.00  0.00    +0.247 C 
ATOM     18  H   UNL     1       5.531   1.295   2.338  0.00  0.00    +0.152 HD
ENDROOT
BRANCH  10  20
ATOM     19  O   UNL     1       1.319  -2.435   0.971  0.00  0.00    -0.248 OA
ATOM     20  C   UNL     1       1.992  -3.050   0.158  0.00  0.00    +0.332 C 
BRANCH  20  21
ATOM     21  O   UNL     1       2.069  -4.402   0.097  0.00  0.00    -0.479 OA
ATOM     22  H   UNL     1       2.606  -4.812  -0.552  0.00  0.00    +0.295 HD
ENDBRANCH  20  21
ENDBRANCH  10  20
TORSDOF 2
REMARK  Name = 139589606
REMARK  7 active torsions:
REMARK  status: ('A' for Active; 'I' for Inactive)
REMARK    1  A    between atoms: C_10  and  C_38
REMARK    2  A    between atoms: C_25  and  O_26
REMARK    3  A    between atoms: C_25  and  C_28
REMARK    4  A    between atoms: C_28  and  N_29
REMARK    5  A    between atoms: C_28  and  C_34
REMARK    6  A    between atoms: C_34  and  O_35
REMARK    7  A    between atoms: C_38  and  O_39
REMARK                            x       y       z     vdW  Elec       q    Type
REMARK                         _______ _______ _______ _____ _____    ______ ____
ROOT
ATOM      1  N   UNL     1      -0.779   1.280  -1.151  0.00  0.00    +0.000 NA
ENDROOT
TORSDOF 0
REMARK  Name = 139589606
REMARK  7 active torsions:
REMARK  status: ('A' for Active; 'I' for Inactive)
REMARK    1  A    between atoms: C_10  and  C_38
REMARK    2  A    between atoms: C_25  and  O_26
REMARK    3  A    between atoms: C_25  and  C_28
REMARK    4  A    between atoms: C_28  and  N_29
REMARK    5  A    between atoms: C_28  and  C_34
REMARK    6  A    between atoms: C_34  and  O_35
REMARK    7  A    between atoms: C_38  and  O_39
REMARK                            x       y       z     vdW  Elec       q    Type
REMARK                         _______ _______ _______ _____ _____    ______ ____
ROOT
ATOM      1  N   UNL     1      -2.928   1.747  -0.840  0.00  0.00    -0.215 NA
ATOM      2  C   UNL     1      -2.447   1.012   0.215  0.00  0.00    +0.108 C 
ATOM      3  C   UNL     1      -1.898   1.891  -1.644  0.00  0.00    +0.108 C 
ENDROOT
TORSDOF 0
REMARK  Name = 139589606
REMARK  7 active torsions:
REMARK  status: ('A' for Active; 'I' for Inactive)
REMARK    1  A    between atoms: C_10  and  C_38
REMARK    2  A    between atoms: C_25  and  O_26
REMARK    3  A    between atoms: C_25  and  C_28
REMARK    4  A    between atoms: C_28  and  N_29
REMARK    5  A    between atoms: C_28  and  C_34
REMARK    6  A    between atoms: C_34  and  O_35
REMARK    7  A    between atoms: C_38  and  O_39
REMARK                            x       y       z     vdW  Elec       q    Type
REMARK                         _______ _______ _______ _____ _____    ______ ____
ROOT
ATOM      1  C   UNL     1      -1.116   0.710   0.044  0.00  0.00    +0.000 C 
ENDROOT
TORSDOF 0
REMARK  Name = 139589606
REMARK  7 active torsions:
REMARK  status: ('A' for Active; 'I' for Inactive)
REMARK    1  A    between atoms: C_10  and  C_38
REMARK    2  A    between atoms: C_25  and  O_26
REMARK    3  A    between atoms: C_25  and  C_28
REMARK    4  A    between atoms: C_28  and  N_29
REMARK    5  A    between atoms: C_28  and  C_34
REMARK    6  A    between atoms: C_34  and  O_35
REMARK    7  A    between atoms: C_38  and  O_39
REMARK                            x       y       z     vdW  Elec       q    Type
REMARK                         _______ _______ _______ _____ _____    ______ ____
ROOT
ATOM      1  C   UNL     1      -4.616  -0.159   0.991  0.00  0.00    +0.077 C 
ENDROOT
BRANCH   1   2
ATOM      2  N   UNL     1      -4.261  -1.610   0.924  0.00  0.00    +0.396 N 
ATOM      3  C   UNL     1      -4.069  -2.179   2.332  0.00  0.00    -0.095 C 
ATOM      4  C   UNL     1      -5.373  -2.400   0.227  0.00  0.00    -0.095 C 
ATOM      5  C   UNL     1      -2.961  -1.806   0.139  0.00  0.00    -0.095 C 
ENDBRANCH   1   2
BRANCH   1   7
ATOM      6  O   UNL     1      -4.963  -0.144  -1.418  0.00  0.00    -0.252 OA
ATOM      7  C   UNL     1      -5.272   0.268  -0.307  0.00  0.00    +0.297 C 
BRANCH   7   8
ATOM      8  O   UNL     1      -6.254   1.185  -0.108  0.00  0.00    -0.481 OA
ATOM      9  H   UNL     1      -6.457   1.472   0.760  0.00  0.00    +0.295 HD
ENDBRANCH   7   8
ENDBRANCH   1   7
BRANCH   1  10
ATOM     10  C   UNL     1      -3.327   0.646   1.335  0.00  0.00    +0.128 C 
BRANCH  10  11
ATOM     11  O   UNL     1      -3.757   1.810   2.077  0.00  0.00    -0.384 OA
ATOM     12  H   UNL     1      -4.334   1.534   2.806  0.00  0.00    +0.210 HD
ENDBRANCH  10  11
ENDBRANCH   1  10
TORSDOF 5
