REMARK  Name = 139586313
REMARK  7 active torsions:
REMARK  status: ('A' for Active; 'I' for Inactive)
REMARK    1  A    between atoms: C_7  and  C_33
REMARK    2  A    between atoms: C_8  and  O_31
REMARK    3  A    between atoms: C_11  and  N_20
REMARK    4  A    between atoms: C_21  and  C_23
REMARK    5  A    between atoms: C_28  and  O_29
REMARK    6  A    between atoms: C_33  and  C_34
REMARK    7  A    between atoms: C_39  and  O_40
REMARK                            x       y       z     vdW  Elec       q    Type
REMARK                         _______ _______ _______ _____ _____    ______ ____
ROOT
ATOM      1  O   UNL     1       0.355  -0.164  -1.575  0.00  0.00    -0.450 OA
ATOM      2  O   UNL     1      -1.327   0.159  -3.124  0.00  0.00    -0.250 OA
ATOM      3  O   UNL     1      -2.688   0.142   2.591  0.00  0.00    -0.273 OA
ATOM      4  O   UNL     1       1.012   0.868   1.744  0.00  0.00    -0.273 OA
ATOM      5  N   UNL     1      -2.421   0.206   0.287  0.00  0.00    -0.302 N 
ATOM      6  N   UNL     1      -0.559   2.149   0.628  0.00  0.00    -0.295 N 
ATOM      7  C   UNL     1      -2.881  -1.145  -0.018  0.00  0.00    +0.103 C 
ATOM      8  C   UNL     1      -1.689  -2.037  -0.442  0.00  0.00    +0.140 C 
ATOM      9  C   UNL     1      -1.211  -1.904  -1.891  0.00  0.00    +0.140 C 
ATOM     10  C   UNL     1       0.860   1.176  -1.782  0.00  0.00    +0.196 C 
ATOM     11  C   UNL     1       1.549   1.657  -0.490  0.00  0.00    +0.189 C 
ATOM     12  C   UNL     1      -0.755  -0.522  -2.281  0.00  0.00    +0.319 C 
ATOM     13  C   UNL     1      -2.253   0.684   1.576  0.00  0.00    +0.243 C 
ATOM     14  C   UNL     1      -1.587   2.046   1.645  0.00  0.00    +0.176 C 
ATOM     15  C   UNL     1       0.665   1.504   0.749  0.00  0.00    +0.244 C 
ATOM     16  C   UNL     1       1.800   1.178  -2.987  0.00  0.00    +0.050 C 
ATOM     17  H   UNL     1      -2.220   0.810  -0.464  0.00  0.00    +0.150 HD
ATOM     18  H   UNL     1      -0.734   2.693  -0.174  0.00  0.00    +0.150 HD
ENDROOT
BRANCH  11  20
ATOM     19  O   UNL     1       4.185   2.770  -0.258  0.00  0.00    -0.270 OA
ATOM     20  N   UNL     1       2.769   0.934  -0.223  0.00  0.00    -0.292 N 
ATOM     21  C   UNL     1       4.001   1.563  -0.128  0.00  0.00    +0.246 C 
ATOM     22  H   UNL     1       2.724  -0.042  -0.102  0.00  0.00    +0.150 HD
BRANCH  21  23
ATOM     23  C   UNL     1       5.165   0.675   0.126  0.00  0.00    +0.054 C 
ATOM     24  C   UNL     1       6.437   1.052  -0.304  0.00  0.00    +0.008 C 
ATOM     25  C   UNL     1       4.985  -0.537   0.793  0.00  0.00    +0.008 C 
ATOM     26  C   UNL     1       7.529   0.218  -0.067  0.00  0.00    +0.037 C 
ATOM     27  C   UNL     1       6.077  -1.371   1.030  0.00  0.00    +0.037 C 
ATOM     28  C   UNL     1       7.349  -0.994   0.600  0.00  0.00    +0.139 C 
BRANCH  28  29
ATOM     29  O   UNL     1       8.415  -1.808   0.832  0.00  0.00    -0.471 OA
ATOM     30  C   UNL     1       8.160  -3.032   1.519  0.00  0.00    +0.252 C 
ENDBRANCH  28  29
ENDBRANCH  21  23
ENDBRANCH  11  20
BRANCH   8  31
ATOM     31  O   UNL     1      -2.058  -3.408  -0.260  0.00  0.00    -0.382 OA
ATOM     32  H   UNL     1      -2.369  -3.542   0.649  0.00  0.00    +0.210 HD
ENDBRANCH   8  31
BRANCH   7  33
ATOM     33  C   UNL     1      -4.029  -1.110  -1.023  0.00  0.00    +0.048 C 
BRANCH  33  34
ATOM     34  C   UNL     1      -5.311  -0.665  -0.378  0.00  0.00    -0.020 C 
ATOM     35  C   UNL     1      -5.639   0.690  -0.342  0.00  0.00    -0.001 C 
ATOM     36  C   UNL     1      -6.172  -1.607   0.185  0.00  0.00    -0.001 C 
ATOM     37  C   UNL     1      -6.829   1.103   0.257  0.00  0.00    +0.036 C 
ATOM     38  C   UNL     1      -7.362  -1.194   0.784  0.00  0.00    +0.036 C 
ATOM     39  C   UNL     1      -7.691   0.161   0.820  0.00  0.00    +0.134 C 
BRANCH  39  40
ATOM     40  O   UNL     1      -8.851   0.564   1.405  0.00  0.00    -0.506 OA
ATOM     41  H   UNL     1      -9.072   1.475   1.430  0.00  0.00    +0.292 HD
ENDBRANCH  39  40
ENDBRANCH  33  34
ENDBRANCH   7  33
TORSDOF 7
