REMARK  Name = 139590569
REMARK  6 active torsions:
REMARK  status: ('A' for Active; 'I' for Inactive)
REMARK    1  A    between atoms: C_1  and  C_14
REMARK    2  A    between atoms: C_2  and  O_10
REMARK    3  A    between atoms: C_3  and  O_12
REMARK    4  A    between atoms: C_4  and  C_8
REMARK    5  A    between atoms: C_14  and  C_17
REMARK    6  A    between atoms: C_18  and  O_24
REMARK                            x       y       z     vdW  Elec       q    Type
REMARK                         _______ _______ _______ _____ _____    ______ ____
ROOT
ATOM      1  C   UNL     1       1.164  -0.896   0.810  0.00  0.00    +0.050 C 
ATOM      2  C   UNL     1       1.599   0.394   0.508  0.00  0.00    +0.136 C 
ATOM      3  C   UNL     1       1.904  -1.999   0.385  0.00  0.00    +0.133 C 
ATOM      4  C   UNL     1       2.775   0.581  -0.221  0.00  0.00    +0.068 C 
ATOM      5  C   UNL     1       3.079  -1.812  -0.344  0.00  0.00    +0.037 C 
ATOM      6  C   UNL     1       3.514  -0.522  -0.646  0.00  0.00    +0.009 C 
ENDROOT
BRANCH   4   8
ATOM      7  O   UNL     1       2.456   2.866  -0.712  0.00  0.00    -0.291 OA
ATOM      8  C   UNL     1       3.248   1.919  -0.549  0.00  0.00    +0.176 C 
ATOM      9  C   UNL     1       4.741   2.188  -0.701  0.00  0.00    +0.077 C 
ENDBRANCH   4   8
BRANCH   2  10
ATOM     10  O   UNL     1       0.875   1.473   0.924  0.00  0.00    -0.506 OA
ATOM     11  H   UNL     1       0.086   1.346   1.413  0.00  0.00    +0.292 HD
ENDBRANCH   2  10
BRANCH   3  12
ATOM     12  O   UNL     1       1.495  -3.267   0.670  0.00  0.00    -0.506 OA
ATOM     13  H   UNL     1       0.707  -3.406   1.159  0.00  0.00    +0.292 HD
ENDBRANCH   3  12
BRANCH   1  14
ATOM     14  C   UNL     1      -0.100  -1.099   1.593  0.00  0.00    +0.062 C 
BRANCH  14  17
ATOM     15  O   UNL     1      -4.512   1.068  -1.043  0.00  0.00    -0.283 OA
ATOM     16  O   UNL     1      -3.813   1.980   1.358  0.00  0.00    -0.283 OA
ATOM     17  C   UNL     1      -1.298  -0.490   0.913  0.00  0.00    +0.019 C 
ATOM     18  C   UNL     1      -1.677  -0.998  -0.404  0.00  0.00    +0.129 C 
ATOM     19  C   UNL     1      -2.730  -0.529  -1.103  0.00  0.00    +0.054 C 
ATOM     20  C   UNL     1      -1.982   0.490   1.519  0.00  0.00    +0.044 C 
ATOM     21  C   UNL     1      -3.540   0.565  -0.496  0.00  0.00    +0.233 C 
ATOM     22  C   UNL     1      -3.152   1.085   0.855  0.00  0.00    +0.234 C 
ATOM     23  C   UNL     1      -3.199  -0.992  -2.451  0.00  0.00    +0.038 C 
BRANCH  18  24
ATOM     24  O   UNL     1      -0.847  -2.004  -0.864  0.00  0.00    -0.506 OA
ATOM     25  H   UNL     1      -0.127  -2.294  -0.339  0.00  0.00    +0.292 HD
ENDBRANCH  18  24
ENDBRANCH  14  17
ENDBRANCH   1  14
TORSDOF 6
