REMARK  Name = 139589605
REMARK  7 active torsions:
REMARK  status: ('A' for Active; 'I' for Inactive)
REMARK    1  A    between atoms: C_10  and  C_36
REMARK    2  A    between atoms: N_20  and  C_22
REMARK    3  A    between atoms: C_21  and  C_22
REMARK    4  A    between atoms: C_26  and  N_27
REMARK    5  A    between atoms: C_26  and  C_32
REMARK    6  A    between atoms: C_32  and  O_33
REMARK    7  A    between atoms: C_36  and  O_37
REMARK                            x       y       z     vdW  Elec       q    Type
REMARK                         _______ _______ _______ _____ _____    ______ ____
ROOT
ATOM      1  O   UNL     1       1.662   3.531   0.224  0.00  0.00    -0.283 OA
ATOM      2  O   UNL     1       3.362   3.010   2.250  0.00  0.00    -0.282 OA
ATOM      3  N   UNL     1       2.168  -0.982  -1.427  0.00  0.00    -0.300 N 
ATOM      4  N   UNL     1       4.655   0.234   2.182  0.00  0.00    -0.309 N 
ATOM      5  C   UNL     1       0.846   1.597  -1.812  0.00  0.00    +0.033 C 
ATOM      6  C   UNL     1       2.427   0.110  -0.583  0.00  0.00    +0.048 C 
ATOM      7  C   UNL     1       1.018   0.576  -2.964  0.00  0.00    +0.026 C 
ATOM      8  C   UNL     1       1.825   1.315  -0.693  0.00  0.00    +0.033 C 
ATOM      9  C   UNL     1       1.151  -0.873  -2.482  0.00  0.00    +0.092 C 
ATOM     10  C   UNL     1       2.636  -2.357  -1.099  0.00  0.00    +0.177 C 
ATOM     11  C   UNL     1       3.380  -0.102   0.439  0.00  0.00    +0.027 C 
ATOM     12  C   UNL     1       3.995  -2.404  -0.344  0.00  0.00    +0.059 C 
ATOM     13  C   UNL     1       4.132  -1.268   0.607  0.00  0.00    -0.003 C 
ATOM     14  C   UNL     1       3.711   0.828   1.381  0.00  0.00    +0.092 C 
ATOM     15  C   UNL     1       2.154   2.413   0.291  0.00  0.00    +0.233 C 
ATOM     16  C   UNL     1       4.924  -1.042   1.713  0.00  0.00    +0.058 C 
ATOM     17  C   UNL     1       3.138   2.137   1.427  0.00  0.00    +0.247 C 
ATOM     18  H   UNL     1       5.075   0.650   2.968  0.00  0.00    +0.152 HD
ENDROOT
BRANCH  10  20
ATOM     19  O   UNL     1       0.840  -2.447   0.520  0.00  0.00    -0.248 OA
ATOM     20  C   UNL     1       1.579  -3.022  -0.264  0.00  0.00    +0.332 C 
BRANCH  20  21
ATOM     21  O   UNL     1       1.556  -4.357  -0.497  0.00  0.00    -0.479 OA
ATOM     22  H   UNL     1       2.152  -4.736  -1.113  0.00  0.00    +0.295 HD
ENDBRANCH  20  21
ENDBRANCH  10  20
TORSDOF 2
REMARK  Name = 139589605
REMARK  7 active torsions:
REMARK  status: ('A' for Active; 'I' for Inactive)
REMARK    1  A    between atoms: C_10  and  C_36
REMARK    2  A    between atoms: N_20  and  C_22
REMARK    3  A    between atoms: C_21  and  C_22
REMARK    4  A    between atoms: C_26  and  N_27
REMARK    5  A    between atoms: C_26  and  C_32
REMARK    6  A    between atoms: C_32  and  O_33
REMARK    7  A    between atoms: C_36  and  O_37
REMARK                            x       y       z     vdW  Elec       q    Type
REMARK                         _______ _______ _______ _____ _____    ______ ____
ROOT
ATOM      1  N   UNL     1      -0.602   1.689  -1.353  0.00  0.00    +0.000 NA
ENDROOT
TORSDOF 0
REMARK  Name = 139589605
REMARK  7 active torsions:
REMARK  status: ('A' for Active; 'I' for Inactive)
REMARK    1  A    between atoms: C_10  and  C_36
REMARK    2  A    between atoms: N_20  and  C_22
REMARK    3  A    between atoms: C_21  and  C_22
REMARK    4  A    between atoms: C_26  and  N_27
REMARK    5  A    between atoms: C_26  and  C_32
REMARK    6  A    between atoms: C_32  and  O_33
REMARK    7  A    between atoms: C_36  and  O_37
REMARK                            x       y       z     vdW  Elec       q    Type
REMARK                         _______ _______ _______ _____ _____    ______ ____
ROOT
ATOM      1  N   UNL     1      -2.729   2.325  -1.291  0.00  0.00    -0.217 NA
ATOM      2  C   UNL     1      -1.579   2.464  -1.913  0.00  0.00    +0.107 C 
ENDROOT
BRANCH   1   4
ATOM      3  C   UNL     1      -1.164   1.014  -0.307  0.00  0.00    +0.025 C 
ATOM      4  C   UNL     1      -2.477   1.423  -0.289  0.00  0.00    +0.084 C 
ENDBRANCH   1   4
TORSDOF 1
REMARK  Name = 139589605
REMARK  7 active torsions:
REMARK  status: ('A' for Active; 'I' for Inactive)
REMARK    1  A    between atoms: C_10  and  C_36
REMARK    2  A    between atoms: N_20  and  C_22
REMARK    3  A    between atoms: C_21  and  C_22
REMARK    4  A    between atoms: C_26  and  N_27
REMARK    5  A    between atoms: C_26  and  C_32
REMARK    6  A    between atoms: C_32  and  O_33
REMARK    7  A    between atoms: C_36  and  O_37
REMARK                            x       y       z     vdW  Elec       q    Type
REMARK                         _______ _______ _______ _____ _____    ______ ____
ROOT
ATOM      1  C   UNL     1      -3.545   1.012   0.635  0.00  0.00    -0.011 C 
ATOM      2  C   UNL     1      -4.350  -0.227   0.166  0.00  0.00    +0.047 C 
ENDROOT
BRANCH   2   3
ATOM      3  N   UNL     1      -5.695  -0.218   0.811  0.00  0.00    +0.394 N 
ATOM      4  C   UNL     1      -5.577   0.152   2.293  0.00  0.00    -0.095 C 
ATOM      5  C   UNL     1      -6.611   0.804   0.129  0.00  0.00    -0.095 C 
ATOM      6  C   UNL     1      -6.351  -1.599   0.708  0.00  0.00    -0.095 C 
ENDBRANCH   2   3
BRANCH   2   8
ATOM      7  O   UNL     1      -3.342  -1.889   1.632  0.00  0.00    -0.253 OA
ATOM      8  C   UNL     1      -3.665  -1.535   0.505  0.00  0.00    +0.295 C 
BRANCH   8   9
ATOM      9  O   UNL     1      -3.471  -2.311  -0.593  0.00  0.00    -0.482 OA
ATOM     10  H   UNL     1      -3.733  -2.001  -1.438  0.00  0.00    +0.295 HD
ENDBRANCH   8   9
ENDBRANCH   2   8
TORSDOF 3
