139583294
  -OEChem-03292013293D

 50 53  0     1  0  0  0  0  0999 V2000
   -2.1030    0.1230   -0.8766 O   0  0  0  0  0  0  0  0  0  0  0  0
    1.7166   -2.9968    0.2203 O   0  0  0  0  0  0  0  0  0  0  0  0
    0.4946    2.0926   -1.0055 O   0  0  0  0  0  0  0  0  0  0  0  0
    2.2834    0.4909    3.3361 O   0  0  0  0  0  0  0  0  0  0  0  0
    2.8369    2.5212   -1.8671 O   0  0  0  0  0  0  0  0  0  0  0  0
   -5.5132   -1.3582    0.1665 O   0  0  0  0  0  0  0  0  0  0  0  0
   -4.7692   -0.8961   -1.9344 O   0  0  0  0  0  0  0  0  0  0  0  0
   -0.1065    0.3039    0.5465 C   0  0  1  0  0  0  0  0  0  0  0  0
    0.1337   -1.1570    0.2071 C   0  0  0  0  0  0  0  0  0  0  0  0
    1.5307   -1.6227    0.5663 C   0  0  1  0  0  0  0  0  0  0  0  0
   -1.6249    0.6231    0.3757 C   0  0  1  0  0  0  0  0  0  0  0  0
    0.3030    0.6672    1.9970 C   0  0  0  0  0  0  0  0  0  0  0  0
    1.7514   -1.4724    2.0760 C   0  0  0  0  0  0  0  0  0  0  0  0
    0.8165    1.0520   -0.4408 C   0  0  0  0  0  0  0  0  0  0  0  0
    2.5416   -0.7778   -0.2046 C   0  0  0  0  0  0  0  0  0  0  0  0
   -0.7795   -1.8849   -0.4600 C   0  0  0  0  0  0  0  0  0  0  0  0
    1.5396   -0.0420    2.5126 C   0  0  0  0  0  0  0  0  0  0  0  0
   -2.0686   -1.3069   -0.9721 C   0  0  1  0  0  0  0  0  0  0  0  0
   -2.0274    2.0937    0.4738 C   0  0  0  0  0  0  0  0  0  0  0  0
    2.1899    0.5023   -0.6821 C   0  0  0  0  0  0  0  0  0  0  0  0
   -3.5207    2.2403    0.7443 C   0  0  0  0  0  0  0  0  0  0  0  0
    3.8495   -1.2403   -0.4241 C   0  0  0  0  0  0  0  0  0  0  0  0
   -3.2878   -1.9275   -0.2965 C   0  0  0  0  0  0  0  0  0  0  0  0
    3.1201    1.2770   -1.3863 C   0  0  0  0  0  0  0  0  0  0  0  0
    4.7737   -0.4624   -1.1223 C   0  0  0  0  0  0  0  0  0  0  0  0
    4.4083    0.7914   -1.6053 C   0  0  0  0  0  0  0  0  0  0  0  0
   -3.9168    3.7029    0.8675 C   0  0  0  0  0  0  0  0  0  0  0  0
   -4.5719   -1.3365   -0.8119 C   0  0  0  0  0  0  0  0  0  0  0  0
   -2.1641    0.0991    1.1771 H   0  0  0  0  0  0  0  0  0  0  0  0
   -0.4987    0.4104    2.7007 H   0  0  0  0  0  0  0  0  0  0  0  0
    0.4898    1.7449    2.0790 H   0  0  0  0  0  0  0  0  0  0  0  0
    2.7662   -1.7831    2.3538 H   0  0  0  0  0  0  0  0  0  0  0  0
    1.0621   -2.1093    2.6441 H   0  0  0  0  0  0  0  0  0  0  0  0
   -0.5801   -2.9199   -0.7214 H   0  0  0  0  0  0  0  0  0  0  0  0
   -2.1205   -1.5243   -2.0461 H   0  0  0  0  0  0  0  0  0  0  0  0
   -1.4785    2.5945    1.2776 H   0  0  0  0  0  0  0  0  0  0  0  0
   -1.8043    2.6172   -0.4625 H   0  0  0  0  0  0  0  0  0  0  0  0
    1.1755   -3.5382    0.8203 H   0  0  0  0  0  0  0  0  0  0  0  0
   -4.1000    1.7804   -0.0645 H   0  0  0  0  0  0  0  0  0  0  0  0
   -3.7891    1.7210    1.6717 H   0  0  0  0  0  0  0  0  0  0  0  0
    4.1626   -2.2121   -0.0504 H   0  0  0  0  0  0  0  0  0  0  0  0
   -3.3211   -3.0097   -0.4672 H   0  0  0  0  0  0  0  0  0  0  0  0
   -3.2448   -1.7638    0.7868 H   0  0  0  0  0  0  0  0  0  0  0  0
    5.7805   -0.8351   -1.2872 H   0  0  0  0  0  0  0  0  0  0  0  0
    5.1371    1.3891   -2.1465 H   0  0  0  0  0  0  0  0  0  0  0  0
   -4.9906    3.7892    1.0613 H   0  0  0  0  0  0  0  0  0  0  0  0
   -3.6936    4.2495   -0.0544 H   0  0  0  0  0  0  0  0  0  0  0  0
   -3.3836    4.1867    1.6921 H   0  0  0  0  0  0  0  0  0  0  0  0
    1.9833    2.8318   -1.5301 H   0  0  0  0  0  0  0  0  0  0  0  0
   -6.3647   -0.9772   -0.1369 H   0  0  0  0  0  0  0  0  0  0  0  0
  1 11  1  0  0  0  0
  1 18  1  0  0  0  0
  2 10  1  0  0  0  0
  2 38  1  0  0  0  0
  3 14  2  0  0  0  0
  4 17  2  0  0  0  0
  5 24  1  0  0  0  0
  5 49  1  0  0  0  0
  6 28  1  0  0  0  0
  6 50  1  0  0  0  0
  7 28  2  0  0  0  0
  8  9  1  0  0  0  0
  8 11  1  0  0  0  0
  8 12  1  0  0  0  0
  8 14  1  0  0  0  0
  9 10  1  0  0  0  0
  9 16  2  0  0  0  0
 10 13  1  0  0  0  0
 10 15  1  0  0  0  0
 11 19  1  0  0  0  0
 11 29  1  0  0  0  0
 12 17  1  0  0  0  0
 12 30  1  0  0  0  0
 12 31  1  0  0  0  0
 13 17  1  0  0  0  0
 13 32  1  0  0  0  0
 13 33  1  0  0  0  0
 14 20  1  0  0  0  0
 15 20  2  0  0  0  0
 15 22  1  0  0  0  0
 16 18  1  0  0  0  0
 16 34  1  0  0  0  0
 18 23  1  0  0  0  0
 18 35  1  0  0  0  0
 19 21  1  0  0  0  0
 19 36  1  0  0  0  0
 19 37  1  0  0  0  0
 20 24  1  0  0  0  0
 21 27  1  0  0  0  0
 21 39  1  0  0  0  0
 21 40  1  0  0  0  0
 22 25  2  0  0  0  0
 22 41  1  0  0  0  0
 23 28  1  0  0  0  0
 23 42  1  0  0  0  0
 23 43  1  0  0  0  0
 24 26  2  0  0  0  0
 25 26  1  0  0  0  0
 25 44  1  0  0  0  0
 26 45  1  0  0  0  0
 27 46  1  0  0  0  0
 27 47  1  0  0  0  0
 27 48  1  0  0  0  0
M  END
> <PUBCHEM_COMPOUND_CID>
139583294

> <PUBCHEM_CONFORMER_RMSD>
0.8

> <PUBCHEM_CONFORMER_DIVERSEORDER>
1
7
8
6
3
5
2
4

> <PUBCHEM_MMFF94_PARTIAL_CHARGES>
32
1 -0.56
10 0.56
11 0.28
12 0.06
13 0.06
14 0.42
15 -0.14
16 -0.29
17 0.45
18 0.42
2 -0.68
20 0.09
22 -0.15
23 0.06
24 0.08
25 -0.15
26 -0.15
28 0.66
3 -0.57
34 0.15
38 0.4
4 -0.57
41 0.15
44 0.15
45 0.15
49 0.45
5 -0.53
50 0.5
6 -0.65
7 -0.57
8 0.2
9 -0.28

> <PUBCHEM_EFFECTIVE_ROTOR_COUNT>
5

> <PUBCHEM_PHARMACOPHORE_FEATURES>
14
1 1 acceptor
1 2 acceptor
1 2 donor
1 27 hydrophobe
1 3 acceptor
1 4 acceptor
1 5 donor
1 6 acceptor
1 7 acceptor
3 6 7 28 anion
6 1 8 9 11 16 18 rings
6 15 20 22 24 25 26 rings
6 8 9 10 12 13 17 rings
6 8 9 10 14 15 20 rings

> <PUBCHEM_HEAVY_ATOM_COUNT>
28

> <PUBCHEM_ATOM_DEF_STEREO_COUNT>
4

> <PUBCHEM_ATOM_UDEF_STEREO_COUNT>
0

> <PUBCHEM_BOND_DEF_STEREO_COUNT>
0

> <PUBCHEM_BOND_UDEF_STEREO_COUNT>
0

> <PUBCHEM_ISOTOPIC_ATOM_COUNT>
0

> <PUBCHEM_COMPONENT_COUNT>
1

> <PUBCHEM_CACTVS_TAUTO_COUNT>
-1

> <PUBCHEM_CONFORMER_ID>
0851DF3E00000001

> <PUBCHEM_MMFF94_ENERGY>
75.3994

> <PUBCHEM_FEATURE_SELFOVERLAP>
72.691

> <PUBCHEM_SHAPE_FINGERPRINT>
10169797 241 16893689135659589419
104564 63 18272370854583065479
10863032 1 18342183215622295750
10948715 1 18042990725668915408
11135609 187 17897456217989439989
11578080 2 17989483026642310480
12035759 4 18334293192984842213
12553582 1 18270390715935957391
12714826 92 17560810934946728813
12730499 353 16370723755609658739
12788726 201 18411982460337962315
13009979 54 18195238923946376602
13140716 1 17981312401101705163
13224815 77 18341602720859404083
13583140 156 16879356597858574933
14178342 30 18266437842183496155
15806764 133 17060334111245145849
16752209 62 18201712943015780175
16945 1 18123200266571762822
17492 54 18041007279912658190
18915476 22 15357974516955627816
20691752 17 18058155301840473867
22182313 1 17417231204580435881
23419403 2 14012150617054314178
23559900 14 18059006319091588012
238 59 17022618693285035092
25147074 1 18262515884038413723
3052486 1 18341321215501632297
3380486 77 17244105333803108427
34934 24 18042699299047569664
350125 39 18343308037740442273
394222 165 17242436446639300760
4340502 62 16153421787891857763
474 4 17604157033483251340
495365 180 14924487677091414179
633830 44 17531831076956469676
70251023 43 16952235535092085882
9981440 41 17253440505688538484

> <PUBCHEM_SHAPE_MULTIPOLES>
535.14
8.7
3.02
2.12
5.28
1.36
-1.48
-0.29
3.85
2.93
0.13
-1.69
0.45
-2.14

> <PUBCHEM_SHAPE_SELFOVERLAP>
1175.969

> <PUBCHEM_SHAPE_VOLUME>
282.6

> <PUBCHEM_COORDINATE_TYPE>
2
5
10

$$$$
