REMARK  Name = 139584811
REMARK  12 active torsions:
REMARK  status: ('A' for Active; 'I' for Inactive)
REMARK    1  A    between atoms: C_4  and  C_12
REMARK    2  A    between atoms: C_8  and  C_22
REMARK    3  A    between atoms: N_11  and  C_14
REMARK    4  A    between atoms: C_14  and  C_15
REMARK    5  A    between atoms: C_14  and  C_19
REMARK    6  A    between atoms: C_19  and  C_20
REMARK    7  A    between atoms: C_22  and  C_23
REMARK    8  A    between atoms: C_22  and  C_28
REMARK    9  A    between atoms: C_23  and  C_24
REMARK   10  A    between atoms: C_24  and  C_25
REMARK   11  A    between atoms: C_28  and  C_30
REMARK   12  A    between atoms: C_30  and  O_31
REMARK                            x       y       z     vdW  Elec       q    Type
REMARK                         _______ _______ _______ _____ _____    ______ ____
ROOT
ATOM      1  O   UNL     1      -2.689  -2.155   1.683  0.00  0.00    -0.274 OA
ATOM      2  N   UNL     1      -0.915  -2.051   0.195  0.00  0.00    -0.217 N 
ATOM      3  N   UNL     1      -0.536  -3.386   0.420  0.00  0.00    -0.226 NA
ATOM      4  C   UNL     1      -0.085  -1.252  -0.708  0.00  0.00    +0.167 C 
ATOM      5  C   UNL     1       0.265  -1.993  -1.999  0.00  0.00    +0.032 C 
ATOM      6  C   UNL     1       0.630  -3.455  -1.745  0.00  0.00    +0.021 C 
ATOM      7  C   UNL     1      -0.410  -4.114  -0.843  0.00  0.00    +0.088 C 
ATOM      8  C   UNL     1      -1.974  -1.507   0.916  0.00  0.00    +0.239 C 
ATOM      9  H   UNL     1      -1.243  -3.841   0.997  0.00  0.00    +0.145 HD
ENDROOT
BRANCH   4  12
ATOM     10  O   UNL     1       1.630  -1.558   0.926  0.00  0.00    -0.273 OA
ATOM     11  N   UNL     1       1.587   0.416  -0.307  0.00  0.00    -0.298 N 
ATOM     12  C   UNL     1       1.135  -0.839   0.062  0.00  0.00    +0.242 C 
ATOM     13  H   UNL     1       1.105   0.898  -1.017  0.00  0.00    +0.150 HD
BRANCH  11  14
ATOM     14  C   UNL     1       2.733   1.053   0.300  0.00  0.00    +0.129 C 
BRANCH  14  15
ATOM     15  C   UNL     1       2.655   2.592   0.306  0.00  0.00    +0.025 C 
ATOM     16  C   UNL     1       1.429   3.074   1.088  0.00  0.00    +0.002 C 
ATOM     17  C   UNL     1       2.649   3.207  -1.097  0.00  0.00    +0.002 C 
ENDBRANCH  14  15
BRANCH  14  19
ATOM     18  O   UNL     1       4.003   0.345  -1.630  0.00  0.00    -0.294 OA
ATOM     19  C   UNL     1       3.982   0.542  -0.415  0.00  0.00    +0.168 C 
BRANCH  19  20
ATOM     20  C   UNL     1       5.210   0.327   0.457  0.00  0.00    +0.066 C 
ATOM     21  C   UNL     1       6.396  -0.210  -0.324  0.00  0.00    +0.008 C 
ENDBRANCH  19  20
ENDBRANCH  14  19
ENDBRANCH  11  14
ENDBRANCH   4  12
BRANCH   8  22
ATOM     22  C   UNL     1      -2.228  -0.030   0.720  0.00  0.00    +0.089 C 
BRANCH  22  23
ATOM     23  C   UNL     1      -3.128   0.167  -0.514  0.00  0.00    +0.010 C 
BRANCH  23  24
ATOM     24  C   UNL     1      -3.131   1.592  -1.087  0.00  0.00    +0.001 C 
BRANCH  24  25
ATOM     25  C   UNL     1      -4.060   1.756  -2.306  0.00  0.00    +0.000 C 
ATOM     26  C   UNL     1      -4.096   3.194  -2.825  0.00  0.00    +0.000 C 
ATOM     27  C   UNL     1      -3.615   0.814  -3.428  0.00  0.00    +0.000 C 
ENDBRANCH  24  25
ENDBRANCH  23  24
ENDBRANCH  22  23
BRANCH  22  28
ATOM     28  C   UNL     1      -2.813   0.588   1.995  0.00  0.00    +0.118 C 
BRANCH  28  30
ATOM     29  O   UNL     1      -0.556   0.673   2.920  0.00  0.00    -0.250 OA
ATOM     30  C   UNL     1      -1.758   0.858   3.049  0.00  0.00    +0.314 C 
BRANCH  30  31
ATOM     31  O   UNL     1      -2.313   1.352   4.188  0.00  0.00    -0.480 OA
ATOM     32  H   UNL     1      -3.240   1.477   4.241  0.00  0.00    +0.295 HD
ENDBRANCH  30  31
ENDBRANCH  28  30
ENDBRANCH  22  28
ENDBRANCH   8  22
TORSDOF 12
