REMARK  Name = 139587263
REMARK  4 active torsions:
REMARK  status: ('A' for Active; 'I' for Inactive)
REMARK    1  A    between atoms: C_3  and  C_17
REMARK    2  A    between atoms: C_4  and  O_25
REMARK    3  A    between atoms: C_5  and  C_10
REMARK    4  A    between atoms: C_17  and  O_23
REMARK                            x       y       z     vdW  Elec       q    Type
REMARK                         _______ _______ _______ _____ _____    ______ ____
ROOT
ATOM      1  O   UNL     1       0.939   2.067   0.883  0.00  0.00    -0.322 OA
ATOM      2  O   UNL     1      -1.038   2.433  -0.390  0.00  0.00    -0.327 OA
ATOM      3  C   UNL     1       1.020   0.691   0.498  0.00  0.00    +0.198 C 
ATOM      4  C   UNL     1       0.375   0.506  -0.883  0.00  0.00    +0.170 C 
ATOM      5  C   UNL     1      -1.037   1.107  -0.933  0.00  0.00    +0.148 C 
ATOM      6  C   UNL     1      -0.413   2.517   0.888  0.00  0.00    +0.294 C 
ENDROOT
BRANCH   5  10
ATOM      7  O   UNL     1      -5.511   0.547   0.891  0.00  0.00    -0.275 OA
ATOM      8  O   UNL     1      -3.129  -3.230  -0.247  0.00  0.00    -0.275 OA
ATOM      9  N   UNL     1      -4.284  -1.324   0.338  0.00  0.00    -0.255 N 
ATOM     10  C   UNL     1      -2.085   0.238  -0.244  0.00  0.00    +0.048 C 
ATOM     11  C   UNL     1      -3.459   0.900  -0.291  0.00  0.00    +0.088 C 
ATOM     12  C   UNL     1      -2.176  -1.134  -0.905  0.00  0.00    +0.088 C 
ATOM     13  C   UNL     1      -3.213  -2.002  -0.233  0.00  0.00    +0.228 C 
ATOM     14  C   UNL     1      -4.506   0.048   0.385  0.00  0.00    +0.228 C 
ATOM     15  H   UNL     1      -4.972  -1.886   0.764  0.00  0.00    +0.158 HD
ENDBRANCH   5  10
BRANCH   3  17
ATOM     16  O   UNL     1       3.192   0.980  -0.507  0.00  0.00    -0.328 OA
ATOM     17  C   UNL     1       2.488   0.286   0.540  0.00  0.00    +0.215 C 
ATOM     18  C   UNL     1       2.702  -1.203   0.222  0.00  0.00    +0.075 C 
ATOM     19  C   UNL     1       4.114  -1.160  -0.289  0.00  0.00    -0.010 C 
ATOM     20  C   UNL     1       4.375   0.218  -0.804  0.00  0.00    +0.167 C 
ATOM     21  C   UNL     1       2.430  -2.149   1.386  0.00  0.00    +0.010 C 
ATOM     22  C   UNL     1       5.033  -2.131  -0.252  0.00  0.00    -0.007 C 
BRANCH  17  23
ATOM     23  O   UNL     1       3.032   0.610   1.820  0.00  0.00    -0.362 OA
ATOM     24  H   UNL     1       2.888   1.551   2.004  0.00  0.00    +0.213 HD
ENDBRANCH  17  23
ENDBRANCH   3  17
BRANCH   4  25
ATOM     25  O   UNL     1       1.150   1.185  -1.875  0.00  0.00    -0.379 OA
ATOM     26  H   UNL     1       2.054   0.833  -1.876  0.00  0.00    +0.211 HD
ENDBRANCH   4  25
TORSDOF 4
