139591335
  -OEChem-03292013293D

 73 74  0     1  0  0  0  0  0999 V2000
    0.8335   -0.6095    0.5317 O   0  0  0  0  0  0  0  0  0  0  0  0
   -7.5821    0.1459   -0.9293 O   0  0  0  0  0  0  0  0  0  0  0  0
    3.9903    0.8441   -0.2454 O   0  0  0  0  0  0  0  0  0  0  0  0
    2.5356    1.1623    1.5118 O   0  0  0  0  0  0  0  0  0  0  0  0
    4.3533   -1.9719    1.5837 O   0  0  0  0  0  0  0  0  0  0  0  0
    2.3810   -3.0294    1.9518 O   0  0  0  0  0  0  0  0  0  0  0  0
    0.2334   -2.6059   -2.5435 O   0  0  0  0  0  0  0  0  0  0  0  0
    2.4193   -2.4587   -3.1477 O   0  0  0  0  0  0  0  0  0  0  0  0
   -2.6616    0.8567   -0.0175 C   0  0  1  0  0  0  0  0  0  0  0  0
   -4.0225    0.1240    0.3208 C   0  0  2  0  0  0  0  0  0  0  0  0
   -5.3162    0.6711   -0.3838 C   0  0  1  0  0  0  0  0  0  0  0  0
   -1.4919   -0.0626    0.5340 C   0  0  2  0  0  0  0  0  0  0  0  0
   -2.5465    1.0003   -1.5572 C   0  0  0  0  0  0  0  0  0  0  0  0
   -4.1729   -0.1005    1.8429 C   0  0  0  0  0  0  0  0  0  0  0  0
   -5.0423    0.8530   -1.8969 C   0  0  0  0  0  0  0  0  0  0  0  0
   -3.7730    1.6332   -2.2090 C   0  0  0  0  0  0  0  0  0  0  0  0
   -2.5381    2.2652    0.6180 C   0  0  0  0  0  0  0  0  0  0  0  0
   -2.9969   -0.8970    2.4144 C   0  0  0  0  0  0  0  0  0  0  0  0
   -1.6698   -0.2888    2.0352 C   0  0  0  0  0  0  0  0  0  0  0  0
   -6.4572   -0.3753   -0.2630 C   0  0  0  0  0  0  0  0  0  0  0  0
   -5.8693    1.9774    0.2161 C   0  0  0  0  0  0  0  0  0  0  0  0
   -0.0786    0.3884    0.1252 C   0  0  0  0  0  0  0  0  0  0  0  0
   -0.7696    0.0159    2.9842 C   0  0  0  0  0  0  0  0  0  0  0  0
    2.0661   -0.5235   -0.1777 C   0  0  2  0  0  0  0  0  0  0  0  0
    2.7363   -1.9100   -0.1864 C   0  0  2  0  0  0  0  0  0  0  0  0
    2.8682    0.5842    0.4847 C   0  0  0  0  0  0  0  0  0  0  0  0
    1.8747   -2.9930   -0.8549 C   0  0  0  0  0  0  0  0  0  0  0  0
    3.1055   -2.3658    1.2210 C   0  0  0  0  0  0  0  0  0  0  0  0
    1.5655   -2.6623   -2.2945 C   0  0  0  0  0  0  0  0  0  0  0  0
    4.8296    1.8875    0.2589 C   0  0  0  0  0  0  0  0  0  0  0  0
    6.0271    2.0463   -0.6671 C   0  0  0  0  0  0  0  0  0  0  0  0
    6.9766    3.1365   -0.1785 C   0  0  0  0  0  0  0  0  0  0  0  0
    8.1926    3.2623   -1.0821 C   0  0  0  0  0  0  0  0  0  0  0  0
   -3.9049   -0.8876   -0.1041 H   0  0  0  0  0  0  0  0  0  0  0  0
   -1.6146   -1.0588    0.0789 H   0  0  0  0  0  0  0  0  0  0  0  0
   -2.3846    0.0114   -2.0062 H   0  0  0  0  0  0  0  0  0  0  0  0
   -1.6768    1.6121   -1.8244 H   0  0  0  0  0  0  0  0  0  0  0  0
   -5.0831   -0.6639    2.0682 H   0  0  0  0  0  0  0  0  0  0  0  0
   -4.2662    0.8548    2.3705 H   0  0  0  0  0  0  0  0  0  0  0  0
   -5.8852    1.3548   -2.3886 H   0  0  0  0  0  0  0  0  0  0  0  0
   -4.9554   -0.1332   -2.3738 H   0  0  0  0  0  0  0  0  0  0  0  0
   -3.8833    2.6778   -1.9012 H   0  0  0  0  0  0  0  0  0  0  0  0
   -3.6257    1.6526   -3.2958 H   0  0  0  0  0  0  0  0  0  0  0  0
   -2.7131    2.2628    1.6968 H   0  0  0  0  0  0  0  0  0  0  0  0
   -3.2146    2.9952    0.1773 H   0  0  0  0  0  0  0  0  0  0  0  0
   -1.5381    2.6820    0.4588 H   0  0  0  0  0  0  0  0  0  0  0  0
   -3.0324   -1.9251    2.0320 H   0  0  0  0  0  0  0  0  0  0  0  0
   -3.1124   -0.9672    3.5028 H   0  0  0  0  0  0  0  0  0  0  0  0
   -6.1798   -1.3310   -0.7207 H   0  0  0  0  0  0  0  0  0  0  0  0
   -6.7438   -0.5562    0.7762 H   0  0  0  0  0  0  0  0  0  0  0  0
   -5.1747    2.8106    0.1391 H   0  0  0  0  0  0  0  0  0  0  0  0
   -6.1243    1.8547    1.2741 H   0  0  0  0  0  0  0  0  0  0  0  0
   -6.7778    2.3151   -0.2960 H   0  0  0  0  0  0  0  0  0  0  0  0
    0.1879    1.3500    0.5728 H   0  0  0  0  0  0  0  0  0  0  0  0
   -0.0406    0.4982   -0.9627 H   0  0  0  0  0  0  0  0  0  0  0  0
    0.1856    0.4763    2.7698 H   0  0  0  0  0  0  0  0  0  0  0  0
   -0.9795   -0.1770    4.0319 H   0  0  0  0  0  0  0  0  0  0  0  0
   -8.2929   -0.5135   -0.8574 H   0  0  0  0  0  0  0  0  0  0  0  0
    1.8857   -0.2145   -1.2154 H   0  0  0  0  0  0  0  0  0  0  0  0
    3.6763   -1.8400   -0.7514 H   0  0  0  0  0  0  0  0  0  0  0  0
    0.9338   -3.1316   -0.3078 H   0  0  0  0  0  0  0  0  0  0  0  0
    2.3825   -3.9649   -0.8392 H   0  0  0  0  0  0  0  0  0  0  0  0
    5.1659    1.6229    1.2683 H   0  0  0  0  0  0  0  0  0  0  0  0
    4.2590    2.8226    0.3010 H   0  0  0  0  0  0  0  0  0  0  0  0
    4.5848   -2.2765    2.4869 H   0  0  0  0  0  0  0  0  0  0  0  0
    5.6760    2.2737   -1.6814 H   0  0  0  0  0  0  0  0  0  0  0  0
    6.5555    1.0875   -0.7414 H   0  0  0  0  0  0  0  0  0  0  0  0
    0.0448   -2.3837   -3.4801 H   0  0  0  0  0  0  0  0  0  0  0  0
    7.3105    2.9107    0.8410 H   0  0  0  0  0  0  0  0  0  0  0  0
    6.4521    4.0983   -0.1426 H   0  0  0  0  0  0  0  0  0  0  0  0
    7.8965    3.5176   -2.1046 H   0  0  0  0  0  0  0  0  0  0  0  0
    8.8583    4.0495   -0.7146 H   0  0  0  0  0  0  0  0  0  0  0  0
    8.7583    2.3255   -1.1117 H   0  0  0  0  0  0  0  0  0  0  0  0
  1 22  1  0  0  0  0
  1 24  1  0  0  0  0
  2 20  1  0  0  0  0
  2 58  1  0  0  0  0
  3 26  1  0  0  0  0
  3 30  1  0  0  0  0
  4 26  2  0  0  0  0
  5 28  1  0  0  0  0
  5 65  1  0  0  0  0
  6 28  2  0  0  0  0
  7 29  1  0  0  0  0
  7 68  1  0  0  0  0
  8 29  2  0  0  0  0
  9 10  1  0  0  0  0
  9 12  1  0  0  0  0
  9 13  1  0  0  0  0
  9 17  1  0  0  0  0
 10 11  1  0  0  0  0
 10 14  1  0  0  0  0
 10 34  1  0  0  0  0
 11 15  1  0  0  0  0
 11 20  1  0  0  0  0
 11 21  1  0  0  0  0
 12 19  1  0  0  0  0
 12 22  1  0  0  0  0
 12 35  1  0  0  0  0
 13 16  1  0  0  0  0
 13 36  1  0  0  0  0
 13 37  1  0  0  0  0
 14 18  1  0  0  0  0
 14 38  1  0  0  0  0
 14 39  1  0  0  0  0
 15 16  1  0  0  0  0
 15 40  1  0  0  0  0
 15 41  1  0  0  0  0
 16 42  1  0  0  0  0
 16 43  1  0  0  0  0
 17 44  1  0  0  0  0
 17 45  1  0  0  0  0
 17 46  1  0  0  0  0
 18 19  1  0  0  0  0
 18 47  1  0  0  0  0
 18 48  1  0  0  0  0
 19 23  2  0  0  0  0
 20 49  1  0  0  0  0
 20 50  1  0  0  0  0
 21 51  1  0  0  0  0
 21 52  1  0  0  0  0
 21 53  1  0  0  0  0
 22 54  1  0  0  0  0
 22 55  1  0  0  0  0
 23 56  1  0  0  0  0
 23 57  1  0  0  0  0
 24 25  1  0  0  0  0
 24 26  1  0  0  0  0
 24 59  1  0  0  0  0
 25 27  1  0  0  0  0
 25 28  1  0  0  0  0
 25 60  1  0  0  0  0
 27 29  1  0  0  0  0
 27 61  1  0  0  0  0
 27 62  1  0  0  0  0
 30 31  1  0  0  0  0
 30 63  1  0  0  0  0
 30 64  1  0  0  0  0
 31 32  1  0  0  0  0
 31 66  1  0  0  0  0
 31 67  1  0  0  0  0
 32 33  1  0  0  0  0
 32 69  1  0  0  0  0
 32 70  1  0  0  0  0
 33 71  1  0  0  0  0
 33 72  1  0  0  0  0
 33 73  1  0  0  0  0
M  END
> <PUBCHEM_COMPOUND_CID>
139591335

> <PUBCHEM_CONFORMER_RMSD>
1.2

> <PUBCHEM_CONFORMER_DIVERSEORDER>
1
59
62
53
18
31
26
42
55
57
56
20
12
24
29
28
52
45
61
72
16
43
65
6
50
46
49
9
68
10
66
27
2
48
51
34
70
32
22
54
17
23
5
67
4
30
33
15
35
40
14
19
11
41
58
69
38
47
8
71
37
64
44
39
63
3
60
25
13
21
36
7

> <PUBCHEM_MMFF94_PARTIAL_CHARGES>
26
1 -0.56
12 0.14
18 0.14
19 -0.28
2 -0.68
20 0.28
22 0.28
23 -0.3
24 0.34
25 0.06
26 0.66
27 0.06
28 0.66
29 0.66
3 -0.43
30 0.28
4 -0.57
5 -0.65
56 0.15
57 0.15
58 0.4
6 -0.57
65 0.5
68 0.5
7 -0.65
8 -0.57

> <PUBCHEM_EFFECTIVE_ROTOR_COUNT>
14.4

> <PUBCHEM_PHARMACOPHORE_FEATURES>
13
1 1 acceptor
1 2 acceptor
1 2 donor
1 33 hydrophobe
1 4 acceptor
1 5 acceptor
1 6 acceptor
1 7 acceptor
1 8 acceptor
3 5 6 28 anion
3 7 8 29 anion
6 9 10 11 13 15 16 rings
6 9 10 12 14 18 19 rings

> <PUBCHEM_HEAVY_ATOM_COUNT>
33

> <PUBCHEM_ATOM_DEF_STEREO_COUNT>
5

> <PUBCHEM_ATOM_UDEF_STEREO_COUNT>
1

> <PUBCHEM_BOND_DEF_STEREO_COUNT>
0

> <PUBCHEM_BOND_UDEF_STEREO_COUNT>
0

> <PUBCHEM_ISOTOPIC_ATOM_COUNT>
0

> <PUBCHEM_COMPONENT_COUNT>
1

> <PUBCHEM_CACTVS_TAUTO_COUNT>
-1

> <PUBCHEM_CONFORMER_ID>
0851FEA700000001

> <PUBCHEM_MMFF94_ENERGY>
83.2973

> <PUBCHEM_FEATURE_SELFOVERLAP>
66.115

> <PUBCHEM_SHAPE_FINGERPRINT>
10369192 42 18336831999825569204
11443803 9 18130779119081900530
11991303 11 18268153248486083782
12166972 35 17987225630496774770
12553582 1 15267049329946066649
12788726 201 15482395262188836443
13150687 139 18272381901671578468
13257819 101 18114178670539283580
13911987 19 18201163247110225960
15537594 2 16415189067057774711
17349148 13 17630873920250226979
17980427 23 16009316542807619246
1813 80 16343122676868880489
20645477 70 18342455889757634923
21033648 29 16443619100014093653
21756936 100 18044938116092705352
23559900 14 17241058595408776722
44802255 64 18118419569146128396
46194498 28 18271245993673109196
504843 32 18196378228841938134
6669772 16 17894623747482155715

> <PUBCHEM_SHAPE_MULTIPOLES>
632.17
16.95
3.53
2.62
8.45
0.88
0.48
-16.86
3.75
7.5
1.19
-0.93
1.77
0.6

> <PUBCHEM_SHAPE_SELFOVERLAP>
1280.246

> <PUBCHEM_SHAPE_VOLUME>
363.9

> <PUBCHEM_COORDINATE_TYPE>
2
5
10

$$$$
