139589808
  -OEChem-03292013293D

 61 61  0     1  0  0  0  0  0999 V2000
    0.9968    0.2673    2.0454 S   0  0  0  0  0  0  0  0  0  0  0  0
   -0.6761    1.0666    1.1705 S   0  0  0  0  0  0  0  0  0  0  0  0
    0.2424    4.7044    1.3974 O   0  0  0  0  0  0  0  0  0  0  0  0
   -1.2546    4.4712   -0.2894 O   0  0  0  0  0  0  0  0  0  0  0  0
   -7.6319   -0.3091    0.4543 O   0  0  0  0  0  0  0  0  0  0  0  0
   -5.9212    1.1772    0.3302 O   0  0  0  0  0  0  0  0  0  0  0  0
    3.3540    2.3845   -1.2495 O   0  0  0  0  0  0  0  0  0  0  0  0
    1.9157    2.9326    0.4976 N   0  0  0  0  0  0  0  0  0  0  0  0
    0.9265   -1.4612    1.4107 C   0  0  2  0  0  0  0  0  0  0  0  0
    1.6254   -2.3736    2.4512 C   0  0  0  0  0  0  0  0  0  0  0  0
    1.4501   -1.5463    0.0129 C   0  0  0  0  0  0  0  0  0  0  0  0
    1.5634   -3.8543    2.0553 C   0  0  0  0  0  0  0  0  0  0  0  0
    0.6270   -1.9143   -1.0516 C   0  0  0  0  0  0  0  0  0  0  0  0
    2.7939   -1.2492   -0.2149 C   0  0  0  0  0  0  0  0  0  0  0  0
    3.3146   -1.3200   -1.5071 C   0  0  0  0  0  0  0  0  0  0  0  0
    1.1479   -1.9854   -2.3437 C   0  0  0  0  0  0  0  0  0  0  0  0
   -0.7952   -2.2323   -0.8445 C   0  0  0  0  0  0  0  0  0  0  0  0
    2.3234   -4.7254    3.0438 C   0  0  0  0  0  0  0  0  0  0  0  0
    2.4915   -1.6880   -2.5714 C   0  0  0  0  0  0  0  0  0  0  0  0
   -3.2611   -1.9588   -1.1899 C   0  0  0  0  0  0  0  0  0  0  0  0
   -1.8225   -1.5943   -1.4267 C   0  0  0  0  0  0  0  0  0  0  0  0
    4.7511   -1.0024   -1.7512 C   0  0  0  0  0  0  0  0  0  0  0  0
   -4.1063   -0.7774   -0.6961 C   0  0  0  0  0  0  0  0  0  0  0  0
   -0.0154    1.6887   -0.3944 C   0  0  0  0  0  0  0  0  0  0  0  0
    0.6999    3.0362   -0.2699 C   0  0  1  0  0  0  0  0  0  0  0  0
   -5.5635   -1.1249   -0.3798 C   0  0  0  0  0  0  0  0  0  0  0  0
   -0.2141    4.1289    0.2594 C   0  0  0  0  0  0  0  0  0  0  0  0
   -6.3557    0.0476    0.1541 C   0  0  0  0  0  0  0  0  0  0  0  0
    3.1437    2.6142   -0.0614 C   0  0  0  0  0  0  0  0  0  0  0  0
    4.2504    2.5975    0.9587 C   0  0  0  0  0  0  0  0  0  0  0  0
   -0.1286   -1.7440    1.4699 H   0  0  0  0  0  0  0  0  0  0  0  0
    1.1476   -2.2534    3.4329 H   0  0  0  0  0  0  0  0  0  0  0  0
    2.6773   -2.0838    2.5732 H   0  0  0  0  0  0  0  0  0  0  0  0
    1.9961   -4.0097    1.0613 H   0  0  0  0  0  0  0  0  0  0  0  0
    0.5183   -4.1816    2.0103 H   0  0  0  0  0  0  0  0  0  0  0  0
    3.4477   -0.9641    0.6056 H   0  0  0  0  0  0  0  0  0  0  0  0
    0.5250   -2.2744   -3.1870 H   0  0  0  0  0  0  0  0  0  0  0  0
   -0.9917   -3.0551   -0.1610 H   0  0  0  0  0  0  0  0  0  0  0  0
    1.9065   -4.6299    4.0515 H   0  0  0  0  0  0  0  0  0  0  0  0
    2.2602   -5.7774    2.7484 H   0  0  0  0  0  0  0  0  0  0  0  0
    3.3811   -4.4460    3.0809 H   0  0  0  0  0  0  0  0  0  0  0  0
    2.8866   -1.7488   -3.5820 H   0  0  0  0  0  0  0  0  0  0  0  0
   -3.6818   -2.3297   -2.1323 H   0  0  0  0  0  0  0  0  0  0  0  0
   -3.3360   -2.7803   -0.4668 H   0  0  0  0  0  0  0  0  0  0  0  0
   -1.6315   -0.7750   -2.1159 H   0  0  0  0  0  0  0  0  0  0  0  0
    4.8877   -0.5280   -2.7289 H   0  0  0  0  0  0  0  0  0  0  0  0
    5.1370   -0.3042   -1.0007 H   0  0  0  0  0  0  0  0  0  0  0  0
    5.3495   -1.9181   -1.7168 H   0  0  0  0  0  0  0  0  0  0  0  0
    0.6362    0.9527   -0.8687 H   0  0  0  0  0  0  0  0  0  0  0  0
   -0.8772    1.8082   -1.0613 H   0  0  0  0  0  0  0  0  0  0  0  0
   -4.0833    0.0246   -1.4459 H   0  0  0  0  0  0  0  0  0  0  0  0
   -3.6415   -0.3590    0.2065 H   0  0  0  0  0  0  0  0  0  0  0  0
    0.9908    3.3624   -1.2770 H   0  0  0  0  0  0  0  0  0  0  0  0
   -5.5909   -1.9198    0.3739 H   0  0  0  0  0  0  0  0  0  0  0  0
   -6.0580   -1.4832   -1.2894 H   0  0  0  0  0  0  0  0  0  0  0  0
    1.8587    3.0899    1.4998 H   0  0  0  0  0  0  0  0  0  0  0  0
    3.9359    2.0621    1.8588 H   0  0  0  0  0  0  0  0  0  0  0  0
    5.1255    2.0914    0.5418 H   0  0  0  0  0  0  0  0  0  0  0  0
    4.5177    3.6247    1.2208 H   0  0  0  0  0  0  0  0  0  0  0  0
   -0.3583    5.4106    1.7178 H   0  0  0  0  0  0  0  0  0  0  0  0
   -8.1469    0.4443    0.8140 H   0  0  0  0  0  0  0  0  0  0  0  0
  1  2  1  0  0  0  0
  1  9  1  0  0  0  0
  2 24  1  0  0  0  0
  3 27  1  0  0  0  0
  3 60  1  0  0  0  0
  4 27  2  0  0  0  0
  5 28  1  0  0  0  0
  5 61  1  0  0  0  0
  6 28  2  0  0  0  0
  7 29  2  0  0  0  0
  8 25  1  0  0  0  0
  8 29  1  0  0  0  0
  8 56  1  0  0  0  0
  9 10  1  0  0  0  0
  9 11  1  0  0  0  0
  9 31  1  0  0  0  0
 10 12  1  0  0  0  0
 10 32  1  0  0  0  0
 10 33  1  0  0  0  0
 11 13  2  0  0  0  0
 11 14  1  0  0  0  0
 12 18  1  0  0  0  0
 12 34  1  0  0  0  0
 12 35  1  0  0  0  0
 13 16  1  0  0  0  0
 13 17  1  0  0  0  0
 14 15  2  0  0  0  0
 14 36  1  0  0  0  0
 15 19  1  0  0  0  0
 15 22  1  0  0  0  0
 16 19  2  0  0  0  0
 16 37  1  0  0  0  0
 17 21  2  0  0  0  0
 17 38  1  0  0  0  0
 18 39  1  0  0  0  0
 18 40  1  0  0  0  0
 18 41  1  0  0  0  0
 19 42  1  0  0  0  0
 20 21  1  0  0  0  0
 20 23  1  0  0  0  0
 20 43  1  0  0  0  0
 20 44  1  0  0  0  0
 21 45  1  0  0  0  0
 22 46  1  0  0  0  0
 22 47  1  0  0  0  0
 22 48  1  0  0  0  0
 23 26  1  0  0  0  0
 23 51  1  0  0  0  0
 23 52  1  0  0  0  0
 24 25  1  0  0  0  0
 24 49  1  0  0  0  0
 24 50  1  0  0  0  0
 25 27  1  0  0  0  0
 25 53  1  0  0  0  0
 26 28  1  0  0  0  0
 26 54  1  0  0  0  0
 26 55  1  0  0  0  0
 29 30  1  0  0  0  0
 30 57  1  0  0  0  0
 30 58  1  0  0  0  0
 30 59  1  0  0  0  0
M  END
> <PUBCHEM_COMPOUND_CID>
139589808

> <PUBCHEM_CONFORMER_RMSD>
1.2

> <PUBCHEM_CONFORMER_DIVERSEORDER>
6
268
181
255
78
125
57
119
278
81
288
262
300
131
52
154
92
195
173
296
269
140
139
281
141
41
123
20
111
247
155
285
205
242
158
11
89
126
18
185
231
241
146
186
87
96
50
35
263
211
176
124
167
70
74
240
234
14
39
271
172
120
40
49
257
275
248
259
29
63
199
97
68
99
219
183
210
193
147
280
8
264
223
170
108
94
118
159
229
113
56
48
266
80
286
250
243
4
291
54
137
100
297
276
177
128
189
153
19
38
150
251
121
59
253
27
5
116
294
302
34
194
246
175
47
284
273
114
130
9
245
191
16
144
138
161
103
3
283
10
203
207
256
217
95
72
136
258
289
305
304
105
156
62
83
208
107
224
53
192
180
135
270
71
221
206
82
122
227
298
295
24
182
162
75
230
43
249
198
204
287
303
133
212
201
1
142
60
106
272
109
84
228
51
12
265
252
196
23
202
149
200
236
31
301
188
36
214
164
299
7
93
282
237
58
129
66
293
145
163
134
226
184
187
117
37
132
44
244
267
220
166
260
174
160
277
69
64
110
67
165
28
290
17
32
215
112
254
152
239
151
197
79
33
30
21
274
179
45
101
88
238
157
22
91
85
65
279
178
168
73
61
171
42
261
209
102
25
190
233
77
55
143
26
2
13
235
76
115
104
222
46
148
90
213
127
86
232
218
216
15
292
98
169
225

> <PUBCHEM_MMFF94_PARTIAL_CHARGES>
34
1 -0.23
11 -0.14
13 0.03
14 -0.15
15 -0.14
16 -0.15
17 -0.18
19 -0.15
2 -0.23
20 0.14
21 -0.29
22 0.14
24 0.23
25 0.36
26 0.06
27 0.66
28 0.66
29 0.57
3 -0.65
30 0.06
36 0.15
37 0.15
38 0.15
4 -0.57
42 0.15
45 0.15
5 -0.65
56 0.37
6 -0.57
60 0.5
61 0.5
7 -0.57
8 -0.73
9 0.37

> <PUBCHEM_EFFECTIVE_ROTOR_COUNT>
15

> <PUBCHEM_PHARMACOPHORE_FEATURES>
13
1 18 hydrophobe
1 3 acceptor
1 4 acceptor
1 5 acceptor
1 6 acceptor
1 7 acceptor
1 8 donor
3 1 2 24 hydrophobe
3 3 4 27 anion
3 5 6 28 anion
3 9 10 12 hydrophobe
4 20 21 23 26 hydrophobe
6 11 13 14 15 16 19 rings

> <PUBCHEM_HEAVY_ATOM_COUNT>
30

> <PUBCHEM_ATOM_DEF_STEREO_COUNT>
0

> <PUBCHEM_ATOM_UDEF_STEREO_COUNT>
2

> <PUBCHEM_BOND_DEF_STEREO_COUNT>
1

> <PUBCHEM_BOND_UDEF_STEREO_COUNT>
0

> <PUBCHEM_ISOTOPIC_ATOM_COUNT>
0

> <PUBCHEM_COMPONENT_COUNT>
1

> <PUBCHEM_CACTVS_TAUTO_COUNT>
-1

> <PUBCHEM_CONFORMER_ID>
0851F8B000000006

> <PUBCHEM_MMFF94_ENERGY>
45.7308

> <PUBCHEM_FEATURE_SELFOVERLAP>
66.102

> <PUBCHEM_SHAPE_FINGERPRINT>
10483366 6 18129397028096215668
11421498 54 18115027381398877563
12156800 1 18124294049071784280
12422481 6 18128796686193931728
12788726 201 18192999210249464851
13009979 54 17683230374737133050
13642711 20 18189346808409970411
14028597 1 18187644640362750562
144659 178 17183051454424970211
15210252 30 18342747303520647591
15475509 84 17973994064597040671
15664445 248 18341898467406252054
17492 54 18269017395489190700
21285901 2 17559408954526802047
3411729 13 18339923835143996829
54076057 255 18338532875899625903

> <PUBCHEM_SHAPE_MULTIPOLES>
590.76
10.16
6.2
2.54
25.67
4.88
-0.59
-0.89
1.32
-4.56
-3.5
-2.82
-3.14
-1.31

> <PUBCHEM_SHAPE_SELFOVERLAP>
1157.577

> <PUBCHEM_SHAPE_VOLUME>
355.8

> <PUBCHEM_COORDINATE_TYPE>
2
5
10

$$$$
