REMARK  Name = 139588905
REMARK  9 active torsions:
REMARK  status: ('A' for Active; 'I' for Inactive)
REMARK    1  A    between atoms: C_4  and  C_31
REMARK    2  A    between atoms: C_5  and  C_20
REMARK    3  A    between atoms: C_9  and  C_34
REMARK    4  A    between atoms: C_11  and  O_29
REMARK    5  A    between atoms: C_21  and  C_26
REMARK    6  A    between atoms: C_22  and  O_24
REMARK    7  A    between atoms: C_26  and  O_27
REMARK    8  A    between atoms: C_31  and  C_32
REMARK    9  A    between atoms: C_34  and  C_36
REMARK                            x       y       z     vdW  Elec       q    Type
REMARK                         _______ _______ _______ _____ _____    ______ ____
ROOT
ATOM      1  O   UNL     1      -5.506   0.213   0.886  0.00  0.00    -0.479 OA
ATOM      2  O   UNL     1       0.843   1.530   0.707  0.00  0.00    -0.287 OA
ATOM      3  O   UNL     1       0.136  -3.426  -1.142  0.00  0.00    -0.287 OA
ATOM      4  C   UNL     1      -4.283   0.946   0.678  0.00  0.00    +0.191 C 
ATOM      5  C   UNL     1       1.858  -0.466  -0.093  0.00  0.00    +0.072 C 
ATOM      6  C   UNL     1      -3.072   0.104   0.347  0.00  0.00    +0.051 C 
ATOM      7  C   UNL     1      -0.665  -0.167   0.135  0.00  0.00    +0.075 C 
ATOM      8  C   UNL     1      -0.850  -1.455  -0.352  0.00  0.00    +0.045 C 
ATOM      9  C   UNL     1       1.679  -1.708  -0.578  0.00  0.00    +0.028 C 
ATOM     10  C   UNL     1      -3.253  -1.195  -0.136  0.00  0.00    +0.005 C 
ATOM     11  C   UNL     1      -1.775   0.615   0.483  0.00  0.00    +0.136 C 
ATOM     12  C   UNL     1       0.690   0.388   0.285  0.00  0.00    +0.199 C 
ATOM     13  C   UNL     1       0.307  -2.285  -0.725  0.00  0.00    +0.192 C 
ATOM     14  C   UNL     1      -2.146  -1.972  -0.490  0.00  0.00    +0.003 C 
ATOM     15  C   UNL     1      -4.613  -1.706  -0.255  0.00  0.00    +0.032 C 
ATOM     16  C   UNL     1      -5.638  -1.008   0.260  0.00  0.00    +0.117 C 
ATOM     17  C   UNL     1      -7.047  -1.510   0.219  0.00  0.00    +0.072 C 
ENDROOT
BRANCH   5  20
ATOM     18  O   UNL     1       3.236   1.355  -0.674  0.00  0.00    -0.324 OA
ATOM     19  O   UNL     1       3.300   0.470   1.529  0.00  0.00    -0.324 OA
ATOM     20  C   UNL     1       3.181   0.179   0.135  0.00  0.00    +0.263 C 
ATOM     21  C   UNL     1       4.485   2.037  -0.513  0.00  0.00    +0.176 C 
ATOM     22  C   UNL     1       4.700   2.365   0.969  0.00  0.00    +0.170 C 
ATOM     23  C   UNL     1       4.547   1.101   1.809  0.00  0.00    +0.177 C 
BRANCH  22  24
ATOM     24  O   UNL     1       5.990   2.910   1.198  0.00  0.00    -0.379 OA
ATOM     25  H   UNL     1       6.099   3.716   0.669  0.00  0.00    +0.211 HD
ENDBRANCH  22  24
BRANCH  21  26
ATOM     26  C   UNL     1       4.446   3.284  -1.387  0.00  0.00    +0.169 C 
BRANCH  26  27
ATOM     27  O   UNL     1       4.256   2.888  -2.734  0.00  0.00    -0.379 OA
ATOM     28  H   UNL     1       4.229   3.674  -3.302  0.00  0.00    +0.211 HD
ENDBRANCH  26  27
ENDBRANCH  21  26
ENDBRANCH   5  20
BRANCH  11  29
ATOM     29  O   UNL     1      -1.629   1.884   0.970  0.00  0.00    -0.506 OA
ATOM     30  H   UNL     1      -2.385   2.388   1.196  0.00  0.00    +0.292 HD
ENDBRANCH  11  29
BRANCH   4  31
ATOM     31  C   UNL     1      -4.546   1.998  -0.400  0.00  0.00    +0.048 C 
BRANCH  31  32
ATOM     32  C   UNL     1      -5.790   2.817  -0.077  0.00  0.00    +0.004 C 
ATOM     33  C   UNL     1      -6.037   3.880  -1.135  0.00  0.00    +0.000 C 
ENDBRANCH  31  32
ENDBRANCH   4  31
BRANCH   9  34
ATOM     34  C   UNL     1       2.784  -2.626  -1.030  0.00  0.00    +0.094 C 
BRANCH  34  36
ATOM     35  O   UNL     1       2.781  -3.478   1.242  0.00  0.00    -0.296 OA
ATOM     36  C   UNL     1       3.259  -3.503   0.108  0.00  0.00    +0.156 C 
ATOM     37  C   UNL     1       4.373  -4.457  -0.239  0.00  0.00    +0.073 C 
ENDBRANCH  34  36
ENDBRANCH   9  34
TORSDOF 9
