REMARK  Name = 139586969
REMARK  1 active torsions:
REMARK  status: ('A' for Active; 'I' for Inactive)
REMARK    1  A    between atoms: C_12  and  N_32
REMARK                            x       y       z     vdW  Elec       q    Type
REMARK                         _______ _______ _______ _____ _____    ______ ____
ROOT
ATOM      1  O   UNL     1       2.587   1.500   1.196  0.00  0.00    -0.273 OA
ATOM      2  O   UNL     1       0.371  -3.477  -0.121  0.00  0.00    -0.273 OA
ATOM      3  O   UNL     1      -3.630   1.161   0.640  0.00  0.00    -0.270 OA
ATOM      4  N   UNL     1       1.556  -0.520   1.629  0.00  0.00    -0.272 N 
ATOM      5  N   UNL     1      -0.878  -1.614   0.545  0.00  0.00    -0.282 N 
ATOM      6  N   UNL     1      -1.694   1.294  -0.518  0.00  0.00    -0.255 N 
ATOM      7  C   UNL     1       1.406  -1.962   1.391  0.00  0.00    +0.152 C 
ATOM      8  C   UNL     1       1.179  -2.566   2.788  0.00  0.00    +0.031 C 
ATOM      9  C   UNL     1       1.706  -1.510   3.746  0.00  0.00    +0.024 C 
ATOM     10  C   UNL     1       1.350  -0.217   3.040  0.00  0.00    +0.094 C 
ATOM     11  C   UNL     1       2.164   0.411   0.792  0.00  0.00    +0.244 C 
ATOM     12  C   UNL     1       2.320   0.040  -0.685  0.00  0.00    +0.149 C 
ATOM     13  C   UNL     1       0.258  -2.412   0.488  0.00  0.00    +0.244 C 
ATOM     14  C   UNL     1       1.801   1.176  -1.596  0.00  0.00    +0.035 C 
ATOM     15  C   UNL     1       0.411   1.577  -1.218  0.00  0.00    +0.046 C 
ATOM     16  C   UNL     1      -0.014   2.788  -0.597  0.00  0.00    -0.007 C 
ATOM     17  C   UNL     1      -0.711   0.789  -1.343  0.00  0.00    +0.103 C 
ATOM     18  C   UNL     1      -1.347   2.610  -0.204  0.00  0.00    +0.050 C 
ATOM     19  C   UNL     1      -2.130  -1.899  -0.074  0.00  0.00    +0.055 C 
ATOM     20  C   UNL     1      -3.060  -0.867  -0.326  0.00  0.00    +0.067 C 
ATOM     21  C   UNL     1      -2.808   0.567  -0.051  0.00  0.00    +0.254 C 
ATOM     22  C   UNL     1       0.633   4.006  -0.294  0.00  0.00    -0.003 C 
ATOM     23  C   UNL     1      -2.057   3.636   0.446  0.00  0.00    +0.015 C 
ATOM     24  C   UNL     1      -2.497  -3.209  -0.420  0.00  0.00    +0.015 C 
ATOM     25  C   UNL     1      -0.073   5.026   0.349  0.00  0.00    -0.000 C 
ATOM     26  C   UNL     1      -1.402   4.843   0.707  0.00  0.00    +0.001 C 
ATOM     27  C   UNL     1      -4.312  -1.153  -0.894  0.00  0.00    +0.006 C 
ATOM     28  C   UNL     1      -3.742  -3.485  -0.995  0.00  0.00    +0.001 C 
ATOM     29  C   UNL     1      -4.649  -2.459  -1.230  0.00  0.00    +0.000 C 
ATOM     30  H   UNL     1      -0.812  -0.777   1.059  0.00  0.00    +0.155 HD
ENDROOT
BRANCH  12  32
ATOM     31  O   UNL     1       3.563  -1.754  -2.600  0.00  0.00    -0.275 OA
ATOM     32  N   UNL     1       3.729  -0.180  -0.892  0.00  0.00    -0.298 N 
ATOM     33  C   UNL     1       4.231  -1.062  -1.837  0.00  0.00    +0.223 C 
ATOM     34  C   UNL     1       5.737  -1.080  -1.861  0.00  0.00    +0.095 C 
ATOM     35  H   UNL     1       4.367   0.322  -0.335  0.00  0.00    +0.150 HD
ENDBRANCH  12  32
TORSDOF 1
