REMARK  Name = 139584693
REMARK  16 active torsions:
REMARK  status: ('A' for Active; 'I' for Inactive)
REMARK    1  A    between atoms: C_4  and  C_21
REMARK    2  A    between atoms: C_5  and  O_14
REMARK    3  A    between atoms: C_6  and  O_16
REMARK    4  A    between atoms: C_9  and  C_26
REMARK    5  A    between atoms: C_12  and  O_18
REMARK    6  A    between atoms: C_21  and  C_22
REMARK    7  A    between atoms: C_22  and  C_23
REMARK    8  A    between atoms: C_23  and  O_24
REMARK    9  A    between atoms: C_26  and  C_28
REMARK   10  A    between atoms: C_28  and  C_29
REMARK   11  A    between atoms: C_29  and  C_30
REMARK   12  A    between atoms: C_30  and  C_31
REMARK   13  A    between atoms: C_31  and  C_32
REMARK   14  A    between atoms: C_32  and  C_33
REMARK   15  A    between atoms: C_33  and  C_34
REMARK   16  A    between atoms: C_34  and  C_35
REMARK                            x       y       z     vdW  Elec       q    Type
REMARK                         _______ _______ _______ _____ _____    ______ ____
ROOT
ATOM      1  O   UNL     1      -2.790  -3.268  -1.047  0.00  0.00    -0.288 OA
ATOM      2  C   UNL     1      -3.224   0.064   0.343  0.00  0.00    +0.047 C 
ATOM      3  C   UNL     1      -3.296  -1.470   0.477  0.00  0.00    +0.095 C 
ATOM      4  C   UNL     1      -1.734   0.553   0.290  0.00  0.00    +0.072 C 
ATOM      5  C   UNL     1      -4.087   0.724   1.455  0.00  0.00    +0.112 C 
ATOM      6  C   UNL     1      -4.753  -1.983   0.467  0.00  0.00    +0.118 C 
ATOM      7  C   UNL     1      -5.570  -1.326   1.591  0.00  0.00    +0.030 C 
ATOM      8  C   UNL     1      -5.525   0.199   1.461  0.00  0.00    +0.032 C 
ATOM      9  C   UNL     1      -0.889  -0.269  -0.696  0.00  0.00    -0.002 C 
ATOM     10  C   UNL     1      -2.491  -2.151  -0.621  0.00  0.00    +0.208 C 
ATOM     11  C   UNL     1      -1.062   0.559   1.675  0.00  0.00    +0.012 C 
ATOM     12  C   UNL     1      -1.266  -1.486  -1.142  0.00  0.00    +0.161 C 
ATOM     13  C   UNL     1      -7.021  -1.811   1.616  0.00  0.00    +0.003 C 
ENDROOT
BRANCH   5  14
ATOM     14  O   UNL     1      -4.168   2.135   1.282  0.00  0.00    -0.384 OA
ATOM     15  H   UNL     1      -3.274   2.512   1.272  0.00  0.00    +0.210 HD
ENDBRANCH   5  14
BRANCH   6  16
ATOM     16  O   UNL     1      -5.338  -1.691  -0.804  0.00  0.00    -0.384 OA
ATOM     17  H   UNL     1      -4.814  -2.111  -1.505  0.00  0.00    +0.210 HD
ENDBRANCH   6  16
BRANCH  12  18
ATOM     18  O   UNL     1      -0.570  -2.222  -2.081  0.00  0.00    -0.503 OA
ATOM     19  H   UNL     1       0.214  -1.877  -2.460  0.00  0.00    +0.292 HD
ENDBRANCH  12  18
BRANCH   4  21
ATOM     20  O   UNL     1      -2.191   2.190  -1.391  0.00  0.00    -0.296 OA
ATOM     21  C   UNL     1      -1.738   1.958  -0.272  0.00  0.00    +0.156 C 
BRANCH  21  22
ATOM     22  C   UNL     1      -1.155   3.038   0.625  0.00  0.00    +0.096 C 
BRANCH  22  23
ATOM     23  C   UNL     1      -1.206   4.424  -0.002  0.00  0.00    +0.145 C 
BRANCH  23  24
ATOM     24  O   UNL     1      -0.485   4.441  -1.227  0.00  0.00    -0.382 OA
ATOM     25  H   UNL     1      -0.527   5.329  -1.614  0.00  0.00    +0.210 HD
ENDBRANCH  23  24
ENDBRANCH  22  23
ENDBRANCH  21  22
ENDBRANCH   4  21
BRANCH   9  26
ATOM     26  C   UNL     1       0.424   0.345  -1.149  0.00  0.00    +0.022 C 
ATOM     27  C   UNL     1       0.371   0.554  -2.656  0.00  0.00    +0.004 C 
BRANCH  26  28
ATOM     28  C   UNL     1       1.624  -0.526  -0.755  0.00  0.00    +0.004 C 
BRANCH  28  29
ATOM     29  C   UNL     1       2.949   0.247  -0.723  0.00  0.00    +0.000 C 
BRANCH  29  30
ATOM     30  C   UNL     1       4.150  -0.620  -0.331  0.00  0.00    +0.000 C 
BRANCH  30  31
ATOM     31  C   UNL     1       5.462   0.163  -0.230  0.00  0.00    +0.000 C 
BRANCH  31  32
ATOM     32  C   UNL     1       6.607  -0.739   0.237  0.00  0.00    +0.000 C 
BRANCH  32  33
ATOM     33  C   UNL     1       7.955  -0.016   0.328  0.00  0.00    +0.000 C 
BRANCH  33  34
ATOM     34  C   UNL     1       9.084  -0.898   0.865  0.00  0.00    +0.000 C 
BRANCH  34  35
ATOM     35  C   UNL     1      10.406  -0.129   0.922  0.00  0.00    +0.000 C 
ATOM     36  C   UNL     1      11.525  -0.987   1.490  0.00  0.00    +0.000 C 
ENDBRANCH  34  35
ENDBRANCH  33  34
ENDBRANCH  32  33
ENDBRANCH  31  32
ENDBRANCH  30  31
ENDBRANCH  29  30
ENDBRANCH  28  29
ENDBRANCH  26  28
ENDBRANCH   9  26
TORSDOF 16
