139589003
  -OEChem-03292013293D

 58 58  0     1  0  0  0  0  0999 V2000
    0.5376   -1.4612    0.2249 O   0  0  0  0  0  0  0  0  0  0  0  0
   -1.5262    1.4361    0.6726 O   0  0  0  0  0  0  0  0  0  0  0  0
    4.1695    2.5497    0.8477 O   0  0  0  0  0  0  0  0  0  0  0  0
   -5.3840    0.7475   -1.0408 O   0  0  0  0  0  0  0  0  0  0  0  0
   -6.2980    0.8711    1.0189 O   0  0  0  0  0  0  0  0  0  0  0  0
    6.2308    1.2847    2.0538 O   0  0  0  0  0  0  0  0  0  0  0  0
    0.3776    0.5182   -0.9637 N   0  0  0  0  0  0  0  0  0  0  0  0
   -3.0456   -0.0907   -0.2107 N   0  0  0  0  0  0  0  0  0  0  0  0
    4.9764    0.6734    1.9252 N   0  0  0  0  0  0  0  0  0  0  0  0
   -1.0061    0.3470   -1.3871 C   0  0  2  0  0  0  0  0  0  0  0  0
   -1.2010    1.3728   -2.4974 C   0  0  0  0  0  0  0  0  0  0  0  0
    0.9571    1.7313   -1.5350 C   0  0  0  0  0  0  0  0  0  0  0  0
   -0.2230    2.4856   -2.1283 C   0  0  0  0  0  0  0  0  0  0  0  0
    2.5318   -0.1870   -0.0372 C   0  0  2  0  0  0  0  0  0  0  0  0
    1.0610   -0.4486   -0.2428 C   0  0  0  0  0  0  0  0  0  0  0  0
    3.2970   -1.5153    0.0874 C   0  0  0  0  0  0  0  0  0  0  0  0
   -1.8708    0.6418   -0.1986 C   0  0  0  0  0  0  0  0  0  0  0  0
    3.2257   -2.4244   -1.1582 C   0  0  0  0  0  0  0  0  0  0  0  0
    2.6852    0.6712    1.2262 C   0  0  0  0  0  0  0  0  0  0  0  0
   -4.0406   -0.0064    0.8339 C   0  0  2  0  0  0  0  0  0  0  0  0
   -4.1998   -1.3841    1.5123 C   0  0  0  0  0  0  0  0  0  0  0  0
    3.8005   -1.7522   -2.4059 C   0  0  0  0  0  0  0  0  0  0  0  0
    3.9780   -3.7305   -0.8858 C   0  0  0  0  0  0  0  0  0  0  0  0
    4.0082    1.4167    1.2933 C   0  0  0  0  0  0  0  0  0  0  0  0
   -2.8809   -1.8974    2.0968 C   0  0  0  0  0  0  0  0  0  0  0  0
   -4.8192   -2.4414    0.5933 C   0  0  0  0  0  0  0  0  0  0  0  0
   -5.3412    0.5919    0.3054 C   0  0  0  0  0  0  0  0  0  0  0  0
   -1.1615   -0.6801   -1.7351 H   0  0  0  0  0  0  0  0  0  0  0  0
   -2.2288    1.7378   -2.5855 H   0  0  0  0  0  0  0  0  0  0  0  0
   -0.9066    0.9378   -3.4603 H   0  0  0  0  0  0  0  0  0  0  0  0
    1.6569    1.4344   -2.3239 H   0  0  0  0  0  0  0  0  0  0  0  0
    1.4892    2.3176   -0.7829 H   0  0  0  0  0  0  0  0  0  0  0  0
    0.0611    3.1032   -2.9849 H   0  0  0  0  0  0  0  0  0  0  0  0
   -0.6707    3.1414   -1.3723 H   0  0  0  0  0  0  0  0  0  0  0  0
    2.9532    0.3588   -0.8850 H   0  0  0  0  0  0  0  0  0  0  0  0
    2.9301   -2.0757    0.9578 H   0  0  0  0  0  0  0  0  0  0  0  0
    4.3548   -1.3059    0.2839 H   0  0  0  0  0  0  0  0  0  0  0  0
    2.1822   -2.6878   -1.3651 H   0  0  0  0  0  0  0  0  0  0  0  0
    1.8965    1.4307    1.2952 H   0  0  0  0  0  0  0  0  0  0  0  0
    2.5673    0.0538    2.1266 H   0  0  0  0  0  0  0  0  0  0  0  0
   -3.2535   -0.6748   -1.0154 H   0  0  0  0  0  0  0  0  0  0  0  0
   -3.6807    0.7108    1.5826 H   0  0  0  0  0  0  0  0  0  0  0  0
   -4.8972   -1.2517    2.3509 H   0  0  0  0  0  0  0  0  0  0  0  0
    4.8211   -1.3953   -2.2312 H   0  0  0  0  0  0  0  0  0  0  0  0
    3.1881   -0.9013   -2.7190 H   0  0  0  0  0  0  0  0  0  0  0  0
    3.8281   -2.4535   -3.2471 H   0  0  0  0  0  0  0  0  0  0  0  0
    5.0394   -3.5451   -0.6889 H   0  0  0  0  0  0  0  0  0  0  0  0
    3.5565   -4.2482   -0.0176 H   0  0  0  0  0  0  0  0  0  0  0  0
    3.9059   -4.4077   -1.7436 H   0  0  0  0  0  0  0  0  0  0  0  0
   -5.7939   -2.1187    0.2142 H   0  0  0  0  0  0  0  0  0  0  0  0
   -4.9747   -3.3788    1.1386 H   0  0  0  0  0  0  0  0  0  0  0  0
   -4.1748   -2.6606   -0.2642 H   0  0  0  0  0  0  0  0  0  0  0  0
   -2.4277   -1.1480    2.7541 H   0  0  0  0  0  0  0  0  0  0  0  0
   -3.0515   -2.8014    2.6916 H   0  0  0  0  0  0  0  0  0  0  0  0
   -2.1584   -2.1493    1.3137 H   0  0  0  0  0  0  0  0  0  0  0  0
    4.9010   -0.2896    2.2314 H   0  0  0  0  0  0  0  0  0  0  0  0
   -6.2443    1.1112   -1.3405 H   0  0  0  0  0  0  0  0  0  0  0  0
    6.1601    1.6329    2.9588 H   0  0  0  0  0  0  0  0  0  0  0  0
  1 15  2  0  0  0  0
  2 17  2  0  0  0  0
  3 24  2  0  0  0  0
  4 27  1  0  0  0  0
  4 57  1  0  0  0  0
  5 27  2  0  0  0  0
  6  9  1  0  0  0  0
  6 58  1  0  0  0  0
  7 10  1  0  0  0  0
  7 12  1  0  0  0  0
  7 15  1  0  0  0  0
  8 17  1  0  0  0  0
  8 20  1  0  0  0  0
  8 41  1  0  0  0  0
  9 24  1  0  0  0  0
  9 56  1  0  0  0  0
 10 11  1  0  0  0  0
 10 17  1  0  0  0  0
 10 28  1  0  0  0  0
 11 13  1  0  0  0  0
 11 29  1  0  0  0  0
 11 30  1  0  0  0  0
 12 13  1  0  0  0  0
 12 31  1  0  0  0  0
 12 32  1  0  0  0  0
 13 33  1  0  0  0  0
 13 34  1  0  0  0  0
 14 15  1  0  0  0  0
 14 16  1  0  0  0  0
 14 19  1  0  0  0  0
 14 35  1  0  0  0  0
 16 18  1  0  0  0  0
 16 36  1  0  0  0  0
 16 37  1  0  0  0  0
 18 22  1  0  0  0  0
 18 23  1  0  0  0  0
 18 38  1  0  0  0  0
 19 24  1  0  0  0  0
 19 39  1  0  0  0  0
 19 40  1  0  0  0  0
 20 21  1  0  0  0  0
 20 27  1  0  0  0  0
 20 42  1  0  0  0  0
 21 25  1  0  0  0  0
 21 26  1  0  0  0  0
 21 43  1  0  0  0  0
 22 44  1  0  0  0  0
 22 45  1  0  0  0  0
 22 46  1  0  0  0  0
 23 47  1  0  0  0  0
 23 48  1  0  0  0  0
 23 49  1  0  0  0  0
 25 53  1  0  0  0  0
 25 54  1  0  0  0  0
 25 55  1  0  0  0  0
 26 50  1  0  0  0  0
 26 51  1  0  0  0  0
 26 52  1  0  0  0  0
M  END
> <PUBCHEM_COMPOUND_CID>
139589003

> <PUBCHEM_CONFORMER_RMSD>
1.2

> <PUBCHEM_CONFORMER_DIVERSEORDER>
1
7
32
28
24
39
15
57
30
46
54
49
21
33
55
56
16
9
43
40
48
26
22
23
5
61
25
50
6
60
4
58
45
31
59
41
19
47
53
10
14
20
52
42
35
38
8
34
18
36
2
27
37
11
17
3
12
29
13
44
51

> <PUBCHEM_MMFF94_PARTIAL_CHARGES>
22
1 -0.57
10 0.36
12 0.3
14 0.06
15 0.57
17 0.57
19 0.06
2 -0.57
20 0.36
24 0.57
27 0.66
3 -0.57
4 -0.65
41 0.37
5 -0.57
56 0.37
57 0.5
58 0.4
6 -0.44
7 -0.66
8 -0.73
9 -0.39

> <PUBCHEM_EFFECTIVE_ROTOR_COUNT>
13

> <PUBCHEM_PHARMACOPHORE_FEATURES>
12
1 1 acceptor
1 2 acceptor
1 3 acceptor
1 4 acceptor
1 5 acceptor
1 8 donor
1 9 donor
3 18 22 23 hydrophobe
3 21 25 26 hydrophobe
3 4 5 27 anion
4 14 16 18 19 hydrophobe
5 7 10 11 12 13 rings

> <PUBCHEM_HEAVY_ATOM_COUNT>
27

> <PUBCHEM_ATOM_DEF_STEREO_COUNT>
3

> <PUBCHEM_ATOM_UDEF_STEREO_COUNT>
0

> <PUBCHEM_BOND_DEF_STEREO_COUNT>
0

> <PUBCHEM_BOND_UDEF_STEREO_COUNT>
0

> <PUBCHEM_ISOTOPIC_ATOM_COUNT>
0

> <PUBCHEM_COMPONENT_COUNT>
1

> <PUBCHEM_CACTVS_TAUTO_COUNT>
-1

> <PUBCHEM_CONFORMER_ID>
0851F58B00000001

> <PUBCHEM_MMFF94_ENERGY>
55.7585

> <PUBCHEM_FEATURE_SELFOVERLAP>
60.985

> <PUBCHEM_SHAPE_FINGERPRINT>
10369192 42 18269832177077836676
11370993 144 18271810069092551865
12422481 6 18263356044493210746
12553582 1 17458070352539834435
12644460 14 16988851566315483958
12788726 201 16660932058622212461
12892183 10 18202569479421292849
13533116 47 18272094838182831223
13583140 156 17489019483047528075
13673619 4 18195540186006199102
14022347 108 17458637682848129746
15238133 3 16443344239503036377
17913733 40 17917706950862854570
1813 80 17240488017978241469
18222031 100 18113627759268319319
20600515 1 17894633698921107265
21033648 29 18411991277568620467
22182313 1 18189038820700141092
23557571 272 18041558032011200716
23559900 14 18334872601152831943
3004659 81 15575000528872514490
463206 1 16370720461179852825
5104073 3 18202293480987009499
6823239 73 18114760281840730374
9658208 31 17465367621649982284
9709674 26 17824562965909025307

> <PUBCHEM_SHAPE_MULTIPOLES>
505.49
12.82
3.09
2.32
6.46
1.52
-0.26
2.24
6.32
-2.16
-0.99
-2.38
-0.52
4.06

> <PUBCHEM_SHAPE_SELFOVERLAP>
1009.284

> <PUBCHEM_SHAPE_VOLUME>
298.1

> <PUBCHEM_COORDINATE_TYPE>
2
5
10

$$$$
