REMARK  Name = 139585158
REMARK  4 active torsions:
REMARK  status: ('A' for Active; 'I' for Inactive)
REMARK    1  A    between atoms: C_9  and  O_32
REMARK    2  A    between atoms: C_11  and  O_34
REMARK    3  A    between atoms: C_12  and  O_36
REMARK    4  A    between atoms: C_23  and  C_38
REMARK                            x       y       z     vdW  Elec       q    Type
REMARK                         _______ _______ _______ _____ _____    ______ ____
ROOT
ATOM      1  O   UNL     1       2.814   0.732  -0.768  0.00  0.00    -0.445 OA
ATOM      2  O   UNL     1       0.079  -1.122   0.312  0.00  0.00    -0.287 OA
ATOM      3  O   UNL     1       2.097   2.104  -2.445  0.00  0.00    -0.245 OA
ATOM      4  C   UNL     1      -2.556  -0.019  -0.342  0.00  0.00    +0.016 C 
ATOM      5  C   UNL     1      -2.060   1.380  -0.842  0.00  0.00    +0.055 C 
ATOM      6  C   UNL     1      -4.046  -0.029   0.110  0.00  0.00    +0.049 C 
ATOM      7  C   UNL     1      -2.341   2.445   0.317  0.00  0.00    +0.033 C 
ATOM      8  C   UNL     1      -2.411  -1.182  -1.358  0.00  0.00    +0.030 C 
ATOM      9  C   UNL     1      -4.314  -1.266   1.001  0.00  0.00    +0.117 C 
ATOM     10  C   UNL     1      -3.398  -2.469   0.644  0.00  0.00    +0.054 C 
ATOM     11  C   UNL     1      -3.050  -2.498  -0.858  0.00  0.00    +0.113 C 
ATOM     12  C   UNL     1      -0.583   1.525  -1.333  0.00  0.00    +0.120 C 
ATOM     13  C   UNL     1      -4.515   1.249   0.752  0.00  0.00    -0.029 C 
ATOM     14  C   UNL     1       2.345  -0.312   0.132  0.00  0.00    +0.194 C 
ATOM     15  C   UNL     1      -2.948   1.779  -2.084  0.00  0.00    +0.008 C 
ATOM     16  C   UNL     1      -3.774   2.363   0.810  0.00  0.00    -0.030 C 
ATOM     17  C   UNL     1       2.744   0.041   1.602  0.00  0.00    +0.062 C 
ATOM     18  C   UNL     1      -1.497   2.393   1.628  0.00  0.00    +0.030 C 
ATOM     19  C   UNL     1       0.545   0.823  -1.065  0.00  0.00    +0.143 C 
ATOM     20  C   UNL     1       2.989  -1.624  -0.338  0.00  0.00    +0.052 C 
ATOM     21  C   UNL     1       0.856  -0.308  -0.150  0.00  0.00    +0.218 C 
ATOM     22  C   UNL     1      -3.954  -3.809   1.134  0.00  0.00    +0.005 C 
ATOM     23  C   UNL     1       4.535  -1.596  -0.248  0.00  0.00    +0.022 C 
ATOM     24  C   UNL     1       2.279   1.478   2.033  0.00  0.00    +0.033 C 
ATOM     25  C   UNL     1       4.265  -0.033   1.715  0.00  0.00    -0.031 C 
ATOM     26  C   UNL     1       5.064  -0.757   0.907  0.00  0.00    -0.048 C 
ATOM     27  C   UNL     1      -0.002   2.464   1.520  0.00  0.00    -0.030 C 
ATOM     28  C   UNL     1       1.865   1.315  -1.548  0.00  0.00    +0.347 C 
ATOM     29  C   UNL     1       2.228  -1.007   2.623  0.00  0.00    +0.009 C 
ATOM     30  C   UNL     1       0.788   1.615   2.196  0.00  0.00    -0.030 C 
ATOM     31  C   UNL     1       6.547  -0.813   1.160  0.00  0.00    +0.026 C 
ENDROOT
BRANCH   9  32
ATOM     32  O   UNL     1      -5.695  -1.605   0.853  0.00  0.00    -0.384 OA
ATOM     33  H   UNL     1      -6.242  -0.837   1.082  0.00  0.00    +0.210 HD
ENDBRANCH   9  32
BRANCH  11  34
ATOM     34  O   UNL     1      -4.224  -2.736  -1.636  0.00  0.00    -0.384 OA
ATOM     35  H   UNL     1      -3.991  -2.753  -2.577  0.00  0.00    +0.210 HD
ENDBRANCH  11  34
BRANCH  12  36
ATOM     36  O   UNL     1      -0.491   2.678  -2.129  0.00  0.00    -0.509 OA
ATOM     37  H   UNL     1      -1.260   3.175  -2.325  0.00  0.00    +0.292 HD
ENDBRANCH  12  36
BRANCH  23  38
ATOM     38  C   UNL     1       5.150  -1.159  -1.586  0.00  0.00    +0.004 C 
ATOM     39  C   UNL     1       4.672  -2.041  -2.719  0.00  0.00    +0.000 C 
ENDBRANCH  23  38
TORSDOF 4
