139588938
  -OEChem-03292013293D

 40 42  0     1  0  0  0  0  0999 V2000
   -1.3674    0.1062    1.5989 S   0  0  0  0  0  0  0  0  0  0  0  0
    1.9294   -2.6804    0.3869 S   0  0  0  0  0  0  0  0  0  0  0  0
   -5.3472    1.3122    0.2966 O   0  0  0  0  0  0  0  0  0  0  0  0
   -4.5635   -0.7753    0.7698 O   0  0  0  0  0  0  0  0  0  0  0  0
    1.8288    1.8077    0.5560 O   0  0  0  0  0  0  0  0  0  0  0  0
   -2.3169   -0.2457   -0.8712 N   0  0  1  0  0  0  0  0  0  0  0  0
    0.6683   -0.5161   -0.3064 N   0  0  0  0  0  0  0  0  0  0  0  0
   -3.1058    0.8569   -0.2828 C   0  0  1  0  0  0  0  0  0  0  0  0
   -1.6677   -1.0209    0.1962 C   0  0  1  0  0  0  0  0  0  0  0  0
   -0.3341   -1.6030   -0.2625 C   0  0  2  0  0  0  0  0  0  0  0  0
   -2.2359    1.4858    0.8159 C   0  0  0  0  0  0  0  0  0  0  0  0
   -3.4495    1.9271   -1.3278 C   0  0  0  0  0  0  0  0  0  0  0  0
    0.1524   -2.7004    0.6745 C   0  0  0  0  0  0  0  0  0  0  0  0
   -3.0230   -1.0856   -1.8340 C   0  0  0  0  0  0  0  0  0  0  0  0
   -4.3943    0.3486    0.3209 C   0  0  0  0  0  0  0  0  0  0  0  0
    1.8483   -0.9845   -0.0475 C   0  0  0  0  0  0  0  0  0  0  0  0
    3.0692   -0.1452   -0.0780 C   0  0  0  0  0  0  0  0  0  0  0  0
    3.0107    1.2151    0.2250 C   0  0  0  0  0  0  0  0  0  0  0  0
    4.2882   -0.7323   -0.4169 C   0  0  0  0  0  0  0  0  0  0  0  0
    4.1711    1.9882    0.1891 C   0  0  0  0  0  0  0  0  0  0  0  0
    5.4487    0.0408   -0.4529 C   0  0  0  0  0  0  0  0  0  0  0  0
    5.3902    1.4010   -0.1498 C   0  0  0  0  0  0  0  0  0  0  0  0
   -2.3235   -1.8249    0.5500 H   0  0  0  0  0  0  0  0  0  0  0  0
   -0.4261   -2.0266   -1.2714 H   0  0  0  0  0  0  0  0  0  0  0  0
   -1.4829    2.1649    0.4012 H   0  0  0  0  0  0  0  0  0  0  0  0
   -2.8206    2.0258    1.5672 H   0  0  0  0  0  0  0  0  0  0  0  0
   -2.5600    2.2032   -1.9076 H   0  0  0  0  0  0  0  0  0  0  0  0
   -3.8144    2.8512   -0.8625 H   0  0  0  0  0  0  0  0  0  0  0  0
   -4.2128    1.5913   -2.0391 H   0  0  0  0  0  0  0  0  0  0  0  0
   -0.0293   -2.4860    1.7313 H   0  0  0  0  0  0  0  0  0  0  0  0
   -0.2857   -3.6728    0.4327 H   0  0  0  0  0  0  0  0  0  0  0  0
   -3.4789   -0.4850   -2.6273 H   0  0  0  0  0  0  0  0  0  0  0  0
   -3.8039   -1.7060   -1.3842 H   0  0  0  0  0  0  0  0  0  0  0  0
   -2.3272   -1.7604   -2.3431 H   0  0  0  0  0  0  0  0  0  0  0  0
   -6.1930    1.0008    0.6837 H   0  0  0  0  0  0  0  0  0  0  0  0
    4.3722   -1.7824   -0.6808 H   0  0  0  0  0  0  0  0  0  0  0  0
    4.1403    3.0492    0.4222 H   0  0  0  0  0  0  0  0  0  0  0  0
    6.3973   -0.4149   -0.7217 H   0  0  0  0  0  0  0  0  0  0  0  0
    6.2936    2.0031   -0.1791 H   0  0  0  0  0  0  0  0  0  0  0  0
    1.9845    2.7517    0.7311 H   0  0  0  0  0  0  0  0  0  0  0  0
  1  9  1  0  0  0  0
  1 11  1  0  0  0  0
  2 13  1  0  0  0  0
  2 16  1  0  0  0  0
  3 15  1  0  0  0  0
  3 35  1  0  0  0  0
  4 15  2  0  0  0  0
  5 18  1  0  0  0  0
  5 40  1  0  0  0  0
  6  8  1  0  0  0  0
  6  9  1  0  0  0  0
  6 14  1  0  0  0  0
  7 10  1  0  0  0  0
  7 16  2  0  0  0  0
  8 11  1  0  0  0  0
  8 12  1  0  0  0  0
  8 15  1  0  0  0  0
  9 10  1  0  0  0  0
  9 23  1  0  0  0  0
 10 13  1  0  0  0  0
 10 24  1  0  0  0  0
 11 25  1  0  0  0  0
 11 26  1  0  0  0  0
 12 27  1  0  0  0  0
 12 28  1  0  0  0  0
 12 29  1  0  0  0  0
 13 30  1  0  0  0  0
 13 31  1  0  0  0  0
 14 32  1  0  0  0  0
 14 33  1  0  0  0  0
 14 34  1  0  0  0  0
 16 17  1  0  0  0  0
 17 18  1  0  0  0  0
 17 19  2  0  0  0  0
 18 20  2  0  0  0  0
 19 21  1  0  0  0  0
 19 36  1  0  0  0  0
 20 22  1  0  0  0  0
 20 37  1  0  0  0  0
 21 22  2  0  0  0  0
 21 38  1  0  0  0  0
 22 39  1  0  0  0  0
M  END
> <PUBCHEM_COMPOUND_CID>
139588938

> <PUBCHEM_CONFORMER_RMSD>
0.8

> <PUBCHEM_CONFORMER_DIVERSEORDER>
1
34
12
8
36
29
19
35
26
6
16
30
14
10
27
11
7
33
24
32
13
17
21
31
15
5
37
9
28
20
2
18
4
25
23
22
3

> <PUBCHEM_MMFF94_PARTIAL_CHARGES>
27
1 -0.46
10 0.25
11 0.23
13 0.23
14 0.27
15 0.66
16 0.5
17 0.09
18 0.08
19 -0.15
2 -0.37
20 -0.15
21 -0.15
22 -0.15
3 -0.65
35 0.5
36 0.15
37 0.15
38 0.15
39 0.15
4 -0.57
40 0.45
5 -0.53
6 -0.81
7 -0.7
8 0.33
9 0.5

> <PUBCHEM_EFFECTIVE_ROTOR_COUNT>
4.6

> <PUBCHEM_PHARMACOPHORE_FEATURES>
9
1 3 acceptor
1 4 acceptor
1 5 donor
1 6 cation
1 7 acceptor
3 3 4 15 anion
5 1 6 8 9 11 rings
5 2 7 10 13 16 rings
6 17 18 19 20 21 22 rings

> <PUBCHEM_HEAVY_ATOM_COUNT>
22

> <PUBCHEM_ATOM_DEF_STEREO_COUNT>
3

> <PUBCHEM_ATOM_UDEF_STEREO_COUNT>
0

> <PUBCHEM_BOND_DEF_STEREO_COUNT>
0

> <PUBCHEM_BOND_UDEF_STEREO_COUNT>
0

> <PUBCHEM_ISOTOPIC_ATOM_COUNT>
0

> <PUBCHEM_COMPONENT_COUNT>
1

> <PUBCHEM_CACTVS_TAUTO_COUNT>
-1

> <PUBCHEM_CONFORMER_ID>
0851F54A00000001

> <PUBCHEM_MMFF94_ENERGY>
66.7055

> <PUBCHEM_FEATURE_SELFOVERLAP>
45.727

> <PUBCHEM_SHAPE_FINGERPRINT>
10498660 4 18410288103781362228
11578080 2 16806995543085157589
11796584 16 13973965389717355900
12236239 1 17917994957835637579
12363563 72 10952053385557584878
12403259 415 18187085009764362909
12730499 353 18335430040684539019
12769317 202 18338787927778828880
12788726 201 17059215826642652945
12892183 10 13118273776783506382
13009979 54 17199111007302427498
13402501 40 18335139791026507652
14787075 74 18341049718124379163
15196674 1 18413108385445019592
16988056 13 13166780660466825690
18186145 218 18343575248524094870
19784866 240 9439401341644614363
19862831 5 17989204850157732250
200 152 16917068871358740384
20374829 77 11024113126709843670
21033648 29 18334848442109998024
21033650 10 14619699785649779754
21279426 13 18265899060612494518
21524375 3 18410579495858729714
21864079 5 18336536140659946732
221357 26 18201721730271142572
22393880 68 18343011186369342436
231179 274 18335421244981562254
23227448 37 18341612654865662687
23402539 116 18130785689595860382
23402655 69 18131351908145974868
23558518 356 17755863370412971754
23559900 14 18047746001637533531
25 1 18409445882390966618
283562 15 17901381517861969746
335352 9 18410577276220247278
350125 39 18192159410666859786
351380 180 18412547613150780720
3545911 37 18412831295782717038
4028521 119 18341894099740633212
4325135 7 18271806852478805191
474 4 18410294713746242458
5104073 3 18042413443694399715
59755656 520 18187365449976331962
633830 44 18412541029071534774
7226269 152 18343295990626417192
7808743 9 18116998999674850196
9981440 41 18337663235032454626
9996256 80 18341614866626477639

> <PUBCHEM_SHAPE_MULTIPOLES>
432.88
11.19
2.53
1.16
3.24
0.81
0.13
-5.67
1.21
0.9
-0.2
-1.12
0.02
0.1

> <PUBCHEM_SHAPE_SELFOVERLAP>
902.359

> <PUBCHEM_SHAPE_VOLUME>
249.5

> <PUBCHEM_COORDINATE_TYPE>
2
5
10

$$$$
