REMARK  Name = 139585566
REMARK  3 active torsions:
REMARK  status: ('A' for Active; 'I' for Inactive)
REMARK    1  A    between atoms: C_6  and  C_27
REMARK    2  A    between atoms: C_14  and  O_32
REMARK    3  A    between atoms: C_18  and  O_34
REMARK                            x       y       z     vdW  Elec       q    Type
REMARK                         _______ _______ _______ _____ _____    ______ ____
ROOT
ATOM      1  O   UNL     1       1.362   3.119   0.886  0.00  0.00    -0.296 OA
ATOM      2  O   UNL     1      -0.801  -2.969   0.453  0.00  0.00    -0.292 OA
ATOM      3  C   UNL     1       1.726  -0.343   0.339  0.00  0.00    +0.020 C 
ATOM      4  C   UNL     1       0.788   0.728   0.978  0.00  0.00    +0.069 C 
ATOM      5  C   UNL     1      -2.623  -0.764  -0.343  0.00  0.00    +0.021 C 
ATOM      6  C   UNL     1       3.111   0.004   0.946  0.00  0.00    +0.045 C 
ATOM      7  C   UNL     1      -3.404   0.578  -0.039  0.00  0.00    +0.009 C 
ATOM      8  C   UNL     1      -0.572   0.621   0.313  0.00  0.00    -0.013 C 
ATOM      9  C   UNL     1      -1.157  -0.599   0.157  0.00  0.00    +0.007 C 
ATOM     10  C   UNL     1      -4.958   0.588  -0.287  0.00  0.00    +0.025 C 
ATOM     11  C   UNL     1       1.188  -1.718   0.714  0.00  0.00    +0.070 C 
ATOM     12  C   UNL     1      -2.663   1.760  -0.670  0.00  0.00    +0.034 C 
ATOM     13  C   UNL     1       3.180   1.536   0.820  0.00  0.00    +0.068 C 
ATOM     14  C   UNL     1      -1.259   1.908  -0.082  0.00  0.00    +0.129 C 
ATOM     15  C   UNL     1       1.717   1.947   0.863  0.00  0.00    +0.153 C 
ATOM     16  C   UNL     1      -3.394  -1.907   0.377  0.00  0.00    +0.007 C 
ATOM     17  C   UNL     1      -0.310  -1.840   0.442  0.00  0.00    +0.169 C 
ATOM     18  C   UNL     1      -5.582  -0.640   0.428  0.00  0.00    +0.110 C 
ATOM     19  C   UNL     1       1.792  -0.250  -1.221  0.00  0.00    +0.001 C 
ATOM     20  C   UNL     1       0.548   0.608   2.510  0.00  0.00    +0.012 C 
ATOM     21  C   UNL     1      -4.890  -1.948   0.077  0.00  0.00    +0.030 C 
ATOM     22  C   UNL     1      -2.497  -1.113  -1.844  0.00  0.00    +0.004 C 
ATOM     23  C   UNL     1      -5.581   1.856   0.366  0.00  0.00    +0.002 C 
ATOM     24  C   UNL     1      -5.362   0.642  -1.775  0.00  0.00    +0.002 C 
ENDROOT
BRANCH   6  27
ATOM     25  O   UNL     1       4.440  -0.261  -1.048  0.00  0.00    -0.456 OA
ATOM     26  O   UNL     1       6.165   0.181  -2.495  0.00  0.00    -0.250 OA
ATOM     27  C   UNL     1       4.322  -0.683   0.322  0.00  0.00    +0.137 C 
ATOM     28  C   UNL     1       5.625  -0.229   0.960  0.00  0.00    +0.052 C 
ATOM     29  C   UNL     1       4.149  -2.204   0.353  0.00  0.00    +0.044 C 
ATOM     30  C   UNL     1       6.620  -0.339  -0.173  0.00  0.00    +0.113 C 
ATOM     31  C   UNL     1       5.758  -0.096  -1.377  0.00  0.00    +0.317 C 
ENDBRANCH   6  27
BRANCH  14  32
ATOM     32  O   UNL     1      -0.469   2.580  -1.064  0.00  0.00    -0.380 OA
ATOM     33  H   UNL     1       0.434   2.695  -0.729  0.00  0.00    +0.211 HD
ENDBRANCH  14  32
BRANCH  18  34
ATOM     34  O   UNL     1      -6.970  -0.754   0.114  0.00  0.00    -0.384 OA
ATOM     35  H   UNL     1      -7.421   0.076   0.334  0.00  0.00    +0.210 HD
ENDBRANCH  18  34
TORSDOF 3
