REMARK  Name = 139587902
REMARK  4 active torsions:
REMARK  status: ('A' for Active; 'I' for Inactive)
REMARK    1  A    between atoms: C_5  and  O_22
REMARK    2  A    between atoms: C_11  and  O_24
REMARK    3  A    between atoms: C_18  and  O_26
REMARK    4  A    between atoms: C_19  and  O_28
REMARK                            x       y       z     vdW  Elec       q    Type
REMARK                         _______ _______ _______ _____ _____    ______ ____
ROOT
ATOM      1  O   UNL     1       0.397  -2.291   0.170  0.00  0.00    -0.286 OA
ATOM      2  O   UNL     1       2.009   2.777   0.208  0.00  0.00    -0.286 OA
ATOM      3  C   UNL     1      -4.596  -0.718   0.144  0.00  0.00    +0.007 C 
ATOM      4  C   UNL     1      -3.737  -1.724  -0.622  0.00  0.00    +0.034 C 
ATOM      5  C   UNL     1      -2.282  -1.660  -0.146  0.00  0.00    +0.133 C 
ATOM      6  C   UNL     1      -4.088   0.693  -0.158  0.00  0.00    +0.029 C 
ATOM      7  C   UNL     1      -1.698  -0.261  -0.073  0.00  0.00    +0.006 C 
ATOM      8  C   UNL     1      -2.587   0.844  -0.055  0.00  0.00    +0.010 C 
ATOM      9  C   UNL     1      -0.296  -0.015   0.005  0.00  0.00    +0.040 C 
ATOM     10  C   UNL     1      -6.069  -0.856  -0.233  0.00  0.00    +0.000 C 
ATOM     11  C   UNL     1      -2.084   2.151  -0.001  0.00  0.00    +0.130 C 
ATOM     12  C   UNL     1       0.175   1.309   0.054  0.00  0.00    +0.045 C 
ATOM     13  C   UNL     1      -0.718   2.384   0.052  0.00  0.00    +0.040 C 
ATOM     14  C   UNL     1       0.716  -1.115   0.052  0.00  0.00    +0.199 C 
ATOM     15  C   UNL     1       1.620   1.620   0.101  0.00  0.00    +0.199 C 
ATOM     16  C   UNL     1       2.157  -0.797  -0.021  0.00  0.00    +0.079 C 
ATOM     17  C   UNL     1       2.595   0.523   0.007  0.00  0.00    +0.079 C 
ATOM     18  C   UNL     1       3.095  -1.835  -0.106  0.00  0.00    +0.137 C 
ATOM     19  C   UNL     1       3.965   0.813  -0.048  0.00  0.00    +0.137 C 
ATOM     20  C   UNL     1       4.459  -1.547  -0.163  0.00  0.00    +0.040 C 
ATOM     21  C   UNL     1       4.893  -0.224  -0.134  0.00  0.00    +0.040 C 
ENDROOT
BRANCH   5  22
ATOM     22  O   UNL     1      -2.200  -2.234   1.159  0.00  0.00    -0.380 OA
ATOM     23  H   UNL     1      -2.568  -3.132   1.140  0.00  0.00    +0.211 HD
ENDBRANCH   5  22
BRANCH  11  24
ATOM     24  O   UNL     1      -2.920   3.230  -0.014  0.00  0.00    -0.506 OA
ATOM     25  H   UNL     1      -3.848   3.104  -0.049  0.00  0.00    +0.292 HD
ENDBRANCH  11  24
BRANCH  18  26
ATOM     26  O   UNL     1       2.742  -3.152  -0.150  0.00  0.00    -0.505 OA
ATOM     27  H   UNL     1       1.838  -3.397  -0.115  0.00  0.00    +0.292 HD
ENDBRANCH  18  26
BRANCH  19  28
ATOM     28  O   UNL     1       4.453   2.085  -0.028  0.00  0.00    -0.505 OA
ATOM     29  H   UNL     1       3.865   2.812   0.029  0.00  0.00    +0.292 HD
ENDBRANCH  19  28
TORSDOF 4
