REMARK  Name = 139585336
REMARK  9 active torsions:
REMARK  status: ('A' for Active; 'I' for Inactive)
REMARK    1  A    between atoms: C_4  and  C_34
REMARK    2  A    between atoms: C_6  and  C_19
REMARK    3  A    between atoms: C_8  and  O_30
REMARK    4  A    between atoms: C_11  and  O_32
REMARK    5  A    between atoms: C_20  and  O_23
REMARK    6  A    between atoms: C_21  and  O_25
REMARK    7  A    between atoms: C_22  and  C_27
REMARK    8  A    between atoms: C_27  and  O_28
REMARK    9  A    between atoms: C_34  and  C_35
REMARK                            x       y       z     vdW  Elec       q    Type
REMARK                         _______ _______ _______ _____ _____    ______ ____
ROOT
ATOM      1  O   UNL     1      -5.206  -0.406   0.067  0.00  0.00    -0.332 OA
ATOM      2  O   UNL     1       1.054  -1.520  -1.327  0.00  0.00    -0.287 OA
ATOM      3  O   UNL     1       0.677   3.317   0.912  0.00  0.00    -0.287 OA
ATOM      4  C   UNL     1      -4.036  -0.946  -0.570  0.00  0.00    +0.142 C 
ATOM      5  C   UNL     1      -2.781  -0.136  -0.302  0.00  0.00    +0.035 C 
ATOM      6  C   UNL     1       2.164   0.423  -0.550  0.00  0.00    +0.049 C 
ATOM      7  C   UNL     1      -2.880   1.153   0.248  0.00  0.00    -0.016 C 
ATOM      8  C   UNL     1      -5.366   1.004  -0.105  0.00  0.00    +0.188 C 
ATOM      9  C   UNL     1      -4.225   1.720   0.625  0.00  0.00    +0.082 C 
ATOM     10  C   UNL     1      -0.359   0.136  -0.432  0.00  0.00    +0.075 C 
ATOM     11  C   UNL     1      -1.514  -0.624  -0.661  0.00  0.00    +0.135 C 
ATOM     12  C   UNL     1      -0.464   1.397   0.148  0.00  0.00    +0.045 C 
ATOM     13  C   UNL     1       0.959  -0.411  -0.812  0.00  0.00    +0.197 C 
ATOM     14  C   UNL     1      -1.721   1.906   0.488  0.00  0.00    -0.001 C 
ATOM     15  C   UNL     1       2.045   1.631   0.012  0.00  0.00    +0.043 C 
ATOM     16  C   UNL     1       0.741   2.206   0.400  0.00  0.00    +0.196 C 
ATOM     17  C   UNL     1      -6.706   1.390   0.522  0.00  0.00    +0.061 C 
ENDROOT
BRANCH   6  19
ATOM     18  O   UNL     1       4.529   0.804  -0.676  0.00  0.00    -0.347 OA
ATOM     19  C   UNL     1       3.482  -0.150  -0.940  0.00  0.00    +0.170 C 
ATOM     20  C   UNL     1       3.896  -1.421  -0.206  0.00  0.00    +0.171 C 
ATOM     21  C   UNL     1       5.393  -1.400  -0.449  0.00  0.00    +0.169 C 
ATOM     22  C   UNL     1       5.741   0.086  -0.360  0.00  0.00    +0.174 C 
BRANCH  20  23
ATOM     23  O   UNL     1       3.643  -1.322   1.192  0.00  0.00    -0.379 OA
ATOM     24  H   UNL     1       2.686  -1.336   1.349  0.00  0.00    +0.211 HD
ENDBRANCH  20  23
BRANCH  21  25
ATOM     25  O   UNL     1       6.122  -2.213   0.445  0.00  0.00    -0.379 OA
ATOM     26  H   UNL     1       5.852  -3.138   0.334  0.00  0.00    +0.211 HD
ENDBRANCH  21  25
BRANCH  22  27
ATOM     27  C   UNL     1       6.256   0.569   0.989  0.00  0.00    +0.169 C 
BRANCH  27  28
ATOM     28  O   UNL     1       6.541   1.956   0.901  0.00  0.00    -0.379 OA
ATOM     29  H   UNL     1       6.870   2.273   1.757  0.00  0.00    +0.211 HD
ENDBRANCH  27  28
ENDBRANCH  22  27
ENDBRANCH   6  19
BRANCH   8  30
ATOM     30  O   UNL     1      -5.375   1.403  -1.477  0.00  0.00    -0.363 OA
ATOM     31  H   UNL     1      -4.530   1.164  -1.888  0.00  0.00    +0.213 HD
ENDBRANCH   8  30
BRANCH  11  32
ATOM     32  O   UNL     1      -1.427  -1.823  -1.309  0.00  0.00    -0.506 OA
ATOM     33  H   UNL     1      -2.199  -2.331  -1.462  0.00  0.00    +0.292 HD
ENDBRANCH  11  32
BRANCH   4  34
ATOM     34  C   UNL     1      -3.939  -2.392  -0.084  0.00  0.00    +0.034 C 
BRANCH  34  35
ATOM     35  C   UNL     1      -3.658  -2.449   1.412  0.00  0.00    +0.003 C 
ATOM     36  C   UNL     1      -3.586  -3.887   1.899  0.00  0.00    +0.000 C 
ENDBRANCH  34  35
ENDBRANCH   4  34
TORSDOF 9
