REMARK  Name = 139589754
REMARK  9 active torsions:
REMARK  status: ('A' for Active; 'I' for Inactive)
REMARK    1  A    between atoms: C_4  and  O_21
REMARK    2  A    between atoms: C_5  and  O_13
REMARK    3  A    between atoms: C_12  and  C_15
REMARK    4  A    between atoms: C_16  and  C_17
REMARK    5  A    between atoms: C_17  and  O_19
REMARK    6  A    between atoms: O_21  and  C_23
REMARK    7  A    between atoms: C_23  and  C_24
REMARK    8  A    between atoms: C_26  and  O_31
REMARK    9  A    between atoms: C_30  and  O_33
REMARK                            x       y       z     vdW  Elec       q    Type
REMARK                         _______ _______ _______ _____ _____    ______ ____
ROOT
ATOM      1  O   UNL     1      -3.094   0.221   0.928  0.00  0.00    -0.475 OA
ATOM      2  O   UNL     1       0.859  -3.704  -1.902  0.00  0.00    -0.289 OA
ATOM      3  C   UNL     1      -0.911  -0.710   0.326  0.00  0.00    +0.109 C 
ATOM      4  C   UNL     1       0.356  -1.442   0.805  0.00  0.00    +0.208 C 
ATOM      5  C   UNL     1       0.458  -2.908   0.355  0.00  0.00    +0.180 C 
ATOM      6  C   UNL     1      -1.514  -1.273  -0.945  0.00  0.00    -0.009 C 
ATOM      7  C   UNL     1      -2.035  -0.654   1.364  0.00  0.00    +0.213 C 
ATOM      8  C   UNL     1       0.189  -3.006  -1.144  0.00  0.00    +0.200 C 
ATOM      9  C   UNL     1      -0.988  -2.269  -1.671  0.00  0.00    +0.036 C 
ATOM     10  C   UNL     1      -0.502  -3.836   1.101  0.00  0.00    +0.041 C 
ATOM     11  C   UNL     1      -2.776  -0.652  -1.300  0.00  0.00    +0.033 C 
ATOM     12  C   UNL     1      -3.476   0.055  -0.394  0.00  0.00    +0.138 C 
ENDROOT
BRANCH   5  13
ATOM     13  O   UNL     1       1.777  -3.390   0.594  0.00  0.00    -0.376 OA
ATOM     14  H   UNL     1       2.417  -2.824   0.134  0.00  0.00    +0.211 HD
ENDBRANCH   5  13
BRANCH  12  15
ATOM     15  C   UNL     1      -4.716   0.706  -0.717  0.00  0.00    +0.035 C 
ATOM     16  C   UNL     1      -5.429   1.415   0.168  0.00  0.00    +0.006 C 
BRANCH  16  17
ATOM     17  C   UNL     1      -6.723   2.095  -0.169  0.00  0.00    +0.133 C 
ATOM     18  C   UNL     1      -6.651   3.590   0.113  0.00  0.00    +0.037 C 
BRANCH  17  19
ATOM     19  O   UNL     1      -7.748   1.516   0.635  0.00  0.00    -0.380 OA
ATOM     20  H   UNL     1      -7.798   0.564   0.459  0.00  0.00    +0.211 HD
ENDBRANCH  17  19
ENDBRANCH  16  17
ENDBRANCH  12  15
BRANCH   4  21
ATOM     21  O   UNL     1       1.493  -0.728   0.287  0.00  0.00    -0.446 OA
BRANCH  21  23
ATOM     22  O   UNL     1       1.489   0.653   2.129  0.00  0.00    -0.245 OA
ATOM     23  C   UNL     1       1.951   0.294   1.057  0.00  0.00    +0.344 C 
BRANCH  23  24
ATOM     24  C   UNL     1       3.121   0.946   0.415  0.00  0.00    +0.105 C 
ATOM     25  C   UNL     1       4.353   0.981   1.069  0.00  0.00    -0.010 C 
ATOM     26  C   UNL     1       2.984   1.528  -0.845  0.00  0.00    +0.143 C 
ATOM     27  C   UNL     1       5.447   1.597   0.463  0.00  0.00    +0.033 C 
ATOM     28  C   UNL     1       4.078   2.144  -1.452  0.00  0.00    +0.073 C 
ATOM     29  C   UNL     1       4.529   0.368   2.420  0.00  0.00    +0.031 C 
ATOM     30  C   UNL     1       5.310   2.178  -0.798  0.00  0.00    +0.136 C 
BRANCH  26  31
ATOM     31  O   UNL     1       1.790   1.506  -1.502  0.00  0.00    -0.505 OA
ATOM     32  H   UNL     1       1.045   1.096  -1.107  0.00  0.00    +0.292 HD
ENDBRANCH  26  31
BRANCH  30  33
ATOM     33  O   UNL     1       6.378   2.779  -1.391  0.00  0.00    -0.505 OA
ATOM     34  H   UNL     1       7.206   2.802  -0.952  0.00  0.00    +0.292 HD
ENDBRANCH  30  33
ENDBRANCH  23  24
ENDBRANCH  21  23
ENDBRANCH   4  21
TORSDOF 9
