REMARK  Name = 139584566
REMARK  11 active torsions:
REMARK  status: ('A' for Active; 'I' for Inactive)
REMARK    1  A    between atoms: C_1  and  C_7
REMARK    2  A    between atoms: C_2  and  C_15
REMARK    3  A    between atoms: C_3  and  O_27
REMARK    4  A    between atoms: C_4  and  O_36
REMARK    5  A    between atoms: C_5  and  O_23
REMARK    6  A    between atoms: C_6  and  O_25
REMARK    7  A    between atoms: C_12  and  O_13
REMARK    8  A    between atoms: C_20  and  O_21
REMARK    9  A    between atoms: O_27  and  C_29
REMARK   10  A    between atoms: C_29  and  C_30
REMARK   11  A    between atoms: O_36  and  C_38
REMARK                            x       y       z     vdW  Elec       q    Type
REMARK                         _______ _______ _______ _____ _____    ______ ____
ROOT
ATOM      1  C   UNL     1      -0.488   1.575  -0.048  0.00  0.00    +0.074 A 
ATOM      2  C   UNL     1       2.168   0.737   0.120  0.00  0.00    +0.074 A 
ATOM      3  C   UNL     1      -0.176   0.219  -0.153  0.00  0.00    +0.186 A 
ATOM      4  C   UNL     1       1.152  -0.199  -0.069  0.00  0.00    +0.186 A 
ATOM      5  C   UNL     1       0.527   2.511   0.142  0.00  0.00    +0.171 A 
ATOM      6  C   UNL     1       1.855   2.093   0.226  0.00  0.00    +0.171 A 
ENDROOT
BRANCH   1   7
ATOM      7  C   UNL     1      -1.865   2.009  -0.133  0.00  0.00    +0.006 C 
ATOM      8  C   UNL     1      -2.641   2.099   1.024  0.00  0.00    +0.003 C 
ATOM      9  C   UNL     1      -2.418   2.339  -1.370  0.00  0.00    +0.003 C 
ATOM     10  C   UNL     1      -3.968   2.519   0.942  0.00  0.00    +0.037 C 
ATOM     11  C   UNL     1      -3.745   2.759  -1.452  0.00  0.00    +0.037 C 
ATOM     12  C   UNL     1      -4.521   2.849  -0.295  0.00  0.00    +0.134 C 
BRANCH  12  13
ATOM     13  O   UNL     1      -5.816   3.260  -0.375  0.00  0.00    -0.506 OA
ATOM     14  H   UNL     1      -6.336   3.321   0.402  0.00  0.00    +0.292 HD
ENDBRANCH  12  13
ENDBRANCH   1   7
BRANCH   2  15
ATOM     15  C   UNL     1       3.550   0.302   0.209  0.00  0.00    +0.006 C 
ATOM     16  C   UNL     1       4.329   0.214  -0.944  0.00  0.00    +0.003 C 
ATOM     17  C   UNL     1       4.099  -0.026   1.449  0.00  0.00    +0.003 C 
ATOM     18  C   UNL     1       5.658  -0.202  -0.859  0.00  0.00    +0.037 C 
ATOM     19  C   UNL     1       5.428  -0.443   1.534  0.00  0.00    +0.037 C 
ATOM     20  C   UNL     1       6.207  -0.530   0.381  0.00  0.00    +0.134 C 
BRANCH  20  21
ATOM     21  O   UNL     1       7.504  -0.936   0.465  0.00  0.00    -0.506 OA
ATOM     22  H   UNL     1       8.027  -0.995  -0.310  0.00  0.00    +0.292 HD
ENDBRANCH  20  21
ENDBRANCH   2  15
BRANCH   5  23
ATOM     23  O   UNL     1       0.237   3.841   0.249  0.00  0.00    -0.503 OA
ATOM     24  H   UNL     1      -0.652   4.133   0.194  0.00  0.00    +0.292 HD
ENDBRANCH   5  23
BRANCH   6  25
ATOM     25  O   UNL     1       2.839   3.022   0.413  0.00  0.00    -0.503 OA
ATOM     26  H   UNL     1       3.734   2.751   0.471  0.00  0.00    +0.292 HD
ENDBRANCH   6  25
BRANCH   3  27
ATOM     27  O   UNL     1      -1.159  -0.710  -0.342  0.00  0.00    -0.418 OA
BRANCH  27  29
ATOM     28  O   UNL     1      -1.346  -0.920   1.972  0.00  0.00    -0.244 OA
ATOM     29  C   UNL     1      -1.692  -1.225   0.841  0.00  0.00    +0.346 C 
BRANCH  29  30
ATOM     30  C   UNL     1      -2.752  -2.225   0.556  0.00  0.00    +0.076 C 
ATOM     31  C   UNL     1      -3.406  -2.868   1.607  0.00  0.00    +0.006 C 
ATOM     32  C   UNL     1      -3.094  -2.522  -0.763  0.00  0.00    +0.006 C 
ATOM     33  C   UNL     1      -4.401  -3.808   1.339  0.00  0.00    +0.000 C 
ATOM     34  C   UNL     1      -4.089  -3.462  -1.032  0.00  0.00    +0.000 C 
ATOM     35  C   UNL     1      -4.742  -4.105   0.020  0.00  0.00    +0.000 C 
ENDBRANCH  29  30
ENDBRANCH  27  29
ENDBRANCH   3  27
BRANCH   4  36
ATOM     36  O   UNL     1       1.443  -1.529  -0.175  0.00  0.00    -0.421 OA
BRANCH  36  38
ATOM     37  O   UNL     1       1.647  -1.255  -2.491  0.00  0.00    -0.250 OA
ATOM     38  C   UNL     1       1.683  -1.957  -1.489  0.00  0.00    +0.322 C 
ATOM     39  C   UNL     1       1.992  -3.425  -1.499  0.00  0.00    +0.122 C 
ENDBRANCH  36  38
ENDBRANCH   4  36
TORSDOF 11
