REMARK  Name = 139589109
REMARK  4 active torsions:
REMARK  status: ('A' for Active; 'I' for Inactive)
REMARK    1  A    between atoms: C_4  and  O_22
REMARK    2  A    between atoms: C_5  and  O_24
REMARK    3  A    between atoms: C_13  and  O_26
REMARK    4  A    between atoms: C_14  and  C_19
REMARK                            x       y       z     vdW  Elec       q    Type
REMARK                         _______ _______ _______ _____ _____    ______ ____
ROOT
ATOM      1  O   UNL     1       2.097   1.658  -1.139  0.00  0.00    -0.351 OA
ATOM      2  O   UNL     1       0.114  -2.763   0.097  0.00  0.00    -0.285 OA
ATOM      3  N   UNL     1      -2.477  -2.324  -0.340  0.00  0.00    -0.295 NA
ATOM      4  C   UNL     1       2.190  -0.529  -0.007  0.00  0.00    +0.159 C 
ATOM      5  C   UNL     1       2.699   0.185   1.272  0.00  0.00    +0.144 C 
ATOM      6  C   UNL     1       1.274   1.847   0.038  0.00  0.00    +0.143 C 
ATOM      7  C   UNL     1       2.673   0.330  -1.209  0.00  0.00    +0.146 C 
ATOM      8  C   UNL     1       2.171   1.636   1.278  0.00  0.00    +0.066 C 
ATOM      9  C   UNL     1       0.676  -0.459   0.002  0.00  0.00    +0.048 C 
ATOM     10  C   UNL     1       0.181   0.790   0.021  0.00  0.00    +0.040 C 
ATOM     11  C   UNL     1       2.349  -0.261  -2.579  0.00  0.00    +0.035 C 
ATOM     12  C   UNL     1      -0.246  -1.600   0.003  0.00  0.00    +0.211 C 
ATOM     13  C   UNL     1      -1.234   1.091   0.059  0.00  0.00    +0.138 C 
ATOM     14  C   UNL     1      -2.173   0.124  -0.021  0.00  0.00    +0.106 C 
ATOM     15  C   UNL     1      -1.719  -1.300  -0.131  0.00  0.00    +0.118 C 
ATOM     16  H   UNL     1      -2.083  -3.224  -0.397  0.00  0.00    +0.187 HD
ENDROOT
BRANCH  14  19
ATOM     17  O   UNL     1      -4.019   1.531  -0.448  0.00  0.00    -0.270 OA
ATOM     18  N   UNL     1      -4.391  -0.518   0.549  0.00  0.00    -0.325 N 
ATOM     19  C   UNL     1      -3.607   0.464  -0.003  0.00  0.00    +0.247 C 
ATOM     20  H   UNL     1      -5.366  -0.394   0.611  0.00  0.00    +0.145 HD
ATOM     21  H   UNL     1      -3.979  -1.347   0.884  0.00  0.00    +0.145 HD
ENDBRANCH  14  19
BRANCH   4  22
ATOM     22  O   UNL     1       2.692  -1.848  -0.080  0.00  0.00    -0.378 OA
ATOM     23  H   UNL     1       3.661  -1.826  -0.082  0.00  0.00    +0.211 HD
ENDBRANCH   4  22
BRANCH   5  24
ATOM     24  O   UNL     1       2.247  -0.491   2.443  0.00  0.00    -0.382 OA
ATOM     25  H   UNL     1       2.579  -1.403   2.439  0.00  0.00    +0.210 HD
ENDBRANCH   5  24
BRANCH  13  26
ATOM     26  O   UNL     1      -1.496   2.438   0.195  0.00  0.00    -0.506 OA
ATOM     27  H   UNL     1      -0.788   3.050   0.244  0.00  0.00    +0.292 HD
ENDBRANCH  13  26
TORSDOF 4
