REMARK  Name = 139586147
REMARK  13 active torsions:
REMARK  status: ('A' for Active; 'I' for Inactive)
REMARK    1  A    between atoms: C_3  and  O_24
REMARK    2  A    between atoms: C_3  and  C_26
REMARK    3  A    between atoms: C_6  and  N_10
REMARK    4  A    between atoms: C_11  and  C_14
REMARK    5  A    between atoms: C_13  and  C_15
REMARK    6  A    between atoms: C_15  and  C_17
REMARK    7  A    between atoms: C_17  and  C_18
REMARK    8  A    between atoms: C_18  and  C_20
REMARK    9  A    between atoms: C_26  and  C_27
REMARK   10  A    between atoms: C_27  and  C_28
REMARK   11  A    between atoms: C_28  and  C_29
REMARK   12  A    between atoms: C_29  and  C_31
REMARK   13  A    between atoms: C_31  and  O_32
REMARK                            x       y       z     vdW  Elec       q    Type
REMARK                         _______ _______ _______ _____ _____    ______ ____
ROOT
ATOM      1 CL   UNL     1       4.582   1.756   2.887  0.00  0.00    -0.079 Cl
ATOM      2  O   UNL     1       1.654   2.033   2.480  0.00  0.00    -0.284 OA
ATOM      3  C   UNL     1       3.656   1.068  -1.051  0.00  0.00    +0.127 C 
ATOM      4  C   UNL     1       2.176   1.335  -0.979  0.00  0.00    +0.022 C 
ATOM      5  C   UNL     1       4.350   1.256   0.270  0.00  0.00    +0.019 C 
ATOM      6  C   UNL     1       1.519   1.650   0.145  0.00  0.00    +0.089 C 
ATOM      7  C   UNL     1       3.720   1.569   1.409  0.00  0.00    +0.096 C 
ATOM      8  C   UNL     1       2.248   1.771   1.438  0.00  0.00    +0.219 C 
ENDROOT
BRANCH   6  10
ATOM      9  O   UNL     1      -0.416   0.458  -1.598  0.00  0.00    -0.270 OA
ATOM     10  N   UNL     1       0.173   1.873   0.157  0.00  0.00    -0.278 N 
ATOM     11  C   UNL     1      -0.712   1.261  -0.719  0.00  0.00    +0.249 C 
ATOM     12  H   UNL     1      -0.190   2.502   0.822  0.00  0.00    +0.155 HD
BRANCH  11  14
ATOM     13  C   UNL     1      -3.114   1.205  -1.222  0.00  0.00    -0.022 C 
ATOM     14  C   UNL     1      -2.116   1.692  -0.471  0.00  0.00    +0.053 C 
BRANCH  13  15
ATOM     15  C   UNL     1      -4.562   1.579  -1.020  0.00  0.00    +0.023 C 
ATOM     16  C   UNL     1      -5.059   2.300  -2.279  0.00  0.00    +0.005 C 
BRANCH  15  17
ATOM     17  C   UNL     1      -5.461   0.354  -0.736  0.00  0.00    +0.009 C 
BRANCH  17  18
ATOM     18  C   UNL     1      -5.213  -0.437   0.572  0.00  0.00    +0.022 C 
ATOM     19  C   UNL     1      -6.335  -1.445   0.841  0.00  0.00    +0.005 C 
BRANCH  18  20
ATOM     20  C   UNL     1      -3.867  -1.119   0.627  0.00  0.00    -0.035 C 
ATOM     21  C   UNL     1      -2.878  -0.903   1.516  0.00  0.00    -0.048 C 
ATOM     22  C   UNL     1      -1.583  -1.663   1.416  0.00  0.00    +0.026 C 
ATOM     23  C   UNL     1      -2.950   0.059   2.667  0.00  0.00    +0.026 C 
ENDBRANCH  18  20
ENDBRANCH  17  18
ENDBRANCH  15  17
ENDBRANCH  13  15
ENDBRANCH  11  14
ENDBRANCH   6  10
BRANCH   3  24
ATOM     24  O   UNL     1       4.209   1.998  -1.985  0.00  0.00    -0.379 OA
ATOM     25  H   UNL     1       3.773   1.892  -2.845  0.00  0.00    +0.211 HD
ENDBRANCH   3  24
BRANCH   3  26
ATOM     26  C   UNL     1       3.902  -0.349  -1.580  0.00  0.00    +0.035 C 
BRANCH  26  27
ATOM     27  C   UNL     1       3.292  -1.434  -0.697  0.00  0.00    +0.004 C 
BRANCH  27  28
ATOM     28  C   UNL     1       3.449  -2.872  -1.201  0.00  0.00    +0.012 C 
BRANCH  28  29
ATOM     29  C   UNL     1       2.760  -3.906  -0.311  0.00  0.00    +0.109 C 
BRANCH  29  31
ATOM     30  O   UNL     1       0.588  -3.236  -1.187  0.00  0.00    -0.250 OA
ATOM     31  C   UNL     1       1.260  -3.714  -0.283  0.00  0.00    +0.314 C 
BRANCH  31  32
ATOM     32  O   UNL     1       0.728  -4.138   0.893  0.00  0.00    -0.480 OA
ATOM     33  H   UNL     1       1.284  -4.498   1.556  0.00  0.00    +0.295 HD
ENDBRANCH  31  32
ENDBRANCH  29  31
ENDBRANCH  28  29
ENDBRANCH  27  28
ENDBRANCH  26  27
ENDBRANCH   3  26
TORSDOF 13
