REMARK  Name = 139589008
REMARK  4 active torsions:
REMARK  status: ('A' for Active; 'I' for Inactive)
REMARK    1  A    between atoms: C_5  and  O_23
REMARK    2  A    between atoms: C_6  and  O_25
REMARK    3  A    between atoms: C_16  and  O_27
REMARK    4  A    between atoms: C_17  and  C_29
REMARK                            x       y       z     vdW  Elec       q    Type
REMARK                         _______ _______ _______ _____ _____    ______ ____
ROOT
ATOM      1  O   UNL     1      -2.584   0.178  -1.482  0.00  0.00    -0.331 OA
ATOM      2  O   UNL     1       1.821  -1.279  -0.428  0.00  0.00    -0.449 OA
ATOM      3  O   UNL     1      -1.705  -3.640   0.863  0.00  0.00    -0.293 OA
ATOM      4  O   UNL     1       1.057  -2.348   1.471  0.00  0.00    -0.250 OA
ATOM      5  C   UNL     1      -2.447   0.886  -0.238  0.00  0.00    +0.190 C 
ATOM      6  C   UNL     1      -2.574  -1.478   0.219  0.00  0.00    +0.171 C 
ATOM      7  C   UNL     1      -2.024  -0.172   0.780  0.00  0.00    +0.093 C 
ATOM      8  C   UNL     1      -1.412   2.006  -0.455  0.00  0.00    +0.057 C 
ATOM      9  C   UNL     1      -3.074  -1.135  -1.180  0.00  0.00    +0.179 C 
ATOM     10  C   UNL     1      -0.882   2.716   0.818  0.00  0.00    +0.009 C 
ATOM     11  C   UNL     1      -1.526  -2.606   0.214  0.00  0.00    +0.187 C 
ATOM     12  C   UNL     1       0.357   3.598   0.496  0.00  0.00    +0.022 C 
ATOM     13  C   UNL     1      -0.236  -2.400  -0.585  0.00  0.00    +0.159 C 
ATOM     14  C   UNL     1      -1.963   3.593   1.462  0.00  0.00    +0.001 C 
ATOM     15  C   UNL     1       1.673   2.941   0.079  0.00  0.00    -0.046 C 
ATOM     16  C   UNL     1       3.111   0.788  -0.263  0.00  0.00    +0.143 C 
ATOM     17  C   UNL     1       2.941  -0.672   0.263  0.00  0.00    +0.197 C 
ATOM     18  C   UNL     1       1.895   1.611   0.147  0.00  0.00    -0.005 C 
ATOM     19  C   UNL     1       0.942  -2.030   0.295  0.00  0.00    +0.324 C 
ATOM     20  C   UNL     1       0.098  -3.657  -1.380  0.00  0.00    +0.020 C 
ATOM     21  C   UNL     1       2.688   3.945  -0.408  0.00  0.00    +0.026 C 
ATOM     22  C   UNL     1       3.285   0.825  -1.790  0.00  0.00    +0.038 C 
ENDROOT
BRANCH   5  23
ATOM     23  O   UNL     1      -3.697   1.471   0.122  0.00  0.00    -0.332 OA
ATOM     24  C   UNL     1      -4.389   1.958  -1.018  0.00  0.00    +0.177 C 
ENDBRANCH   5  23
BRANCH   6  25
ATOM     25  O   UNL     1      -3.670  -1.897   1.020  0.00  0.00    -0.377 OA
ATOM     26  H   UNL     1      -4.343  -1.200   1.037  0.00  0.00    +0.211 HD
ENDBRANCH   6  25
BRANCH  16  27
ATOM     27  O   UNL     1       4.263   1.351   0.366  0.00  0.00    -0.379 OA
ATOM     28  H   UNL     1       4.151   1.326   1.329  0.00  0.00    +0.211 HD
ENDBRANCH  16  27
BRANCH  17  29
ATOM     29  C   UNL     1       4.155  -1.575   0.050  0.00  0.00    +0.046 C 
ATOM     30  C   UNL     1       3.893  -2.978   0.561  0.00  0.00    +0.004 C 
ENDBRANCH  17  29
TORSDOF 4
