REMARK  Name = 139589503
REMARK  5 active torsions:
REMARK  status: ('A' for Active; 'I' for Inactive)
REMARK    1  A    between atoms: C_9  and  O_34
REMARK    2  A    between atoms: C_12  and  N_27
REMARK    3  A    between atoms: C_21  and  O_36
REMARK    4  A    between atoms: C_28  and  C_30
REMARK    5  A    between atoms: C_30  and  O_32
REMARK                            x       y       z     vdW  Elec       q    Type
REMARK                         _______ _______ _______ _____ _____    ______ ____
ROOT
ATOM      1  O   UNL     1      -2.033   2.619  -0.919  0.00  0.00    -0.449 OA
ATOM      2  O   UNL     1       2.041   2.123  -0.254  0.00  0.00    -0.461 OA
ATOM      3  O   UNL     1      -1.638   2.909  -3.120  0.00  0.00    -0.245 OA
ATOM      4  C   UNL     1      -1.557   2.172   0.377  0.00  0.00    +0.179 C 
ATOM      5  C   UNL     1      -0.188   2.816   0.645  0.00  0.00    +0.097 C 
ATOM      6  C   UNL     1      -2.654   2.536   1.395  0.00  0.00    +0.078 C 
ATOM      7  C   UNL     1       0.702   2.372  -0.500  0.00  0.00    +0.124 C 
ATOM      8  C   UNL     1       0.332   2.529   2.053  0.00  0.00    +0.012 C 
ATOM      9  C   UNL     1      -3.998   1.831   1.119  0.00  0.00    +0.136 C 
ATOM     10  C   UNL     1       0.222   2.352  -1.760  0.00  0.00    +0.084 C 
ATOM     11  C   UNL     1      -1.212   2.653  -1.999  0.00  0.00    +0.340 C 
ATOM     12  C   UNL     1       2.370   0.815   0.252  0.00  0.00    +0.266 C 
ATOM     13  C   UNL     1       1.046   2.079  -2.985  0.00  0.00    +0.041 C 
ATOM     14  C   UNL     1      -3.881   0.343   1.309  0.00  0.00    +0.002 C 
ATOM     15  C   UNL     1       1.651  -0.328  -0.423  0.00  0.00    +0.034 C 
ATOM     16  C   UNL     1      -3.867  -0.533   0.290  0.00  0.00    -0.007 C 
ATOM     17  C   UNL     1      -3.586  -1.965   0.390  0.00  0.00    -0.026 C 
ATOM     18  C   UNL     1       0.981  -1.348   0.155  0.00  0.00    -0.021 C 
ATOM     19  C   UNL     1      -2.833  -4.068  -0.869  0.00  0.00    +0.059 C 
ATOM     20  C   UNL     1      -3.320  -2.648  -0.744  0.00  0.00    -0.028 C 
ATOM     21  C   UNL     1      -1.343  -4.137  -1.259  0.00  0.00    +0.137 C 
ATOM     22  C   UNL     1       0.234  -2.269  -0.705  0.00  0.00    -0.007 C 
ATOM     23  C   UNL     1      -3.528  -2.568   1.770  0.00  0.00    +0.031 C 
ATOM     24  C   UNL     1      -0.472  -3.345  -0.318  0.00  0.00    +0.003 C 
ATOM     25  C   UNL     1       0.908  -1.573   1.642  0.00  0.00    +0.031 C 
ENDROOT
BRANCH  12  27
ATOM     26  O   UNL     1       4.193  -0.683   1.906  0.00  0.00    -0.272 OA
ATOM     27  N   UNL     1       3.781   0.619   0.028  0.00  0.00    -0.267 N 
ATOM     28  C   UNL     1       4.583  -0.122   0.884  0.00  0.00    +0.252 C 
ATOM     29  H   UNL     1       4.194   1.029  -0.766  0.00  0.00    +0.153 HD
BRANCH  28  30
ATOM     30  C   UNL     1       6.028  -0.197   0.412  0.00  0.00    +0.187 C 
ATOM     31  C   UNL     1       6.126  -0.870  -0.947  0.00  0.00    +0.042 C 
BRANCH  30  32
ATOM     32  O   UNL     1       6.784  -0.958   1.340  0.00  0.00    -0.376 OA
ATOM     33  H   UNL     1       6.733  -0.543   2.215  0.00  0.00    +0.211 HD
ENDBRANCH  30  32
ENDBRANCH  28  30
ENDBRANCH  12  27
BRANCH   9  34
ATOM     34  O   UNL     1      -4.959   2.336   2.047  0.00  0.00    -0.380 OA
ATOM     35  H   UNL     1      -5.044   3.296   1.934  0.00  0.00    +0.211 HD
ENDBRANCH   9  34
BRANCH  21  36
ATOM     36  O   UNL     1      -0.914  -5.496  -1.215  0.00  0.00    -0.380 OA
ATOM     37  H   UNL     1      -1.460  -6.027  -1.815  0.00  0.00    +0.211 HD
ENDBRANCH  21  36
TORSDOF 5
