139588659
  -OEChem-03292013293D

 58 59  0     1  0  0  0  0  0999 V2000
   -0.9786    1.0674   -1.0339 O   0  0  0  0  0  0  0  0  0  0  0  0
   -2.7139    3.7512    0.6340 O   0  0  0  0  0  0  0  0  0  0  0  0
    2.7524    1.3864    2.0422 O   0  0  0  0  0  0  0  0  0  0  0  0
    3.6894    2.2731   -0.5771 O   0  0  0  0  0  0  0  0  0  0  0  0
   -2.4417   -0.9169   -0.2092 O   0  0  0  0  0  0  0  0  0  0  0  0
   -3.8533   -0.8610   -2.0314 O   0  0  0  0  0  0  0  0  0  0  0  0
   -1.3259   -3.7801   -0.8550 O   0  0  0  0  0  0  0  0  0  0  0  0
    0.0548   -1.4605    1.1817 O   0  0  0  0  0  0  0  0  0  0  0  0
    0.2287    2.9931   -0.1602 C   0  0  2  0  0  0  0  0  0  0  0  0
   -1.1182    2.4121   -0.6182 C   0  0  2  0  0  0  0  0  0  0  0  0
    1.4074    2.8707   -1.1322 C   0  0  0  0  0  0  0  0  0  0  0  0
    0.7096    2.2978    1.0909 C   0  0  0  0  0  0  0  0  0  0  0  0
   -2.1494    2.4456    0.5335 C   0  0  1  0  0  0  0  0  0  0  0  0
    2.0109    1.9993    1.0842 C   0  0  0  0  0  0  0  0  0  0  0  0
    2.5196    2.3801   -0.2427 C   0  0  0  0  0  0  0  0  0  0  0  0
   -0.2503    2.0152    2.1254 C   0  0  0  0  0  0  0  0  0  0  0  0
   -1.5678    2.1067    1.8862 C   0  0  0  0  0  0  0  0  0  0  0  0
   -2.0322    0.6921   -1.8409 C   0  0  0  0  0  0  0  0  0  0  0  0
   -2.8926   -0.4371   -1.4059 C   0  0  0  0  0  0  0  0  0  0  0  0
    2.5517   -1.9613    0.0504 C   0  0  0  0  0  0  0  0  0  0  0  0
    3.8573   -2.3919   -0.6242 C   0  0  0  0  0  0  0  0  0  0  0  0
   -2.3081    1.3070   -2.9984 C   0  0  0  0  0  0  0  0  0  0  0  0
    1.4349   -2.9967   -0.0716 C   0  0  0  0  0  0  0  0  0  0  0  0
   -1.0448   -3.4956    0.5046 C   0  0  1  0  0  0  0  0  0  0  0  0
    4.9941   -1.3680   -0.5845 C   0  0  0  0  0  0  0  0  0  0  0  0
    0.1446   -2.5409    0.5979 C   0  0  0  0  0  0  0  0  0  0  0  0
   -2.2562   -2.8782    1.1617 C   0  0  0  0  0  0  0  0  0  0  0  0
   -3.1701   -2.0065    0.3388 C   0  0  0  0  0  0  0  0  0  0  0  0
    6.2483   -1.8238   -1.3137 C   0  0  0  0  0  0  0  0  0  0  0  0
   -2.5007   -3.0793    2.4674 C   0  0  0  0  0  0  0  0  0  0  0  0
    0.0832    4.0572    0.0779 H   0  0  0  0  0  0  0  0  0  0  0  0
   -1.4574    3.0695   -1.4296 H   0  0  0  0  0  0  0  0  0  0  0  0
    1.6682    3.8424   -1.5610 H   0  0  0  0  0  0  0  0  0  0  0  0
    1.2309    2.1429   -1.9291 H   0  0  0  0  0  0  0  0  0  0  0  0
   -2.9811    1.7611    0.3431 H   0  0  0  0  0  0  0  0  0  0  0  0
    0.1057    1.7078    3.1030 H   0  0  0  0  0  0  0  0  0  0  0  0
   -2.2654    1.8968    2.6926 H   0  0  0  0  0  0  0  0  0  0  0  0
   -3.3971    3.7298    1.3261 H   0  0  0  0  0  0  0  0  0  0  0  0
    3.6499    1.2745    1.6835 H   0  0  0  0  0  0  0  0  0  0  0  0
    2.7475   -1.7535    1.1099 H   0  0  0  0  0  0  0  0  0  0  0  0
    2.2171   -1.0149   -0.3931 H   0  0  0  0  0  0  0  0  0  0  0  0
    4.2044   -3.3228   -0.1579 H   0  0  0  0  0  0  0  0  0  0  0  0
    3.6436   -2.6336   -1.6733 H   0  0  0  0  0  0  0  0  0  0  0  0
    1.7442   -3.9370    0.3971 H   0  0  0  0  0  0  0  0  0  0  0  0
    1.2259   -3.1842   -1.1300 H   0  0  0  0  0  0  0  0  0  0  0  0
   -1.6900    2.1140   -3.3778 H   0  0  0  0  0  0  0  0  0  0  0  0
   -3.1418    1.0071   -3.6250 H   0  0  0  0  0  0  0  0  0  0  0  0
   -0.7675   -4.4332    0.9989 H   0  0  0  0  0  0  0  0  0  0  0  0
    5.2460   -1.1479    0.4595 H   0  0  0  0  0  0  0  0  0  0  0  0
    4.6482   -0.4292   -1.0324 H   0  0  0  0  0  0  0  0  0  0  0  0
   -3.9763   -1.5885    0.9532 H   0  0  0  0  0  0  0  0  0  0  0  0
   -3.6383   -2.6241   -0.4374 H   0  0  0  0  0  0  0  0  0  0  0  0
    6.0382   -2.0131   -2.3710 H   0  0  0  0  0  0  0  0  0  0  0  0
    6.6435   -2.7438   -0.8718 H   0  0  0  0  0  0  0  0  0  0  0  0
    7.0245   -1.0547   -1.2525 H   0  0  0  0  0  0  0  0  0  0  0  0
   -1.8439   -3.6935    3.0748 H   0  0  0  0  0  0  0  0  0  0  0  0
   -3.3593   -2.6347    2.9593 H   0  0  0  0  0  0  0  0  0  0  0  0
   -1.4361   -2.9400   -1.3320 H   0  0  0  0  0  0  0  0  0  0  0  0
  1 10  1  0  0  0  0
  1 18  1  0  0  0  0
  2 13  1  0  0  0  0
  2 38  1  0  0  0  0
  3 14  1  0  0  0  0
  3 39  1  0  0  0  0
  4 15  2  0  0  0  0
  5 19  1  0  0  0  0
  5 28  1  0  0  0  0
  6 19  2  0  0  0  0
  7 24  1  0  0  0  0
  7 58  1  0  0  0  0
  8 26  2  0  0  0  0
  9 10  1  0  0  0  0
  9 11  1  0  0  0  0
  9 12  1  0  0  0  0
  9 31  1  0  0  0  0
 10 13  1  0  0  0  0
 10 32  1  0  0  0  0
 11 15  1  0  0  0  0
 11 33  1  0  0  0  0
 11 34  1  0  0  0  0
 12 14  2  0  0  0  0
 12 16  1  0  0  0  0
 13 17  1  0  0  0  0
 13 35  1  0  0  0  0
 14 15  1  0  0  0  0
 16 17  2  0  0  0  0
 16 36  1  0  0  0  0
 17 37  1  0  0  0  0
 18 19  1  0  0  0  0
 18 22  2  0  0  0  0
 20 21  1  0  0  0  0
 20 23  1  0  0  0  0
 20 40  1  0  0  0  0
 20 41  1  0  0  0  0
 21 25  1  0  0  0  0
 21 42  1  0  0  0  0
 21 43  1  0  0  0  0
 22 46  1  0  0  0  0
 22 47  1  0  0  0  0
 23 26  1  0  0  0  0
 23 44  1  0  0  0  0
 23 45  1  0  0  0  0
 24 26  1  0  0  0  0
 24 27  1  0  0  0  0
 24 48  1  0  0  0  0
 25 29  1  0  0  0  0
 25 49  1  0  0  0  0
 25 50  1  0  0  0  0
 27 28  1  0  0  0  0
 27 30  2  0  0  0  0
 28 51  1  0  0  0  0
 28 52  1  0  0  0  0
 29 53  1  0  0  0  0
 29 54  1  0  0  0  0
 29 55  1  0  0  0  0
 30 56  1  0  0  0  0
 30 57  1  0  0  0  0
M  END
> <PUBCHEM_COMPOUND_CID>
139588659

> <PUBCHEM_CONFORMER_RMSD>
1.2

> <PUBCHEM_CONFORMER_DIVERSEORDER>
2
265
158
174
116
46
132
16
151
163
191
224
73
222
66
54
147
150
157
69
35
197
183
212
123
149
110
261
198
60
161
64
62
187
156
184
262
144
165
133
167
160
100
162
59
101
75
207
249
28
125
19
206
164
188
96
50
55
142
52
263
202
57
68
173
44
111
169
217
104
5
76
257
47
180
106
248
154
13
136
129
179
137
43
203
22
241
138
7
34
178
48
49
89
185
211
194
146
122
74
213
91
82
31
244
204
25
87
53
258
140
239
124
243
143
134
119
252
245
215
209
92
21
223
95
225
230
20
30
36
240
228
242
159
84
231
182
29
251
80
17
264
226
221
58
39
88
45
216
155
109
227
27
218
115
195
77
192
170
40
250
78
201
176
229
246
247
11
107
208
175
190
98
177
1
171
152
33
37
63
199
145
108
117
196
148
79
83
237
168
214
114
70
153
86
41
220
56
236
23
15
18
235
259
90
26
219
186
200
232
135
32
193
189
238
166
120
255
233
253
172
8
61
131
181
260
97
118
93
4
10
234
127
12
266
67
38
121
94
256
3
102
14
24
105
6
112
205
141
103
85
42
72
81
254
113
9
130
139
71
51
126
128
99
65
210

> <PUBCHEM_MMFF94_PARTIAL_CHARGES>
35
1 -0.36
10 0.28
11 0.06
12 -0.14
13 0.42
14 0.09
15 0.49
16 -0.15
17 -0.29
18 0.09
19 0.71
2 -0.68
22 -0.3
23 0.06
24 0.48
26 0.45
27 -0.28
28 0.42
3 -0.53
30 -0.3
36 0.15
37 0.15
38 0.4
39 0.45
4 -0.57
46 0.15
47 0.15
5 -0.43
56 0.15
57 0.15
58 0.4
6 -0.57
7 -0.68
8 -0.57
9 0.14

> <PUBCHEM_EFFECTIVE_ROTOR_COUNT>
12.6

> <PUBCHEM_PHARMACOPHORE_FEATURES>
14
1 1 acceptor
1 2 acceptor
1 2 donor
1 29 hydrophobe
1 3 donor
1 30 hydrophobe
1 4 acceptor
1 6 acceptor
1 7 acceptor
1 7 donor
1 8 acceptor
4 20 21 23 25 hydrophobe
5 9 11 12 14 15 rings
6 9 10 12 13 16 17 rings

> <PUBCHEM_HEAVY_ATOM_COUNT>
30

> <PUBCHEM_ATOM_DEF_STEREO_COUNT>
3

> <PUBCHEM_ATOM_UDEF_STEREO_COUNT>
1

> <PUBCHEM_BOND_DEF_STEREO_COUNT>
0

> <PUBCHEM_BOND_UDEF_STEREO_COUNT>
0

> <PUBCHEM_ISOTOPIC_ATOM_COUNT>
0

> <PUBCHEM_COMPONENT_COUNT>
1

> <PUBCHEM_CACTVS_TAUTO_COUNT>
-1

> <PUBCHEM_CONFORMER_ID>
0851F43300000002

> <PUBCHEM_MMFF94_ENERGY>
46.105

> <PUBCHEM_FEATURE_SELFOVERLAP>
71.137

> <PUBCHEM_SHAPE_FINGERPRINT>
12156800 1 17191568460424701011
12403259 327 16256203297643547771
12539773 59 17484789425122949557
12633257 1 17046290324354722907
13122387 1 18122051014632625098
17492 54 18043806485834229182
19319366 153 17616253585328537243
20764821 26 18266458904967106606
20775438 99 17478845779092134223
35225 105 17256584713205080591
469060 322 17097526169791182483

> <PUBCHEM_SHAPE_MULTIPOLES>
570.43
7.32
5.92
2.25
12.39
1.47
0.3
3.43
3.33
-1.36
-1.61
-1.84
-0.44
1.18

> <PUBCHEM_SHAPE_SELFOVERLAP>
1179.232

> <PUBCHEM_SHAPE_VOLUME>
324.4

> <PUBCHEM_COORDINATE_TYPE>
2
5
10

$$$$
