REMARK  Name = 139588115
REMARK  11 active torsions:
REMARK  status: ('A' for Active; 'I' for Inactive)
REMARK    1  A    between atoms: C_3  and  C_18
REMARK    2  A    between atoms: C_3  and  C_21
REMARK    3  A    between atoms: C_4  and  C_7
REMARK    4  A    between atoms: C_5  and  O_15
REMARK    5  A    between atoms: C_12  and  O_13
REMARK    6  A    between atoms: C_18  and  O_19
REMARK    7  A    between atoms: C_21  and  C_22
REMARK    8  A    between atoms: C_25  and  C_32
REMARK    9  A    between atoms: C_26  and  O_28
REMARK   10  A    between atoms: C_27  and  O_30
REMARK   11  A    between atoms: C_32  and  C_34
REMARK                            x       y       z     vdW  Elec       q    Type
REMARK                         _______ _______ _______ _____ _____    ______ ____
ROOT
ATOM      1  O   UNL     1       0.213  -2.429   0.445  0.00  0.00    -0.435 OA
ATOM      2  O   UNL     1       1.173  -4.514   0.614  0.00  0.00    -0.241 OA
ATOM      3  C   UNL     1       0.705  -1.088   0.254  0.00  0.00    +0.250 C 
ATOM      4  C   UNL     1       2.171  -1.269   0.047  0.00  0.00    +0.065 C 
ATOM      5  C   UNL     1       2.486  -2.561   0.187  0.00  0.00    +0.210 C 
ATOM      6  C   UNL     1       1.253  -3.310   0.443  0.00  0.00    +0.376 C 
ENDROOT
BRANCH   4   7
ATOM      7  C   UNL     1       3.111  -0.183  -0.286  0.00  0.00    +0.003 C 
ATOM      8  C   UNL     1       3.767   0.508   0.732  0.00  0.00    +0.003 C 
ATOM      9  C   UNL     1       3.346   0.151  -1.620  0.00  0.00    +0.003 C 
ATOM     10  C   UNL     1       4.658   1.534   0.417  0.00  0.00    +0.037 C 
ATOM     11  C   UNL     1       4.237   1.177  -1.935  0.00  0.00    +0.037 C 
ATOM     12  C   UNL     1       4.893   1.869  -0.916  0.00  0.00    +0.139 C 
BRANCH  12  13
ATOM     13  O   UNL     1       5.763   2.869  -1.224  0.00  0.00    -0.471 OA
ATOM     14  C   UNL     1       6.399   3.534  -0.134  0.00  0.00    +0.252 C 
ENDBRANCH  12  13
ENDBRANCH   4   7
BRANCH   5  15
ATOM     15  O   UNL     1       3.708  -3.154   0.108  0.00  0.00    -0.501 OA
ATOM     16  H   UNL     1       4.470  -2.635  -0.058  0.00  0.00    +0.292 HD
ENDBRANCH   5  15
BRANCH   3  18
ATOM     17  O   UNL     1      -0.305  -0.924   2.437  0.00  0.00    -0.246 OA
ATOM     18  C   UNL     1       0.379  -0.417   1.558  0.00  0.00    +0.358 C 
BRANCH  18  19
ATOM     19  O   UNL     1       0.959   0.816   1.593  0.00  0.00    -0.442 OA
ATOM     20  C   UNL     1       0.728   1.570   2.787  0.00  0.00    +0.256 C 
ENDBRANCH  18  19
ENDBRANCH   3  18
BRANCH   3  21
ATOM     21  C   UNL     1      -0.042  -0.460  -0.914  0.00  0.00    +0.082 C 
BRANCH  21  22
ATOM     22  C   UNL     1      -1.512  -0.313  -0.625  0.00  0.00    -0.015 C 
ATOM     23  C   UNL     1      -1.993   0.852  -0.028  0.00  0.00    -0.005 C 
ATOM     24  C   UNL     1      -2.394  -1.343  -0.954  0.00  0.00    +0.036 C 
ATOM     25  C   UNL     1      -3.355   0.988   0.240  0.00  0.00    +0.022 C 
ATOM     26  C   UNL     1      -3.756  -1.207  -0.686  0.00  0.00    +0.171 C 
ATOM     27  C   UNL     1      -4.237  -0.042  -0.089  0.00  0.00    +0.164 C 
BRANCH  26  28
ATOM     28  O   UNL     1      -4.606  -2.221  -1.012  0.00  0.00    -0.468 OA
ATOM     29  C   UNL     1      -4.032  -3.377  -1.619  0.00  0.00    +0.253 C 
ENDBRANCH  26  28
BRANCH  27  30
ATOM     30  O   UNL     1      -5.569   0.086   0.171  0.00  0.00    -0.503 OA
ATOM     31  H   UNL     1      -5.896   0.868   0.572  0.00  0.00    +0.292 HD
ENDBRANCH  27  30
BRANCH  25  32
ATOM     32  C   UNL     1      -3.851   2.243   0.880  0.00  0.00    +0.094 C 
BRANCH  32  34
ATOM     33  O   UNL     1      -4.729   2.917  -1.271  0.00  0.00    -0.296 OA
ATOM     34  C   UNL     1      -4.549   3.191  -0.085  0.00  0.00    +0.156 C 
ATOM     35  C   UNL     1      -5.019   4.504   0.485  0.00  0.00    +0.073 C 
ENDBRANCH  32  34
ENDBRANCH  25  32
ENDBRANCH  21  22
ENDBRANCH   3  21
TORSDOF 11
