139585133
  -OEChem-03292013293D

 62 63  0     1  0  0  0  0  0999 V2000
   -2.3610   -2.1054    2.3801 S   0  0  0  0  0  0  0  0  0  0  0  0
   -3.6328   -0.6824    3.1491 S   0  0  0  0  0  0  0  0  0  0  0  0
    3.6935    2.9049    0.0554 O   0  0  0  0  0  0  0  0  0  0  0  0
   -0.3483    2.0012   -0.5897 O   0  0  0  0  0  0  0  0  0  0  0  0
    2.3383   -1.4627    2.5649 O   0  0  0  0  0  0  0  0  0  0  0  0
    0.0139    4.2787   -0.3882 O   0  0  0  0  0  0  0  0  0  0  0  0
    0.8628   -3.7774   -0.6947 O   0  0  0  0  0  0  0  0  0  0  0  0
   -2.6180   -0.6937   -1.8950 O   0  0  0  0  0  0  0  0  0  0  0  0
    1.8196   -0.2171    0.6829 N   0  0  0  0  0  0  0  0  0  0  0  0
   -0.1620   -1.8484    0.0574 N   0  0  0  0  0  0  0  0  0  0  0  0
   -0.3957   -0.9451   -2.5337 N   0  0  0  0  0  0  0  0  0  0  0  0
    2.9611    0.6911    0.7006 C   0  0  1  0  0  0  0  0  0  0  0  0
    4.1463    0.0420   -0.0165 C   0  0  0  0  0  0  0  0  0  0  0  0
    2.5632    2.0323    0.0541 C   0  0  1  0  0  0  0  0  0  0  0  0
    1.4138    2.7203    0.8055 C   0  0  0  0  0  0  0  0  0  0  0  0
    3.6844   -0.6410   -1.3007 C   0  0  0  0  0  0  0  0  0  0  0  0
    4.8460   -0.9550    0.9029 C   0  0  0  0  0  0  0  0  0  0  0  0
    0.2517   -1.9293    1.4526 C   0  0  1  0  0  0  0  0  0  0  0  0
    1.6039   -1.2252    1.6063 C   0  0  0  0  0  0  0  0  0  0  0  0
    0.2951    3.1159   -0.1292 C   0  0  0  0  0  0  0  0  0  0  0  0
   -0.7616   -1.2316    2.3655 C   0  0  0  0  0  0  0  0  0  0  0  0
   -1.5213    2.1894   -1.4130 C   0  0  1  0  0  0  0  0  0  0  0  0
   -0.2089   -2.3841   -2.3334 C   0  0  1  0  0  0  0  0  0  0  0  0
   -1.4183    1.2578   -2.6317 C   0  0  0  0  0  0  0  0  0  0  0  0
    0.2545   -2.7304   -0.9195 C   0  0  0  0  0  0  0  0  0  0  0  0
   -1.5590   -0.2252   -2.3072 C   0  0  0  0  0  0  0  0  0  0  0  0
   -2.7931    1.9902   -0.6236 C   0  0  0  0  0  0  0  0  0  0  0  0
   -1.4070   -3.2402   -2.7262 C   0  0  0  0  0  0  0  0  0  0  0  0
   -2.8853    1.6603    0.6746 C   0  0  0  0  0  0  0  0  0  0  0  0
   -4.1909    1.4423    1.3834 C   0  0  0  0  0  0  0  0  0  0  0  0
   -4.4850   -0.0324    1.6669 C   0  0  0  0  0  0  0  0  0  0  0  0
    3.2363    0.8838    1.7460 H   0  0  0  0  0  0  0  0  0  0  0  0
    4.8908    0.8046   -0.2737 H   0  0  0  0  0  0  0  0  0  0  0  0
    2.2905    1.8731   -0.9955 H   0  0  0  0  0  0  0  0  0  0  0  0
    1.1561   -0.1113   -0.0785 H   0  0  0  0  0  0  0  0  0  0  0  0
    1.7599    3.6303    1.3107 H   0  0  0  0  0  0  0  0  0  0  0  0
    0.9699    2.0885    1.5836 H   0  0  0  0  0  0  0  0  0  0  0  0
    4.2683   -1.8722    1.0447 H   0  0  0  0  0  0  0  0  0  0  0  0
    5.0670   -0.5181    1.8821 H   0  0  0  0  0  0  0  0  0  0  0  0
    5.8023   -1.2574    0.4603 H   0  0  0  0  0  0  0  0  0  0  0  0
    3.0648   -1.5240   -1.1145 H   0  0  0  0  0  0  0  0  0  0  0  0
    4.5573   -0.9894   -1.8654 H   0  0  0  0  0  0  0  0  0  0  0  0
    3.1333    0.0382   -1.9575 H   0  0  0  0  0  0  0  0  0  0  0  0
    0.3944   -2.9818    1.7246 H   0  0  0  0  0  0  0  0  0  0  0  0
    3.4283    3.7266   -0.3922 H   0  0  0  0  0  0  0  0  0  0  0  0
   -0.3840   -1.2009    3.3937 H   0  0  0  0  0  0  0  0  0  0  0  0
   -0.9050   -0.1994    2.0365 H   0  0  0  0  0  0  0  0  0  0  0  0
   -0.7057   -1.0370   -0.2136 H   0  0  0  0  0  0  0  0  0  0  0  0
   -1.5380    3.2147   -1.8036 H   0  0  0  0  0  0  0  0  0  0  0  0
    0.6267   -2.6423   -2.9966 H   0  0  0  0  0  0  0  0  0  0  0  0
   -0.4622    1.4363   -3.1382 H   0  0  0  0  0  0  0  0  0  0  0  0
   -2.2090    1.4965   -3.3543 H   0  0  0  0  0  0  0  0  0  0  0  0
    0.4329   -0.4331   -2.8214 H   0  0  0  0  0  0  0  0  0  0  0  0
   -3.7135    2.1159   -1.1913 H   0  0  0  0  0  0  0  0  0  0  0  0
   -2.2265   -3.1522   -2.0056 H   0  0  0  0  0  0  0  0  0  0  0  0
   -1.1267   -4.2991   -2.7540 H   0  0  0  0  0  0  0  0  0  0  0  0
   -1.7845   -2.9631   -3.7158 H   0  0  0  0  0  0  0  0  0  0  0  0
   -1.9864    1.5452    1.2692 H   0  0  0  0  0  0  0  0  0  0  0  0
   -4.2098    2.0357    2.3054 H   0  0  0  0  0  0  0  0  0  0  0  0
   -5.0070    1.8331    0.7613 H   0  0  0  0  0  0  0  0  0  0  0  0
   -5.5560   -0.1307    1.8778 H   0  0  0  0  0  0  0  0  0  0  0  0
   -4.2813   -0.6557    0.7892 H   0  0  0  0  0  0  0  0  0  0  0  0
  1  2  1  0  0  0  0
  1 21  1  0  0  0  0
  2 31  1  0  0  0  0
  3 14  1  0  0  0  0
  3 45  1  0  0  0  0
  4 20  1  0  0  0  0
  4 22  1  0  0  0  0
  5 19  2  0  0  0  0
  6 20  2  0  0  0  0
  7 25  2  0  0  0  0
  8 26  2  0  0  0  0
  9 12  1  0  0  0  0
  9 19  1  0  0  0  0
  9 35  1  0  0  0  0
 10 18  1  0  0  0  0
 10 25  1  0  0  0  0
 10 48  1  0  0  0  0
 11 23  1  0  0  0  0
 11 26  1  0  0  0  0
 11 53  1  0  0  0  0
 12 13  1  0  0  0  0
 12 14  1  0  0  0  0
 12 32  1  0  0  0  0
 13 16  1  0  0  0  0
 13 17  1  0  0  0  0
 13 33  1  0  0  0  0
 14 15  1  0  0  0  0
 14 34  1  0  0  0  0
 15 20  1  0  0  0  0
 15 36  1  0  0  0  0
 15 37  1  0  0  0  0
 16 41  1  0  0  0  0
 16 42  1  0  0  0  0
 16 43  1  0  0  0  0
 17 38  1  0  0  0  0
 17 39  1  0  0  0  0
 17 40  1  0  0  0  0
 18 19  1  0  0  0  0
 18 21  1  0  0  0  0
 18 44  1  0  0  0  0
 21 46  1  0  0  0  0
 21 47  1  0  0  0  0
 22 24  1  0  0  0  0
 22 27  1  0  0  0  0
 22 49  1  0  0  0  0
 23 25  1  0  0  0  0
 23 28  1  0  0  0  0
 23 50  1  0  0  0  0
 24 26  1  0  0  0  0
 24 51  1  0  0  0  0
 24 52  1  0  0  0  0
 27 29  2  0  0  0  0
 27 54  1  0  0  0  0
 28 55  1  0  0  0  0
 28 56  1  0  0  0  0
 28 57  1  0  0  0  0
 29 30  1  0  0  0  0
 29 58  1  0  0  0  0
 30 31  1  0  0  0  0
 30 59  1  0  0  0  0
 30 60  1  0  0  0  0
 31 61  1  0  0  0  0
 31 62  1  0  0  0  0
M  END
> <PUBCHEM_COMPOUND_CID>
139585133

> <PUBCHEM_CONFORMER_RMSD>
0.8

> <PUBCHEM_CONFORMER_DIVERSEORDER>
1
26
21
28
22
9
5
2
23
16
4
24
7
13
6
17
12
29
27
14
18
11
8
20
15
3
25
19
10

> <PUBCHEM_MMFF94_PARTIAL_CHARGES>
33
1 -0.23
10 -0.73
11 -0.73
12 0.3
14 0.28
15 0.06
18 0.36
19 0.57
2 -0.23
20 0.66
21 0.23
22 0.42
23 0.36
24 0.06
25 0.57
26 0.57
27 -0.29
29 -0.29
3 -0.68
30 0.14
31 0.23
35 0.37
4 -0.43
45 0.4
48 0.37
5 -0.57
53 0.37
54 0.15
58 0.15
6 -0.57
7 -0.57
8 -0.57
9 -0.73

> <PUBCHEM_EFFECTIVE_ROTOR_COUNT>
3.8

> <PUBCHEM_PHARMACOPHORE_FEATURES>
10
1 10 donor
1 11 donor
1 3 acceptor
1 3 donor
1 5 acceptor
1 6 acceptor
1 7 acceptor
1 8 acceptor
1 9 donor
3 13 16 17 hydrophobe

> <PUBCHEM_HEAVY_ATOM_COUNT>
31

> <PUBCHEM_ATOM_DEF_STEREO_COUNT>
2

> <PUBCHEM_ATOM_UDEF_STEREO_COUNT>
3

> <PUBCHEM_BOND_DEF_STEREO_COUNT>
1

> <PUBCHEM_BOND_UDEF_STEREO_COUNT>
0

> <PUBCHEM_ISOTOPIC_ATOM_COUNT>
0

> <PUBCHEM_COMPONENT_COUNT>
1

> <PUBCHEM_CACTVS_TAUTO_COUNT>
-1

> <PUBCHEM_CONFORMER_ID>
0851E66D00000001

> <PUBCHEM_MMFF94_ENERGY>
65.2909

> <PUBCHEM_FEATURE_SELFOVERLAP>
50.764

> <PUBCHEM_SHAPE_FINGERPRINT>
11112662 9 17914072021218779353
11244481 83 17696211217962299595
11513181 2 17979664516338518111
12156800 1 17610951920510605182
12422481 6 17627501636858025218
12633257 1 18187936027854637465
13402501 40 18113908126238738337
14040221 299 17751645333980828643
20600515 1 17678769806739678187
20764821 26 18118112800648257328
23419403 2 17339329620283795823
27425 322 13344511677126486231
3493558 16 17391118855978381214
35225 105 17894629236186498406
3797600 57 18042134158771155788
445580 8 18054206770511100688
469060 322 18269253756061001067
57091435 65 17766267683658033878
57527585 103 17317585919109328050

> <PUBCHEM_SHAPE_MULTIPOLES>
595.51
6.88
4.46
3.31
1.66
1.38
-0.95
1.24
4.41
0.37
-1.29
-2.55
-2.49
0.55

> <PUBCHEM_SHAPE_SELFOVERLAP>
1173.57

> <PUBCHEM_SHAPE_VOLUME>
353.9

> <PUBCHEM_COORDINATE_TYPE>
2
5
10

$$$$
