REMARK  Name = 139586871
REMARK  16 active torsions:
REMARK  status: ('A' for Active; 'I' for Inactive)
REMARK    1  A    between atoms: C_2  and  C_24
REMARK    2  A    between atoms: C_4  and  O_17
REMARK    3  A    between atoms: C_6  and  O_15
REMARK    4  A    between atoms: C_9  and  O_13
REMARK    5  A    between atoms: O_17  and  C_19
REMARK    6  A    between atoms: C_19  and  C_20
REMARK    7  A    between atoms: C_20  and  C_22
REMARK    8  A    between atoms: C_24  and  C_25
REMARK    9  A    between atoms: C_25  and  C_26
REMARK   10  A    between atoms: C_26  and  O_27
REMARK   11  A    between atoms: C_26  and  C_29
REMARK   12  A    between atoms: C_29  and  C_30
REMARK   13  A    between atoms: C_30  and  O_31
REMARK   14  A    between atoms: C_30  and  C_33
REMARK   15  A    between atoms: C_33  and  C_35
REMARK   16  A    between atoms: C_35  and  O_36
REMARK                            x       y       z     vdW  Elec       q    Type
REMARK                         _______ _______ _______ _____ _____    ______ ____
ROOT
ATOM      1  C   UNL     1      -1.956  -0.264   1.056  0.00  0.00    +0.061 C 
ATOM      2  C   UNL     1      -1.540  -1.406   0.077  0.00  0.00    +0.010 C 
ATOM      3  C   UNL     1      -2.740  -2.301  -0.322  0.00  0.00    +0.032 C 
ATOM      4  C   UNL     1      -0.872   0.846   1.127  0.00  0.00    +0.173 C 
ATOM      5  C   UNL     1      -3.330   0.331   0.748  0.00  0.00    -0.017 C 
ATOM      6  C   UNL     1      -3.722   1.501   1.634  0.00  0.00    +0.129 C 
ATOM      7  C   UNL     1      -2.672   2.623   1.607  0.00  0.00    +0.034 C 
ATOM      8  C   UNL     1      -1.292   2.053   1.976  0.00  0.00    +0.047 C 
ATOM      9  C   UNL     1      -3.827  -1.428  -0.979  0.00  0.00    +0.137 C 
ATOM     10  C   UNL     1      -4.135  -0.184  -0.200  0.00  0.00    -0.003 C 
ATOM     11  C   UNL     1      -3.314  -3.112   0.847  0.00  0.00    +0.003 C 
ATOM     12  C   UNL     1      -2.660   3.400   0.285  0.00  0.00    +0.003 C 
ENDROOT
BRANCH   9  13
ATOM     13  O   UNL     1      -3.402  -1.053  -2.289  0.00  0.00    -0.349 OA
ATOM     14  C   UNL     1      -4.508  -0.742  -3.122  0.00  0.00    +0.174 C 
ENDBRANCH   9  13
BRANCH   6  15
ATOM     15  O   UNL     1      -4.997   2.049   1.308  0.00  0.00    -0.380 OA
ATOM     16  H   UNL     1      -5.664   1.346   1.323  0.00  0.00    +0.211 HD
ENDBRANCH   6  15
BRANCH   4  17
ATOM     17  O   UNL     1      -0.520   1.281  -0.184  0.00  0.00    -0.452 OA
BRANCH  17  19
ATOM     18  O   UNL     1       1.631   1.714   0.529  0.00  0.00    -0.250 OA
ATOM     19  C   UNL     1       0.775   1.692  -0.346  0.00  0.00    +0.316 C 
BRANCH  19  20
ATOM     20  C   UNL     1       0.994   2.152  -1.777  0.00  0.00    +0.099 C 
ATOM     21  C   UNL     1       1.431   0.949  -2.607  0.00  0.00    +0.012 C 
BRANCH  20  22
ATOM     22  C   UNL     1       2.035   3.278  -1.853  0.00  0.00    +0.011 C 
ATOM     23  C   UNL     1       1.631   4.505  -1.046  0.00  0.00    +0.001 C 
ENDBRANCH  20  22
ENDBRANCH  19  20
ENDBRANCH  17  19
ENDBRANCH   4  17
BRANCH   2  24
ATOM     24  C   UNL     1      -0.373  -2.231   0.634  0.00  0.00    +0.003 C 
BRANCH  24  25
ATOM     25  C   UNL     1       0.369  -2.957  -0.487  0.00  0.00    +0.029 C 
BRANCH  25  26
ATOM     26  C   UNL     1       1.556  -3.768   0.046  0.00  0.00    +0.113 C 
BRANCH  26  27
ATOM     27  O   UNL     1       1.055  -4.790   0.911  0.00  0.00    -0.384 OA
ATOM     28  H   UNL     1       0.419  -5.341   0.428  0.00  0.00    +0.210 HD
ENDBRANCH  26  27
BRANCH  26  29
ATOM     29  C   UNL     1       2.555  -2.923   0.847  0.00  0.00    +0.059 C 
BRANCH  29  30
ATOM     30  C   UNL     1       3.291  -1.819   0.079  0.00  0.00    +0.124 C 
BRANCH  30  31
ATOM     31  O   UNL     1       3.953  -2.459  -1.018  0.00  0.00    -0.384 OA
ATOM     32  H   UNL     1       3.299  -2.924  -1.563  0.00  0.00    +0.210 HD
ENDBRANCH  30  31
BRANCH  30  33
ATOM     33  C   UNL     1       4.335  -1.089   0.929  0.00  0.00    +0.139 C 
BRANCH  33  35
ATOM     34  O   UNL     1       4.836   0.448  -0.894  0.00  0.00    -0.250 OA
ATOM     35  C   UNL     1       4.779   0.219   0.307  0.00  0.00    +0.320 C 
BRANCH  35  36
ATOM     36  O   UNL     1       5.098   1.097   1.304  0.00  0.00    -0.444 OA
ATOM     37  C   UNL     1       5.533   2.390   0.872  0.00  0.00    +0.256 C 
ENDBRANCH  35  36
ENDBRANCH  33  35
ENDBRANCH  30  33
ENDBRANCH  29  30
ENDBRANCH  26  29
ENDBRANCH  25  26
ENDBRANCH  24  25
ENDBRANCH   2  24
TORSDOF 16
