REMARK  Name = 139584509
REMARK  5 active torsions:
REMARK  status: ('A' for Active; 'I' for Inactive)
REMARK    1  A    between atoms: C_1  and  C_4
REMARK    2  A    between atoms: C_2  and  C_19
REMARK    3  A    between atoms: C_4  and  C_10
REMARK    4  A    between atoms: C_20  and  C_24
REMARK    5  A    between atoms: C_24  and  O_30
REMARK                            x       y       z     vdW  Elec       q    Type
REMARK                         _______ _______ _______ _____ _____    ______ ____
ROOT
ATOM      1  C   UNL     1      -0.522   0.019   1.415  0.00  0.00    -0.028 C 
ATOM      2  C   UNL     1       0.673  -0.565   1.180  0.00  0.00    -0.026 C 
ATOM      3  C   UNL     1       0.940  -2.039   1.347  0.00  0.00    +0.031 C 
ENDROOT
BRANCH   1   4
ATOM      4  C   UNL     1      -1.811  -0.616   1.889  0.00  0.00    +0.049 C 
ATOM      5  C   UNL     1      -2.229  -0.002   3.227  0.00  0.00    +0.007 C 
BRANCH   4  10
ATOM      6  O   UNL     1      -3.136   0.996   0.751  0.00  0.00    -0.333 OA
ATOM      7  O   UNL     1      -3.537   0.913  -1.591  0.00  0.00    -0.326 OA
ATOM      8  O   UNL     1      -5.276  -2.054  -2.086  0.00  0.00    -0.289 OA
ATOM      9  C   UNL     1      -2.531  -1.008  -0.534  0.00  0.00    +0.062 C 
ATOM     10  C   UNL     1      -2.907  -0.419   0.845  0.00  0.00    +0.125 C 
ATOM     11  C   UNL     1      -3.484  -0.506  -1.632  0.00  0.00    +0.181 C 
ATOM     12  C   UNL     1      -4.017   1.372  -0.318  0.00  0.00    +0.204 C 
ATOM     13  C   UNL     1      -5.432   0.857  -0.077  0.00  0.00    +0.009 C 
ATOM     14  C   UNL     1      -2.427  -2.532  -0.519  0.00  0.00    +0.005 C 
ATOM     15  C   UNL     1      -4.913  -1.019  -1.532  0.00  0.00    +0.200 C 
ATOM     16  C   UNL     1      -3.963   2.900  -0.406  0.00  0.00    +0.066 C 
ATOM     17  C   UNL     1      -5.870  -0.252  -0.694  0.00  0.00    +0.036 C 
ATOM     18  C   UNL     1      -6.308   1.582   0.905  0.00  0.00    +0.031 C 
ENDBRANCH   4  10
ENDBRANCH   1   4
BRANCH   2  19
ATOM     19  C   UNL     1       1.786   0.278   0.730  0.00  0.00    -0.001 C 
ATOM     20  C   UNL     1       3.037  -0.127   0.449  0.00  0.00    +0.037 C 
BRANCH  20  24
ATOM     21  O   UNL     1       6.491   2.273  -0.908  0.00  0.00    -0.289 OA
ATOM     22  O   UNL     1       5.085  -2.085   0.203  0.00  0.00    -0.270 OA
ATOM     23  N   UNL     1       7.113  -1.125  -0.518  0.00  0.00    -0.294 N 
ATOM     24  C   UNL     1       4.120   0.733   0.006  0.00  0.00    +0.141 C 
ATOM     25  C   UNL     1       5.348   0.264  -0.258  0.00  0.00    +0.123 C 
ATOM     26  C   UNL     1       6.501   1.069  -0.712  0.00  0.00    +0.200 C 
ATOM     27  C   UNL     1       7.687   0.161  -0.890  0.00  0.00    +0.160 C 
ATOM     28  C   UNL     1       5.772  -1.142  -0.143  0.00  0.00    +0.252 C 
ATOM     29  H   UNL     1       7.651  -1.950  -0.530  0.00  0.00    +0.150 HD
BRANCH  24  30
ATOM     30  O   UNL     1       3.810   2.072  -0.130  0.00  0.00    -0.505 OA
ATOM     31  H   UNL     1       2.944   2.375   0.060  0.00  0.00    +0.292 HD
ENDBRANCH  24  30
ENDBRANCH  20  24
ENDBRANCH   2  19
TORSDOF 5
