139587353
  -OEChem-03292013293D

 60 63  0     1  0  0  0  0  0999 V2000
   -1.6219    2.3196   -1.3116 S   0  0  0  0  0  0  0  0  0  0  0  0
   -2.9576   -0.6304   -1.5964 O   0  0  0  0  0  0  0  0  0  0  0  0
   -4.7317    1.5233   -1.0926 O   0  0  0  0  0  0  0  0  0  0  0  0
   -5.7317    1.5163    1.7662 O   0  0  0  0  0  0  0  0  0  0  0  0
   -4.1859   -3.1548   -0.5635 O   0  0  0  0  0  0  0  0  0  0  0  0
   -0.7250    1.7830    1.8141 O   0  0  0  0  0  0  0  0  0  0  0  0
   -0.7025   -1.8551   -2.1512 O   0  0  0  0  0  0  0  0  0  0  0  0
    3.4050    0.8699   -1.9747 O   0  0  0  0  0  0  0  0  0  0  0  0
    5.9159    1.2605   -0.9267 O   0  0  0  0  0  0  0  0  0  0  0  0
    6.8255   -0.3574    1.1273 O   0  0  0  0  0  0  0  0  0  0  0  0
   -1.8113   -0.3507   -0.8129 N   0  0  0  0  0  0  0  0  0  0  0  0
    0.4941    0.3020    0.5062 N   0  0  0  0  0  0  0  0  0  0  0  0
   -4.4137    0.5722   -0.0665 C   0  0  1  0  0  0  0  0  0  0  0  0
   -4.1212   -0.7664   -0.7670 C   0  0  2  0  0  0  0  0  0  0  0  0
   -3.1594    1.0667    0.6839 C   0  0  0  0  0  0  0  0  0  0  0  0
   -1.8465    0.9297   -0.1281 C   0  0  2  0  0  0  0  0  0  0  0  0
   -5.6686    0.4394    0.8318 C   0  0  1  0  0  0  0  0  0  0  0  0
   -3.9959   -1.9613    0.1992 C   0  0  1  0  0  0  0  0  0  0  0  0
   -5.7456   -0.8482    1.5978 C   0  0  0  0  0  0  0  0  0  0  0  0
   -0.6702    1.0051    0.8542 C   0  0  0  0  0  0  0  0  0  0  0  0
   -4.9951   -1.9215    1.3168 C   0  0  0  0  0  0  0  0  0  0  0  0
   -0.6941   -0.9973   -1.2706 C   0  0  0  0  0  0  0  0  0  0  0  0
    0.5577   -0.5941   -0.5605 C   0  0  0  0  0  0  0  0  0  0  0  0
   -1.6780    3.6670   -0.1129 C   0  0  0  0  0  0  0  0  0  0  0  0
    1.6936    0.5276    1.3203 C   0  0  0  0  0  0  0  0  0  0  0  0
    1.6866   -1.1816   -0.9943 C   0  0  0  0  0  0  0  0  0  0  0  0
    3.0328   -0.9472   -0.4560 C   0  0  0  0  0  0  0  0  0  0  0  0
    3.8453    0.0674   -0.9621 C   0  0  0  0  0  0  0  0  0  0  0  0
    3.4953   -1.7602    0.5790 C   0  0  0  0  0  0  0  0  0  0  0  0
    5.1200    0.2692   -0.4332 C   0  0  0  0  0  0  0  0  0  0  0  0
    4.7701   -1.5584    1.1079 C   0  0  0  0  0  0  0  0  0  0  0  0
    5.5825   -0.5437    0.6018 C   0  0  0  0  0  0  0  0  0  0  0  0
    5.8113    2.5412   -0.3087 C   0  0  0  0  0  0  0  0  0  0  0  0
    7.2201   -1.2319    2.1827 C   0  0  0  0  0  0  0  0  0  0  0  0
   -4.9330   -0.9784   -1.4767 H   0  0  0  0  0  0  0  0  0  0  0  0
   -3.0513    0.4360    1.5797 H   0  0  0  0  0  0  0  0  0  0  0  0
   -3.3258    2.0668    1.0833 H   0  0  0  0  0  0  0  0  0  0  0  0
   -6.5733    0.5169    0.2155 H   0  0  0  0  0  0  0  0  0  0  0  0
   -2.9931   -2.0279    0.6334 H   0  0  0  0  0  0  0  0  0  0  0  0
   -6.4629   -0.9146    2.4117 H   0  0  0  0  0  0  0  0  0  0  0  0
   -5.1047   -2.8118    1.9303 H   0  0  0  0  0  0  0  0  0  0  0  0
   -5.4913    1.1875   -1.5982 H   0  0  0  0  0  0  0  0  0  0  0  0
   -6.5756    1.4490    2.2451 H   0  0  0  0  0  0  0  0  0  0  0  0
   -4.0688   -3.9121    0.0356 H   0  0  0  0  0  0  0  0  0  0  0  0
   -1.6290    4.5928   -0.6981 H   0  0  0  0  0  0  0  0  0  0  0  0
   -0.8018    3.6991    0.5355 H   0  0  0  0  0  0  0  0  0  0  0  0
   -2.6035    3.7432    0.4550 H   0  0  0  0  0  0  0  0  0  0  0  0
    2.4441    1.1015    0.7823 H   0  0  0  0  0  0  0  0  0  0  0  0
    1.9978   -0.3855    1.8273 H   0  0  0  0  0  0  0  0  0  0  0  0
    1.4421    1.1904    2.1581 H   0  0  0  0  0  0  0  0  0  0  0  0
    1.6802   -1.8883   -1.8211 H   0  0  0  0  0  0  0  0  0  0  0  0
    2.8773   -2.5608    0.9795 H   0  0  0  0  0  0  0  0  0  0  0  0
    5.0626   -2.2285    1.9088 H   0  0  0  0  0  0  0  0  0  0  0  0
    2.5197    0.6049   -2.2700 H   0  0  0  0  0  0  0  0  0  0  0  0
    6.4985    3.2236   -0.8163 H   0  0  0  0  0  0  0  0  0  0  0  0
    6.0928    2.4831    0.7475 H   0  0  0  0  0  0  0  0  0  0  0  0
    4.7941    2.9341   -0.4044 H   0  0  0  0  0  0  0  0  0  0  0  0
    7.2743   -2.2727    1.8457 H   0  0  0  0  0  0  0  0  0  0  0  0
    6.5835   -1.1116    3.0660 H   0  0  0  0  0  0  0  0  0  0  0  0
    8.2332   -0.9413    2.4798 H   0  0  0  0  0  0  0  0  0  0  0  0
  1 16  1  0  0  0  0
  1 24  1  0  0  0  0
  2 11  1  0  0  0  0
  2 14  1  0  0  0  0
  3 13  1  0  0  0  0
  3 42  1  0  0  0  0
  4 17  1  0  0  0  0
  4 43  1  0  0  0  0
  5 18  1  0  0  0  0
  5 44  1  0  0  0  0
  6 20  2  0  0  0  0
  7 22  2  0  0  0  0
  8 28  1  0  0  0  0
  8 54  1  0  0  0  0
  9 30  1  0  0  0  0
  9 33  1  0  0  0  0
 10 32  1  0  0  0  0
 10 34  1  0  0  0  0
 11 16  1  0  0  0  0
 11 22  1  0  0  0  0
 12 20  1  0  0  0  0
 12 23  1  0  0  0  0
 12 25  1  0  0  0  0
 13 14  1  0  0  0  0
 13 15  1  0  0  0  0
 13 17  1  0  0  0  0
 14 18  1  0  0  0  0
 14 35  1  0  0  0  0
 15 16  1  0  0  0  0
 15 36  1  0  0  0  0
 15 37  1  0  0  0  0
 16 20  1  0  0  0  0
 17 19  1  0  0  0  0
 17 38  1  0  0  0  0
 18 21  1  0  0  0  0
 18 39  1  0  0  0  0
 19 21  2  0  0  0  0
 19 40  1  0  0  0  0
 21 41  1  0  0  0  0
 22 23  1  0  0  0  0
 23 26  2  0  0  0  0
 24 45  1  0  0  0  0
 24 46  1  0  0  0  0
 24 47  1  0  0  0  0
 25 48  1  0  0  0  0
 25 49  1  0  0  0  0
 25 50  1  0  0  0  0
 26 27  1  0  0  0  0
 26 51  1  0  0  0  0
 27 28  2  0  0  0  0
 27 29  1  0  0  0  0
 28 30  1  0  0  0  0
 29 31  2  0  0  0  0
 29 52  1  0  0  0  0
 30 32  2  0  0  0  0
 31 32  1  0  0  0  0
 31 53  1  0  0  0  0
 33 55  1  0  0  0  0
 33 56  1  0  0  0  0
 33 57  1  0  0  0  0
 34 58  1  0  0  0  0
 34 59  1  0  0  0  0
 34 60  1  0  0  0  0
M  END
> <PUBCHEM_COMPOUND_CID>
139587353

> <PUBCHEM_CONFORMER_RMSD>
0.8

> <PUBCHEM_CONFORMER_DIVERSEORDER>
1
4
5
3
6
2

> <PUBCHEM_MMFF94_PARTIAL_CHARGES>
42
1 -0.46
10 -0.36
11 -0.32
12 -0.47
13 0.28
14 0.28
16 0.59
17 0.42
18 0.42
19 -0.29
2 -0.32
20 0.57
21 -0.29
22 0.62
23 0.12
24 0.23
25 0.3
26 -0.18
27 0.03
28 0.08
29 -0.15
3 -0.68
30 0.08
31 -0.15
32 0.08
33 0.28
34 0.28
4 -0.68
40 0.15
41 0.15
42 0.4
43 0.4
44 0.4
5 -0.68
51 0.15
52 0.15
53 0.15
54 0.45
6 -0.57
7 -0.57
8 -0.53
9 -0.36

> <PUBCHEM_EFFECTIVE_ROTOR_COUNT>
5

> <PUBCHEM_PHARMACOPHORE_FEATURES>
16
1 10 acceptor
1 24 hydrophobe
1 3 acceptor
1 3 donor
1 4 acceptor
1 4 donor
1 5 acceptor
1 5 donor
1 6 acceptor
1 7 acceptor
1 8 donor
1 9 acceptor
6 11 12 16 20 22 23 rings
6 13 14 17 18 19 21 rings
6 2 11 13 14 15 16 rings
6 27 28 29 30 31 32 rings

> <PUBCHEM_HEAVY_ATOM_COUNT>
34

> <PUBCHEM_ATOM_DEF_STEREO_COUNT>
5

> <PUBCHEM_ATOM_UDEF_STEREO_COUNT>
0

> <PUBCHEM_BOND_DEF_STEREO_COUNT>
1

> <PUBCHEM_BOND_UDEF_STEREO_COUNT>
0

> <PUBCHEM_ISOTOPIC_ATOM_COUNT>
0

> <PUBCHEM_COMPONENT_COUNT>
1

> <PUBCHEM_CACTVS_TAUTO_COUNT>
-1

> <PUBCHEM_CONFORMER_ID>
0851EF1900000001

> <PUBCHEM_MMFF94_ENERGY>
156.0669

> <PUBCHEM_FEATURE_SELFOVERLAP>
81.319

> <PUBCHEM_SHAPE_FINGERPRINT>
10 15 18411142454153724067
10290309 65 18128540370856865303
10906281 52 17846230950677257519
11007060 377 9655282748660602742
11135609 12 18130514011983553014
12035758 1 17704075122276333843
12166972 35 16370731426579518556
12236239 1 18408880742368065526
12422481 6 18273222975619779885
12596602 18 17821445764138531616
13533116 47 17749108877436531218
13782708 43 15430308119199565322
14341114 328 18410298007764976182
14790565 3 17846504763284775041
14840074 17 18272097118552230165
14849402 71 18114463466175015372
14856354 85 17988646319920844079
15685185 35 17684100454398604732
16110190 28 18341617031484640923
17349148 13 12540699210363336935
19319366 153 18412257316454337958
19377110 9 18334016111886334146
21033648 29 17346052078174848355
22149856 69 17773898453347957571
23569914 152 14351639868215610867
23569914 2 12172501164493351578
23569943 247 15503759820882687216
392239 28 18187372021075185515
394071 54 15626218044506218426
4015057 19 14346089640986939670
4340502 62 18113904853442074778
5104073 3 18335421296294264824
7495541 125 18411696612826159344
77296 10 18040993978224647784

> <PUBCHEM_SHAPE_MULTIPOLES>
640.77
16.63
2.76
1.78
14.2
1.18
0.07
-3.06
6.73
-1.31
-0.09
-0.01
-0.24
-1.41

> <PUBCHEM_SHAPE_SELFOVERLAP>
1376.533

> <PUBCHEM_SHAPE_VOLUME>
355.7

> <PUBCHEM_COORDINATE_TYPE>
2
5
10

$$$$
