139584422
  -OEChem-03292013293D

 50 50  0     1  0  0  0  0  0999 V2000
    0.7306    1.2536   -1.2324 O   0  0  0  0  0  0  0  0  0  0  0  0
    2.5148   -1.7662   -0.1807 O   0  0  0  0  0  0  0  0  0  0  0  0
   -2.8219   -0.5045    1.1281 O   0  0  0  0  0  0  0  0  0  0  0  0
   -4.8104    2.0604   -0.5639 O   0  0  0  0  0  0  0  0  0  0  0  0
    2.0524   -1.4548   -2.4221 O   0  0  0  0  0  0  0  0  0  0  0  0
    3.5473    1.7128    1.8134 O   0  0  0  0  0  0  0  0  0  0  0  0
   -0.6911    1.6871    0.5324 O   0  0  0  0  0  0  0  0  0  0  0  0
   -2.2523   -2.0219   -0.5176 O   0  0  0  0  0  0  0  0  0  0  0  0
    1.8914    1.1910   -0.3752 C   0  0  1  0  0  0  0  0  0  0  0  0
    2.9456    0.3581   -1.1037 C   0  0  0  0  0  0  0  0  0  0  0  0
    2.4013    2.6041   -0.1191 C   0  0  0  0  0  0  0  0  0  0  0  0
    2.0487   -3.1326   -0.2157 C   0  0  2  0  0  0  0  0  0  0  0  0
   -3.9762    0.0038    0.4161 C   0  0  2  0  0  0  0  0  0  0  0  0
    0.5231   -3.1827    0.0048 C   0  0  0  0  0  0  0  0  0  0  0  0
   -3.6123    1.3563   -0.2256 C   0  0  1  0  0  0  0  0  0  0  0  0
    2.4552   -1.0509   -1.3389 C   0  0  0  0  0  0  0  0  0  0  0  0
    3.2904    2.6851    1.1052 C   0  0  0  0  0  0  0  0  0  0  0  0
    2.8472   -3.9195    0.8190 C   0  0  0  0  0  0  0  0  0  0  0  0
   -2.8239    1.1812   -1.4964 C   0  0  0  0  0  0  0  0  0  0  0  0
   -5.0819    0.1366    1.4631 C   0  0  0  0  0  0  0  0  0  0  0  0
    0.0591   -2.5898    1.3078 C   0  0  0  0  0  0  0  0  0  0  0  0
   -0.4802    1.4454   -0.6432 C   0  0  0  0  0  0  0  0  0  0  0  0
   -1.5009    1.2486   -1.6971 C   0  0  0  0  0  0  0  0  0  0  0  0
    3.8564    4.0458    1.4192 C   0  0  0  0  0  0  0  0  0  0  0  0
   -1.0303   -1.8484    1.5530 C   0  0  0  0  0  0  0  0  0  0  0  0
   -2.0822   -1.4985    0.5696 C   0  0  0  0  0  0  0  0  0  0  0  0
    1.6108    0.6878    0.5590 H   0  0  0  0  0  0  0  0  0  0  0  0
    3.8917    0.3110   -0.5536 H   0  0  0  0  0  0  0  0  0  0  0  0
    3.1678    0.7874   -2.0888 H   0  0  0  0  0  0  0  0  0  0  0  0
    1.5598    3.2866    0.0466 H   0  0  0  0  0  0  0  0  0  0  0  0
    2.9535    2.9824   -0.9869 H   0  0  0  0  0  0  0  0  0  0  0  0
    2.2722   -3.5704   -1.1974 H   0  0  0  0  0  0  0  0  0  0  0  0
   -4.3185   -0.7134   -0.3409 H   0  0  0  0  0  0  0  0  0  0  0  0
    0.1958   -4.2284   -0.0340 H   0  0  0  0  0  0  0  0  0  0  0  0
    0.0525   -2.6599   -0.8331 H   0  0  0  0  0  0  0  0  0  0  0  0
   -3.0752    1.9798    0.4949 H   0  0  0  0  0  0  0  0  0  0  0  0
    2.8122   -3.4506    1.8072 H   0  0  0  0  0  0  0  0  0  0  0  0
    3.9050   -3.9411    0.5335 H   0  0  0  0  0  0  0  0  0  0  0  0
    2.4912   -4.9510    0.8977 H   0  0  0  0  0  0  0  0  0  0  0  0
   -3.4268    0.9723   -2.3809 H   0  0  0  0  0  0  0  0  0  0  0  0
   -4.8010    0.8566    2.2397 H   0  0  0  0  0  0  0  0  0  0  0  0
   -5.2439   -0.8225    1.9676 H   0  0  0  0  0  0  0  0  0  0  0  0
   -6.0294    0.4515    1.0161 H   0  0  0  0  0  0  0  0  0  0  0  0
    0.6899   -2.7902    2.1715 H   0  0  0  0  0  0  0  0  0  0  0  0
   -1.1305    1.0948   -2.7083 H   0  0  0  0  0  0  0  0  0  0  0  0
    3.0402    4.7497    1.5988 H   0  0  0  0  0  0  0  0  0  0  0  0
    4.4776    3.9886    2.3174 H   0  0  0  0  0  0  0  0  0  0  0  0
    4.4735    4.3874    0.5846 H   0  0  0  0  0  0  0  0  0  0  0  0
   -1.1831   -1.4872    2.5678 H   0  0  0  0  0  0  0  0  0  0  0  0
   -4.5529    2.9319   -0.9110 H   0  0  0  0  0  0  0  0  0  0  0  0
  1  9  1  0  0  0  0
  1 22  1  0  0  0  0
  2 12  1  0  0  0  0
  2 16  1  0  0  0  0
  3 13  1  0  0  0  0
  3 26  1  0  0  0  0
  4 15  1  0  0  0  0
  4 50  1  0  0  0  0
  5 16  2  0  0  0  0
  6 17  2  0  0  0  0
  7 22  2  0  0  0  0
  8 26  2  0  0  0  0
  9 10  1  0  0  0  0
  9 11  1  0  0  0  0
  9 27  1  0  0  0  0
 10 16  1  0  0  0  0
 10 28  1  0  0  0  0
 10 29  1  0  0  0  0
 11 17  1  0  0  0  0
 11 30  1  0  0  0  0
 11 31  1  0  0  0  0
 12 14  1  0  0  0  0
 12 18  1  0  0  0  0
 12 32  1  0  0  0  0
 13 15  1  0  0  0  0
 13 20  1  0  0  0  0
 13 33  1  0  0  0  0
 14 21  1  0  0  0  0
 14 34  1  0  0  0  0
 14 35  1  0  0  0  0
 15 19  1  0  0  0  0
 15 36  1  0  0  0  0
 17 24  1  0  0  0  0
 18 37  1  0  0  0  0
 18 38  1  0  0  0  0
 18 39  1  0  0  0  0
 19 23  2  0  0  0  0
 19 40  1  0  0  0  0
 20 41  1  0  0  0  0
 20 42  1  0  0  0  0
 20 43  1  0  0  0  0
 21 25  2  0  0  0  0
 21 44  1  0  0  0  0
 22 23  1  0  0  0  0
 23 45  1  0  0  0  0
 24 46  1  0  0  0  0
 24 47  1  0  0  0  0
 24 48  1  0  0  0  0
 25 26  1  0  0  0  0
 25 49  1  0  0  0  0
M  END
> <PUBCHEM_COMPOUND_CID>
139584422

> <PUBCHEM_CONFORMER_RMSD>
0.8

> <PUBCHEM_CONFORMER_DIVERSEORDER>
1
46
7
18
34
38
32
43
47
27
41
15
24
44
30
39
5
40
10
23
20
17
45
26
13
8
37
2
28
11
42
16
33
22
19
48
4
36
6
9
12
21
25
14
35
3
29
31

> <PUBCHEM_MMFF94_PARTIAL_CHARGES>
29
1 -0.43
10 0.06
11 0.06
12 0.28
13 0.28
14 0.14
15 0.42
16 0.66
17 0.45
19 -0.29
2 -0.43
21 -0.29
22 0.71
23 -0.14
24 0.06
25 -0.14
26 0.71
3 -0.43
4 -0.68
40 0.15
44 0.15
45 0.15
49 0.15
5 -0.57
50 0.4
6 -0.57
7 -0.57
8 -0.57
9 0.28

> <PUBCHEM_EFFECTIVE_ROTOR_COUNT>
3.8

> <PUBCHEM_PHARMACOPHORE_FEATURES>
6
1 4 acceptor
1 4 donor
1 5 acceptor
1 6 acceptor
1 7 acceptor
1 8 acceptor

> <PUBCHEM_HEAVY_ATOM_COUNT>
26

> <PUBCHEM_ATOM_DEF_STEREO_COUNT>
4

> <PUBCHEM_ATOM_UDEF_STEREO_COUNT>
0

> <PUBCHEM_BOND_DEF_STEREO_COUNT>
2

> <PUBCHEM_BOND_UDEF_STEREO_COUNT>
0

> <PUBCHEM_ISOTOPIC_ATOM_COUNT>
0

> <PUBCHEM_COMPONENT_COUNT>
1

> <PUBCHEM_CACTVS_TAUTO_COUNT>
-1

> <PUBCHEM_CONFORMER_ID>
0851E3A600000001

> <PUBCHEM_MMFF94_ENERGY>
48.7053

> <PUBCHEM_FEATURE_SELFOVERLAP>
30.45

> <PUBCHEM_SHAPE_FINGERPRINT>
1100329 8 17400364447007802985
11370993 70 18269275840408278160
12156800 1 16688727939867981182
12422481 6 18113885070432124921
12633257 1 18264199395418320648
12788726 201 16681456401548663044
13140716 1 18338802324546024506
13402501 40 18187656760169278414
13533116 47 18339081472220549765
14178342 30 18120097435799141679
20600515 1 16237833180682497137
20832881 197 17977667511423248077
22182313 1 17894908500056742693
23559900 14 18260272918962329524
3323516 105 18115318756738831559
35225 105 17339823580662565562
3524813 1 17461165344380371743
394222 165 17703493476652078516
484985 159 13389099669741305382
495365 180 18272936033028492337
5265222 85 18044957881263449508
57124632 79 18410292531818376058

> <PUBCHEM_SHAPE_MULTIPOLES>
488.11
8.01
4.92
1.79
6.27
1.83
-0.22
-5.19
2.27
-5.89
1.65
-0.51
-0.27
2.39

> <PUBCHEM_SHAPE_SELFOVERLAP>
978.17

> <PUBCHEM_SHAPE_VOLUME>
283

> <PUBCHEM_COORDINATE_TYPE>
2
5
10

$$$$
