REMARK  Name = 139586943
REMARK  4 active torsions:
REMARK  status: ('A' for Active; 'I' for Inactive)
REMARK    1  A    between atoms: C_7  and  O_23
REMARK    2  A    between atoms: C_13  and  O_25
REMARK    3  A    between atoms: C_14  and  O_27
REMARK    4  A    between atoms: C_15  and  O_29
REMARK                            x       y       z     vdW  Elec       q    Type
REMARK                         _______ _______ _______ _____ _____    ______ ____
ROOT
ATOM      1  O   UNL     1      -1.543  -0.165  -0.995  0.00  0.00    -0.325 OA
ATOM      2  O   UNL     1       0.837  -1.666  -1.537  0.00  0.00    -0.446 OA
ATOM      3  O   UNL     1      -2.473   1.992  -0.954  0.00  0.00    -0.327 OA
ATOM      4  O   UNL     1       1.918  -3.039  -0.027  0.00  0.00    -0.250 OA
ATOM      5  C   UNL     1       2.624   0.670   0.107  0.00  0.00    +0.032 C 
ATOM      6  C   UNL     1       3.675  -0.353  -0.353  0.00  0.00    +0.014 C 
ATOM      7  C   UNL     1       3.249   1.301   1.370  0.00  0.00    +0.111 C 
ATOM      8  C   UNL     1       4.195  -0.905   0.974  0.00  0.00    +0.003 C 
ATOM      9  C   UNL     1       4.346   0.340   1.839  0.00  0.00    +0.029 C 
ATOM     10  C   UNL     1       2.275   1.703  -0.977  0.00  0.00    +0.028 C 
ATOM     11  C   UNL     1       3.174  -1.426  -1.321  0.00  0.00    +0.110 C 
ATOM     12  C   UNL     1      -1.234  -1.372  -0.293  0.00  0.00    +0.190 C 
ATOM     13  C   UNL     1      -2.529  -2.053   0.162  0.00  0.00    +0.171 C 
ATOM     14  C   UNL     1      -3.397  -1.093   0.977  0.00  0.00    +0.172 C 
ATOM     15  C   UNL     1      -3.563   0.248   0.264  0.00  0.00    +0.196 C 
ATOM     16  C   UNL     1       1.030   2.461  -0.610  0.00  0.00    -0.028 C 
ATOM     17  C   UNL     1      -2.213   0.806  -0.185  0.00  0.00    +0.266 C 
ATOM     18  C   UNL     1       1.925  -2.153  -0.872  0.00  0.00    +0.317 C 
ATOM     19  C   UNL     1      -0.446  -2.267  -1.256  0.00  0.00    +0.240 C 
ATOM     20  C   UNL     1      -1.437   2.991  -0.961  0.00  0.00    +0.140 C 
ATOM     21  C   UNL     1      -0.099   2.402  -1.332  0.00  0.00    -0.002 C 
ATOM     22  C   UNL     1      -1.506   3.805   0.333  0.00  0.00    +0.037 C 
ENDROOT
BRANCH   7  23
ATOM     23  O   UNL     1       2.250   1.439   2.373  0.00  0.00    -0.384 OA
ATOM     24  H   UNL     1       1.563   2.050   2.063  0.00  0.00    +0.210 HD
ENDBRANCH   7  23
BRANCH  13  25
ATOM     25  O   UNL     1      -2.197  -3.187   0.959  0.00  0.00    -0.379 OA
ATOM     26  H   UNL     1      -1.646  -3.795   0.443  0.00  0.00    +0.211 HD
ENDBRANCH  13  25
BRANCH  14  27
ATOM     27  O   UNL     1      -4.697  -1.661   1.154  0.00  0.00    -0.379 OA
ATOM     28  H   UNL     1      -4.618  -2.515   1.606  0.00  0.00    +0.211 HD
ENDBRANCH  14  27
BRANCH  15  29
ATOM     29  O   UNL     1      -4.163   1.183   1.160  0.00  0.00    -0.378 OA
ATOM     30  H   UNL     1      -5.022   0.843   1.455  0.00  0.00    +0.211 HD
ENDBRANCH  15  29
TORSDOF 4
