REMARK  Name = 139591319
REMARK  6 active torsions:
REMARK  status: ('A' for Active; 'I' for Inactive)
REMARK    1  A    between atoms: C_2  and  C_25
REMARK    2  A    between atoms: C_6  and  C_15
REMARK    3  A    between atoms: N_13  and  O_21
REMARK    4  A    between atoms: N_14  and  O_23
REMARK    5  A    between atoms: C_16  and  O_19
REMARK    6  A    between atoms: C_25  and  C_28
REMARK                            x       y       z     vdW  Elec       q    Type
REMARK                         _______ _______ _______ _____ _____    ______ ____
ROOT
ATOM      1  N   UNL     1       3.262  -0.968  -0.031  0.00  0.00    -0.406 NA
ATOM      2  C   UNL     1       2.627   0.176  -0.141  0.00  0.00    +0.112 C 
ATOM      3  C   UNL     1       1.147   0.012  -0.101  0.00  0.00    +0.030 C 
ATOM      4  C   UNL     1       0.948  -1.419   0.052  0.00  0.00    +0.028 C 
ATOM      5  C   UNL     1       2.249  -1.952   0.088  0.00  0.00    +0.130 C 
ATOM      6  C   UNL     1       0.238   0.983  -0.189  0.00  0.00    +0.028 C 
ATOM      7  C   UNL     1      -0.172  -2.223   0.154  0.00  0.00    -0.019 C 
ATOM      8  C   UNL     1       2.446  -3.316   0.228  0.00  0.00    +0.028 C 
ATOM      9  C   UNL     1       0.025  -3.598   0.295  0.00  0.00    +0.052 C 
ATOM     10  C   UNL     1       1.322  -4.140   0.332  0.00  0.00    -0.019 C 
ENDROOT
BRANCH   6  15
ATOM     11  O   UNL     1      -3.779   0.548   2.338  0.00  0.00    -0.259 OA
ATOM     12  O   UNL     1      -5.188   0.091   0.127  0.00  0.00    -0.258 OA
ATOM     13  N   UNL     1      -1.845   0.788   1.064  0.00  0.00    -0.137 N 
ATOM     14  N   UNL     1      -3.258   0.329  -1.148  0.00  0.00    -0.105 N 
ATOM     15  C   UNL     1      -1.179   0.756  -0.143  0.00  0.00    +0.155 A 
ATOM     16  C   UNL     1      -1.907   0.523  -1.252  0.00  0.00    +0.258 A 
ATOM     17  C   UNL     1      -3.183   0.550   1.269  0.00  0.00    +0.352 A 
ATOM     18  C   UNL     1      -3.986   0.290   0.011  0.00  0.00    +0.354 A 
BRANCH  16  19
ATOM     19  O   UNL     1      -1.357   0.487  -2.514  0.00  0.00    -0.490 OA
ATOM     20  H   UNL     1      -1.902   0.321  -3.258  0.00  0.00    +0.294 HD
ENDBRANCH  16  19
BRANCH  13  21
ATOM     21  O   UNL     1      -1.077   1.095   2.201  0.00  0.00    -0.423 OA
ATOM     22  H   UNL     1      -0.160   1.266   2.114  0.00  0.00    +0.326 HD
ENDBRANCH  13  21
BRANCH  14  23
ATOM     23  O   UNL     1      -3.972   0.157  -2.344  0.00  0.00    -0.420 OA
ATOM     24  H   UNL     1      -3.521   0.175  -3.165  0.00  0.00    +0.326 HD
ENDBRANCH  14  23
ENDBRANCH   6  15
BRANCH   2  25
ATOM     25  C   UNL     1       3.308   1.495  -0.291  0.00  0.00    +0.065 C 
ATOM     26  C   UNL     1       2.936   2.088  -1.661  0.00  0.00    +0.011 C 
ATOM     27  C   UNL     1       4.831   1.297  -0.227  0.00  0.00    +0.011 C 
BRANCH  25  28
ATOM     28  C   UNL     1       2.856   2.310   0.905  0.00  0.00    -0.020 C 
ATOM     29  C   UNL     1       2.708   3.639   0.978  0.00  0.00    -0.005 C 
ENDBRANCH  25  28
ENDBRANCH   2  25
TORSDOF 6
