REMARK  Name = 139583441
REMARK  8 active torsions:
REMARK  status: ('A' for Active; 'I' for Inactive)
REMARK    1  A    between atoms: C_7  and  O_22
REMARK    2  A    between atoms: C_15  and  C_20
REMARK    3  A    between atoms: O_22  and  C_24
REMARK    4  A    between atoms: C_25  and  O_29
REMARK    5  A    between atoms: C_26  and  O_31
REMARK    6  A    between atoms: C_27  and  C_35
REMARK    7  A    between atoms: C_28  and  O_33
REMARK    8  A    between atoms: C_35  and  O_36
REMARK                            x       y       z     vdW  Elec       q    Type
REMARK                         _______ _______ _______ _____ _____    ______ ____
ROOT
ATOM      1  O   UNL     1      -3.999   0.996  -0.976  0.00  0.00    -0.359 OA
ATOM      2  C   UNL     1      -0.988  -1.022   0.445  0.00  0.00    +0.027 C 
ATOM      3  C   UNL     1      -1.531  -2.380  -0.139  0.00  0.00    +0.002 C 
ATOM      4  C   UNL     1      -1.835   0.146  -0.208  0.00  0.00    +0.027 C 
ATOM      5  C   UNL     1      -3.381   0.026  -0.095  0.00  0.00    +0.093 C 
ATOM      6  C   UNL     1      -0.737  -3.662   0.322  0.00  0.00    +0.000 C 
ATOM      7  C   UNL     1       0.513  -0.872  -0.025  0.00  0.00    +0.118 C 
ATOM      8  C   UNL     1      -3.062  -2.522  -0.013  0.00  0.00    +0.002 C 
ATOM      9  C   UNL     1      -3.804  -1.348  -0.653  0.00  0.00    +0.027 C 
ATOM     10  C   UNL     1       0.756  -3.335   0.583  0.00  0.00    +0.002 C 
ATOM     11  C   UNL     1      -1.398   1.579   0.142  0.00  0.00    +0.005 C 
ATOM     12  C   UNL     1       1.262  -2.189  -0.281  0.00  0.00    +0.030 C 
ATOM     13  C   UNL     1      -1.072  -0.965   1.987  0.00  0.00    +0.002 C 
ATOM     14  C   UNL     1      -2.084   2.552  -0.815  0.00  0.00    +0.032 C 
ATOM     15  C   UNL     1      -3.611   2.376  -0.870  0.00  0.00    +0.111 C 
ATOM     16  C   UNL     1      -3.992   0.191   1.309  0.00  0.00    +0.030 C 
ATOM     17  C   UNL     1      -0.807  -4.717  -0.814  0.00  0.00    +0.000 C 
ATOM     18  C   UNL     1      -1.315  -4.337   1.583  0.00  0.00    +0.000 C 
ATOM     19  C   UNL     1      -4.141   3.049  -2.146  0.00  0.00    +0.034 C 
ENDROOT
BRANCH  15  20
ATOM     20  C   UNL     1      -4.304   3.045   0.285  0.00  0.00    +0.000 C 
ATOM     21  C   UNL     1      -5.629   3.039   0.469  0.00  0.00    -0.003 C 
ENDBRANCH  15  20
BRANCH   7  22
ATOM     22  O   UNL     1       1.273  -0.074   0.884  0.00  0.00    -0.331 OA
BRANCH  22  24
ATOM     23  O   UNL     1       3.150  -0.180  -0.500  0.00  0.00    -0.326 OA
ATOM     24  C   UNL     1       2.263   0.692   0.199  0.00  0.00    +0.266 C 
ATOM     25  C   UNL     1       3.019   1.522   1.240  0.00  0.00    +0.196 C 
ATOM     26  C   UNL     1       4.198   2.252   0.598  0.00  0.00    +0.172 C 
ATOM     27  C   UNL     1       4.183   0.517  -1.208  0.00  0.00    +0.176 C 
ATOM     28  C   UNL     1       5.061   1.290  -0.218  0.00  0.00    +0.169 C 
BRANCH  25  29
ATOM     29  O   UNL     1       2.118   2.480   1.796  0.00  0.00    -0.378 OA
ATOM     30  H   UNL     1       1.368   2.020   2.205  0.00  0.00    +0.211 HD
ENDBRANCH  25  29
BRANCH  26  31
ATOM     31  O   UNL     1       4.979   2.868   1.618  0.00  0.00    -0.379 OA
ATOM     32  H   UNL     1       4.422   3.476   2.130  0.00  0.00    +0.211 HD
ENDBRANCH  26  31
BRANCH  28  33
ATOM     33  O   UNL     1       5.704   0.362   0.658  0.00  0.00    -0.379 OA
ATOM     34  H   UNL     1       6.262   0.844   1.287  0.00  0.00    +0.211 HD
ENDBRANCH  28  33
BRANCH  27  35
ATOM     35  C   UNL     1       4.973  -0.519  -1.998  0.00  0.00    +0.169 C 
BRANCH  35  36
ATOM     36  O   UNL     1       4.239  -0.857  -3.162  0.00  0.00    -0.379 OA
ATOM     37  H   UNL     1       4.732  -1.517  -3.674  0.00  0.00    +0.211 HD
ENDBRANCH  35  36
ENDBRANCH  27  35
ENDBRANCH  22  24
ENDBRANCH   7  22
TORSDOF 8
