REMARK  Name = 139584037
REMARK  3 active torsions:
REMARK  status: ('A' for Active; 'I' for Inactive)
REMARK    1  A    between atoms: C_10  and  C_39
REMARK    2  A    between atoms: C_14  and  O_35
REMARK    3  A    between atoms: C_25  and  O_37
REMARK                            x       y       z     vdW  Elec       q    Type
REMARK                         _______ _______ _______ _____ _____    ______ ____
ROOT
ATOM      1  O   UNL     1      -2.836  -4.170  -0.612  0.00  0.00    -0.270 OA
ATOM      2  O   UNL     1      -3.752   0.082   2.015  0.00  0.00    -0.289 OA
ATOM      3  O   UNL     1      -5.428   2.702  -1.544  0.00  0.00    -0.270 OA
ATOM      4  N   UNL     1      -2.917  -1.844  -0.444  0.00  0.00    -0.301 N 
ATOM      5  N   UNL     1      -6.185   0.821  -0.360  0.00  0.00    -0.296 N 
ATOM      6  C   UNL     1       4.506   0.264   0.815  0.00  0.00    +0.003 C 
ATOM      7  C   UNL     1       4.780  -1.244   1.027  0.00  0.00    +0.000 C 
ATOM      8  C   UNL     1       5.784   0.842   0.165  0.00  0.00    +0.000 C 
ATOM      9  C   UNL     1       3.244   0.341  -0.087  0.00  0.00    +0.035 C 
ATOM     10  C   UNL     1       6.446  -0.387  -0.488  0.00  0.00    +0.000 C 
ATOM     11  C   UNL     1       6.194  -1.511   0.517  0.00  0.00    +0.000 C 
ATOM     12  C   UNL     1       3.694  -1.983   0.245  0.00  0.00    +0.004 C 
ATOM     13  C   UNL     1       2.526  -0.998   0.204  0.00  0.00    +0.025 C 
ATOM     14  C   UNL     1       2.396   1.606   0.189  0.00  0.00    +0.133 C 
ATOM     15  C   UNL     1       6.651   1.541   1.216  0.00  0.00    +0.000 C 
ATOM     16  C   UNL     1       1.510  -1.404  -0.828  0.00  0.00    -0.026 C 
ATOM     17  C   UNL     1       1.223   1.742  -0.744  0.00  0.00    +0.003 C 
ATOM     18  C   UNL     1       0.347  -2.042  -0.624  0.00  0.00    -0.004 C 
ATOM     19  C   UNL     1      -0.075   1.913  -0.443  0.00  0.00    -0.002 C 
ATOM     20  C   UNL     1      -0.143  -2.556   0.638  0.00  0.00    +0.004 C 
ATOM     21  C   UNL     1      -0.653   2.022   0.879  0.00  0.00    +0.003 C 
ATOM     22  C   UNL     1      -1.360  -3.072   0.866  0.00  0.00    +0.058 C 
ATOM     23  C   UNL     1      -1.946   2.236   1.173  0.00  0.00    +0.037 C 
ATOM     24  C   UNL     1      -2.435  -3.106  -0.154  0.00  0.00    +0.246 C 
ATOM     25  C   UNL     1      -3.048   2.427   0.247  0.00  0.00    +0.141 C 
ATOM     26  C   UNL     1      -4.160   1.679   0.248  0.00  0.00    +0.123 C 
ATOM     27  C   UNL     1      -5.816  -0.044   0.747  0.00  0.00    +0.134 C 
ATOM     28  C   UNL     1      -3.956  -1.585  -1.418  0.00  0.00    +0.090 C 
ATOM     29  C   UNL     1      -5.811  -1.538   0.432  0.00  0.00    +0.029 C 
ATOM     30  C   UNL     1      -5.356  -1.991  -0.963  0.00  0.00    +0.023 C 
ATOM     31  C   UNL     1      -4.465   0.516   1.125  0.00  0.00    +0.198 C 
ATOM     32  C   UNL     1      -5.303   1.849  -0.683  0.00  0.00    +0.252 C 
ATOM     33  H   UNL     1      -2.533  -1.078   0.040  0.00  0.00    +0.150 HD
ATOM     34  H   UNL     1      -7.022   0.686  -0.860  0.00  0.00    +0.150 HD
ENDROOT
BRANCH  14  35
ATOM     35  O   UNL     1       3.197   2.772  -0.014  0.00  0.00    -0.380 OA
ATOM     36  H   UNL     1       3.973   2.736   0.567  0.00  0.00    +0.211 HD
ENDBRANCH  14  35
BRANCH  25  37
ATOM     37  O   UNL     1      -2.905   3.480  -0.640  0.00  0.00    -0.505 OA
ATOM     38  H   UNL     1      -2.123   3.996  -0.632  0.00  0.00    +0.292 HD
ENDBRANCH  25  37
BRANCH  10  39
ATOM     39  C   UNL     1       7.916  -0.238  -0.848  0.00  0.00    +0.000 C 
ATOM     40  C   UNL     1       8.136   0.878  -1.855  0.00  0.00    +0.000 C 
ENDBRANCH  10  39
TORSDOF 3
