REMARK  Name = 139584642
REMARK  4 active torsions:
REMARK  status: ('A' for Active; 'I' for Inactive)
REMARK    1  A    between atoms: C_6  and  O_23
REMARK    2  A    between atoms: C_7  and  O_25
REMARK    3  A    between atoms: C_15  and  O_27
REMARK    4  A    between atoms: C_17  and  O_29
REMARK                            x       y       z     vdW  Elec       q    Type
REMARK                         _______ _______ _______ _____ _____    ______ ____
ROOT
ATOM      1  O   UNL     1      -1.669  -1.480   0.839  0.00  0.00    -0.329 OA
ATOM      2  O   UNL     1      -1.765   1.432  -0.412  0.00  0.00    -0.450 OA
ATOM      3  O   UNL     1       0.906  -2.815   0.045  0.00  0.00    -0.287 OA
ATOM      4  O   UNL     1       4.513   1.111   0.251  0.00  0.00    -0.286 OA
ATOM      5  C   UNL     1      -3.540  -0.213   0.099  0.00  0.00    +0.089 C 
ATOM      6  C   UNL     1      -2.332   0.153  -0.796  0.00  0.00    +0.279 C 
ATOM      7  C   UNL     1      -1.296  -0.939  -0.439  0.00  0.00    +0.267 C 
ATOM      8  C   UNL     1      -2.797  -0.739   1.344  0.00  0.00    +0.124 C 
ATOM      9  C   UNL     1      -0.051  -0.128  -0.295  0.00  0.00    +0.075 A 
ATOM     10  C   UNL     1      -4.427  -1.300  -0.546  0.00  0.00    +0.009 C 
ATOM     11  C   UNL     1      -4.428   0.991   0.439  0.00  0.00    +0.009 C 
ATOM     12  C   UNL     1      -0.416   1.214  -0.305  0.00  0.00    +0.179 A 
ATOM     13  C   UNL     1      -3.585  -1.624   2.296  0.00  0.00    +0.032 C 
ATOM     14  C   UNL     1       1.286  -0.485  -0.116  0.00  0.00    +0.049 A 
ATOM     15  C   UNL     1       0.501   2.238  -0.173  0.00  0.00    +0.206 A 
ATOM     16  C   UNL     1       2.235   0.543  -0.009  0.00  0.00    +0.079 A 
ATOM     17  C   UNL     1       1.843   1.896  -0.038  0.00  0.00    +0.174 A 
ATOM     18  C   UNL     1       1.718  -1.899   0.000  0.00  0.00    +0.192 C 
ATOM     19  C   UNL     1       3.668   0.231   0.142  0.00  0.00    +0.199 C 
ATOM     20  C   UNL     1       3.176  -2.185   0.082  0.00  0.00    +0.020 C 
ATOM     21  C   UNL     1       4.066  -1.189   0.148  0.00  0.00    +0.041 C 
ATOM     22  C   UNL     1       3.587  -3.626   0.103  0.00  0.00    +0.034 C 
ENDROOT
BRANCH   6  23
ATOM     23  O   UNL     1      -2.630   0.169  -2.184  0.00  0.00    -0.351 OA
ATOM     24  H   UNL     1      -3.281   0.864  -2.367  0.00  0.00    +0.214 HD
ENDBRANCH   6  23
BRANCH   7  25
ATOM     25  O   UNL     1      -1.175  -1.929  -1.443  0.00  0.00    -0.356 OA
ATOM     26  H   UNL     1      -2.003  -2.431  -1.504  0.00  0.00    +0.213 HD
ENDBRANCH   7  25
BRANCH  15  27
ATOM     27  O   UNL     1       0.100   3.536  -0.181  0.00  0.00    -0.465 OA
ATOM     28  C   UNL     1      -0.235   4.122   1.077  0.00  0.00    +0.253 C 
ENDBRANCH  15  27
BRANCH  17  29
ATOM     29  O   UNL     1       2.745   2.916   0.073  0.00  0.00    -0.503 OA
ATOM     30  H   UNL     1       2.451   3.805   0.050  0.00  0.00    +0.292 HD
ENDBRANCH  17  29
TORSDOF 4
