139585486
  -OEChem-03292013293D

 48 54  0     1  0  0  0  0  0999 V2000
    0.1049    0.5679    2.2144 O   0  0  0  0  0  0  0  0  0  0  0  0
    4.4709   -0.4303    0.4435 O   0  0  0  0  0  0  0  0  0  0  0  0
   -4.3750   -1.9173   -0.2057 O   0  0  0  0  0  0  0  0  0  0  0  0
    1.1073    0.8713   -2.8500 O   0  0  0  0  0  0  0  0  0  0  0  0
    1.8031   -2.8529   -0.3320 O   0  0  0  0  0  0  0  0  0  0  0  0
    2.7169    2.0522    0.8996 O   0  0  0  0  0  0  0  0  0  0  0  0
   -0.9224   -2.9874    0.0725 O   0  0  0  0  0  0  0  0  0  0  0  0
   -3.8030    1.3258   -0.7989 O   0  0  0  0  0  0  0  0  0  0  0  0
    1.1752    0.3228    0.0407 C   0  0  1  0  0  0  0  0  0  0  0  0
    0.3383    1.5166   -0.5807 C   0  0  2  0  0  0  0  0  0  0  0  0
   -0.9341    1.7393    0.3047 C   0  0  1  0  0  0  0  0  0  0  0  0
    0.2671   -0.3792    1.1137 C   0  0  2  0  0  0  0  0  0  0  0  0
   -1.1353   -0.6421    0.6041 C   0  0  0  0  0  0  0  0  0  0  0  0
   -1.7681    0.4922    0.2129 C   0  0  0  0  0  0  0  0  0  0  0  0
    1.7906   -0.5688   -1.0336 C   0  0  0  0  0  0  0  0  0  0  0  0
    2.4388    0.8680    0.7595 C   0  0  0  0  0  0  0  0  0  0  0  0
   -0.4738    1.8294    1.7842 C   0  0  1  0  0  0  0  0  0  0  0  0
    3.3599   -0.1542    1.3111 C   0  0  1  0  0  0  0  0  0  0  0  0
    3.4991   -1.4726    0.6069 C   0  0  1  0  0  0  0  0  0  0  0  0
   -0.0238    1.2728   -2.0704 C   0  0  1  0  0  0  0  0  0  0  0  0
    2.6536   -1.7428   -0.6022 C   0  0  1  0  0  0  0  0  0  0  0  0
   -1.8182   -2.0102    0.5804 C   0  0  1  0  0  0  0  0  0  0  0  0
   -2.9836   -1.9068   -0.3452 C   0  0  2  0  0  0  0  0  0  0  0  0
   -3.8512   -0.7536    0.3640 C   0  0  1  0  0  0  0  0  0  0  0  0
   -3.2092    0.4575   -0.1843 C   0  0  0  0  0  0  0  0  0  0  0  0
    1.7578   -0.2084   -2.3264 C   0  0  0  0  0  0  0  0  0  0  0  0
   -1.5977    2.1841    2.7534 C   0  0  0  0  0  0  0  0  0  0  0  0
   -0.5883    2.5267   -2.7362 C   0  0  0  0  0  0  0  0  0  0  0  0
    0.9341    2.4376   -0.5482 H   0  0  0  0  0  0  0  0  0  0  0  0
   -1.4817    2.6379    0.0069 H   0  0  0  0  0  0  0  0  0  0  0  0
    0.7155   -1.2803    1.5404 H   0  0  0  0  0  0  0  0  0  0  0  0
    0.3034    2.5959    1.8832 H   0  0  0  0  0  0  0  0  0  0  0  0
    3.5537   -0.1170    2.3755 H   0  0  0  0  0  0  0  0  0  0  0  0
    3.8095   -2.3511    1.1540 H   0  0  0  0  0  0  0  0  0  0  0  0
   -0.7750    0.4800   -2.1758 H   0  0  0  0  0  0  0  0  0  0  0  0
    3.3162   -2.0481   -1.4215 H   0  0  0  0  0  0  0  0  0  0  0  0
   -2.1040   -2.3070    1.5958 H   0  0  0  0  0  0  0  0  0  0  0  0
   -2.6497   -1.7877   -1.3736 H   0  0  0  0  0  0  0  0  0  0  0  0
   -3.9668   -0.7235    1.4440 H   0  0  0  0  0  0  0  0  0  0  0  0
    2.3100   -0.7193   -3.1040 H   0  0  0  0  0  0  0  0  0  0  0  0
   -2.3564    1.3963    2.8036 H   0  0  0  0  0  0  0  0  0  0  0  0
   -2.0811    3.1241    2.4716 H   0  0  0  0  0  0  0  0  0  0  0  0
   -1.1982    2.2893    3.7682 H   0  0  0  0  0  0  0  0  0  0  0  0
    0.1306    3.3519   -2.6877 H   0  0  0  0  0  0  0  0  0  0  0  0
   -1.5258    2.8494   -2.2761 H   0  0  0  0  0  0  0  0  0  0  0  0
   -0.7774    2.3400   -3.7993 H   0  0  0  0  0  0  0  0  0  0  0  0
    2.3690   -3.6288   -0.1783 H   0  0  0  0  0  0  0  0  0  0  0  0
   -1.3836   -3.8435    0.0876 H   0  0  0  0  0  0  0  0  0  0  0  0
  1 12  1  0  0  0  0
  1 17  1  0  0  0  0
  2 18  1  0  0  0  0
  2 19  1  0  0  0  0
  3 23  1  0  0  0  0
  3 24  1  0  0  0  0
  4 20  1  0  0  0  0
  4 26  1  0  0  0  0
  5 21  1  0  0  0  0
  5 47  1  0  0  0  0
  6 16  2  0  0  0  0
  7 22  1  0  0  0  0
  7 48  1  0  0  0  0
  8 25  2  0  0  0  0
  9 10  1  0  0  0  0
  9 12  1  0  0  0  0
  9 15  1  0  0  0  0
  9 16  1  0  0  0  0
 10 11  1  0  0  0  0
 10 20  1  0  0  0  0
 10 29  1  0  0  0  0
 11 14  1  0  0  0  0
 11 17  1  0  0  0  0
 11 30  1  0  0  0  0
 12 13  1  0  0  0  0
 12 31  1  0  0  0  0
 13 14  2  0  0  0  0
 13 22  1  0  0  0  0
 14 25  1  0  0  0  0
 15 21  1  0  0  0  0
 15 26  2  0  0  0  0
 16 18  1  0  0  0  0
 17 27  1  0  0  0  0
 17 32  1  0  0  0  0
 18 19  1  0  0  0  0
 18 33  1  0  0  0  0
 19 21  1  0  0  0  0
 19 34  1  0  0  0  0
 20 28  1  0  0  0  0
 20 35  1  0  0  0  0
 21 36  1  0  0  0  0
 22 23  1  0  0  0  0
 22 37  1  0  0  0  0
 23 24  1  0  0  0  0
 23 38  1  0  0  0  0
 24 25  1  0  0  0  0
 24 39  1  0  0  0  0
 26 40  1  0  0  0  0
 27 41  1  0  0  0  0
 27 42  1  0  0  0  0
 27 43  1  0  0  0  0
 28 44  1  0  0  0  0
 28 45  1  0  0  0  0
 28 46  1  0  0  0  0
M  END
> <PUBCHEM_COMPOUND_CID>
139585486

> <PUBCHEM_CONFORMER_RMSD>
0.6

> <PUBCHEM_CONFORMER_DIVERSEORDER>
1
2

> <PUBCHEM_MMFF94_PARTIAL_CHARGES>
32
1 -0.56
11 0.14
12 0.42
13 -0.28
14 -0.12
15 -0.28
16 0.51
17 0.28
18 0.05
19 -0.05
2 -0.3
20 0.28
21 0.51
22 0.51
23 -0.05
24 0.05
25 0.56
26 -0.07
3 -0.3
33 0.1
34 0.1
38 0.1
39 0.1
4 -0.36
40 0.15
47 0.4
48 0.4
5 -0.68
6 -0.57
7 -0.68
8 -0.57
9 0.2

> <PUBCHEM_EFFECTIVE_ROTOR_COUNT>
1.6

> <PUBCHEM_PHARMACOPHORE_FEATURES>
14
1 1 acceptor
1 2 acceptor
1 3 acceptor
1 4 acceptor
1 5 acceptor
1 5 donor
1 6 acceptor
1 7 acceptor
1 7 donor
1 8 acceptor
6 4 9 10 15 20 26 rings
7 2 9 15 16 18 19 21 rings
7 3 13 14 22 23 24 25 rings
8 1 9 10 11 12 13 14 17 rings

> <PUBCHEM_HEAVY_ATOM_COUNT>
28

> <PUBCHEM_ATOM_DEF_STEREO_COUNT>
10

> <PUBCHEM_ATOM_UDEF_STEREO_COUNT>
2

> <PUBCHEM_BOND_DEF_STEREO_COUNT>
0

> <PUBCHEM_BOND_UDEF_STEREO_COUNT>
0

> <PUBCHEM_ISOTOPIC_ATOM_COUNT>
0

> <PUBCHEM_COMPONENT_COUNT>
1

> <PUBCHEM_CACTVS_TAUTO_COUNT>
-1

> <PUBCHEM_CONFORMER_ID>
0851E7CE00000001

> <PUBCHEM_MMFF94_ENERGY>
127.8802

> <PUBCHEM_FEATURE_SELFOVERLAP>
71.09

> <PUBCHEM_SHAPE_FINGERPRINT>
10863032 1 18341042016678227224
11370993 70 18340193094859216475
11578080 2 18334569123027788436
11582403 64 15903167125929350096
12011746 2 18272087159071430518
12156800 1 11870547564782018007
12422481 6 17175178989919966433
12633257 1 18270116808290351898
12654903 92 18040716991314844279
12788726 201 17845113855643562401
14223421 5 17561091258882714746
14787075 74 17915171549625432944
16945 1 18341343192590595536
17980427 23 17246661955745652556
1813 80 17967253095976898783
18981168 100 12541547049808130739
20600515 1 18339363070901492069
20626108 58 18115298020362829099
20691752 17 17749378270090177867
21421861 104 17986417631088691795
21756936 100 17341514608499153392
229495 10 18124285428661555828
23402539 116 17022896809950735202
23419403 2 18055321812624743656
23558518 356 17416134867097593713
23559900 14 18200588099702631866
3493558 16 18412256250870321841
3797600 57 17703229628368635592
5845 1 18042980782788255916
6438718 38 17026003913398833940
81228 2 17416151420012042953
9981440 41 16378062119362487797

> <PUBCHEM_SHAPE_MULTIPOLES>
529.27
5.94
2.81
2.35
0.64
0.74
-0.73
2.72
0.66
0.88
-0.17
-0.33
-1.97
-0.05

> <PUBCHEM_SHAPE_SELFOVERLAP>
1200.841

> <PUBCHEM_SHAPE_VOLUME>
271.8

> <PUBCHEM_COORDINATE_TYPE>
2
5
10

$$$$
