139583753
  -OEChem-03292013293D

 50 51  0     1  0  0  0  0  0999 V2000
   -4.5394   -0.3546   -0.8535 S   0  0  0  0  0  0  0  0  0  0  0  0
    3.1586    2.1258    0.7880 O   0  0  0  0  0  0  0  0  0  0  0  0
   -1.4520   -0.2852    2.2599 O   0  0  0  0  0  0  0  0  0  0  0  0
   -3.4737    0.1304    0.2858 O   0  0  0  0  0  0  0  0  0  0  0  0
   -5.9911   -0.0875   -0.1587 O   0  0  0  0  0  0  0  0  0  0  0  0
   -4.4193    0.5546   -1.9780 O   0  0  0  0  0  0  0  0  0  0  0  0
   -4.3972   -1.7848   -1.0541 O   0  0  0  0  0  0  0  0  0  0  0  0
    2.2066   -0.8705    0.7212 C   0  0  2  0  0  0  0  0  0  0  0  0
    3.2101   -0.1103   -0.1742 C   0  0  2  0  0  0  0  0  0  0  0  0
    2.6798   -2.3275    0.4937 C   0  0  2  0  0  0  0  0  0  0  0  0
    3.0008    1.4003   -0.4360 C   0  0  1  0  0  0  0  0  0  0  0  0
    0.7158   -0.6497    0.4037 C   0  0  0  0  0  0  0  0  0  0  0  0
    3.3331   -0.9927   -1.4333 C   0  0  0  0  0  0  0  0  0  0  0  0
    0.2070    0.7259    0.8559 C   0  0  1  0  0  0  0  0  0  0  0  0
    2.9322   -2.4067   -1.0113 C   0  0  0  0  0  0  0  0  0  0  0  0
    1.6512    1.7624   -1.0766 C   0  0  0  0  0  0  0  0  0  0  0  0
    0.4317    1.8504   -0.1614 C   0  0  0  0  0  0  0  0  0  0  0  0
   -1.2888    0.6545    1.1968 C   0  0  1  0  0  0  0  0  0  0  0  0
    1.7689   -3.4359    0.9985 C   0  0  0  0  0  0  0  0  0  0  0  0
    4.1270    1.9202   -1.3509 C   0  0  0  0  0  0  0  0  0  0  0  0
   -2.0843    0.1715   -0.0198 C   0  0  0  0  0  0  0  0  0  0  0  0
   -1.7771    2.0095    1.7043 C   0  0  0  0  0  0  0  0  0  0  0  0
    2.3795   -0.6104    1.7736 H   0  0  0  0  0  0  0  0  0  0  0  0
    4.1769   -0.1933    0.3502 H   0  0  0  0  0  0  0  0  0  0  0  0
    3.6461   -2.4454    1.0060 H   0  0  0  0  0  0  0  0  0  0  0  0
    0.5201   -0.8089   -0.6632 H   0  0  0  0  0  0  0  0  0  0  0  0
    0.1572   -1.4259    0.9349 H   0  0  0  0  0  0  0  0  0  0  0  0
    4.3601   -0.9798   -1.8152 H   0  0  0  0  0  0  0  0  0  0  0  0
    2.6825   -0.6601   -2.2476 H   0  0  0  0  0  0  0  0  0  0  0  0
    0.7441    0.9840    1.7797 H   0  0  0  0  0  0  0  0  0  0  0  0
    2.0287   -2.7101   -1.5534 H   0  0  0  0  0  0  0  0  0  0  0  0
    3.7151   -3.1349   -1.2482 H   0  0  0  0  0  0  0  0  0  0  0  0
    1.4287    1.0855   -1.9090 H   0  0  0  0  0  0  0  0  0  0  0  0
    1.7399    2.7560   -1.5396 H   0  0  0  0  0  0  0  0  0  0  0  0
    0.5212    2.7891    0.4042 H   0  0  0  0  0  0  0  0  0  0  0  0
   -0.4208    2.0153   -0.8240 H   0  0  0  0  0  0  0  0  0  0  0  0
    0.8313   -3.4903    0.4363 H   0  0  0  0  0  0  0  0  0  0  0  0
    1.5315   -3.2911    2.0573 H   0  0  0  0  0  0  0  0  0  0  0  0
    2.2633   -4.4080    0.8950 H   0  0  0  0  0  0  0  0  0  0  0  0
    5.1130    1.6677   -0.9435 H   0  0  0  0  0  0  0  0  0  0  0  0
    4.0994    3.0143   -1.4211 H   0  0  0  0  0  0  0  0  0  0  0  0
    4.0565    1.5126   -2.3644 H   0  0  0  0  0  0  0  0  0  0  0  0
    4.0231    1.8963    1.1693 H   0  0  0  0  0  0  0  0  0  0  0  0
   -1.9630    0.8060   -0.8989 H   0  0  0  0  0  0  0  0  0  0  0  0
   -1.7993   -0.8500   -0.2929 H   0  0  0  0  0  0  0  0  0  0  0  0
   -2.7807    1.9240    2.1381 H   0  0  0  0  0  0  0  0  0  0  0  0
   -1.8254    2.7696    0.9189 H   0  0  0  0  0  0  0  0  0  0  0  0
   -1.1360    2.3809    2.5124 H   0  0  0  0  0  0  0  0  0  0  0  0
   -2.4047   -0.3787    2.4315 H   0  0  0  0  0  0  0  0  0  0  0  0
   -6.7727   -0.3268   -0.7100 H   0  0  0  0  0  0  0  0  0  0  0  0
  1  4  1  0  0  0  0
  1  5  1  0  0  0  0
  1  6  2  0  0  0  0
  1  7  2  0  0  0  0
  2 11  1  0  0  0  0
  2 43  1  0  0  0  0
  3 18  1  0  0  0  0
  3 49  1  0  0  0  0
  4 21  1  0  0  0  0
  5 50  1  0  0  0  0
  8  9  1  0  0  0  0
  8 10  1  0  0  0  0
  8 12  1  0  0  0  0
  8 23  1  0  0  0  0
  9 11  1  0  0  0  0
  9 13  1  0  0  0  0
  9 24  1  0  0  0  0
 10 15  1  0  0  0  0
 10 19  1  0  0  0  0
 10 25  1  0  0  0  0
 11 16  1  0  0  0  0
 11 20  1  0  0  0  0
 12 14  1  0  0  0  0
 12 26  1  0  0  0  0
 12 27  1  0  0  0  0
 13 15  1  0  0  0  0
 13 28  1  0  0  0  0
 13 29  1  0  0  0  0
 14 17  1  0  0  0  0
 14 18  1  0  0  0  0
 14 30  1  0  0  0  0
 15 31  1  0  0  0  0
 15 32  1  0  0  0  0
 16 17  1  0  0  0  0
 16 33  1  0  0  0  0
 16 34  1  0  0  0  0
 17 35  1  0  0  0  0
 17 36  1  0  0  0  0
 18 21  1  0  0  0  0
 18 22  1  0  0  0  0
 19 37  1  0  0  0  0
 19 38  1  0  0  0  0
 19 39  1  0  0  0  0
 20 40  1  0  0  0  0
 20 41  1  0  0  0  0
 20 42  1  0  0  0  0
 21 44  1  0  0  0  0
 21 45  1  0  0  0  0
 22 46  1  0  0  0  0
 22 47  1  0  0  0  0
 22 48  1  0  0  0  0
M  END
> <PUBCHEM_COMPOUND_CID>
139583753

> <PUBCHEM_CONFORMER_RMSD>
0.8

> <PUBCHEM_CONFORMER_DIVERSEORDER>
4
38
9
75
37
73
72
27
16
23
2
82
31
69
60
22
46
81
32
65
54
55
11
78
42
61
21
79
3
49
34
63
36
10
70
24
30
71
76
62
68
5
40
58
50
67
1
66
52
13
15
57
33
53
59
56
43
19
83
7
74
12
64
48
51
20
6
8
41
39
18
35
25
17
26
77
28
44
29
45
80
14
47

> <PUBCHEM_MMFF94_PARTIAL_CHARGES>
13
1 1.67
11 0.28
18 0.28
2 -0.68
21 0.28
3 -0.68
4 -0.46
43 0.4
49 0.4
5 -0.68
50 0.5
6 -0.65
7 -0.65

> <PUBCHEM_EFFECTIVE_ROTOR_COUNT>
5.6

> <PUBCHEM_PHARMACOPHORE_FEATURES>
10
1 2 acceptor
1 2 donor
1 3 acceptor
1 3 donor
1 5 acceptor
1 6 acceptor
1 7 acceptor
4 1 5 6 7 anion
5 8 9 10 13 15 rings
7 8 9 11 12 14 16 17 rings

> <PUBCHEM_HEAVY_ATOM_COUNT>
22

> <PUBCHEM_ATOM_DEF_STEREO_COUNT>
5

> <PUBCHEM_ATOM_UDEF_STEREO_COUNT>
1

> <PUBCHEM_BOND_DEF_STEREO_COUNT>
0

> <PUBCHEM_BOND_UDEF_STEREO_COUNT>
0

> <PUBCHEM_ISOTOPIC_ATOM_COUNT>
0

> <PUBCHEM_COMPONENT_COUNT>
1

> <PUBCHEM_CACTVS_TAUTO_COUNT>
-1

> <PUBCHEM_CONFORMER_ID>
0851E10900000004

> <PUBCHEM_MMFF94_ENERGY>
73.9853

> <PUBCHEM_FEATURE_SELFOVERLAP>
50.854

> <PUBCHEM_SHAPE_FINGERPRINT>
11796584 16 17632296800545292207
12035759 4 18343309183884813214
12553582 1 17901122823443940546
12670546 177 18187642548496854039
12730499 353 18114190764987834563
12788726 201 17775297027985751289
13009979 54 17843124705906900210
13083527 12 18190160327256236370
13257819 101 17023740259976266708
14251757 17 17823961369423033301
14508693 111 16124668506484604399
14576447 43 18272933855421966661
15099037 8 18200595783013794633
15183329 4 17989205924733408949
15210252 30 16009039319505459524
15375358 24 17386007316361793108
15537594 2 18130792321553275903
15664445 248 17845650485721233256
15842332 3 18128270990365109200
15852999 172 17894916282015191968
16752209 62 17418092075320080399
16945 1 17971215659206949576
17134984 74 18267008630901197279
17138139 8 17842545529414203559
17818456 19 17770510729021065921
18186145 218 17676491610035951137
18915474 69 18131070437321969247
200 152 18343303660535881833
20645477 70 18409453569981292086
20775530 9 17199399087559161735
21054139 6 18198614634890986718
21285901 2 17458057149493862669
21521239 73 17916883378299177110
22182313 1 17823439229842501122
22393880 68 18411138026042403487
2255824 54 18264223439040511898
235170 7 17894621574539875295
23559900 14 18334289855806043338
23596394 208 18040156193060942667
23598288 3 17914640288352633697
23598291 2 18199764552112562440
238 59 18187936049123946522
25147074 1 18199763456869652040
25222932 49 17487042621349665391
2748010 2 17900012531690480786
2871803 45 18412270540536654084
3004659 81 18342452613109116391
3060560 45 18333736823317165030
31174 14 11815896747402794584
312423 11 18201450120670325995
3472631 163 14996576147427752287
46194498 28 17822291336062244133
463206 1 18342173427255054783
495365 180 18260826029409023200
5281201 14 18040992917505019053
59682541 52 18116413892180139959
603831 33 18201726153870971825
621550 5 12894814544092474224
70251023 43 18268157452631461322
7164475 11 18200593592728686393
7471813 234 18268988692243752458
7615 1 18199755751661360784
960060 61 18273205413904584533

> <PUBCHEM_SHAPE_MULTIPOLES>
421.38
9.31
2.95
1.66
13.29
1.44
0.12
1.09
-4.66
-3.35
0.27
0.72
-0.15
-1.1

> <PUBCHEM_SHAPE_SELFOVERLAP>
846.202

> <PUBCHEM_SHAPE_VOLUME>
250.4

> <PUBCHEM_COORDINATE_TYPE>
2
5
10

$$$$
