139587655
  -OEChem-03292013293D

 48 49  0     1  0  0  0  0  0999 V2000
   -0.0021   -0.9115   -1.6679 O   0  0  0  0  0  0  0  0  0  0  0  0
   -4.1409   -1.1447   -0.4867 O   0  0  0  0  0  0  0  0  0  0  0  0
   -2.7767   -0.0083    2.8547 O   0  0  0  0  0  0  0  0  0  0  0  0
    1.3587    2.5446    1.2503 O   0  0  0  0  0  0  0  0  0  0  0  0
   -2.7972    3.2992   -1.7738 O   0  0  0  0  0  0  0  0  0  0  0  0
    6.3909   -1.2388   -0.4436 O   0  0  0  0  0  0  0  0  0  0  0  0
    6.0375    0.5821    0.8673 O   0  0  0  0  0  0  0  0  0  0  0  0
   -2.0114   -1.9126   -0.0715 N   0  0  0  0  0  0  0  0  0  0  0  0
    1.2239   -0.3381    0.2224 N   0  0  0  0  0  0  0  0  0  0  0  0
   -3.0071    1.4044   -0.5187 N   0  0  0  0  0  0  0  0  0  0  0  0
   -0.0421    2.2020   -0.5695 N   0  0  0  0  0  0  0  0  0  0  0  0
   -0.6557   -1.8336    0.4781 C   0  0  1  0  0  0  0  0  0  0  0  0
   -0.1707   -3.2811    0.5291 C   0  0  0  0  0  0  0  0  0  0  0  0
   -0.9358   -3.9484   -0.6091 C   0  0  0  0  0  0  0  0  0  0  0  0
   -2.2874   -3.2543   -0.5706 C   0  0  0  0  0  0  0  0  0  0  0  0
    0.2088   -0.9977   -0.4603 C   0  0  0  0  0  0  0  0  0  0  0  0
   -3.0017   -0.9398   -0.0530 C   0  0  0  0  0  0  0  0  0  0  0  0
   -2.6349    0.4335    0.5143 C   0  0  2  0  0  0  0  0  0  0  0  0
    1.9216    0.8098   -0.3453 C   0  0  2  0  0  0  0  0  0  0  0  0
    3.3667    0.8568    0.1194 C   0  0  0  0  0  0  0  0  0  0  0  0
   -3.4146    0.6851    1.7984 C   0  0  0  0  0  0  0  0  0  0  0  0
    1.0984    1.9762    0.1920 C   0  0  0  0  0  0  0  0  0  0  0  0
    4.1892   -0.3133   -0.4024 C   0  0  0  0  0  0  0  0  0  0  0  0
   -2.3861    2.5904   -0.8510 C   0  0  0  0  0  0  0  0  0  0  0  0
   -1.1499    2.9908   -0.0783 C   0  0  0  0  0  0  0  0  0  0  0  0
    5.6187   -0.2527    0.0755 C   0  0  0  0  0  0  0  0  0  0  0  0
   -0.6849   -1.3849    1.4761 H   0  0  0  0  0  0  0  0  0  0  0  0
   -0.4667   -3.7378    1.4814 H   0  0  0  0  0  0  0  0  0  0  0  0
    0.9126   -3.3882    0.4190 H   0  0  0  0  0  0  0  0  0  0  0  0
   -0.4355   -3.7475   -1.5638 H   0  0  0  0  0  0  0  0  0  0  0  0
   -1.0166   -5.0324   -0.4900 H   0  0  0  0  0  0  0  0  0  0  0  0
   -2.7743   -3.2103   -1.5495 H   0  0  0  0  0  0  0  0  0  0  0  0
   -2.9669   -3.7403    0.1386 H   0  0  0  0  0  0  0  0  0  0  0  0
   -1.5711    0.5175    0.7155 H   0  0  0  0  0  0  0  0  0  0  0  0
    1.8653    0.7845   -1.4394 H   0  0  0  0  0  0  0  0  0  0  0  0
    1.3455   -0.5188    1.2151 H   0  0  0  0  0  0  0  0  0  0  0  0
    3.8217    1.8004   -0.2095 H   0  0  0  0  0  0  0  0  0  0  0  0
    3.4125    0.8689    1.2171 H   0  0  0  0  0  0  0  0  0  0  0  0
   -4.4535    0.3458    1.7275 H   0  0  0  0  0  0  0  0  0  0  0  0
   -3.4192    1.7512    2.0498 H   0  0  0  0  0  0  0  0  0  0  0  0
   -3.8380    1.1838   -1.0606 H   0  0  0  0  0  0  0  0  0  0  0  0
    4.1956   -0.3012   -1.4979 H   0  0  0  0  0  0  0  0  0  0  0  0
    3.7666   -1.2639   -0.0598 H   0  0  0  0  0  0  0  0  0  0  0  0
   -0.9255    4.0464   -0.2594 H   0  0  0  0  0  0  0  0  0  0  0  0
   -1.2835    2.8437    0.9970 H   0  0  0  0  0  0  0  0  0  0  0  0
   -0.1378    1.7379   -1.4685 H   0  0  0  0  0  0  0  0  0  0  0  0
   -3.2839    0.1721    3.6645 H   0  0  0  0  0  0  0  0  0  0  0  0
    7.3138   -1.1931   -0.1143 H   0  0  0  0  0  0  0  0  0  0  0  0
  1 16  2  0  0  0  0
  2 17  2  0  0  0  0
  3 21  1  0  0  0  0
  3 47  1  0  0  0  0
  4 22  2  0  0  0  0
  5 24  2  0  0  0  0
  6 26  1  0  0  0  0
  6 48  1  0  0  0  0
  7 26  2  0  0  0  0
  8 12  1  0  0  0  0
  8 15  1  0  0  0  0
  8 17  1  0  0  0  0
  9 16  1  0  0  0  0
  9 19  1  0  0  0  0
  9 36  1  0  0  0  0
 10 18  1  0  0  0  0
 10 24  1  0  0  0  0
 10 41  1  0  0  0  0
 11 22  1  0  0  0  0
 11 25  1  0  0  0  0
 11 46  1  0  0  0  0
 12 13  1  0  0  0  0
 12 16  1  0  0  0  0
 12 27  1  0  0  0  0
 13 14  1  0  0  0  0
 13 28  1  0  0  0  0
 13 29  1  0  0  0  0
 14 15  1  0  0  0  0
 14 30  1  0  0  0  0
 14 31  1  0  0  0  0
 15 32  1  0  0  0  0
 15 33  1  0  0  0  0
 17 18  1  0  0  0  0
 18 21  1  0  0  0  0
 18 34  1  0  0  0  0
 19 20  1  0  0  0  0
 19 22  1  0  0  0  0
 19 35  1  0  0  0  0
 20 23  1  0  0  0  0
 20 37  1  0  0  0  0
 20 38  1  0  0  0  0
 21 39  1  0  0  0  0
 21 40  1  0  0  0  0
 23 26  1  0  0  0  0
 23 42  1  0  0  0  0
 23 43  1  0  0  0  0
 24 25  1  0  0  0  0
 25 44  1  0  0  0  0
 25 45  1  0  0  0  0
M  END
> <PUBCHEM_COMPOUND_CID>
139587655

> <PUBCHEM_CONFORMER_RMSD>
0.8

> <PUBCHEM_CONFORMER_DIVERSEORDER>
3
36
25
46
18
53
40
55
28
39
26
20
27
48
9
23
44
7
10
1
5
12
24
17
54
31
50
43
37
42
34
41
22
45
15
19
11
35
49
16
47
13
52
33
32
21
30
8
2
29
14
6
51
38
4

> <PUBCHEM_MMFF94_PARTIAL_CHARGES>
28
1 -0.57
10 -0.73
11 -0.73
12 0.36
15 0.3
16 0.57
17 0.57
18 0.36
19 0.36
2 -0.57
21 0.28
22 0.57
23 0.06
24 0.57
25 0.36
26 0.66
3 -0.68
36 0.37
4 -0.57
41 0.37
46 0.37
47 0.4
48 0.5
5 -0.57
6 -0.65
7 -0.57
8 -0.66
9 -0.73

> <PUBCHEM_EFFECTIVE_ROTOR_COUNT>
5.8

> <PUBCHEM_PHARMACOPHORE_FEATURES>
13
1 1 acceptor
1 10 donor
1 11 donor
1 2 acceptor
1 3 acceptor
1 3 donor
1 4 acceptor
1 5 acceptor
1 6 acceptor
1 7 acceptor
1 9 donor
3 6 7 26 anion
5 8 12 13 14 15 rings

> <PUBCHEM_HEAVY_ATOM_COUNT>
26

> <PUBCHEM_ATOM_DEF_STEREO_COUNT>
3

> <PUBCHEM_ATOM_UDEF_STEREO_COUNT>
0

> <PUBCHEM_BOND_DEF_STEREO_COUNT>
0

> <PUBCHEM_BOND_UDEF_STEREO_COUNT>
0

> <PUBCHEM_ISOTOPIC_ATOM_COUNT>
0

> <PUBCHEM_COMPONENT_COUNT>
1

> <PUBCHEM_CACTVS_TAUTO_COUNT>
-1

> <PUBCHEM_CONFORMER_ID>
0851F04700000003

> <PUBCHEM_MMFF94_ENERGY>
68.7653

> <PUBCHEM_FEATURE_SELFOVERLAP>
66.037

> <PUBCHEM_SHAPE_FINGERPRINT>
10483366 6 18265592400121640415
107951 10 17386571224388366321
11014199 57 17976822309251903922
12011746 2 18335974316336168813
12403259 226 18197774620676099927
12633257 1 18271823353020482920
13140716 1 18195255631009987491
14142880 1 18200887201451595497
14251751 93 18334853896712630408
14251757 5 18337969964669475334
14866123 147 18410007715753494690
15021287 119 17385729089208189372
15042514 8 18335988687154816275
15420108 30 18128828434761352571
16728300 4 17750783359771932187
16752209 62 18334003982940790912
17492 89 17763741392321697134
19591789 44 18266457607813116782
20775438 99 15970422624593257951
22182313 1 18121235189752294588
23402539 116 18272085063022285039
23419403 2 17487878202430529041
23559900 14 18054780947551212522
2818148 4 17465413066856390571
4409770 3 18335414634478553645
57527306 92 16630527276759741177
81228 2 17977950416587073779
9862522 239 18262233322435074558
9981440 41 18118679924930056465

> <PUBCHEM_SHAPE_MULTIPOLES>
474.06
9.15
4.36
1.38
18.58
1.32
-0.64
0.34
-0.99
-3.69
1.19
-1.37
-0.48
0.62

> <PUBCHEM_SHAPE_SELFOVERLAP>
974.606

> <PUBCHEM_SHAPE_VOLUME>
269.5

> <PUBCHEM_COORDINATE_TYPE>
2
5
10

$$$$
