REMARK  Name = 139584782
REMARK  5 active torsions:
REMARK  status: ('A' for Active; 'I' for Inactive)
REMARK    1  A    between atoms: C_5  and  O_21
REMARK    2  A    between atoms: C_7  and  O_23
REMARK    3  A    between atoms: C_15  and  C_27
REMARK    4  A    between atoms: C_18  and  O_25
REMARK    5  A    between atoms: C_27  and  O_28
REMARK                            x       y       z     vdW  Elec       q    Type
REMARK                         _______ _______ _______ _____ _____    ______ ____
ROOT
ATOM      1  O   UNL     1       0.245  -0.836  -0.533  0.00  0.00    -0.469 OA
ATOM      2  O   UNL     1      -0.367   1.819  -0.826  0.00  0.00    -0.422 OA
ATOM      3  O   UNL     1      -4.899   0.628  -0.048  0.00  0.00    -0.289 OA
ATOM      4  O   UNL     1       0.516   3.009   0.921  0.00  0.00    -0.244 OA
ATOM      5  C   UNL     1      -1.960  -1.434   0.241  0.00  0.00    +0.163 C 
ATOM      6  C   UNL     1      -0.865  -0.344   0.240  0.00  0.00    +0.249 C 
ATOM      7  C   UNL     1      -3.239  -0.858   0.860  0.00  0.00    +0.200 C 
ATOM      8  C   UNL     1      -1.367   0.966  -0.329  0.00  0.00    +0.167 C 
ATOM      9  C   UNL     1      -1.486  -2.690   0.983  0.00  0.00    +0.037 C 
ATOM     10  C   UNL     1      -2.663   1.310  -0.437  0.00  0.00    +0.049 C 
ATOM     11  C   UNL     1      -3.704   0.376   0.100  0.00  0.00    +0.201 C 
ATOM     12  C   UNL     1       1.458  -0.257  -0.264  0.00  0.00    +0.146 C 
ATOM     13  C   UNL     1       1.655   1.086   0.084  0.00  0.00    +0.106 C 
ATOM     14  C   UNL     1      -3.159   2.583  -1.055  0.00  0.00    +0.037 C 
ATOM     15  C   UNL     1       2.564  -1.105  -0.385  0.00  0.00    +0.075 C 
ATOM     16  C   UNL     1       0.544   2.059   0.155  0.00  0.00    +0.348 C 
ATOM     17  C   UNL     1       2.944   1.555   0.366  0.00  0.00    -0.010 C 
ATOM     18  C   UNL     1       3.848  -0.632  -0.115  0.00  0.00    +0.135 C 
ATOM     19  C   UNL     1       4.037   0.695   0.267  0.00  0.00    +0.033 C 
ATOM     20  C   UNL     1       3.231   2.976   0.737  0.00  0.00    +0.031 C 
ENDROOT
BRANCH   5  21
ATOM     21  O   UNL     1      -2.228  -1.825  -1.113  0.00  0.00    -0.380 OA
ATOM     22  H   UNL     1      -2.533  -1.054  -1.618  0.00  0.00    +0.211 HD
ENDBRANCH   5  21
BRANCH   7  23
ATOM     23  O   UNL     1      -4.277  -1.825   0.841  0.00  0.00    -0.375 OA
ATOM     24  H   UNL     1      -3.990  -2.616   1.324  0.00  0.00    +0.211 HD
ENDBRANCH   7  23
BRANCH  18  25
ATOM     25  O   UNL     1       4.931  -1.453  -0.218  0.00  0.00    -0.506 OA
ATOM     26  H   UNL     1       4.818  -2.347  -0.474  0.00  0.00    +0.292 HD
ENDBRANCH  18  25
BRANCH  15  27
ATOM     27  C   UNL     1       2.379  -2.535  -0.787  0.00  0.00    +0.170 C 
BRANCH  27  28
ATOM     28  O   UNL     1       1.860  -3.267   0.315  0.00  0.00    -0.377 OA
ATOM     29  H   UNL     1       1.739  -4.194   0.059  0.00  0.00    +0.211 HD
ENDBRANCH  27  28
ENDBRANCH  15  27
TORSDOF 5
