139583703
  -OEChem-03292013293D

 48 50  0     1  0  0  0  0  0999 V2000
   -0.8438   -1.8197   -0.1290 O   0  0  0  0  0  0  0  0  0  0  0  0
    2.6694   -2.4064   -0.5390 O   0  0  0  0  0  0  0  0  0  0  0  0
   -0.1781    1.1391    1.6628 O   0  0  0  0  0  0  0  0  0  0  0  0
   -1.4208   -0.7549    2.1150 O   0  0  0  0  0  0  0  0  0  0  0  0
    0.1538   -3.8804   -0.3645 O   0  0  0  0  0  0  0  0  0  0  0  0
    4.6288    3.7929   -0.5920 O   0  0  0  0  0  0  0  0  0  0  0  0
   -6.6640    0.6131    0.0044 O   0  0  0  0  0  0  0  0  0  0  0  0
   -0.3746   -0.4602   -0.0370 C   0  0  1  0  0  0  0  0  0  0  0  0
    1.0983   -0.5721   -0.2484 C   0  0  0  0  0  0  0  0  0  0  0  0
   -1.1149    0.3793   -1.0682 C   0  0  0  0  0  0  0  0  0  0  0  0
    1.4351   -1.8614   -0.3651 C   0  0  0  0  0  0  0  0  0  0  0  0
    2.0223    0.5726   -0.3381 C   0  0  0  0  0  0  0  0  0  0  0  0
   -0.7334   -0.0709    1.3689 C   0  0  0  0  0  0  0  0  0  0  0  0
   -2.5923    0.4414   -0.7832 C   0  0  0  0  0  0  0  0  0  0  0  0
    0.2136   -2.6660   -0.2884 C   0  0  0  0  0  0  0  0  0  0  0  0
    2.6490    1.0549    0.8111 C   0  0  0  0  0  0  0  0  0  0  0  0
    2.2712    1.1729   -1.5724 C   0  0  0  0  0  0  0  0  0  0  0  0
   -3.1039    1.4552    0.0270 C   0  0  0  0  0  0  0  0  0  0  0  0
   -3.4492   -0.5146   -1.3286 C   0  0  0  0  0  0  0  0  0  0  0  0
    3.2919   -2.6947    0.7057 C   0  0  0  0  0  0  0  0  0  0  0  0
    3.5247    2.1371    0.7258 C   0  0  0  0  0  0  0  0  0  0  0  0
    3.1469    2.2552   -1.6576 C   0  0  0  0  0  0  0  0  0  0  0  0
   -4.4722    1.5132    0.2913 C   0  0  0  0  0  0  0  0  0  0  0  0
   -4.8175   -0.4568   -1.0643 C   0  0  0  0  0  0  0  0  0  0  0  0
    3.7737    2.7373   -0.5084 C   0  0  0  0  0  0  0  0  0  0  0  0
   -5.3290    0.5572   -0.2544 C   0  0  0  0  0  0  0  0  0  0  0  0
   -0.4415    1.6331    2.9799 C   0  0  0  0  0  0  0  0  0  0  0  0
    4.6566   -3.2965    0.4467 C   0  0  0  0  0  0  0  0  0  0  0  0
   -0.9691   -0.0327   -2.0762 H   0  0  0  0  0  0  0  0  0  0  0  0
   -0.7234    1.4045   -1.1017 H   0  0  0  0  0  0  0  0  0  0  0  0
    2.4771    0.5929    1.7801 H   0  0  0  0  0  0  0  0  0  0  0  0
    1.7915    0.8078   -2.4772 H   0  0  0  0  0  0  0  0  0  0  0  0
   -2.4528    2.2156    0.4490 H   0  0  0  0  0  0  0  0  0  0  0  0
   -3.0641   -1.3093   -1.9621 H   0  0  0  0  0  0  0  0  0  0  0  0
    3.4102   -1.7824    1.3007 H   0  0  0  0  0  0  0  0  0  0  0  0
    2.6845   -3.4096    1.2744 H   0  0  0  0  0  0  0  0  0  0  0  0
    4.0086    2.5015    1.6280 H   0  0  0  0  0  0  0  0  0  0  0  0
    3.3371    2.7184   -2.6219 H   0  0  0  0  0  0  0  0  0  0  0  0
   -4.8584    2.3095    0.9218 H   0  0  0  0  0  0  0  0  0  0  0  0
   -5.4800   -1.2044   -1.4920 H   0  0  0  0  0  0  0  0  0  0  0  0
   -1.5180    1.7570    3.1311 H   0  0  0  0  0  0  0  0  0  0  0  0
   -0.0209    0.9546    3.7281 H   0  0  0  0  0  0  0  0  0  0  0  0
    0.0417    2.6086    3.0793 H   0  0  0  0  0  0  0  0  0  0  0  0
    4.5682   -4.2110   -0.1492 H   0  0  0  0  0  0  0  0  0  0  0  0
    5.2812   -2.6026   -0.1256 H   0  0  0  0  0  0  0  0  0  0  0  0
    5.1637   -3.5350    1.3858 H   0  0  0  0  0  0  0  0  0  0  0  0
    4.9706    3.9926    0.2965 H   0  0  0  0  0  0  0  0  0  0  0  0
   -6.8415    1.3763    0.5806 H   0  0  0  0  0  0  0  0  0  0  0  0
  1  8  1  0  0  0  0
  1 15  1  0  0  0  0
  2 11  1  0  0  0  0
  2 20  1  0  0  0  0
  3 13  1  0  0  0  0
  3 27  1  0  0  0  0
  4 13  2  0  0  0  0
  5 15  2  0  0  0  0
  6 25  1  0  0  0  0
  6 47  1  0  0  0  0
  7 26  1  0  0  0  0
  7 48  1  0  0  0  0
  8  9  1  0  0  0  0
  8 10  1  0  0  0  0
  8 13  1  0  0  0  0
  9 11  2  0  0  0  0
  9 12  1  0  0  0  0
 10 14  1  0  0  0  0
 10 29  1  0  0  0  0
 10 30  1  0  0  0  0
 11 15  1  0  0  0  0
 12 16  2  0  0  0  0
 12 17  1  0  0  0  0
 14 18  2  0  0  0  0
 14 19  1  0  0  0  0
 16 21  1  0  0  0  0
 16 31  1  0  0  0  0
 17 22  2  0  0  0  0
 17 32  1  0  0  0  0
 18 23  1  0  0  0  0
 18 33  1  0  0  0  0
 19 24  2  0  0  0  0
 19 34  1  0  0  0  0
 20 28  1  0  0  0  0
 20 35  1  0  0  0  0
 20 36  1  0  0  0  0
 21 25  2  0  0  0  0
 21 37  1  0  0  0  0
 22 25  1  0  0  0  0
 22 38  1  0  0  0  0
 23 26  2  0  0  0  0
 23 39  1  0  0  0  0
 24 26  1  0  0  0  0
 24 40  1  0  0  0  0
 27 41  1  0  0  0  0
 27 42  1  0  0  0  0
 27 43  1  0  0  0  0
 28 44  1  0  0  0  0
 28 45  1  0  0  0  0
 28 46  1  0  0  0  0
M  END
> <PUBCHEM_COMPOUND_CID>
139583703

> <PUBCHEM_CONFORMER_RMSD>
0.8

> <PUBCHEM_CONFORMER_DIVERSEORDER>
1
22
4
14
21
16
12
13
23
3
18
6
11
20
2
19
17
5
7
8
10
15
9

> <PUBCHEM_MMFF94_PARTIAL_CHARGES>
37
1 -0.43
10 0.14
11 0.09
12 0.03
13 0.66
14 -0.14
15 0.71
16 -0.15
17 -0.15
18 -0.15
19 -0.15
2 -0.36
20 0.28
21 -0.15
22 -0.15
23 -0.15
24 -0.15
25 0.08
26 0.08
27 0.28
3 -0.43
31 0.15
32 0.15
33 0.15
34 0.15
37 0.15
38 0.15
39 0.15
4 -0.57
40 0.15
47 0.45
48 0.45
5 -0.57
6 -0.53
7 -0.53
8 0.48
9 -0.17

> <PUBCHEM_EFFECTIVE_ROTOR_COUNT>
7.4

> <PUBCHEM_PHARMACOPHORE_FEATURES>
8
1 2 acceptor
1 4 acceptor
1 5 acceptor
1 6 donor
1 7 donor
5 1 8 9 11 15 rings
6 12 16 17 21 22 25 rings
6 14 18 19 23 24 26 rings

> <PUBCHEM_HEAVY_ATOM_COUNT>
28

> <PUBCHEM_ATOM_DEF_STEREO_COUNT>
1

> <PUBCHEM_ATOM_UDEF_STEREO_COUNT>
0

> <PUBCHEM_BOND_DEF_STEREO_COUNT>
0

> <PUBCHEM_BOND_UDEF_STEREO_COUNT>
0

> <PUBCHEM_ISOTOPIC_ATOM_COUNT>
0

> <PUBCHEM_COMPONENT_COUNT>
1

> <PUBCHEM_CACTVS_TAUTO_COUNT>
-1

> <PUBCHEM_CONFORMER_ID>
0851E0D700000001

> <PUBCHEM_MMFF94_ENERGY>
77.269

> <PUBCHEM_FEATURE_SELFOVERLAP>
40.599

> <PUBCHEM_SHAPE_FINGERPRINT>
10165383 225 18338799025800677493
10930396 42 17970886901437133218
11578080 2 17389139781896891369
12035758 1 18190440720012165946
12035759 4 17489320663065381857
12166972 35 18268989795839675882
12293681 160 17846506979509057752
12633257 1 14997117154852720060
12730499 353 18337684095598394057
12788726 201 17346329176052591529
13140716 1 18408321077458457767
133893 2 18264231152785749700
13590594 115 18047190748286273932
14068700 675 18057596569529106514
14713325 29 17972882741656310923
14849402 71 18409452458043821820
14955137 171 18194967340253201982
15163728 17 18044391636690265116
15238133 3 17417530195130111569
167882 2 18408042914306999726
17349148 13 18269837506177248378
17876694 64 17913768310805961640
17980427 23 17985553243293037952
1813 80 18053950545884760502
18785283 64 18335136462611190326
19319366 153 18271799121448333151
21033648 29 18050566545780038072
21709351 56 18265605477801034855
22149856 69 18190203273304044849
23419403 2 17679054571307844992
23559900 14 17313117323180790663
3004659 81 17988364771560372477
350125 39 18337670819495727900
394222 165 18408315601343228058
474 4 18261111885326417253
5104073 3 18409736132433866715
59755656 520 18339640165449599916
6287921 2 18335704901596009613
6669772 16 17603583036694778682
67856867 119 18411975841234196293
70251023 43 17843422703575104935
9981440 41 18191583275374739224

> <PUBCHEM_SHAPE_MULTIPOLES>
535.14
10.01
3.92
1.71
10.89
1.58
1.08
-3.43
-1.84
-7.1
-0.29
0.05
-0.87
-1.42

> <PUBCHEM_SHAPE_SELFOVERLAP>
1165.494

> <PUBCHEM_SHAPE_VOLUME>
289.9

> <PUBCHEM_COORDINATE_TYPE>
2
5
10

$$$$
