REMARK  Name = 139584805
REMARK  5 active torsions:
REMARK  status: ('A' for Active; 'I' for Inactive)
REMARK    1  A    between atoms: C_4  and  O_17
REMARK    2  A    between atoms: C_13  and  C_24
REMARK    3  A    between atoms: C_15  and  O_19
REMARK    4  A    between atoms: C_16  and  O_21
REMARK    5  A    between atoms: C_24  and  O_25
REMARK                            x       y       z     vdW  Elec       q    Type
REMARK                         _______ _______ _______ _____ _____    ______ ____
ROOT
ATOM      1  O   UNL     1      -4.082  -0.610  -0.607  0.00  0.00    -0.329 OA
ATOM      2  O   UNL     1      -0.257   0.962  -0.109  0.00  0.00    -0.457 OA
ATOM      3  O   UNL     1      -0.659  -3.097  -0.048  0.00  0.00    -0.287 OA
ATOM      4  C   UNL     1      -3.987   0.626   0.111  0.00  0.00    +0.191 C 
ATOM      5  C   UNL     1      -2.653   1.312  -0.233  0.00  0.00    +0.120 C 
ATOM      6  C   UNL     1      -1.496   0.354  -0.167  0.00  0.00    +0.129 A 
ATOM      7  C   UNL     1      -1.708  -0.972  -0.158  0.00  0.00    +0.077 A 
ATOM      8  C   UNL     1      -3.082  -1.566  -0.237  0.00  0.00    +0.177 C 
ATOM      9  C   UNL     1      -0.539  -1.879  -0.072  0.00  0.00    +0.200 A 
ATOM     10  C   UNL     1      -5.156   1.509  -0.328  0.00  0.00    +0.061 C 
ATOM     11  C   UNL     1       0.782  -1.231  -0.015  0.00  0.00    +0.077 A 
ATOM     12  C   UNL     1       0.854   0.161  -0.037  0.00  0.00    +0.157 A 
ATOM     13  C   UNL     1       2.095   0.796   0.017  0.00  0.00    +0.146 C 
ATOM     14  C   UNL     1       1.949  -1.996   0.060  0.00  0.00    +0.046 C 
ATOM     15  C   UNL     1       3.262   0.036   0.092  0.00  0.00    +0.177 C 
ATOM     16  C   UNL     1       3.189  -1.358   0.114  0.00  0.00    +0.168 C 
ENDROOT
BRANCH   4  17
ATOM     17  O   UNL     1      -4.064   0.444   1.527  0.00  0.00    -0.363 OA
ATOM     18  H   UNL     1      -3.328  -0.114   1.822  0.00  0.00    +0.213 HD
ENDBRANCH   4  17
BRANCH  15  19
ATOM     19  O   UNL     1       4.481   0.646   0.145  0.00  0.00    -0.503 OA
ATOM     20  H   UNL     1       4.538   1.581   0.131  0.00  0.00    +0.292 HD
ENDBRANCH  15  19
BRANCH  16  21
ATOM     21  O   UNL     1       4.323  -2.109   0.187  0.00  0.00    -0.503 OA
ATOM     22  H   UNL     1       4.266  -3.045   0.201  0.00  0.00    +0.292 HD
ENDBRANCH  16  21
BRANCH  13  24
ATOM     23  O   UNL     1       1.674   3.008   0.828  0.00  0.00    -0.245 OA
ATOM     24  C   UNL     1       2.180   2.253  -0.005  0.00  0.00    +0.344 C 
BRANCH  24  25
ATOM     25  O   UNL     1       2.895   2.712  -1.067  0.00  0.00    -0.477 OA
ATOM     26  H   UNL     1       3.264   2.106  -1.679  0.00  0.00    +0.295 HD
ENDBRANCH  24  25
ENDBRANCH  13  24
TORSDOF 5
