REMARK  Name = 139586996
REMARK  5 active torsions:
REMARK  status: ('A' for Active; 'I' for Inactive)
REMARK    1  A    between atoms: C_5  and  O_32
REMARK    2  A    between atoms: C_6  and  O_34
REMARK    3  A    between atoms: C_12  and  O_36
REMARK    4  A    between atoms: C_23  and  C_24
REMARK    5  A    between atoms: C_29  and  O_30
REMARK                            x       y       z     vdW  Elec       q    Type
REMARK                         _______ _______ _______ _____ _____    ______ ____
ROOT
ATOM      1  O   UNL     1       0.075  -1.359   0.130  0.00  0.00    -0.480 OA
ATOM      2  O   UNL     1       2.911   1.666   0.257  0.00  0.00    -0.421 OA
ATOM      3  O   UNL     1       1.316   3.221   0.669  0.00  0.00    -0.245 OA
ATOM      4  C   UNL     1      -3.367   0.461   0.418  0.00  0.00    +0.049 C 
ATOM      5  C   UNL     1      -4.190  -0.773  -0.184  0.00  0.00    +0.093 C 
ATOM      6  C   UNL     1      -1.808   0.241   0.114  0.00  0.00    +0.128 C 
ATOM      7  C   UNL     1      -5.770  -0.620  -0.099  0.00  0.00    +0.047 C 
ATOM      8  C   UNL     1      -1.262  -1.124   0.657  0.00  0.00    +0.156 C 
ATOM      9  C   UNL     1      -3.643  -2.107   0.387  0.00  0.00    +0.031 C 
ATOM     10  C   UNL     1      -3.888   1.770  -0.256  0.00  0.00    +0.007 C 
ATOM     11  C   UNL     1      -2.134  -2.289   0.138  0.00  0.00    +0.045 C 
ATOM     12  C   UNL     1      -6.202   0.754  -0.717  0.00  0.00    +0.113 C 
ATOM     13  C   UNL     1      -5.413   1.950  -0.179  0.00  0.00    +0.029 C 
ATOM     14  C   UNL     1      -3.585   0.629   1.951  0.00  0.00    +0.005 C 
ATOM     15  C   UNL     1      -0.867   1.391   0.553  0.00  0.00    +0.066 C 
ATOM     16  C   UNL     1      -6.344  -0.720   1.333  0.00  0.00    +0.005 C 
ATOM     17  C   UNL     1      -6.473  -1.762  -0.892  0.00  0.00    +0.005 C 
ATOM     18  C   UNL     1      -1.121  -1.265   2.189  0.00  0.00    +0.046 C 
ATOM     19  C   UNL     1       0.577   0.986   0.396  0.00  0.00    +0.090 C 
ATOM     20  C   UNL     1       0.944  -0.288   0.178  0.00  0.00    +0.144 C 
ATOM     21  C   UNL     1       1.612   2.050   0.454  0.00  0.00    +0.345 C 
ATOM     22  C   UNL     1       2.320  -0.642  -0.028  0.00  0.00    +0.074 C 
ATOM     23  C   UNL     1       3.256   0.315   0.008  0.00  0.00    +0.152 C 
ENDROOT
BRANCH  23  24
ATOM     24  C   UNL     1       4.697   0.069  -0.180  0.00  0.00    +0.035 C 
ATOM     25  C   UNL     1       5.252   0.122  -1.459  0.00  0.00    +0.006 C 
ATOM     26  C   UNL     1       5.505  -0.218   0.920  0.00  0.00    +0.006 C 
ATOM     27  C   UNL     1       6.615  -0.113  -1.637  0.00  0.00    +0.037 C 
ATOM     28  C   UNL     1       6.869  -0.452   0.741  0.00  0.00    +0.037 C 
ATOM     29  C   UNL     1       7.424  -0.400  -0.537  0.00  0.00    +0.139 C 
BRANCH  29  30
ATOM     30  O   UNL     1       8.754  -0.629  -0.712  0.00  0.00    -0.471 OA
ATOM     31  C   UNL     1       9.522  -0.917   0.456  0.00  0.00    +0.252 C 
ENDBRANCH  29  30
ENDBRANCH  23  24
BRANCH   5  32
ATOM     32  O   UNL     1      -3.896  -0.886  -1.600  0.00  0.00    -0.387 OA
ATOM     33  H   UNL     1      -4.203  -0.088  -2.058  0.00  0.00    +0.210 HD
ENDBRANCH   5  32
BRANCH   6  34
ATOM     34  O   UNL     1      -1.643   0.172  -1.328  0.00  0.00    -0.383 OA
ATOM     35  H   UNL     1      -2.206  -0.533  -1.685  0.00  0.00    +0.210 HD
ENDBRANCH   6  34
BRANCH  12  36
ATOM     36  O   UNL     1      -6.043   0.766  -2.139  0.00  0.00    -0.384 OA
ATOM     37  H   UNL     1      -6.529   0.021  -2.525  0.00  0.00    +0.210 HD
ENDBRANCH  12  36
TORSDOF 5
