REMARK  Name = 139583703
REMARK  9 active torsions:
REMARK  status: ('A' for Active; 'I' for Inactive)
REMARK    1  A    between atoms: C_3  and  C_16
REMARK    2  A    between atoms: C_3  and  C_22
REMARK    3  A    between atoms: C_4  and  C_7
REMARK    4  A    between atoms: C_5  and  O_19
REMARK    5  A    between atoms: C_12  and  O_13
REMARK    6  A    between atoms: C_16  and  O_17
REMARK    7  A    between atoms: O_19  and  C_20
REMARK    8  A    between atoms: C_22  and  C_23
REMARK    9  A    between atoms: C_28  and  O_29
REMARK                            x       y       z     vdW  Elec       q    Type
REMARK                         _______ _______ _______ _____ _____    ______ ____
ROOT
ATOM      1  O   UNL     1      -0.844  -1.820  -0.129  0.00  0.00    -0.435 OA
ATOM      2  O   UNL     1       0.154  -3.880  -0.364  0.00  0.00    -0.241 OA
ATOM      3  C   UNL     1      -0.375  -0.460  -0.037  0.00  0.00    +0.250 C 
ATOM      4  C   UNL     1       1.098  -0.572  -0.248  0.00  0.00    +0.065 C 
ATOM      5  C   UNL     1       1.435  -1.861  -0.365  0.00  0.00    +0.214 C 
ATOM      6  C   UNL     1       0.214  -2.666  -0.288  0.00  0.00    +0.376 C 
ENDROOT
BRANCH   4   7
ATOM      7  C   UNL     1       2.022   0.573  -0.338  0.00  0.00    +0.003 C 
ATOM      8  C   UNL     1       2.649   1.055   0.811  0.00  0.00    +0.003 C 
ATOM      9  C   UNL     1       2.271   1.173  -1.572  0.00  0.00    +0.003 C 
ATOM     10  C   UNL     1       3.525   2.137   0.726  0.00  0.00    +0.037 C 
ATOM     11  C   UNL     1       3.147   2.255  -1.658  0.00  0.00    +0.037 C 
ATOM     12  C   UNL     1       3.774   2.737  -0.508  0.00  0.00    +0.134 C 
BRANCH  12  13
ATOM     13  O   UNL     1       4.629   3.793  -0.592  0.00  0.00    -0.506 OA
ATOM     14  H   UNL     1       5.050   4.117   0.180  0.00  0.00    +0.292 HD
ENDBRANCH  12  13
ENDBRANCH   4   7
BRANCH   3  16
ATOM     15  O   UNL     1      -1.421  -0.755   2.115  0.00  0.00    -0.246 OA
ATOM     16  C   UNL     1      -0.733  -0.071   1.369  0.00  0.00    +0.358 C 
BRANCH  16  17
ATOM     17  O   UNL     1      -0.178   1.139   1.663  0.00  0.00    -0.442 OA
ATOM     18  C   UNL     1      -0.442   1.633   2.980  0.00  0.00    +0.256 C 
ENDBRANCH  16  17
ENDBRANCH   3  16
BRANCH   5  19
ATOM     19  O   UNL     1       2.669  -2.406  -0.539  0.00  0.00    -0.469 OA
BRANCH  19  20
ATOM     20  C   UNL     1       3.292  -2.695   0.706  0.00  0.00    +0.206 C 
ATOM     21  C   UNL     1       4.657  -3.296   0.447  0.00  0.00    +0.051 C 
ENDBRANCH  19  20
ENDBRANCH   5  19
BRANCH   3  22
ATOM     22  C   UNL     1      -1.115   0.379  -1.068  0.00  0.00    +0.082 C 
BRANCH  22  23
ATOM     23  C   UNL     1      -2.592   0.441  -0.783  0.00  0.00    -0.018 C 
ATOM     24  C   UNL     1      -3.104   1.455   0.027  0.00  0.00    -0.001 C 
ATOM     25  C   UNL     1      -3.449  -0.515  -1.329  0.00  0.00    -0.001 C 
ATOM     26  C   UNL     1      -4.472   1.513   0.291  0.00  0.00    +0.036 C 
ATOM     27  C   UNL     1      -4.817  -0.457  -1.064  0.00  0.00    +0.036 C 
ATOM     28  C   UNL     1      -5.329   0.557  -0.254  0.00  0.00    +0.134 C 
BRANCH  28  29
ATOM     29  O   UNL     1      -6.664   0.613   0.004  0.00  0.00    -0.506 OA
ATOM     30  H   UNL     1      -7.008   1.294   0.548  0.00  0.00    +0.292 HD
ENDBRANCH  28  29
ENDBRANCH  22  23
ENDBRANCH   3  22
TORSDOF 9
