REMARK  Name = 139588335
REMARK  2 active torsions:
REMARK  status: ('A' for Active; 'I' for Inactive)
REMARK    1  A    between atoms: C_8  and  O_23
REMARK    2  A    between atoms: C_12  and  O_25
REMARK                            x       y       z     vdW  Elec       q    Type
REMARK                         _______ _______ _______ _____ _____    ______ ____
ROOT
ATOM      1  O   UNL     1      -1.324   1.133  -0.127  0.00  0.00    -0.449 OA
ATOM      2  O   UNL     1       2.244  -0.126  -0.320  0.00  0.00    -0.446 OA
ATOM      3  O   UNL     1      -2.377  -1.465   0.477  0.00  0.00    -0.449 OA
ATOM      4  O   UNL     1      -3.353   2.147  -0.573  0.00  0.00    -0.250 OA
ATOM      5  O   UNL     1       4.110   0.743  -1.363  0.00  0.00    -0.245 OA
ATOM      6  O   UNL     1      -1.024  -2.668  -0.950  0.00  0.00    -0.245 OA
ATOM      7  C   UNL     1      -0.887   2.232   0.700  0.00  0.00    +0.200 C 
ATOM      8  C   UNL     1       0.650   2.302   0.639  0.00  0.00    +0.173 C 
ATOM      9  C   UNL     1      -3.346  -1.196  -0.558  0.00  0.00    +0.180 C 
ATOM     10  C   UNL     1       2.993  -1.269   0.164  0.00  0.00    +0.200 C 
ATOM     11  C   UNL     1      -2.867  -0.049  -1.455  0.00  0.00    +0.153 C 
ATOM     12  C   UNL     1       2.033  -2.466   0.322  0.00  0.00    +0.173 C 
ATOM     13  C   UNL     1      -1.381   1.984   2.125  0.00  0.00    +0.050 C 
ATOM     14  C   UNL     1      -2.568   1.215  -0.683  0.00  0.00    +0.321 C 
ATOM     15  C   UNL     1       1.123   2.547  -0.769  0.00  0.00    +0.013 C 
ATOM     16  C   UNL     1      -4.670  -0.881   0.130  0.00  0.00    +0.048 C 
ATOM     17  C   UNL     1       3.707  -0.888   1.459  0.00  0.00    +0.050 C 
ATOM     18  C   UNL     1       0.958  -2.278   1.365  0.00  0.00    +0.013 C 
ATOM     19  C   UNL     1       2.066   1.910  -1.478  0.00  0.00    +0.080 C 
ATOM     20  C   UNL     1      -0.376  -2.158   1.318  0.00  0.00    +0.080 C 
ATOM     21  C   UNL     1       2.932   0.799  -1.037  0.00  0.00    +0.341 C 
ATOM     22  C   UNL     1      -1.258  -2.159   0.131  0.00  0.00    +0.341 C 
ENDROOT
BRANCH   8  23
ATOM     23  O   UNL     1       1.086   3.396   1.447  0.00  0.00    -0.377 OA
ATOM     24  H   UNL     1       0.792   3.259   2.361  0.00  0.00    +0.211 HD
ENDBRANCH   8  23
BRANCH  12  25
ATOM     25  O   UNL     1       1.528  -2.804  -0.962  0.00  0.00    -0.377 OA
ATOM     26  H   UNL     1       2.266  -2.910  -1.583  0.00  0.00    +0.211 HD
ENDBRANCH  12  25
TORSDOF 2
