REMARK  Name = 139587014
REMARK  7 active torsions:
REMARK  status: ('A' for Active; 'I' for Inactive)
REMARK    1  A    between atoms: C_7  and  O_20
REMARK    2  A    between atoms: C_8  and  C_17
REMARK    3  A    between atoms: C_9  and  O_22
REMARK    4  A    between atoms: C_10  and  O_24
REMARK    5  A    between atoms: C_14  and  O_26
REMARK    6  A    between atoms: C_16  and  C_28
REMARK    7  A    between atoms: C_28  and  O_29
REMARK                            x       y       z     vdW  Elec       q    Type
REMARK                         _______ _______ _______ _____ _____    ______ ____
ROOT
ATOM      1  C   UNL     1      -1.521  -1.380  -0.851  0.00  0.00    +0.042 C 
ATOM      2  C   UNL     1       0.758  -0.654   1.069  0.00  0.00    +0.031 C 
ATOM      3  C   UNL     1       0.304   0.260  -0.115  0.00  0.00    +0.024 C 
ATOM      4  C   UNL     1      -1.172   0.019  -0.360  0.00  0.00    -0.048 C 
ATOM      5  C   UNL     1      -1.066  -2.355   0.260  0.00  0.00    +0.006 C 
ATOM      6  C   UNL     1       0.401  -2.139   0.703  0.00  0.00    +0.003 C 
ATOM      7  C   UNL     1      -3.069  -1.326  -0.992  0.00  0.00    +0.144 C 
ATOM      8  C   UNL     1      -2.268   0.739  -0.062  0.00  0.00    -0.024 C 
ATOM      9  C   UNL     1       2.282  -0.494   1.384  0.00  0.00    +0.141 C 
ATOM     10  C   UNL     1      -3.526  -0.058  -0.267  0.00  0.00    +0.155 C 
ATOM     11  C   UNL     1       0.798   1.710  -0.012  0.00  0.00    +0.030 C 
ATOM     12  C   UNL     1      -0.857  -1.753  -2.193  0.00  0.00    +0.007 C 
ATOM     13  C   UNL     1       0.009  -0.306   2.390  0.00  0.00    +0.003 C 
ATOM     14  C   UNL     1       3.236  -0.337   0.180  0.00  0.00    +0.157 C 
ATOM     15  C   UNL     1       2.200   1.896  -0.527  0.00  0.00    -0.030 C 
ATOM     16  C   UNL     1       3.220   1.015  -0.525  0.00  0.00    +0.009 C 
ENDROOT
BRANCH   8  17
ATOM     17  C   UNL     1      -2.394   2.095   0.547  0.00  0.00    +0.020 C 
ATOM     18  C   UNL     1      -3.144   2.030   1.878  0.00  0.00    +0.004 C 
ATOM     19  C   UNL     1      -3.091   3.053  -0.417  0.00  0.00    +0.004 C 
ENDBRANCH   8  17
BRANCH   7  20
ATOM     20  O   UNL     1      -3.462  -1.207  -2.360  0.00  0.00    -0.381 OA
ATOM     21  H   UNL     1      -3.185  -1.999  -2.846  0.00  0.00    +0.210 HD
ENDBRANCH   7  20
BRANCH   9  22
ATOM     22  O   UNL     1       2.698  -1.623   2.169  0.00  0.00    -0.382 OA
ATOM     23  H   UNL     1       2.102  -1.727   2.927  0.00  0.00    +0.210 HD
ENDBRANCH   9  22
BRANCH  10  24
ATOM     24  O   UNL     1      -4.076  -0.391   1.002  0.00  0.00    -0.378 OA
ATOM     25  H   UNL     1      -4.889  -0.905   0.877  0.00  0.00    +0.211 HD
ENDBRANCH  10  24
BRANCH  14  26
ATOM     26  O   UNL     1       4.568  -0.549   0.685  0.00  0.00    -0.378 OA
ATOM     27  H   UNL     1       4.609  -1.405   1.141  0.00  0.00    +0.211 HD
ENDBRANCH  14  26
BRANCH  16  28
ATOM     28  C   UNL     1       4.474   1.365  -1.294  0.00  0.00    +0.161 C 
BRANCH  28  29
ATOM     29  O   UNL     1       4.696   0.393  -2.292  0.00  0.00    -0.377 OA
ATOM     30  H   UNL     1       5.500   0.615  -2.787  0.00  0.00    +0.211 HD
ENDBRANCH  28  29
ENDBRANCH  16  28
TORSDOF 7
