REMARK  Name = 139589309
REMARK  8 active torsions:
REMARK  status: ('A' for Active; 'I' for Inactive)
REMARK    1  A    between atoms: C_2  and  O_17
REMARK    2  A    between atoms: C_2  and  C_27
REMARK    3  A    between atoms: C_3  and  O_19
REMARK    4  A    between atoms: C_3  and  C_22
REMARK    5  A    between atoms: C_13  and  O_25
REMARK    6  A    between atoms: C_22  and  O_23
REMARK    7  A    between atoms: C_27  and  C_28
REMARK    8  A    between atoms: C_28  and  C_29
REMARK                            x       y       z     vdW  Elec       q    Type
REMARK                         _______ _______ _______ _____ _____    ______ ____
ROOT
ATOM      1  O   UNL     1       0.461  -2.675  -2.422  0.00  0.00    -0.291 OA
ATOM      2  C   UNL     1       1.339   0.134   0.479  0.00  0.00    +0.140 C 
ATOM      3  C   UNL     1       2.191  -1.158   0.496  0.00  0.00    +0.210 C 
ATOM      4  C   UNL     1       2.092  -2.014  -0.785  0.00  0.00    +0.099 C 
ATOM      5  C   UNL     1      -0.097  -0.187   0.111  0.00  0.00    +0.007 C 
ATOM      6  C   UNL     1      -0.386  -1.209  -0.800  0.00  0.00    +0.033 C 
ATOM      7  C   UNL     1       0.702  -2.008  -1.417  0.00  0.00    +0.175 C 
ATOM      8  C   UNL     1       3.135  -1.681  -1.858  0.00  0.00    +0.011 C 
ATOM      9  C   UNL     1      -1.165   0.565   0.633  0.00  0.00    +0.001 C 
ATOM     10  C   UNL     1      -1.712  -1.484  -1.168  0.00  0.00    +0.003 C 
ATOM     11  C   UNL     1      -2.499   0.299   0.278  0.00  0.00    +0.033 C 
ATOM     12  C   UNL     1      -2.776  -0.742  -0.633  0.00  0.00    +0.003 C 
ATOM     13  C   UNL     1      -3.563   1.049   0.808  0.00  0.00    +0.134 C 
ATOM     14  C   UNL     1      -4.109  -1.008  -0.989  0.00  0.00    +0.000 C 
ATOM     15  C   UNL     1      -4.881   0.772   0.446  0.00  0.00    +0.037 C 
ATOM     16  C   UNL     1      -5.154  -0.256  -0.451  0.00  0.00    +0.003 C 
ENDROOT
BRANCH   2  17
ATOM     17  O   UNL     1       1.389   0.710   1.795  0.00  0.00    -0.380 OA
ATOM     18  H   UNL     1       2.310   0.913   2.025  0.00  0.00    +0.211 HD
ENDBRANCH   2  17
BRANCH   3  19
ATOM     19  O   UNL     1       3.551  -0.815   0.776  0.00  0.00    -0.374 OA
ATOM     20  H   UNL     1       3.897  -0.257   0.062  0.00  0.00    +0.211 HD
ENDBRANCH   3  19
BRANCH   3  22
ATOM     21  O   UNL     1       2.563  -2.246   2.638  0.00  0.00    -0.248 OA
ATOM     22  C   UNL     1       1.826  -2.012   1.692  0.00  0.00    +0.341 C 
BRANCH  22  23
ATOM     23  O   UNL     1       0.563  -2.488   1.573  0.00  0.00    -0.479 OA
ATOM     24  H   UNL     1       0.049  -2.270   0.820  0.00  0.00    +0.295 HD
ENDBRANCH  22  23
ENDBRANCH   3  22
BRANCH  13  25
ATOM     25  O   UNL     1      -3.345   2.069   1.690  0.00  0.00    -0.506 OA
ATOM     26  H   UNL     1      -2.471   2.281   1.955  0.00  0.00    +0.292 HD
ENDBRANCH  13  25
BRANCH   2  27
ATOM     27  C   UNL     1       1.865   1.220  -0.474  0.00  0.00    +0.034 C 
BRANCH  27  28
ATOM     28  C   UNL     1       1.350   2.591  -0.059  0.00  0.00    +0.003 C 
BRANCH  28  29
ATOM     29  C   UNL     1       1.899   3.725  -0.944  0.00  0.00    +0.000 C 
ATOM     30  C   UNL     1       1.333   5.092  -0.560  0.00  0.00    +0.000 C 
ATOM     31  C   UNL     1       3.427   3.757  -0.857  0.00  0.00    +0.000 C 
ENDBRANCH  28  29
ENDBRANCH  27  28
ENDBRANCH   2  27
TORSDOF 8
