REMARK  Name = 139591335
REMARK  16 active torsions:
REMARK  status: ('A' for Active; 'I' for Inactive)
REMARK    1  A    between atoms: O_1  and  C_2
REMARK    2  A    between atoms: O_1  and  C_19
REMARK    3  A    between atoms: C_2  and  C_6
REMARK    4  A    between atoms: C_5  and  C_16
REMARK    5  A    between atoms: C_16  and  O_17
REMARK    6  A    between atoms: C_19  and  C_21
REMARK    7  A    between atoms: C_19  and  C_27
REMARK    8  A    between atoms: C_21  and  O_22
REMARK    9  A    between atoms: O_22  and  C_23
REMARK   10  A    between atoms: C_23  and  C_24
REMARK   11  A    between atoms: C_24  and  C_25
REMARK   12  A    between atoms: C_27  and  C_29
REMARK   13  A    between atoms: C_27  and  C_32
REMARK   14  A    between atoms: C_29  and  O_30
REMARK   15  A    between atoms: C_32  and  C_34
REMARK   16  A    between atoms: C_34  and  O_35
REMARK                            x       y       z     vdW  Elec       q    Type
REMARK                         _______ _______ _______ _____ _____    ______ ____
ROOT
ATOM      1  O   UNL     1       0.834  -0.610   0.532  0.00  0.00    -0.344 OA
ENDROOT
BRANCH   1   2
ATOM      2  C   UNL     1      -0.079   0.388   0.125  0.00  0.00    +0.147 C 
BRANCH   2   6
ATOM      3  C   UNL     1      -2.662   0.857  -0.018  0.00  0.00    +0.006 C 
ATOM      4  C   UNL     1      -4.022   0.124   0.321  0.00  0.00    +0.003 C 
ATOM      5  C   UNL     1      -5.316   0.671  -0.384  0.00  0.00    +0.027 C 
ATOM      6  C   UNL     1      -1.492  -0.063   0.534  0.00  0.00    +0.048 C 
ATOM      7  C   UNL     1      -2.546   1.000  -1.557  0.00  0.00    +0.000 C 
ATOM      8  C   UNL     1      -4.173  -0.101   1.843  0.00  0.00    +0.004 C 
ATOM      9  C   UNL     1      -5.042   0.853  -1.897  0.00  0.00    +0.002 C 
ATOM     10  C   UNL     1      -3.773   1.633  -2.209  0.00  0.00    +0.000 C 
ATOM     11  C   UNL     1      -2.538   2.265   0.618  0.00  0.00    +0.000 C 
ATOM     12  C   UNL     1      -2.997  -0.897   2.414  0.00  0.00    +0.022 C 
ATOM     13  C   UNL     1      -1.670  -0.289   2.035  0.00  0.00    -0.042 C 
ATOM     14  C   UNL     1      -5.869   1.977   0.216  0.00  0.00    +0.002 C 
ATOM     15  C   UNL     1      -0.770   0.016   2.984  0.00  0.00    -0.009 C 
BRANCH   5  16
ATOM     16  C   UNL     1      -6.457  -0.375  -0.263  0.00  0.00    +0.137 C 
BRANCH  16  17
ATOM     17  O   UNL     1      -7.582   0.146  -0.929  0.00  0.00    -0.382 OA
ATOM     18  H   UNL     1      -8.315  -0.487  -0.871  0.00  0.00    +0.210 HD
ENDBRANCH  16  17
ENDBRANCH   5  16
ENDBRANCH   2   6
ENDBRANCH   1   2
BRANCH   1  19
ATOM     19  C   UNL     1       2.066  -0.523  -0.178  0.00  0.00    +0.224 C 
BRANCH  19  21
ATOM     20  O   UNL     1       2.536   1.162   1.512  0.00  0.00    -0.247 OA
ATOM     21  C   UNL     1       2.868   0.584   0.485  0.00  0.00    +0.345 C 
BRANCH  21  22
ATOM     22  O   UNL     1       3.990   0.844  -0.245  0.00  0.00    -0.447 OA
BRANCH  22  23
ATOM     23  C   UNL     1       4.830   1.887   0.259  0.00  0.00    +0.209 C 
BRANCH  23  24
ATOM     24  C   UNL     1       6.027   2.046  -0.667  0.00  0.00    +0.047 C 
BRANCH  24  25
ATOM     25  C   UNL     1       6.977   3.136  -0.178  0.00  0.00    +0.004 C 
ATOM     26  C   UNL     1       8.193   3.262  -1.082  0.00  0.00    +0.000 C 
ENDBRANCH  24  25
ENDBRANCH  23  24
ENDBRANCH  22  23
ENDBRANCH  21  22
ENDBRANCH  19  21
BRANCH  19  27
ATOM     27  C   UNL     1       2.736  -1.910  -0.186  0.00  0.00    +0.148 C 
BRANCH  27  29
ATOM     28  O   UNL     1       2.381  -3.029   1.952  0.00  0.00    -0.250 OA
ATOM     29  C   UNL     1       3.106  -2.366   1.221  0.00  0.00    +0.317 C 
BRANCH  29  30
ATOM     30  O   UNL     1       4.353  -1.972   1.584  0.00  0.00    -0.480 OA
ATOM     31  H   UNL     1       4.875  -1.465   0.993  0.00  0.00    +0.295 HD
ENDBRANCH  29  30
ENDBRANCH  27  29
BRANCH  27  32
ATOM     32  C   UNL     1       1.875  -2.993  -0.855  0.00  0.00    +0.124 C 
BRANCH  32  34
ATOM     33  O   UNL     1       2.419  -2.459  -3.148  0.00  0.00    -0.250 OA
ATOM     34  C   UNL     1       1.565  -2.662  -2.295  0.00  0.00    +0.314 C 
BRANCH  34  35
ATOM     35  O   UNL     1       0.233  -2.606  -2.543  0.00  0.00    -0.480 OA
ATOM     36  H   UNL     1      -0.379  -2.770  -1.854  0.00  0.00    +0.295 HD
ENDBRANCH  34  35
ENDBRANCH  32  34
ENDBRANCH  27  32
ENDBRANCH  19  27
ENDBRANCH   1  19
TORSDOF 16
