REMARK  Name = 139585293
REMARK  4 active torsions:
REMARK  status: ('A' for Active; 'I' for Inactive)
REMARK    1  A    between atoms: C_8  and  O_33
REMARK    2  A    between atoms: C_17  and  O_35
REMARK    3  A    between atoms: C_26  and  O_37
REMARK    4  A    between atoms: C_29  and  O_39
REMARK                            x       y       z     vdW  Elec       q    Type
REMARK                         _______ _______ _______ _____ _____    ______ ____
ROOT
ATOM      1  O   UNL     1      -2.791   2.531  -1.111  0.00  0.00    -0.445 OA
ATOM      2  O   UNL     1      -1.003  -3.386   0.203  0.00  0.00    -0.291 OA
ATOM      3  O   UNL     1      -0.139   2.765  -0.111  0.00  0.00    -0.289 OA
ATOM      4  O   UNL     1       3.954   2.473   1.048  0.00  0.00    -0.442 OA
ATOM      5  O   UNL     1      -4.127   3.024   0.628  0.00  0.00    -0.245 OA
ATOM      6  O   UNL     1       5.862   1.279   1.042  0.00  0.00    -0.245 OA
ATOM      7  C   UNL     1      -1.617   0.379  -1.317  0.00  0.00    +0.106 C 
ATOM      8  C   UNL     1      -1.398  -0.817  -2.279  0.00  0.00    +0.133 C 
ATOM      9  C   UNL     1      -0.472  -1.703  -1.437  0.00  0.00    +0.111 C 
ATOM     10  C   UNL     1      -0.178   0.539  -0.870  0.00  0.00    +0.021 C 
ATOM     11  C   UNL     1       0.464  -0.643  -0.920  0.00  0.00    -0.014 C 
ATOM     12  C   UNL     1      -2.463  -0.086  -0.149  0.00  0.00    -0.001 C 
ATOM     13  C   UNL     1      -2.304   1.532  -2.029  0.00  0.00    +0.219 C 
ATOM     14  C   UNL     1      -1.254  -2.274  -0.248  0.00  0.00    +0.178 C 
ATOM     15  C   UNL     1      -2.300  -1.393   0.362  0.00  0.00    +0.028 C 
ATOM     16  C   UNL     1       1.835  -0.836  -0.464  0.00  0.00    -0.009 C 
ATOM     17  C   UNL     1       2.016   1.687  -0.217  0.00  0.00    +0.202 C 
ATOM     18  C   UNL     1       0.499   1.744  -0.356  0.00  0.00    +0.201 C 
ATOM     19  C   UNL     1       2.575   0.296  -0.074  0.00  0.00    +0.021 C 
ATOM     20  C   UNL     1      -3.380   0.779   0.447  0.00  0.00    +0.106 C 
ATOM     21  C   UNL     1      -3.075  -1.838   1.431  0.00  0.00    -0.016 C 
ATOM     22  C   UNL     1       2.511   2.506   0.966  0.00  0.00    +0.247 C 
ATOM     23  C   UNL     1       2.419  -2.105  -0.366  0.00  0.00    -0.019 C 
ATOM     24  C   UNL     1       3.869   0.139   0.441  0.00  0.00    +0.108 C 
ATOM     25  C   UNL     1      -3.490   2.187   0.002  0.00  0.00    +0.344 C 
ATOM     26  C   UNL     1      -4.158   0.331   1.521  0.00  0.00    +0.139 C 
ATOM     27  C   UNL     1      -4.009  -0.973   2.002  0.00  0.00    +0.033 C 
ATOM     28  C   UNL     1       3.716  -2.249   0.128  0.00  0.00    +0.033 C 
ATOM     29  C   UNL     1       4.442  -1.132   0.536  0.00  0.00    +0.139 C 
ATOM     30  C   UNL     1       4.651   1.320   0.872  0.00  0.00    +0.344 C 
ATOM     31  C   UNL     1      -2.971  -3.208   2.017  0.00  0.00    +0.031 C 
ATOM     32  C   UNL     1       1.772  -3.390  -0.763  0.00  0.00    +0.031 C 
ENDROOT
BRANCH   8  33
ATOM     33  O   UNL     1      -2.578  -1.499  -2.668  0.00  0.00    -0.383 OA
ATOM     34  H   UNL     1      -3.135  -0.906  -3.197  0.00  0.00    +0.210 HD
ENDBRANCH   8  33
BRANCH  17  35
ATOM     35  O   UNL     1       2.512   2.239  -1.436  0.00  0.00    -0.373 OA
ATOM     36  H   UNL     1       2.192   1.711  -2.184  0.00  0.00    +0.211 HD
ENDBRANCH  17  35
BRANCH  26  37
ATOM     37  O   UNL     1      -5.083   1.122   2.136  0.00  0.00    -0.505 OA
ATOM     38  H   UNL     1      -5.214   2.003   1.845  0.00  0.00    +0.292 HD
ENDBRANCH  26  37
BRANCH  29  39
ATOM     39  O   UNL     1       5.694  -1.340   1.032  0.00  0.00    -0.505 OA
ATOM     40  H   UNL     1       6.212  -0.613   1.316  0.00  0.00    +0.292 HD
ENDBRANCH  29  39
TORSDOF 4
