REMARK  Name = 139584465
REMARK  5 active torsions:
REMARK  status: ('A' for Active; 'I' for Inactive)
REMARK    1  A    between atoms: C_3  and  C_12
REMARK    2  A    between atoms: C_8  and  O_23
REMARK    3  A    between atoms: C_10  and  O_25
REMARK    4  A    between atoms: C_14  and  O_19
REMARK    5  A    between atoms: C_18  and  O_21
REMARK                            x       y       z     vdW  Elec       q    Type
REMARK                         _______ _______ _______ _____ _____    ______ ____
ROOT
ATOM      1  O   UNL     1      -0.264   0.791  -0.005  0.00  0.00    -0.453 OA
ATOM      2  O   UNL     1      -1.929  -2.927   0.039  0.00  0.00    -0.286 OA
ATOM      3  C   UNL     1       0.516  -0.355  -0.003  0.00  0.00    +0.151 C 
ATOM      4  C   UNL     1      -2.263  -0.588   0.009  0.00  0.00    +0.107 C 
ATOM      5  C   UNL     1      -1.629   0.653  -0.003  0.00  0.00    +0.154 C 
ATOM      6  C   UNL     1       0.024  -1.604   0.017  0.00  0.00    +0.080 C 
ATOM      7  C   UNL     1      -1.439  -1.806   0.023  0.00  0.00    +0.205 C 
ATOM      8  C   UNL     1      -3.658  -0.669   0.010  0.00  0.00    +0.143 C 
ATOM      9  C   UNL     1      -2.387   1.824  -0.014  0.00  0.00    +0.074 C 
ATOM     10  C   UNL     1      -3.780   1.748  -0.013  0.00  0.00    +0.140 C 
ATOM     11  C   UNL     1      -4.414   0.504  -0.001  0.00  0.00    +0.073 C 
ENDROOT
BRANCH   3  12
ATOM     12  C   UNL     1       1.969  -0.092  -0.001  0.00  0.00    +0.065 C 
ATOM     13  C   UNL     1       2.666   0.012  -1.205  0.00  0.00    -0.013 C 
ATOM     14  C   UNL     1       2.645   0.051   1.211  0.00  0.00    +0.139 C 
ATOM     15  C   UNL     1       4.038   0.260  -1.197  0.00  0.00    +0.033 C 
ATOM     16  C   UNL     1       4.018   0.300   1.219  0.00  0.00    +0.073 C 
ATOM     17  C   UNL     1       1.977  -0.137  -2.524  0.00  0.00    +0.031 C 
ATOM     18  C   UNL     1       4.714   0.404   0.015  0.00  0.00    +0.136 C 
BRANCH  14  19
ATOM     19  O   UNL     1       1.991  -0.045   2.404  0.00  0.00    -0.505 OA
ATOM     20  H   UNL     1       1.069  -0.212   2.421  0.00  0.00    +0.292 HD
ENDBRANCH  14  19
BRANCH  18  21
ATOM     21  O   UNL     1       6.053   0.646   0.023  0.00  0.00    -0.505 OA
ATOM     22  H   UNL     1       6.522   0.717  -0.786  0.00  0.00    +0.292 HD
ENDBRANCH  18  21
ENDBRANCH   3  12
BRANCH   8  23
ATOM     23  O   UNL     1      -4.324  -1.856   0.022  0.00  0.00    -0.505 OA
ATOM     24  H   UNL     1      -3.846  -2.662   0.030  0.00  0.00    +0.292 HD
ENDBRANCH   8  23
BRANCH  10  25
ATOM     25  O   UNL     1      -4.524   2.888  -0.024  0.00  0.00    -0.505 OA
ATOM     26  H   UNL     1      -4.100   3.724  -0.032  0.00  0.00    +0.292 HD
ENDBRANCH  10  25
TORSDOF 5
