REMARK  Name = 139585687
REMARK  6 active torsions:
REMARK  status: ('A' for Active; 'I' for Inactive)
REMARK    1  A    between atoms: C_6  and  O_15
REMARK    2  A    between atoms: C_10  and  O_17
REMARK    3  A    between atoms: C_12  and  C_19
REMARK    4  A    between atoms: C_20  and  C_21
REMARK    5  A    between atoms: C_22  and  C_25
REMARK    6  A    between atoms: C_27  and  O_31
REMARK                            x       y       z     vdW  Elec       q    Type
REMARK                         _______ _______ _______ _____ _____    ______ ____
ROOT
ATOM      1  O   UNL     1      -4.473   1.189  -1.501  0.00  0.00    -0.328 OA
ATOM      2  O   UNL     1      -4.593  -1.181  -1.341  0.00  0.00    -0.330 OA
ATOM      3  O   UNL     1      -2.564   0.325   0.645  0.00  0.00    -0.349 OA
ATOM      4  C   UNL     1      -5.059   0.167   0.593  0.00  0.00    +0.104 C 
ATOM      5  C   UNL     1      -3.807   1.039   0.757  0.00  0.00    +0.152 C 
ATOM      6  C   UNL     1      -4.992  -1.315   0.999  0.00  0.00    +0.120 C 
ATOM      7  C   UNL     1      -5.168   0.072  -0.931  0.00  0.00    +0.240 C 
ATOM      8  C   UNL     1      -3.861   1.954  -0.451  0.00  0.00    +0.174 C 
ATOM      9  C   UNL     1      -4.246  -1.956  -0.178  0.00  0.00    +0.142 C 
ATOM     10  C   UNL     1      -2.405   2.228  -0.735  0.00  0.00    +0.171 C 
ATOM     11  C   UNL     1      -6.266   0.921   1.184  0.00  0.00    +0.010 C 
ATOM     12  C   UNL     1      -1.770   0.886  -0.414  0.00  0.00    +0.166 C 
ATOM     13  C   UNL     1      -4.352  -1.604   2.353  0.00  0.00    +0.032 C 
ATOM     14  C   UNL     1      -4.570  -3.417  -0.457  0.00  0.00    +0.035 C 
ENDROOT
BRANCH   6  15
ATOM     15  O   UNL     1      -6.317  -1.865   1.025  0.00  0.00    -0.384 OA
ATOM     16  H   UNL     1      -6.753  -1.697   0.175  0.00  0.00    +0.210 HD
ENDBRANCH   6  15
BRANCH  10  17
ATOM     17  O   UNL     1      -2.193   2.630  -2.072  0.00  0.00    -0.379 OA
ATOM     18  H   UNL     1      -2.618   3.489  -2.222  0.00  0.00    +0.211 HD
ENDBRANCH  10  17
BRANCH  12  19
ATOM     19  C   UNL     1      -0.355   1.004   0.038  0.00  0.00    +0.005 C 
ATOM     20  C   UNL     1       0.668   0.361  -0.544  0.00  0.00    -0.002 C 
BRANCH  20  21
ATOM     21  C   UNL     1       2.037   0.482  -0.097  0.00  0.00    +0.003 C 
ATOM     22  C   UNL     1       3.056  -0.163  -0.681  0.00  0.00    +0.037 C 
BRANCH  22  25
ATOM     23  O   UNL     1       4.532   0.824   0.871  0.00  0.00    -0.421 OA
ATOM     24  O   UNL     1       5.839   1.843   2.423  0.00  0.00    -0.244 OA
ATOM     25  C   UNL     1       4.418  -0.048  -0.243  0.00  0.00    +0.148 C 
ATOM     26  C   UNL     1       5.495  -0.661  -0.774  0.00  0.00    +0.047 C 
ATOM     27  C   UNL     1       6.785  -0.395  -0.162  0.00  0.00    +0.144 C 
ATOM     28  C   UNL     1       5.441  -1.596  -1.955  0.00  0.00    +0.037 C 
ATOM     29  C   UNL     1       5.733   1.090   1.462  0.00  0.00    +0.349 C 
ATOM     30  C   UNL     1       6.913   0.425   0.888  0.00  0.00    +0.119 C 
BRANCH  27  31
ATOM     31  O   UNL     1       7.922  -1.000  -0.669  0.00  0.00    -0.471 OA
ATOM     32  C   UNL     1       8.152  -2.240  -0.032  0.00  0.00    +0.252 C 
ENDBRANCH  27  31
ENDBRANCH  22  25
ENDBRANCH  20  21
ENDBRANCH  12  19
TORSDOF 6
