139587257
  -OEChem-03292013293D

 39 39  0     1  0  0  0  0  0999 V2000
    3.2087    1.8702    0.2286 O   0  0  0  0  0  0  0  0  0  0  0  0
    4.7059   -1.0633    1.4374 O   0  0  0  0  0  0  0  0  0  0  0  0
   -2.6932    1.9803    0.0122 O   0  0  0  0  0  0  0  0  0  0  0  0
    0.0028   -1.8988   -0.1867 O   0  0  0  0  0  0  0  0  0  0  0  0
   -2.3180   -1.5418   -0.0373 N   0  0  0  0  0  0  0  0  0  0  0  0
    0.2041    2.3595    0.3850 N   0  0  0  0  0  0  0  0  0  0  0  0
    2.6508    0.5765    0.0050 C   0  0  2  0  0  0  0  0  0  0  0  0
    3.7285   -0.3131   -0.6256 C   0  0  0  0  0  0  0  0  0  0  0  0
    1.4416    0.7031   -0.9280 C   0  0  0  0  0  0  0  0  0  0  0  0
    5.0203   -0.4312    0.1953 C   0  0  2  0  0  0  0  0  0  0  0  0
    0.2176    1.1934   -0.1775 C   0  0  0  0  0  0  0  0  0  0  0  0
   -0.9595    0.3088   -0.1092 C   0  0  0  0  0  0  0  0  0  0  0  0
   -2.2434    0.6906   -0.0254 C   0  0  0  0  0  0  0  0  0  0  0  0
   -3.1274   -0.4424    0.0220 C   0  0  0  0  0  0  0  0  0  0  0  0
    6.1098   -1.2419   -0.4936 C   0  0  0  0  0  0  0  0  0  0  0  0
   -0.9792   -1.1808   -0.1191 C   0  0  0  0  0  0  0  0  0  0  0  0
   -4.4586   -0.5001    0.1057 C   0  0  0  0  0  0  0  0  0  0  0  0
   -5.3096    0.7375    0.1683 C   0  0  0  0  0  0  0  0  0  0  0  0
   -5.2013   -1.8064    0.1429 C   0  0  0  0  0  0  0  0  0  0  0  0
    2.3484    0.1721    0.9771 H   0  0  0  0  0  0  0  0  0  0  0  0
    3.3073   -1.3150   -0.7791 H   0  0  0  0  0  0  0  0  0  0  0  0
    3.9910    0.0883   -1.6132 H   0  0  0  0  0  0  0  0  0  0  0  0
    1.2277   -0.2429   -1.4309 H   0  0  0  0  0  0  0  0  0  0  0  0
    1.6440    1.4388   -1.7172 H   0  0  0  0  0  0  0  0  0  0  0  0
    5.4131    0.5665    0.4205 H   0  0  0  0  0  0  0  0  0  0  0  0
    5.7756   -2.2694   -0.6739 H   0  0  0  0  0  0  0  0  0  0  0  0
    7.0015   -1.3063    0.1392 H   0  0  0  0  0  0  0  0  0  0  0  0
    6.3925   -0.7918   -1.4499 H   0  0  0  0  0  0  0  0  0  0  0  0
   -2.6331   -2.5031   -0.0247 H   0  0  0  0  0  0  0  0  0  0  0  0
    3.5059    2.2228   -0.6275 H   0  0  0  0  0  0  0  0  0  0  0  0
    5.5221   -1.0958    1.9651 H   0  0  0  0  0  0  0  0  0  0  0  0
    1.0980    2.8390    0.2351 H   0  0  0  0  0  0  0  0  0  0  0  0
   -5.7859   -1.8716    1.0673 H   0  0  0  0  0  0  0  0  0  0  0  0
   -5.8970   -1.8588   -0.7020 H   0  0  0  0  0  0  0  0  0  0  0  0
   -4.5782   -2.7010    0.0973 H   0  0  0  0  0  0  0  0  0  0  0  0
   -5.1857    1.3467   -0.7328 H   0  0  0  0  0  0  0  0  0  0  0  0
   -6.3726    0.4796    0.2338 H   0  0  0  0  0  0  0  0  0  0  0  0
   -5.0726    1.3341    1.0551 H   0  0  0  0  0  0  0  0  0  0  0  0
   -1.9270    2.5762   -0.0388 H   0  0  0  0  0  0  0  0  0  0  0  0
  1  7  1  0  0  0  0
  1 30  1  0  0  0  0
  2 10  1  0  0  0  0
  2 31  1  0  0  0  0
  3 13  1  0  0  0  0
  3 39  1  0  0  0  0
  4 16  2  0  0  0  0
  5 14  1  0  0  0  0
  5 16  1  0  0  0  0
  5 29  1  0  0  0  0
  6 11  2  0  0  0  0
  6 32  1  0  0  0  0
  7  8  1  0  0  0  0
  7  9  1  0  0  0  0
  7 20  1  0  0  0  0
  8 10  1  0  0  0  0
  8 21  1  0  0  0  0
  8 22  1  0  0  0  0
  9 11  1  0  0  0  0
  9 23  1  0  0  0  0
  9 24  1  0  0  0  0
 10 15  1  0  0  0  0
 10 25  1  0  0  0  0
 11 12  1  0  0  0  0
 12 13  2  0  0  0  0
 12 16  1  0  0  0  0
 13 14  1  0  0  0  0
 14 17  2  0  0  0  0
 15 26  1  0  0  0  0
 15 27  1  0  0  0  0
 15 28  1  0  0  0  0
 17 18  1  0  0  0  0
 17 19  1  0  0  0  0
 18 36  1  0  0  0  0
 18 37  1  0  0  0  0
 18 38  1  0  0  0  0
 19 33  1  0  0  0  0
 19 34  1  0  0  0  0
 19 35  1  0  0  0  0
M  END
> <PUBCHEM_COMPOUND_CID>
139587257

> <PUBCHEM_CONFORMER_RMSD>
0.8

> <PUBCHEM_CONFORMER_DIVERSEORDER>
1
47
156
76
220
71
175
105
108
170
78
3
195
184
80
32
151
83
136
192
223
153
91
222
117
112
110
219
190
207
35
200
131
63
4
36
113
87
199
135
70
163
214
179
118
5
90
49
127
160
162
65
9
209
121
206
97
180
144
225
2
169
88
85
191
54
189
146
172
202
111
218
161
128
143
48
39
178
96
40
181
84
13
60
8
37
18
10
50
57
106
24
45
196
89
119
14
67
165
29
149
20
15
155
226
98
19
140
6
38
177
186
194
41
11
168
148
176
28
104
109
174
147
23
73
72
158
107
46
42
79
62
215
55
166
66
43
137
133
68
16
142
198
81
59
26
164
126
95
30
145
115
94
116
92
213
171
27
7
157
173
216
129
187
82
34
134
125
25
101
159
123
152
204
102
74
17
103
132
77
100
203
193
56
221
167
212
122
64
114
75
44
99
21
61
188
211
139
31
33
52
154
58
12
217
201
138
150
69
141
224
185
93
22
183
197
205
86
120
210
130
208
124
51
182
53

> <PUBCHEM_MMFF94_PARTIAL_CHARGES>
22
1 -0.68
10 0.28
11 0.37
12 0.03
13 0.08
14 0.11
16 0.62
17 -0.28
18 0.14
19 0.14
2 -0.68
29 0.37
3 -0.53
30 0.4
31 0.4
32 0.4
39 0.45
4 -0.57
5 -0.54
6 -0.85
7 0.28
9 0.06

> <PUBCHEM_EFFECTIVE_ROTOR_COUNT>
5.2

> <PUBCHEM_PHARMACOPHORE_FEATURES>
11
1 1 acceptor
1 1 donor
1 2 acceptor
1 2 donor
1 3 donor
1 4 acceptor
1 5 donor
1 6 acceptor
1 6 donor
3 17 18 19 hydrophobe
5 5 12 13 14 16 rings

> <PUBCHEM_HEAVY_ATOM_COUNT>
19

> <PUBCHEM_ATOM_DEF_STEREO_COUNT>
2

> <PUBCHEM_ATOM_UDEF_STEREO_COUNT>
0

> <PUBCHEM_BOND_DEF_STEREO_COUNT>
0

> <PUBCHEM_BOND_UDEF_STEREO_COUNT>
0

> <PUBCHEM_ISOTOPIC_ATOM_COUNT>
0

> <PUBCHEM_COMPONENT_COUNT>
1

> <PUBCHEM_CACTVS_TAUTO_COUNT>
-1

> <PUBCHEM_CONFORMER_ID>
0851EEB900000001

> <PUBCHEM_MMFF94_ENERGY>
43.8827

> <PUBCHEM_FEATURE_SELFOVERLAP>
55.826

> <PUBCHEM_SHAPE_FINGERPRINT>
10062212 137 18411133675742075375
10968037 39 18261115188382783302
12236239 1 18040156210551866478
12403259 226 18267581489449424565
12715332 25 18059294365674366335
13288520 33 18410577266580409452
13533116 47 18338799038827594632
13551218 46 18410573942450308670
13690532 89 18408605893950717141
13862211 1 18412544349213266047
14251731 8 18260546701699585229
15042514 8 18339082726108595351
15048467 5 10663827364640134131
15196674 1 18411139177368061773
15885798 251 18410011044120683060
17804303 29 18411139160024733757
17834072 8 18261106361977050861
17862501 102 18411982485759625599
1813 80 17313376851402269748
19141452 34 18060419144341556671
20028762 73 18059009604905899527
20374829 77 18409167709779538684
20645477 70 18408887369243971494
21150785 3 12324243910260603379
21267235 1 18410020935256220998
2297311 6 18272098158667142596
23402539 116 18201715159139601893
23559900 14 18341610464622544344
296302 2 10303825276179318517
3004659 81 18259989275722875140
335352 9 18410857651321268381
351380 180 18272088309589675438
351380 3 18260828190036315106
42 15 18408887347204690964
4214541 1 18410576162721372061
4340502 62 14908185260951313143
465052 167 18335991955445405054
5104073 3 18341619269241873609
559249 180 18189048711993868858
59755656 215 18337391526526193759
6138700 20 18409451345410220486
9709674 26 18192715767776779970

> <PUBCHEM_SHAPE_MULTIPOLES>
357.57
12.66
2.03
0.78
6.54
0.37
0.06
-5.16
1
-0.53
0.13
0.65
-0.07
-0.07

> <PUBCHEM_SHAPE_SELFOVERLAP>
729.013

> <PUBCHEM_SHAPE_VOLUME>
207.2

> <PUBCHEM_COORDINATE_TYPE>
2
5
10

$$$$
