REMARK  Name = 139587223
REMARK  6 active torsions:
REMARK  status: ('A' for Active; 'I' for Inactive)
REMARK    1  A    between atoms: C_6  and  O_27
REMARK    2  A    between atoms: C_7  and  O_29
REMARK    3  A    between atoms: C_8  and  O_25
REMARK    4  A    between atoms: C_9  and  O_31
REMARK    5  A    between atoms: C_14  and  O_33
REMARK    6  A    between atoms: C_16  and  C_19
REMARK                            x       y       z     vdW  Elec       q    Type
REMARK                         _______ _______ _______ _____ _____    ______ ____
ROOT
ATOM      1  O   UNL     1       1.281   0.152  -0.751  0.00  0.00    -0.332 OA
ATOM      2  O   UNL     1      -1.392  -1.046   0.258  0.00  0.00    -0.445 OA
ATOM      3  O   UNL     1      -0.397  -1.269   2.327  0.00  0.00    -0.250 OA
ATOM      4  C   UNL     1       2.112   1.322  -0.851  0.00  0.00    +0.147 C 
ATOM      5  C   UNL     1       1.206   2.586  -0.908  0.00  0.00    +0.030 C 
ATOM      6  C   UNL     1       3.222   1.317   0.222  0.00  0.00    +0.167 C 
ATOM      7  C   UNL     1       1.980  -1.093  -0.905  0.00  0.00    +0.212 C 
ATOM      8  C   UNL     1       3.063  -1.192   0.186  0.00  0.00    +0.195 C 
ATOM      9  C   UNL     1       4.020   0.008   0.174  0.00  0.00    +0.172 C 
ATOM     10  C   UNL     1       0.356   2.942   0.339  0.00  0.00    +0.005 C 
ATOM     11  C   UNL     1      -0.480   1.830   1.014  0.00  0.00    +0.031 C 
ATOM     12  C   UNL     1       0.959  -2.258  -0.864  0.00  0.00    +0.070 C 
ATOM     13  C   UNL     1       2.034   3.821  -1.301  0.00  0.00    +0.003 C 
ATOM     14  C   UNL     1      -1.743   1.381   0.229  0.00  0.00    +0.155 C 
ATOM     15  C   UNL     1       0.342  -2.630   0.486  0.00  0.00    +0.115 C 
ATOM     16  C   UNL     1      -2.292   0.006   0.691  0.00  0.00    +0.218 C 
ATOM     17  C   UNL     1      -0.888   2.311   2.419  0.00  0.00    +0.003 C 
ATOM     18  C   UNL     1      -0.499  -1.564   1.143  0.00  0.00    +0.317 C 
ENDROOT
BRANCH  16  19
ATOM     19  C   UNL     1      -3.675  -0.259   0.119  0.00  0.00    +0.020 C 
ATOM     20  C   UNL     1      -4.810   0.143   0.822  0.00  0.00    -0.001 C 
ATOM     21  C   UNL     1      -3.809  -0.905  -1.110  0.00  0.00    -0.001 C 
ATOM     22  C   UNL     1      -6.079  -0.100   0.297  0.00  0.00    -0.000 C 
ATOM     23  C   UNL     1      -5.077  -1.148  -1.636  0.00  0.00    -0.000 C 
ATOM     24  C   UNL     1      -6.213  -0.746  -0.932  0.00  0.00    -0.000 C 
ENDBRANCH  16  19
BRANCH   8  25
ATOM     25  O   UNL     1       3.800  -2.404   0.066  0.00  0.00    -0.346 OA
ATOM     26  C   UNL     1       4.365  -2.793   1.310  0.00  0.00    +0.174 C 
ENDBRANCH   8  25
BRANCH   6  27
ATOM     27  O   UNL     1       2.663   1.460   1.522  0.00  0.00    -0.379 OA
ATOM     28  H   UNL     1       2.155   2.285   1.567  0.00  0.00    +0.211 HD
ENDBRANCH   6  27
BRANCH   7  29
ATOM     29  O   UNL     1       2.611  -1.158  -2.194  0.00  0.00    -0.362 OA
ATOM     30  H   UNL     1       3.264  -0.445  -2.271  0.00  0.00    +0.213 HD
ENDBRANCH   7  29
BRANCH   9  31
ATOM     31  O   UNL     1       4.824  -0.019  -1.003  0.00  0.00    -0.379 OA
ATOM     32  H   UNL     1       5.425   0.742  -1.002  0.00  0.00    +0.211 HD
ENDBRANCH   9  31
BRANCH  14  33
ATOM     33  O   UNL     1      -1.484   1.306  -1.170  0.00  0.00    -0.380 OA
ATOM     34  H   UNL     1      -1.138   2.157  -1.481  0.00  0.00    +0.211 HD
ENDBRANCH  14  33
TORSDOF 6
