REMARK  Name = 139587466
REMARK  10 active torsions:
REMARK  status: ('A' for Active; 'I' for Inactive)
REMARK    1  A    between atoms: C_10  and  C_21
REMARK    2  A    between atoms: C_13  and  C_18
REMARK    3  A    between atoms: C_18  and  O_19
REMARK    4  A    between atoms: C_21  and  C_23
REMARK    5  A    between atoms: C_23  and  O_24
REMARK    6  A    between atoms: C_23  and  C_26
REMARK    7  A    between atoms: C_26  and  C_27
REMARK    8  A    between atoms: C_26  and  O_34
REMARK    9  A    between atoms: C_28  and  C_31
REMARK   10  A    between atoms: C_31  and  O_32
REMARK                            x       y       z     vdW  Elec       q    Type
REMARK                         _______ _______ _______ _____ _____    ______ ____
ROOT
ATOM      1  C   UNL     1      -1.466  -1.030  -1.053  0.00  0.00    +0.000 C 
ATOM      2  C   UNL     1      -3.658  -1.323   0.365  0.00  0.00    +0.004 C 
ATOM      3  C   UNL     1      -2.981  -1.382  -1.011  0.00  0.00    +0.000 C 
ATOM      4  C   UNL     1      -0.943  -0.078   0.072  0.00  0.00    +0.004 C 
ATOM      5  C   UNL     1      -3.924   0.094   0.968  0.00  0.00    +0.028 C 
ATOM      6  C   UNL     1      -5.011  -2.061   0.451  0.00  0.00    +0.000 C 
ATOM      7  C   UNL     1      -0.593  -2.295  -0.827  0.00  0.00    +0.000 C 
ATOM      8  C   UNL     1      -5.250  -0.043   1.757  0.00  0.00    +0.005 C 
ATOM      9  C   UNL     1      -5.578  -1.532   1.767  0.00  0.00    +0.000 C 
ATOM     10  C   UNL     1       0.517  -0.474   0.151  0.00  0.00    +0.003 C 
ATOM     11  C   UNL     1      -1.216   1.419  -0.121  0.00  0.00    +0.026 C 
ATOM     12  C   UNL     1      -1.158  -0.490  -2.479  0.00  0.00    +0.000 C 
ATOM     13  C   UNL     1      -3.793   1.278   0.031  0.00  0.00    +0.049 C 
ATOM     14  C   UNL     1       0.693  -1.715  -0.325  0.00  0.00    +0.000 C 
ATOM     15  C   UNL     1      -5.960  -1.826  -0.722  0.00  0.00    +0.000 C 
ATOM     16  C   UNL     1      -2.639   1.844  -0.376  0.00  0.00    -0.024 C 
ENDROOT
BRANCH  13  18
ATOM     17  O   UNL     1      -5.492   1.623  -1.596  0.00  0.00    -0.245 OA
ATOM     18  C   UNL     1      -4.975   1.942  -0.545  0.00  0.00    +0.334 C 
BRANCH  18  19
ATOM     19  O   UNL     1      -5.371   2.935   0.274  0.00  0.00    -0.477 OA
ATOM     20  H   UNL     1      -4.902   3.103   1.068  0.00  0.00    +0.295 HD
ENDBRANCH  18  19
ENDBRANCH  13  18
BRANCH  10  21
ATOM     21  C   UNL     1       1.557   0.380   0.783  0.00  0.00    +0.030 C 
ATOM     22  C   UNL     1       1.528   0.207   2.309  0.00  0.00    +0.003 C 
BRANCH  21  23
ATOM     23  C   UNL     1       2.953   0.086   0.172  0.00  0.00    +0.141 C 
BRANCH  23  24
ATOM     24  O   UNL     1       2.873   0.259  -1.249  0.00  0.00    -0.382 OA
ATOM     25  H   UNL     1       2.158  -0.293  -1.602  0.00  0.00    +0.210 HD
ENDBRANCH  23  24
BRANCH  23  26
ATOM     26  C   UNL     1       4.100   0.979   0.692  0.00  0.00    +0.159 C 
BRANCH  26  27
ATOM     27  C   UNL     1       5.416   0.712   0.010  0.00  0.00    +0.007 C 
ATOM     28  C   UNL     1       6.408  -0.099   0.424  0.00  0.00    +0.052 C 
ATOM     29  C   UNL     1       6.422  -0.902   1.691  0.00  0.00    +0.038 C 
BRANCH  28  31
ATOM     30  O   UNL     1       8.003   0.716  -1.201  0.00  0.00    -0.245 OA
ATOM     31  C   UNL     1       7.598  -0.177  -0.473  0.00  0.00    +0.334 C 
BRANCH  31  32
ATOM     32  O   UNL     1       8.187  -1.393  -0.383  0.00  0.00    -0.477 OA
ATOM     33  H   UNL     1       7.834  -2.044   0.192  0.00  0.00    +0.295 HD
ENDBRANCH  31  32
ENDBRANCH  28  31
ENDBRANCH  26  27
BRANCH  26  34
ATOM     34  O   UNL     1       3.753   2.348   0.442  0.00  0.00    -0.378 OA
ATOM     35  H   UNL     1       2.907   2.550   0.871  0.00  0.00    +0.211 HD
ENDBRANCH  26  34
ENDBRANCH  23  26
ENDBRANCH  21  23
ENDBRANCH  10  21
TORSDOF 10
