REMARK  Name = 139586007
REMARK  5 active torsions:
REMARK  status: ('A' for Active; 'I' for Inactive)
REMARK    1  A    between atoms: C_5  and  C_18
REMARK    2  A    between atoms: C_7  and  N_13
REMARK    3  A    between atoms: C_18  and  C_19
REMARK    4  A    between atoms: C_21  and  O_26
REMARK    5  A    between atoms: C_23  and  O_28
REMARK                            x       y       z     vdW  Elec       q    Type
REMARK                         _______ _______ _______ _____ _____    ______ ____
ROOT
ATOM      1  O   UNL     1       1.216   0.811   0.344  0.00  0.00    -0.433 OA
ATOM      2  O   UNL     1       4.047  -2.317   0.614  0.00  0.00    -0.275 OA
ATOM      3  O   UNL     1       1.932   0.827  -1.851  0.00  0.00    -0.252 OA
ATOM      4  N   UNL     1       1.965  -1.473   0.253  0.00  0.00    -0.270 N 
ATOM      5  C   UNL     1       0.827  -0.564   0.435  0.00  0.00    +0.252 C 
ATOM      6  C   UNL     1       4.249   0.923   0.433  0.00  0.00    -0.001 C 
ATOM      7  C   UNL     1       3.203   1.925  -0.084  0.00  0.00    +0.036 C 
ATOM      8  C   UNL     1       3.699  -0.103   1.438  0.00  0.00    +0.084 C 
ATOM      9  C   UNL     1       0.171  -0.785   1.796  0.00  0.00    +0.074 C 
ATOM     10  C   UNL     1       3.245  -1.387   0.755  0.00  0.00    +0.225 C 
ATOM     11  C   UNL     1       2.041   1.173  -0.684  0.00  0.00    +0.298 C 
ATOM     12  H   UNL     1       1.787  -2.261  -0.311  0.00  0.00    +0.153 HD
ENDROOT
BRANCH   7  13
ATOM     13  N   UNL     1       3.779   2.775  -1.122  0.00  0.00    +0.389 N 
ATOM     14  H   UNL     1       4.568   3.294  -0.738  0.00  0.00    -0.088 HD
ATOM     15  H   UNL     1       3.071   3.429  -1.456  0.00  0.00    -0.088 HD
ATOM     16  H   UNL     1       4.098   2.195  -1.898  0.00  0.00    -0.088 HD
ENDBRANCH   7  13
BRANCH   5  18
ATOM     17  O   UNL     1       0.170  -1.299  -1.734  0.00  0.00    -0.286 OA
ATOM     18  C   UNL     1      -0.184  -0.869  -0.639  0.00  0.00    +0.230 C 
BRANCH  18  19
ATOM     19  C   UNL     1      -1.630  -0.642  -0.359  0.00  0.00    +0.073 C 
ATOM     20  C   UNL     1      -2.532  -1.704  -0.426  0.00  0.00    -0.016 C 
ATOM     21  C   UNL     1      -2.081   0.636  -0.029  0.00  0.00    +0.170 C 
ATOM     22  C   UNL     1      -3.885  -1.488  -0.164  0.00  0.00    -0.001 C 
ATOM     23  C   UNL     1      -3.434   0.852   0.233  0.00  0.00    +0.172 C 
ATOM     24  C   UNL     1      -2.078  -3.084  -0.776  0.00  0.00    +0.031 C 
ATOM     25  C   UNL     1      -4.336  -0.210   0.166  0.00  0.00    +0.040 C 
BRANCH  21  26
ATOM     26  O   UNL     1      -1.207   1.681   0.039  0.00  0.00    -0.503 OA
ATOM     27  H   UNL     1      -0.297   1.542  -0.136  0.00  0.00    +0.292 HD
ENDBRANCH  21  26
BRANCH  23  28
ATOM     28  O   UNL     1      -3.889   2.095   0.555  0.00  0.00    -0.468 OA
ATOM     29  C   UNL     1      -5.286   2.229   0.808  0.00  0.00    +0.253 C 
ENDBRANCH  23  28
ENDBRANCH  18  19
ENDBRANCH   5  18
TORSDOF 5
