139585408
  -OEChem-03292013293D

 43 47  0     1  0  0  0  0  0999 V2000
   -0.5576    1.2026    1.6836 O   0  0  0  0  0  0  0  0  0  0  0  0
    1.8541    2.3016    1.1454 O   0  0  0  0  0  0  0  0  0  0  0  0
    3.8156    2.8665   -0.7791 O   0  0  0  0  0  0  0  0  0  0  0  0
    4.7609    0.4098   -0.2081 O   0  0  0  0  0  0  0  0  0  0  0  0
   -4.9429    1.4384    0.0571 O   0  0  0  0  0  0  0  0  0  0  0  0
    4.5409   -2.0644    0.3145 O   0  0  0  0  0  0  0  0  0  0  0  0
   -5.2355   -1.0261   -0.4278 O   0  0  0  0  0  0  0  0  0  0  0  0
   -0.7698    1.0782    0.2723 C   0  0  1  0  0  0  0  0  0  0  0  0
    0.6019    0.9070   -0.4643 C   0  0  1  0  0  0  0  0  0  0  0  0
    1.5978    2.0695   -0.2392 C   0  0  2  0  0  0  0  0  0  0  0  0
    1.2372   -0.4455   -0.1440 C   0  0  0  0  0  0  0  0  0  0  0  0
   -1.6675   -0.1275    0.0208 C   0  0  0  0  0  0  0  0  0  0  0  0
   -1.4664    2.3668   -0.2027 C   0  0  0  0  0  0  0  0  0  0  0  0
    0.3902   -1.5640    0.0496 C   0  0  0  0  0  0  0  0  0  0  0  0
   -1.0778   -1.4108   -0.0910 C   0  0  0  0  0  0  0  0  0  0  0  0
    2.9212    1.7782   -0.9340 C   0  0  2  0  0  0  0  0  0  0  0  0
    2.6367   -0.6122   -0.0856 C   0  0  0  0  0  0  0  0  0  0  0  0
   -2.8485    2.5202    0.4115 C   0  0  0  0  0  0  0  0  0  0  0  0
   -3.0678    0.0101   -0.0715 C   0  0  0  0  0  0  0  0  0  0  0  0
    3.5510    0.5195   -0.3796 C   0  0  0  0  0  0  0  0  0  0  0  0
   -3.7206    1.3318    0.1055 C   0  0  0  0  0  0  0  0  0  0  0  0
    0.9846   -2.7966    0.3841 C   0  0  0  0  0  0  0  0  0  0  0  0
   -1.9216   -2.5081   -0.3521 C   0  0  0  0  0  0  0  0  0  0  0  0
    3.1972   -1.8510    0.2355 C   0  0  0  0  0  0  0  0  0  0  0  0
   -3.8790   -1.1012   -0.3169 C   0  0  0  0  0  0  0  0  0  0  0  0
    2.3688   -2.9372    0.4807 C   0  0  0  0  0  0  0  0  0  0  0  0
   -3.3030   -2.3555   -0.4647 C   0  0  0  0  0  0  0  0  0  0  0  0
    0.3975    0.8713   -1.5464 H   0  0  0  0  0  0  0  0  0  0  0  0
    1.1953    3.0061   -0.6382 H   0  0  0  0  0  0  0  0  0  0  0  0
   -1.5543    2.3676   -1.2973 H   0  0  0  0  0  0  0  0  0  0  0  0
   -0.8858    3.2505    0.0849 H   0  0  0  0  0  0  0  0  0  0  0  0
    2.7620    1.6327   -2.0092 H   0  0  0  0  0  0  0  0  0  0  0  0
   -3.3254    3.4135   -0.0075 H   0  0  0  0  0  0  0  0  0  0  0  0
   -2.7953    2.6408    1.4988 H   0  0  0  0  0  0  0  0  0  0  0  0
   -0.4302    0.3172    2.0637 H   0  0  0  0  0  0  0  0  0  0  0  0
    0.3801   -3.6773    0.5867 H   0  0  0  0  0  0  0  0  0  0  0  0
   -1.5197   -3.5094   -0.4860 H   0  0  0  0  0  0  0  0  0  0  0  0
    2.0449    1.4536    1.5784 H   0  0  0  0  0  0  0  0  0  0  0  0
    2.7902   -3.9055    0.7380 H   0  0  0  0  0  0  0  0  0  0  0  0
   -3.9217   -3.2264   -0.6655 H   0  0  0  0  0  0  0  0  0  0  0  0
    4.6009    2.6803   -1.3217 H   0  0  0  0  0  0  0  0  0  0  0  0
    5.0344   -1.2829    0.0255 H   0  0  0  0  0  0  0  0  0  0  0  0
   -5.5266   -0.1035   -0.4756 H   0  0  0  0  0  0  0  0  0  0  0  0
  1  8  1  0  0  0  0
  1 35  1  0  0  0  0
  2 10  1  0  0  0  0
  2 38  1  0  0  0  0
  3 16  1  0  0  0  0
  3 41  1  0  0  0  0
  4 20  2  0  0  0  0
  5 21  2  0  0  0  0
  6 24  1  0  0  0  0
  6 42  1  0  0  0  0
  7 25  1  0  0  0  0
  7 43  1  0  0  0  0
  8  9  1  0  0  0  0
  8 12  1  0  0  0  0
  8 13  1  0  0  0  0
  9 10  1  0  0  0  0
  9 11  1  0  0  0  0
  9 28  1  0  0  0  0
 10 16  1  0  0  0  0
 10 29  1  0  0  0  0
 11 14  2  0  0  0  0
 11 17  1  0  0  0  0
 12 15  2  0  0  0  0
 12 19  1  0  0  0  0
 13 18  1  0  0  0  0
 13 30  1  0  0  0  0
 13 31  1  0  0  0  0
 14 15  1  0  0  0  0
 14 22  1  0  0  0  0
 15 23  1  0  0  0  0
 16 20  1  0  0  0  0
 16 32  1  0  0  0  0
 17 20  1  0  0  0  0
 17 24  2  0  0  0  0
 18 21  1  0  0  0  0
 18 33  1  0  0  0  0
 18 34  1  0  0  0  0
 19 21  1  0  0  0  0
 19 25  2  0  0  0  0
 22 26  2  0  0  0  0
 22 36  1  0  0  0  0
 23 27  2  0  0  0  0
 23 37  1  0  0  0  0
 24 26  1  0  0  0  0
 25 27  1  0  0  0  0
 26 39  1  0  0  0  0
 27 40  1  0  0  0  0
M  END
> <PUBCHEM_COMPOUND_CID>
139585408

> <PUBCHEM_CONFORMER_RMSD>
0.6

> <PUBCHEM_CONFORMER_DIVERSEORDER>
1

> <PUBCHEM_MMFF94_PARTIAL_CHARGES>
33
1 -0.68
10 0.28
11 -0.14
12 -0.14
16 0.34
17 0.09
18 0.06
19 0.09
2 -0.68
20 0.42
21 0.42
22 -0.15
23 -0.15
24 0.08
25 0.08
26 -0.15
27 -0.15
3 -0.68
35 0.4
36 0.15
37 0.15
38 0.4
39 0.15
4 -0.57
40 0.15
41 0.4
42 0.45
43 0.45
5 -0.57
6 -0.53
7 -0.53
8 0.42
9 0.14

> <PUBCHEM_EFFECTIVE_ROTOR_COUNT>
0.8

> <PUBCHEM_PHARMACOPHORE_FEATURES>
15
1 1 acceptor
1 1 donor
1 2 acceptor
1 2 donor
1 3 acceptor
1 3 donor
1 4 acceptor
1 5 acceptor
1 6 donor
1 7 donor
6 11 14 17 22 24 26 rings
6 12 15 19 23 25 27 rings
6 8 12 13 18 19 21 rings
6 8 9 11 12 14 15 rings
6 9 10 11 16 17 20 rings

> <PUBCHEM_HEAVY_ATOM_COUNT>
27

> <PUBCHEM_ATOM_DEF_STEREO_COUNT>
4

> <PUBCHEM_ATOM_UDEF_STEREO_COUNT>
0

> <PUBCHEM_BOND_DEF_STEREO_COUNT>
0

> <PUBCHEM_BOND_UDEF_STEREO_COUNT>
0

> <PUBCHEM_ISOTOPIC_ATOM_COUNT>
0

> <PUBCHEM_COMPONENT_COUNT>
1

> <PUBCHEM_CACTVS_TAUTO_COUNT>
-1

> <PUBCHEM_CONFORMER_ID>
0851E78000000001

> <PUBCHEM_MMFF94_ENERGY>
88.1682

> <PUBCHEM_FEATURE_SELFOVERLAP>
76.273

> <PUBCHEM_SHAPE_FINGERPRINT>
10074138 170 16399677461629417552
10411042 1 17615688431925738810
10616163 171 18411703205231901367
10759866 29 18336552702027459988
10863032 1 18410856594131500829
10967382 1 18410012169074748758
1100329 8 18338235951340280978
11513181 2 18131351864891166399
11578080 2 17314214567060398150
12107183 9 17978229357427292553
12553582 1 18047181956636087382
12633257 1 18199193893088503161
12788726 201 17631743651481095369
13140716 1 18410856577051982011
13224815 77 18202566180786052747
13583140 156 17532663317290853329
138480 1 18120374259621903694
14117953 113 17257928196022970847
14178342 30 18338783530075099088
14223421 5 18411419522541585287
14790565 3 18048044261214593909
15042514 8 17543341658235422538
15196674 1 18410573963792893127
15420108 30 17045992914901547440
15442244 35 18337952294536027542
16728300 4 15081845052410481139
16945 1 18411130325271653139
17492 89 18410294687940437763
18681886 176 18342170047464192954
19591789 44 18411138077856492447
20642791 178 18335146362573922596
20691752 17 17675923183550723803
20715895 44 17905320728985124917
20905425 154 18271248325603123151
21267235 1 18410581651837620159
21421861 104 18187359874833936562
21501502 16 18411139130023194749
21857420 4 13064733796571689405
22393880 68 18340777008827721364
23227448 37 18338797819199236239
2334 1 18122907796025308119
23366157 5 18113618976007516046
23559900 14 18343297042397213682
23566358 2 18341051830588691798
25147074 1 18272369755340300449
2748010 2 16105856141447611107
335352 9 18266458711313607767
338550 245 18335141977190845476
34934 24 18411697668881711790
350125 39 18409730642616602245
4280585 95 17766855931249138046
4409770 3 16816849202879086126
469060 322 17902531598618233721
474 4 17967817184149440142
5104073 3 18410575067673277091
6034566 193 16954813057004804908
9709674 26 18410300176739499295
9981440 41 18046626991184820232

> <PUBCHEM_SHAPE_MULTIPOLES>
514.56
8.52
3.69
0.84
1.86
0.3
0.13
-0.09
-0.91
-0.94
0.11
-0.14
-0.23
-1.2

> <PUBCHEM_SHAPE_SELFOVERLAP>
1179.596

> <PUBCHEM_SHAPE_VOLUME>
261.1

> <PUBCHEM_COORDINATE_TYPE>
2
5
10

$$$$
