139589606
  -OEChem-03292013293D

 61 65  0     1  0  0  0  0  0999 V2000
   -3.7569    1.8102    2.0770 O   0  0  0  0  0  0  0  0  0  0  0  0
    1.4927    3.4938   -0.1795 O   0  0  0  0  0  0  0  0  0  0  0  0
    2.0691   -4.4021    0.0970 O   0  0  0  0  0  0  0  0  0  0  0  0
    3.5076    3.3909    1.6089 O   0  0  0  0  0  0  0  0  0  0  0  0
    1.3185   -2.4350    0.9706 O   0  0  0  0  0  0  0  0  0  0  0  0
   -6.2542    1.1846   -0.1079 O   0  0  0  0  0  0  0  0  0  0  0  0
   -4.9633   -0.1441   -1.4179 O   0  0  0  0  0  0  0  0  0  0  0  0
    2.2042   -1.1460   -1.3232 N   0  0  3  0  0  0  0  0  0  0  0  0
   -0.7788    1.2804   -1.1510 N   0  0  0  0  0  0  0  0  0  0  0  0
   -4.2615   -1.6096    0.9236 N   0  3  0  0  0  0  0  0  0  0  0  0
    5.0462    0.7431    1.6828 N   0  0  0  0  0  0  0  0  0  0  0  0
   -2.9276    1.7472   -0.8399 N   0  0  0  0  0  0  0  0  0  0  0  0
    0.5914    1.2423   -1.8127 C   0  0  2  0  0  0  0  0  0  0  0  0
    2.4711    0.0675   -0.6691 C   0  0  0  0  0  0  0  0  0  0  0  0
    0.6974    0.0915   -2.8430 C   0  0  0  0  0  0  0  0  0  0  0  0
    1.7425    1.1937   -0.8316 C   0  0  0  0  0  0  0  0  0  0  0  0
    1.0414   -1.2635   -2.2134 C   0  0  0  0  0  0  0  0  0  0  0  0
    2.8482   -2.4221   -0.9049 C   0  0  1  0  0  0  0  0  0  0  0  0
    3.5758    0.0728    0.2117 C   0  0  0  0  0  0  0  0  0  0  0  0
    4.2989   -2.2573   -0.3690 C   0  0  0  0  0  0  0  0  0  0  0  0
    4.4560   -0.9956    0.4032 C   0  0  0  0  0  0  0  0  0  0  0  0
    3.9436    1.1453    0.9699 C   0  0  0  0  0  0  0  0  0  0  0  0
    2.0977    2.4382   -0.0526 C   0  0  0  0  0  0  0  0  0  0  0  0
   -4.6161   -0.1592    0.9913 C   0  0  1  0  0  0  0  0  0  0  0  0
   -3.3267    0.6464    1.3353 C   0  0  1  0  0  0  0  0  0  0  0  0
    5.3715   -0.5592    1.3378 C   0  0  0  0  0  0  0  0  0  0  0  0
    3.2558    2.3988    0.9437 C   0  0  0  0  0  0  0  0  0  0  0  0
   -1.1162    0.7104    0.0442 C   0  0  0  0  0  0  0  0  0  0  0  0
   -2.4469    1.0120    0.2148 C   0  0  0  0  0  0  0  0  0  0  0  0
    1.9924   -3.0502    0.1577 C   0  0  0  0  0  0  0  0  0  0  0  0
   -1.8980    1.8914   -1.6443 C   0  0  0  0  0  0  0  0  0  0  0  0
   -4.0695   -2.1794    2.3318 C   0  0  0  0  0  0  0  0  0  0  0  0
   -5.3729   -2.3997    0.2274 C   0  0  0  0  0  0  0  0  0  0  0  0
   -2.9614   -1.8057    0.1389 C   0  0  0  0  0  0  0  0  0  0  0  0
   -5.2720    0.2682   -0.3074 C   0  0  0  0  0  0  0  0  0  0  0  0
    0.6314    2.1908   -2.3659 H   0  0  0  0  0  0  0  0  0  0  0  0
    1.4914    0.3464   -3.5588 H   0  0  0  0  0  0  0  0  0  0  0  0
   -0.2290    0.0010   -3.4224 H   0  0  0  0  0  0  0  0  0  0  0  0
    0.1817   -1.6344   -1.6431 H   0  0  0  0  0  0  0  0  0  0  0  0
    1.2454   -1.9869   -3.0110 H   0  0  0  0  0  0  0  0  0  0  0  0
    2.8714   -3.1001   -1.7679 H   0  0  0  0  0  0  0  0  0  0  0  0
    4.9843   -2.2139   -1.2252 H   0  0  0  0  0  0  0  0  0  0  0  0
    4.5934   -3.1183    0.2420 H   0  0  0  0  0  0  0  0  0  0  0  0
   -5.3647   -0.0577    1.7889 H   0  0  0  0  0  0  0  0  0  0  0  0
   -2.7226    0.1209    2.0786 H   0  0  0  0  0  0  0  0  0  0  0  0
    6.2309   -1.0388    1.7848 H   0  0  0  0  0  0  0  0  0  0  0  0
    5.5597    1.3127    2.3411 H   0  0  0  0  0  0  0  0  0  0  0  0
   -0.4127    0.1605    0.6535 H   0  0  0  0  0  0  0  0  0  0  0  0
   -1.9032    2.4205   -2.5872 H   0  0  0  0  0  0  0  0  0  0  0  0
   -2.9879   -1.2879   -0.8193 H   0  0  0  0  0  0  0  0  0  0  0  0
   -3.8264   -3.2429    2.2398 H   0  0  0  0  0  0  0  0  0  0  0  0
   -5.0074   -2.0566    2.8819 H   0  0  0  0  0  0  0  0  0  0  0  0
   -3.2538   -1.6681    2.8448 H   0  0  0  0  0  0  0  0  0  0  0  0
   -2.8891   -2.8791   -0.0786 H   0  0  0  0  0  0  0  0  0  0  0  0
   -2.1025   -1.5755    0.7702 H   0  0  0  0  0  0  0  0  0  0  0  0
   -5.2359   -3.4589    0.4718 H   0  0  0  0  0  0  0  0  0  0  0  0
   -5.3028   -2.3047   -0.8576 H   0  0  0  0  0  0  0  0  0  0  0  0
   -6.3410   -2.0660    0.6134 H   0  0  0  0  0  0  0  0  0  0  0  0
   -4.3178    2.3415    1.4858 H   0  0  0  0  0  0  0  0  0  0  0  0
    1.5171   -4.8314    0.7849 H   0  0  0  0  0  0  0  0  0  0  0  0
   -6.6720    1.4615   -0.9511 H   0  0  0  0  0  0  0  0  0  0  0  0
  1 25  1  0  0  0  0
  1 59  1  0  0  0  0
  2 23  2  0  0  0  0
  3 30  1  0  0  0  0
  3 60  1  0  0  0  0
  4 27  2  0  0  0  0
  5 30  2  0  0  0  0
  6 35  1  0  0  0  0
  6 61  1  0  0  0  0
  7 35  2  0  0  0  0
  8 14  1  0  0  0  0
  8 17  1  0  0  0  0
  8 18  1  0  0  0  0
  9 13  1  0  0  0  0
  9 28  1  0  0  0  0
  9 31  1  0  0  0  0
 10 24  1  0  0  0  0
 10 32  1  0  0  0  0
 10 33  1  0  0  0  0
 10 34  1  0  0  0  0
 11 22  1  0  0  0  0
 11 26  1  0  0  0  0
 11 47  1  0  0  0  0
 12 29  1  0  0  0  0
 12 31  2  0  0  0  0
 13 15  1  0  0  0  0
 13 16  1  0  0  0  0
 13 36  1  0  0  0  0
 14 16  2  0  0  0  0
 14 19  1  0  0  0  0
 15 17  1  0  0  0  0
 15 37  1  0  0  0  0
 15 38  1  0  0  0  0
 16 23  1  0  0  0  0
 17 39  1  0  0  0  0
 17 40  1  0  0  0  0
 18 20  1  0  0  0  0
 18 30  1  0  0  0  0
 18 41  1  0  0  0  0
 19 21  1  0  0  0  0
 19 22  2  0  0  0  0
 20 21  1  0  0  0  0
 20 42  1  0  0  0  0
 20 43  1  0  0  0  0
 21 26  2  0  0  0  0
 22 27  1  0  0  0  0
 23 27  1  0  0  0  0
 24 25  1  0  0  0  0
 24 35  1  0  0  0  0
 24 44  1  0  0  0  0
 25 29  1  0  0  0  0
 25 45  1  0  0  0  0
 26 46  1  0  0  0  0
 28 29  2  0  0  0  0
 28 48  1  0  0  0  0
 31 49  1  0  0  0  0
 32 51  1  0  0  0  0
 32 52  1  0  0  0  0
 32 53  1  0  0  0  0
 33 56  1  0  0  0  0
 33 57  1  0  0  0  0
 33 58  1  0  0  0  0
 34 50  1  0  0  0  0
 34 54  1  0  0  0  0
 34 55  1  0  0  0  0
M  CHG  1  10   1
M  END
> <PUBCHEM_COMPOUND_CID>
139589606

> <PUBCHEM_CONFORMER_RMSD>
1

> <PUBCHEM_CONFORMER_DIVERSEORDER>
2
30
25
32
20
27
11
31
24
23
15
10
14
16
28
5
34
6
18
21
7
3
1
13
29
26
22
12
8
19
35
9
17
4
33
36

> <PUBCHEM_MMFF94_PARTIAL_CHARGES>
41
1 -0.68
10 -1.01
11 0.03
12 -0.57
13 0.39
14 0.15
16 -0.12
17 0.37
18 0.43
19 -0.05
2 -0.57
20 0.18
21 -0.18
22 -0.24
23 0.56
24 0.56
25 0.46
26 -0.3
27 0.65
28 -0.3
29 0.05
3 -0.65
30 0.66
31 0.04
32 0.5
33 0.5
34 0.5
35 0.66
4 -0.57
46 0.15
47 0.27
48 0.15
49 0.15
5 -0.57
59 0.4
6 -0.65
60 0.5
61 0.5
7 -0.57
8 -0.84
9 0.05

> <PUBCHEM_EFFECTIVE_ROTOR_COUNT>
7

> <PUBCHEM_PHARMACOPHORE_FEATURES>
20
1 1 acceptor
1 1 donor
1 10 cation
1 11 cation
1 11 donor
1 2 acceptor
1 3 acceptor
1 4 acceptor
1 5 acceptor
1 6 acceptor
1 7 acceptor
1 8 cation
3 3 5 30 anion
3 6 7 35 anion
3 9 12 31 cation
5 11 19 21 22 26 rings
5 9 12 28 29 31 rings
6 14 16 19 22 23 27 rings
6 8 13 14 15 16 17 rings
6 8 14 18 19 20 21 rings

> <PUBCHEM_HEAVY_ATOM_COUNT>
35

> <PUBCHEM_ATOM_DEF_STEREO_COUNT>
4

> <PUBCHEM_ATOM_UDEF_STEREO_COUNT>
0

> <PUBCHEM_BOND_DEF_STEREO_COUNT>
0

> <PUBCHEM_BOND_UDEF_STEREO_COUNT>
0

> <PUBCHEM_ISOTOPIC_ATOM_COUNT>
0

> <PUBCHEM_COMPONENT_COUNT>
1

> <PUBCHEM_CACTVS_TAUTO_COUNT>
-1

> <PUBCHEM_CONFORMER_ID>
0851F7E600000002

> <PUBCHEM_MMFF94_ENERGY>
93.7101

> <PUBCHEM_FEATURE_SELFOVERLAP>
101.885

> <PUBCHEM_SHAPE_FINGERPRINT>
10076449 9 18059304154812234478
11595378 159 15123516878368602555
11991303 11 14792260752501814525
12373685 5 17846492661285188751
12422481 6 18410851100768381802
12596602 18 17418364796694538411
12633257 1 18409732858914763480
12788726 201 14563078188046223285
13140716 1 18126253499120533348
13402501 40 18333448729547886082
13533116 47 18340775866798832817
13583140 156 18341322306180745485
13761468 95 13783063473365393889
14955137 171 17988366979806643340
15183329 4 12973877092435308525
17349148 13 16225764121144691081
17809404 112 17821723919190379619
19315092 285 18059295469734201523
19377110 9 17131837607700165895
19438510 23 15265349626835159824
20511986 3 17988627598300715415
20739085 24 18262797488392092964
20775530 9 17392209416736264122
21197605 99 18196090177526648010
21859007 373 17896590692797560189
23559900 14 18187373133529945421
23572383 38 18260545680014723171
3459 110 18341887519571141591
354706 109 18192689341191421531
3633792 109 18339351956681807453
392239 28 18129944588828172771
4098825 35 10519713318899160232
4403749 210 18192416683766763984
463206 1 18041008332126995299
508706 21 17968661514764351763
563151 40 17757558830687450600
57816373 69 17841719500214395055
86090 222 18041856016452392083

> <PUBCHEM_SHAPE_MULTIPOLES>
654.29
12.31
3.85
2.03
10.51
1.42
-0.45
2.17
5.23
-2.34
0.69
0.09
-0.26
1.83

> <PUBCHEM_SHAPE_SELFOVERLAP>
1444.609

> <PUBCHEM_SHAPE_VOLUME>
350.3

> <PUBCHEM_COORDINATE_TYPE>
2
5
10

$$$$
