139589131
  -OEChem-03292013293D

 55 59  0     1  0  0  0  0  0999 V2000
    4.7557    1.1395   -1.1771 O   0  0  0  0  0  0  0  0  0  0  0  0
    2.4134    1.4091   -0.7053 O   0  0  0  0  0  0  0  0  0  0  0  0
    3.7301   -1.7853   -1.4695 O   0  0  0  0  0  0  0  0  0  0  0  0
    3.4266   -0.1942    1.8182 O   0  0  0  0  0  0  0  0  0  0  0  0
    6.1739   -0.4139    1.8381 O   0  0  0  0  0  0  0  0  0  0  0  0
    0.0610    2.4585   -0.3737 O   0  0  0  0  0  0  0  0  0  0  0  0
    1.6934   -3.0968    0.0464 O   0  0  0  0  0  0  0  0  0  0  0  0
   -3.2637   -2.3821    0.3564 O   0  0  0  0  0  0  0  0  0  0  0  0
   -5.1619    1.5448    0.3910 N   0  0  0  0  0  0  0  0  0  0  0  0
    3.2976   -0.7898   -0.5482 C   0  0  1  0  0  0  0  0  0  0  0  0
    4.0841   -0.9138    0.7701 C   0  0  1  0  0  0  0  0  0  0  0  0
    3.4510    0.5696   -1.2386 C   0  0  2  0  0  0  0  0  0  0  0  0
    5.4904   -0.3342    0.5934 C   0  0  1  0  0  0  0  0  0  0  0  0
    1.8024   -0.7842   -0.3604 C   0  0  0  0  0  0  0  0  0  0  0  0
    5.3846    1.1148    0.1027 C   0  0  1  0  0  0  0  0  0  0  0  0
    1.3816    0.4830   -0.4458 C   0  0  0  0  0  0  0  0  0  0  0  0
    1.0774   -2.0379   -0.0767 C   0  0  0  0  0  0  0  0  0  0  0  0
    6.7515    1.7726   -0.0606 C   0  0  0  0  0  0  0  0  0  0  0  0
    0.0708    1.0733   -0.2785 C   0  0  0  0  0  0  0  0  0  0  0  0
   -1.0771    0.4064   -0.0642 C   0  0  0  0  0  0  0  0  0  0  0  0
   -1.2450   -1.0365    0.0536 C   0  0  0  0  0  0  0  0  0  0  0  0
   -0.3945   -2.0634    0.0567 C   0  0  0  0  0  0  0  0  0  0  0  0
   -2.4215    1.0242    0.0757 C   0  0  0  0  0  0  0  0  0  0  0  0
   -3.3598    0.0020    0.2446 C   0  0  0  0  0  0  0  0  0  0  0  0
   -2.7072   -1.3107    0.2357 C   0  0  0  0  0  0  0  0  0  0  0  0
   -4.6990    0.2779    0.3972 C   0  0  0  0  0  0  0  0  0  0  0  0
   -2.8717    2.3326    0.0678 C   0  0  0  0  0  0  0  0  0  0  0  0
   -5.7131   -0.7971    0.5792 C   0  0  0  0  0  0  0  0  0  0  0  0
   -4.2407    2.5325    0.2280 C   0  0  0  0  0  0  0  0  0  0  0  0
   -6.0552   -1.5056   -0.7400 C   0  0  0  0  0  0  0  0  0  0  0  0
   -4.7699    3.9297    0.2253 C   0  0  0  0  0  0  0  0  0  0  0  0
   -7.0650   -2.6249   -0.5415 C   0  0  0  0  0  0  0  0  0  0  0  0
    4.1531   -1.9572    1.0980 H   0  0  0  0  0  0  0  0  0  0  0  0
    3.2470    0.4719   -2.3153 H   0  0  0  0  0  0  0  0  0  0  0  0
    6.0441   -0.9345   -0.1391 H   0  0  0  0  0  0  0  0  0  0  0  0
    4.8175    1.7430    0.7988 H   0  0  0  0  0  0  0  0  0  0  0  0
    3.6314   -2.6536   -1.0431 H   0  0  0  0  0  0  0  0  0  0  0  0
    7.3704    1.2159   -0.7730 H   0  0  0  0  0  0  0  0  0  0  0  0
    7.2846    1.8361    0.8926 H   0  0  0  0  0  0  0  0  0  0  0  0
    6.6419    2.7851   -0.4646 H   0  0  0  0  0  0  0  0  0  0  0  0
    3.2181    0.7029    1.5126 H   0  0  0  0  0  0  0  0  0  0  0  0
    6.2134   -1.3516    2.0926 H   0  0  0  0  0  0  0  0  0  0  0  0
   -0.7880   -3.0710    0.1854 H   0  0  0  0  0  0  0  0  0  0  0  0
   -2.2201    3.1893   -0.0342 H   0  0  0  0  0  0  0  0  0  0  0  0
   -0.5723    2.6887   -1.0750 H   0  0  0  0  0  0  0  0  0  0  0  0
   -5.3792   -1.5144    1.3377 H   0  0  0  0  0  0  0  0  0  0  0  0
   -6.6322   -0.3553    0.9870 H   0  0  0  0  0  0  0  0  0  0  0  0
   -6.4702   -0.7754   -1.4465 H   0  0  0  0  0  0  0  0  0  0  0  0
   -5.1610   -1.9171   -1.2192 H   0  0  0  0  0  0  0  0  0  0  0  0
   -4.5412    4.4212   -0.7257 H   0  0  0  0  0  0  0  0  0  0  0  0
   -5.8569    3.9389    0.3570 H   0  0  0  0  0  0  0  0  0  0  0  0
   -4.3260    4.5062    1.0430 H   0  0  0  0  0  0  0  0  0  0  0  0
   -7.9964   -2.2411   -0.1133 H   0  0  0  0  0  0  0  0  0  0  0  0
   -7.3010   -3.0979   -1.4998 H   0  0  0  0  0  0  0  0  0  0  0  0
   -6.6686   -3.3938    0.1292 H   0  0  0  0  0  0  0  0  0  0  0  0
  1 12  1  0  0  0  0
  1 15  1  0  0  0  0
  2 12  1  0  0  0  0
  2 16  1  0  0  0  0
  3 10  1  0  0  0  0
  3 37  1  0  0  0  0
  4 11  1  0  0  0  0
  4 41  1  0  0  0  0
  5 13  1  0  0  0  0
  5 42  1  0  0  0  0
  6 19  1  0  0  0  0
  6 45  1  0  0  0  0
  7 17  2  0  0  0  0
  8 25  2  0  0  0  0
  9 26  2  0  0  0  0
  9 29  1  0  0  0  0
 10 11  1  0  0  0  0
 10 12  1  0  0  0  0
 10 14  1  0  0  0  0
 11 13  1  0  0  0  0
 11 33  1  0  0  0  0
 12 34  1  0  0  0  0
 13 15  1  0  0  0  0
 13 35  1  0  0  0  0
 14 16  2  0  0  0  0
 14 17  1  0  0  0  0
 15 18  1  0  0  0  0
 15 36  1  0  0  0  0
 16 19  1  0  0  0  0
 17 22  1  0  0  0  0
 18 38  1  0  0  0  0
 18 39  1  0  0  0  0
 18 40  1  0  0  0  0
 19 20  2  0  0  0  0
 20 21  1  0  0  0  0
 20 23  1  0  0  0  0
 21 22  2  0  0  0  0
 21 25  1  0  0  0  0
 22 43  1  0  0  0  0
 23 24  2  0  0  0  0
 23 27  1  0  0  0  0
 24 25  1  0  0  0  0
 24 26  1  0  0  0  0
 26 28  1  0  0  0  0
 27 29  2  0  0  0  0
 27 44  1  0  0  0  0
 28 30  1  0  0  0  0
 28 46  1  0  0  0  0
 28 47  1  0  0  0  0
 29 31  1  0  0  0  0
 30 32  1  0  0  0  0
 30 48  1  0  0  0  0
 30 49  1  0  0  0  0
 31 50  1  0  0  0  0
 31 51  1  0  0  0  0
 31 52  1  0  0  0  0
 32 53  1  0  0  0  0
 32 54  1  0  0  0  0
 32 55  1  0  0  0  0
M  END
> <PUBCHEM_COMPOUND_CID>
139589131

> <PUBCHEM_CONFORMER_RMSD>
0.8

> <PUBCHEM_CONFORMER_DIVERSEORDER>
1
3
2
4

> <PUBCHEM_MMFF94_PARTIAL_CHARGES>
35
1 -0.56
10 0.42
11 0.28
12 0.56
13 0.28
14 -0.12
15 0.28
16 0.08
17 0.54
19 0.08
2 -0.36
20 -0.03
21 0.01
22 -0.14
23 0.03
24 0.09
25 0.47
26 0.17
27 -0.15
28 0.14
29 0.17
3 -0.68
31 0.14
37 0.4
4 -0.68
41 0.4
42 0.4
43 0.15
44 0.15
45 0.45
5 -0.68
6 -0.53
7 -0.57
8 -0.57
9 -0.62

> <PUBCHEM_EFFECTIVE_ROTOR_COUNT>
3

> <PUBCHEM_PHARMACOPHORE_FEATURES>
18
1 1 acceptor
1 2 acceptor
1 3 acceptor
1 3 donor
1 32 hydrophobe
1 4 acceptor
1 4 donor
1 5 acceptor
1 5 donor
1 6 donor
1 7 acceptor
1 8 acceptor
1 9 acceptor
5 2 10 12 14 16 rings
5 20 21 23 24 25 rings
6 1 10 11 12 13 15 rings
6 9 23 24 26 27 29 rings
7 14 16 17 19 20 21 22 rings

> <PUBCHEM_HEAVY_ATOM_COUNT>
32

> <PUBCHEM_ATOM_DEF_STEREO_COUNT>
5

> <PUBCHEM_ATOM_UDEF_STEREO_COUNT>
0

> <PUBCHEM_BOND_DEF_STEREO_COUNT>
0

> <PUBCHEM_BOND_UDEF_STEREO_COUNT>
0

> <PUBCHEM_ISOTOPIC_ATOM_COUNT>
0

> <PUBCHEM_COMPONENT_COUNT>
1

> <PUBCHEM_CACTVS_TAUTO_COUNT>
-1

> <PUBCHEM_CONFORMER_ID>
0851F60B00000001

> <PUBCHEM_MMFF94_ENERGY>
119.2512

> <PUBCHEM_FEATURE_SELFOVERLAP>
91.733

> <PUBCHEM_SHAPE_FINGERPRINT>
10 15 18261401039361852841
10050765 1 18267304240224823447
10411042 1 17906457976354098347
10595046 47 18409449180709344747
10906281 52 18189071878947230234
12107183 9 17829322488924169682
12236239 1 17967531268313676008
12403260 363 18335140916761392613
12422481 6 17969498208816667400
12516196 113 18273498995945969273
12788726 201 18408318913438213979
13140716 1 18407759257207626584
13631057 29 18343582971666362953
13782708 43 17846504686081288046
13862211 1 18408603695307509975
13914758 101 16298654024194450327
14068700 675 18339640161655908997
14294032 229 18130787893035805255
14341114 328 18040713667395012778
14394314 77 18410860949508901369
14466204 15 18410013221463503984
1454969 45 18409447028687987191
14790565 3 18409174337320706668
15196674 1 18338241466136018925
15788980 27 16225767402167253076
17349148 13 18186525401859889615
17857418 61 18334857238360652093
1813 80 16950292766917737278
18608769 82 18271526511067700291
18681886 176 18410578401148296132
20028762 73 18271807973191651815
20511986 3 18113887269487008672
20715895 44 18192711146424163620
21033648 144 18193270802628124125
21033648 29 17774707693357069320
21130935 74 18342457006750215242
21236236 1 18411138026717792109
21421861 104 17679017102350868866
21859007 373 16881031102338361981
22149856 69 18199209355313738723
22311459 1 18338800125649681207
22393880 68 18268721506401910807
23559900 14 18053107215896943262
23569917 315 18408887339011714026
24771293 8 18340771524023004876
3004659 81 18187655695544546244
32027 91 17769102245635179686
335352 9 18192719934148408150
34797466 226 17417821694265319260
350125 39 18411703201511901441
3680242 22 18188495657782150568
5104073 3 18191032209732833475
550186 72 18410856556057816901
6371009 1 18334574676704702245
9981440 41 18334301942065839971

> <PUBCHEM_SHAPE_MULTIPOLES>
606.61
16.31
3.29
1.02
0.8
1.18
0.12
0.62
1.29
-4.63
-0.14
1.25
-0.14
-0.96

> <PUBCHEM_SHAPE_SELFOVERLAP>
1353.751

> <PUBCHEM_SHAPE_VOLUME>
320.8

> <PUBCHEM_COORDINATE_TYPE>
2
5
10

$$$$
