REMARK  Name = 139590614
REMARK  10 active torsions:
REMARK  status: ('A' for Active; 'I' for Inactive)
REMARK    1  A    between atoms: O_1  and  C_2
REMARK    2  A    between atoms: O_1  and  C_21
REMARK    3  A    between atoms: C_2  and  C_10
REMARK    4  A    between atoms: C_5  and  O_15
REMARK    5  A    between atoms: C_11  and  O_19
REMARK    6  A    between atoms: C_14  and  O_17
REMARK    7  A    between atoms: C_21  and  C_28
REMARK    8  A    between atoms: C_23  and  O_33
REMARK    9  A    between atoms: C_30  and  O_37
REMARK   10  A    between atoms: C_32  and  O_35
REMARK                            x       y       z     vdW  Elec       q    Type
REMARK                         _______ _______ _______ _____ _____    ______ ____
ROOT
ATOM      1  O   UNL     1       0.234   2.016  -0.113  0.00  0.00    -0.347 OA
ENDROOT
BRANCH   1   2
ATOM      2  C   UNL     1      -1.113   2.467  -0.057  0.00  0.00    +0.144 C 
ATOM      3  C   UNL     1      -1.329   3.558  -1.100  0.00  0.00    +0.037 C 
BRANCH   2  10
ATOM      4  O   UNL     1      -5.793   1.069   1.586  0.00  0.00    -0.291 OA
ATOM      5  C   UNL     1      -4.633  -2.103  -0.860  0.00  0.00    +0.133 C 
ATOM      6  C   UNL     1      -3.736  -0.913  -0.634  0.00  0.00    +0.013 C 
ATOM      7  C   UNL     1      -5.553  -2.330   0.335  0.00  0.00    +0.042 C 
ATOM      8  C   UNL     1      -4.120   0.148   0.202  0.00  0.00    +0.067 C 
ATOM      9  C   UNL     1      -6.341  -1.070   0.667  0.00  0.00    +0.072 C 
ATOM     10  C   UNL     1      -2.039   1.293  -0.265  0.00  0.00    +0.072 C 
ATOM     11  C   UNL     1      -3.271   1.246   0.387  0.00  0.00    +0.137 C 
ATOM     12  C   UNL     1      -5.436   0.121   0.892  0.00  0.00    +0.176 C 
ATOM     13  C   UNL     1      -2.497  -0.845  -1.289  0.00  0.00    +0.035 C 
ATOM     14  C   UNL     1      -1.653   0.250  -1.103  0.00  0.00    +0.140 C 
BRANCH   5  15
ATOM     15  O   UNL     1      -5.423  -1.917  -2.032  0.00  0.00    -0.380 OA
ATOM     16  H   UNL     1      -4.841  -1.772  -2.795  0.00  0.00    +0.211 HD
ENDBRANCH   5  15
BRANCH  14  17
ATOM     17  O   UNL     1      -0.453   0.280  -1.747  0.00  0.00    -0.472 OA
ATOM     18  C   UNL     1      -0.141  -0.831  -2.586  0.00  0.00    +0.252 C 
ENDBRANCH  14  17
BRANCH  11  19
ATOM     19  O   UNL     1      -3.602   2.291   1.200  0.00  0.00    -0.506 OA
ATOM     20  H   UNL     1      -4.422   2.291   1.653  0.00  0.00    +0.292 HD
ENDBRANCH  11  19
ENDBRANCH   2  10
ENDBRANCH   1   2
BRANCH   1  21
ATOM     21  C   UNL     1       0.637   1.424   1.114  0.00  0.00    +0.175 C 
BRANCH  21  28
ATOM     22  O   UNL     1       5.403   2.067  -0.711  0.00  0.00    -0.291 OA
ATOM     23  C   UNL     1       5.253  -1.992   0.226  0.00  0.00    +0.133 C 
ATOM     24  C   UNL     1       4.069  -1.087   0.453  0.00  0.00    +0.013 C 
ATOM     25  C   UNL     1       6.563  -1.216   0.318  0.00  0.00    +0.042 C 
ATOM     26  C   UNL     1       4.125   0.283   0.153  0.00  0.00    +0.067 C 
ATOM     27  C   UNL     1       6.560  -0.024  -0.629  0.00  0.00    +0.072 C 
ATOM     28  C   UNL     1       1.830   0.553   0.873  0.00  0.00    +0.075 C 
ATOM     29  C   UNL     1       5.368   0.880  -0.401  0.00  0.00    +0.176 C 
ATOM     30  C   UNL     1       3.008   1.101   0.365  0.00  0.00    +0.137 C 
ATOM     31  C   UNL     1       2.873  -1.623   0.955  0.00  0.00    +0.035 C 
ATOM     32  C   UNL     1       1.762  -0.806   1.166  0.00  0.00    +0.140 C 
BRANCH  23  33
ATOM     33  O   UNL     1       5.165  -2.616  -1.053  0.00  0.00    -0.380 OA
ATOM     34  H   UNL     1       4.334  -3.111  -1.116  0.00  0.00    +0.211 HD
ENDBRANCH  23  33
BRANCH  32  35
ATOM     35  O   UNL     1       0.618  -1.357   1.660  0.00  0.00    -0.472 OA
ATOM     36  C   UNL     1       0.638  -2.757   1.931  0.00  0.00    +0.252 C 
ENDBRANCH  32  35
BRANCH  30  37
ATOM     37  O   UNL     1       3.025   2.439   0.096  0.00  0.00    -0.506 OA
ATOM     38  H   UNL     1       3.801   2.838  -0.246  0.00  0.00    +0.292 HD
ENDBRANCH  30  37
ENDBRANCH  21  28
ENDBRANCH   1  21
TORSDOF 10
