139586147
  -OEChem-03292013293D

 62 62  0     1  0  0  0  0  0999 V2000
    4.5816    1.7560    2.8871 Cl  0  0  0  0  0  0  0  0  0  0  0  0
    4.2090    1.9984   -1.9849 O   0  0  0  0  0  0  0  0  0  0  0  0
    1.6538    2.0329    2.4800 O   0  0  0  0  0  0  0  0  0  0  0  0
   -0.4160    0.4583   -1.5983 O   0  0  0  0  0  0  0  0  0  0  0  0
    0.7278   -4.1380    0.8929 O   0  0  0  0  0  0  0  0  0  0  0  0
    0.5880   -3.2360   -1.1865 O   0  0  0  0  0  0  0  0  0  0  0  0
    0.1726    1.8732    0.1567 N   0  0  0  0  0  0  0  0  0  0  0  0
    3.6563    1.0676   -1.0511 C   0  0  2  0  0  0  0  0  0  0  0  0
    3.9019   -0.3489   -1.5804 C   0  0  0  0  0  0  0  0  0  0  0  0
    3.2921   -1.4339   -0.6972 C   0  0  0  0  0  0  0  0  0  0  0  0
   -5.4607    0.3536   -0.7357 C   0  0  0  0  0  0  0  0  0  0  0  0
   -5.2132   -0.4366    0.5716 C   0  0  1  0  0  0  0  0  0  0  0  0
   -4.5620    1.5793   -1.0195 C   0  0  2  0  0  0  0  0  0  0  0  0
    3.4492   -2.8716   -1.2007 C   0  0  0  0  0  0  0  0  0  0  0  0
    2.1761    1.3350   -0.9788 C   0  0  0  0  0  0  0  0  0  0  0  0
    4.3501    1.2555    0.2704 C   0  0  0  0  0  0  0  0  0  0  0  0
    1.5188    1.6497    0.1454 C   0  0  0  0  0  0  0  0  0  0  0  0
   -6.3353   -1.4451    0.8412 C   0  0  0  0  0  0  0  0  0  0  0  0
   -5.0588    2.3005   -2.2788 C   0  0  0  0  0  0  0  0  0  0  0  0
   -3.8667   -1.1193    0.6267 C   0  0  0  0  0  0  0  0  0  0  0  0
   -3.1141    1.2046   -1.2217 C   0  0  0  0  0  0  0  0  0  0  0  0
    2.7595   -3.9056   -0.3113 C   0  0  0  0  0  0  0  0  0  0  0  0
    3.7200    1.5686    1.4086 C   0  0  0  0  0  0  0  0  0  0  0  0
    2.2479    1.7706    1.4382 C   0  0  0  0  0  0  0  0  0  0  0  0
   -2.8781   -0.9035    1.5159 C   0  0  0  0  0  0  0  0  0  0  0  0
   -2.1156    1.6918   -0.4713 C   0  0  0  0  0  0  0  0  0  0  0  0
   -0.7115    1.2613   -0.7187 C   0  0  0  0  0  0  0  0  0  0  0  0
    1.2601   -3.7138   -0.2832 C   0  0  0  0  0  0  0  0  0  0  0  0
   -1.5826   -1.6634    1.4162 C   0  0  0  0  0  0  0  0  0  0  0  0
   -2.9499    0.0588    2.6673 C   0  0  0  0  0  0  0  0  0  0  0  0
    3.4967   -0.4379   -2.5981 H   0  0  0  0  0  0  0  0  0  0  0  0
    4.9804   -0.5271   -1.6906 H   0  0  0  0  0  0  0  0  0  0  0  0
    3.7360   -1.3849    0.3047 H   0  0  0  0  0  0  0  0  0  0  0  0
    2.2235   -1.2340   -0.5682 H   0  0  0  0  0  0  0  0  0  0  0  0
   -5.3984   -0.3432   -1.5841 H   0  0  0  0  0  0  0  0  0  0  0  0
   -6.5022    0.7046   -0.7185 H   0  0  0  0  0  0  0  0  0  0  0  0
   -5.2951    0.3021    1.3738 H   0  0  0  0  0  0  0  0  0  0  0  0
   -4.6558    2.2733   -0.1741 H   0  0  0  0  0  0  0  0  0  0  0  0
    3.0525   -2.9403   -2.2211 H   0  0  0  0  0  0  0  0  0  0  0  0
    4.5172   -3.1131   -1.2603 H   0  0  0  0  0  0  0  0  0  0  0  0
    1.6741    1.3043   -1.9417 H   0  0  0  0  0  0  0  0  0  0  0  0
    5.4302    1.1202    0.2774 H   0  0  0  0  0  0  0  0  0  0  0  0
   -7.3083   -0.9438    0.8803 H   0  0  0  0  0  0  0  0  0  0  0  0
   -6.1844   -1.9551    1.7992 H   0  0  0  0  0  0  0  0  0  0  0  0
   -6.3805   -2.2070    0.0550 H   0  0  0  0  0  0  0  0  0  0  0  0
   -5.0193    1.6490   -3.1593 H   0  0  0  0  0  0  0  0  0  0  0  0
   -4.4519    3.1886   -2.4884 H   0  0  0  0  0  0  0  0  0  0  0  0
   -6.0953    2.6314   -2.1517 H   0  0  0  0  0  0  0  0  0  0  0  0
   -3.6995   -1.8557   -0.1589 H   0  0  0  0  0  0  0  0  0  0  0  0
   -2.9046    0.4983   -2.0220 H   0  0  0  0  0  0  0  0  0  0  0  0
    3.1517   -3.8242    0.7088 H   0  0  0  0  0  0  0  0  0  0  0  0
    2.9617   -4.9166   -0.6796 H   0  0  0  0  0  0  0  0  0  0  0  0
    4.0782    2.8971   -1.6354 H   0  0  0  0  0  0  0  0  0  0  0  0
   -0.2017    2.3534    0.9717 H   0  0  0  0  0  0  0  0  0  0  0  0
   -2.3119    2.3988    0.3277 H   0  0  0  0  0  0  0  0  0  0  0  0
   -0.7339   -0.9741    1.3674 H   0  0  0  0  0  0  0  0  0  0  0  0
   -1.5493   -2.2910    0.5207 H   0  0  0  0  0  0  0  0  0  0  0  0
   -1.4547   -2.3097    2.2903 H   0  0  0  0  0  0  0  0  0  0  0  0
   -2.8652   -0.4883    3.6125 H   0  0  0  0  0  0  0  0  0  0  0  0
   -2.1176    0.7691    2.6129 H   0  0  0  0  0  0  0  0  0  0  0  0
   -3.8659    0.6475    2.7153 H   0  0  0  0  0  0  0  0  0  0  0  0
   -0.2492   -4.0612    0.9058 H   0  0  0  0  0  0  0  0  0  0  0  0
  1 23  1  0  0  0  0
  2  8  1  0  0  0  0
  2 53  1  0  0  0  0
  3 24  2  0  0  0  0
  4 27  2  0  0  0  0
  5 28  1  0  0  0  0
  5 62  1  0  0  0  0
  6 28  2  0  0  0  0
  7 17  1  0  0  0  0
  7 27  1  0  0  0  0
  7 54  1  0  0  0  0
  8  9  1  0  0  0  0
  8 15  1  0  0  0  0
  8 16  1  0  0  0  0
  9 10  1  0  0  0  0
  9 31  1  0  0  0  0
  9 32  1  0  0  0  0
 10 14  1  0  0  0  0
 10 33  1  0  0  0  0
 10 34  1  0  0  0  0
 11 12  1  0  0  0  0
 11 13  1  0  0  0  0
 11 35  1  0  0  0  0
 11 36  1  0  0  0  0
 12 18  1  0  0  0  0
 12 20  1  0  0  0  0
 12 37  1  0  0  0  0
 13 19  1  0  0  0  0
 13 21  1  0  0  0  0
 13 38  1  0  0  0  0
 14 22  1  0  0  0  0
 14 39  1  0  0  0  0
 14 40  1  0  0  0  0
 15 17  2  0  0  0  0
 15 41  1  0  0  0  0
 16 23  2  0  0  0  0
 16 42  1  0  0  0  0
 17 24  1  0  0  0  0
 18 43  1  0  0  0  0
 18 44  1  0  0  0  0
 18 45  1  0  0  0  0
 19 46  1  0  0  0  0
 19 47  1  0  0  0  0
 19 48  1  0  0  0  0
 20 25  2  0  0  0  0
 20 49  1  0  0  0  0
 21 26  2  3  0  0  0
 21 50  1  0  0  0  0
 22 28  1  0  0  0  0
 22 51  1  0  0  0  0
 22 52  1  0  0  0  0
 23 24  1  0  0  0  0
 25 29  1  0  0  0  0
 25 30  1  0  0  0  0
 26 27  1  0  0  0  0
 26 55  1  0  0  0  0
 29 56  1  0  0  0  0
 29 57  1  0  0  0  0
 29 58  1  0  0  0  0
 30 59  1  0  0  0  0
 30 60  1  0  0  0  0
 30 61  1  0  0  0  0
M  END
> <PUBCHEM_COMPOUND_CID>
139586147

> <PUBCHEM_CONFORMER_RMSD>
1.2

> <PUBCHEM_CONFORMER_DIVERSEORDER>
1
62
91
10
86
102
107
29
23
80
50
77
104
96
103
44
90
99
100
65
39
32
45
83
88
115
17
63
42
92
28
8
95
14
35
75
15
59
18
51
98
87
40
111
110
60
38
64
56
21
113
69
109
22
48
24
58
47
71
54
13
81
6
55
52
36
89
19
93
3
37
27
94
82
53
34
106
67
2
76
70
11
26
46
74
9
66
16
79
112
41
73
61
72
84
97
57
78
49
108
101
7
43
105
12
30
85
20
4
25
33
5
68
31
114

> <PUBCHEM_MMFF94_PARTIAL_CHARGES>
32
1 -0.14
12 0.14
13 0.14
15 -0.29
16 -0.29
17 0.12
2 -0.68
20 -0.29
21 -0.29
22 0.06
23 0.15
24 0.54
25 -0.28
26 -0.14
27 0.62
28 0.66
29 0.14
3 -0.57
30 0.14
4 -0.57
41 0.15
42 0.15
49 0.15
5 -0.65
50 0.15
53 0.4
54 0.37
55 0.15
6 -0.57
62 0.5
7 -0.54
8 0.56

> <PUBCHEM_EFFECTIVE_ROTOR_COUNT>
12.2

> <PUBCHEM_PHARMACOPHORE_FEATURES>
14
1 18 hydrophobe
1 19 hydrophobe
1 2 acceptor
1 2 donor
1 3 acceptor
1 4 acceptor
1 5 acceptor
1 6 acceptor
1 7 donor
3 25 29 30 hydrophobe
3 5 6 28 anion
4 9 10 14 22 hydrophobe
5 11 12 13 20 21 hydrophobe
6 8 15 16 17 23 24 rings

> <PUBCHEM_HEAVY_ATOM_COUNT>
30

> <PUBCHEM_ATOM_DEF_STEREO_COUNT>
3

> <PUBCHEM_ATOM_UDEF_STEREO_COUNT>
0

> <PUBCHEM_BOND_DEF_STEREO_COUNT>
0

> <PUBCHEM_BOND_UDEF_STEREO_COUNT>
1

> <PUBCHEM_ISOTOPIC_ATOM_COUNT>
0

> <PUBCHEM_COMPONENT_COUNT>
1

> <PUBCHEM_CACTVS_TAUTO_COUNT>
-1

> <PUBCHEM_CONFORMER_ID>
0851EA6300000001

> <PUBCHEM_MMFF94_ENERGY>
50.7899

> <PUBCHEM_FEATURE_SELFOVERLAP>
71.113

> <PUBCHEM_SHAPE_FINGERPRINT>
12156800 1 16481010355243931882
12166972 35 12894534151515924512
12422481 6 18189031184364391554
12596602 18 16917067814970768069
13402501 40 18335148595651377215
13533116 47 18201730539554866163
13726171 33 17750539397103297172
14251757 17 18041851584319889715
144659 39 17749939085650750124
14659021 117 16464456760721677718
17093844 170 18335427897849090866
23559900 14 18189616051208727333
238918 7 18337102466437038122
3298306 158 18408882940842714391
508706 21 18263085581560173311
5265222 85 18118414066185681940
59755656 215 18186516640569944735
86090 222 18339374044638522339

> <PUBCHEM_SHAPE_MULTIPOLES>
584.93
12.43
4.29
2.44
12.43
5.6
1.15
-2.55
-0.44
-3.8
-0.44
-0.7
-1.29
3.89

> <PUBCHEM_SHAPE_SELFOVERLAP>
1169.471

> <PUBCHEM_SHAPE_VOLUME>
343.7

> <PUBCHEM_COORDINATE_TYPE>
2
5
10

$$$$
