REMARK  Name = 139583501
REMARK  5 active torsions:
REMARK  status: ('A' for Active; 'I' for Inactive)
REMARK    1  A    between atoms: C_3  and  O_18
REMARK    2  A    between atoms: C_4  and  O_20
REMARK    3  A    between atoms: C_6  and  O_22
REMARK    4  A    between atoms: C_14  and  O_24
REMARK    5  A    between atoms: C_16  and  O_26
REMARK                            x       y       z     vdW  Elec       q    Type
REMARK                         _______ _______ _______ _____ _____    ______ ____
ROOT
ATOM      1  O   UNL     1       0.240  -2.761   0.295  0.00  0.00    -0.287 OA
ATOM      2  O   UNL     1       0.046   2.540  -0.314  0.00  0.00    -0.287 OA
ATOM      3  C   UNL     1      -3.634  -0.961  -0.214  0.00  0.00    +0.120 C 
ATOM      4  C   UNL     1      -3.688   0.429   0.436  0.00  0.00    +0.166 C 
ATOM      5  C   UNL     1      -2.348  -1.680   0.231  0.00  0.00    +0.059 C 
ATOM      6  C   UNL     1      -2.469   1.290   0.064  0.00  0.00    +0.165 C 
ATOM      7  C   UNL     1      -1.109  -0.813   0.157  0.00  0.00    +0.021 C 
ATOM      8  C   UNL     1      -1.162   0.526   0.053  0.00  0.00    +0.045 C 
ATOM      9  C   UNL     1      -4.863  -1.807   0.129  0.00  0.00    +0.032 C 
ATOM     10  C   UNL     1       0.192  -1.541   0.183  0.00  0.00    +0.192 C 
ATOM     11  C   UNL     1       0.084   1.329  -0.120  0.00  0.00    +0.197 C 
ATOM     12  C   UNL     1       1.379   0.630  -0.064  0.00  0.00    +0.076 C 
ATOM     13  C   UNL     1       1.431  -0.754   0.083  0.00  0.00    +0.048 C 
ATOM     14  C   UNL     1       2.567   1.366  -0.163  0.00  0.00    +0.140 C 
ATOM     15  C   UNL     1       2.670  -1.405   0.131  0.00  0.00    +0.040 C 
ATOM     16  C   UNL     1       3.851  -0.669   0.033  0.00  0.00    +0.142 C 
ATOM     17  C   UNL     1       3.800   0.715  -0.113  0.00  0.00    +0.074 C 
ENDROOT
BRANCH   3  18
ATOM     18  O   UNL     1      -3.584  -0.830  -1.640  0.00  0.00    -0.384 OA
ATOM     19  H   UNL     1      -2.813  -0.297  -1.889  0.00  0.00    +0.210 HD
ENDBRANCH   3  18
BRANCH   4  20
ATOM     20  O   UNL     1      -4.877   1.121   0.052  0.00  0.00    -0.379 OA
ATOM     21  H   UNL     1      -5.652   0.584   0.283  0.00  0.00    +0.211 HD
ENDBRANCH   4  20
BRANCH   6  22
ATOM     22  O   UNL     1      -2.389   2.348   1.025  0.00  0.00    -0.377 OA
ATOM     23  H   UNL     1      -3.225   2.840   1.034  0.00  0.00    +0.211 HD
ENDBRANCH   6  22
BRANCH  14  24
ATOM     24  O   UNL     1       2.587   2.723  -0.302  0.00  0.00    -0.505 OA
ATOM     25  H   UNL     1       1.783   3.202  -0.340  0.00  0.00    +0.292 HD
ENDBRANCH  14  24
BRANCH  16  26
ATOM     26  O   UNL     1       5.054  -1.304   0.081  0.00  0.00    -0.471 OA
ATOM     27  C   UNL     1       6.222  -0.491  -0.025  0.00  0.00    +0.252 C 
ENDBRANCH  16  26
TORSDOF 5
