REMARK  Name = 139584827
REMARK  11 active torsions:
REMARK  status: ('A' for Active; 'I' for Inactive)
REMARK    1  A    between atoms: C_3  and  O_15
REMARK    2  A    between atoms: C_4  and  O_17
REMARK    3  A    between atoms: C_6  and  O_19
REMARK    4  A    between atoms: C_7  and  O_21
REMARK    5  A    between atoms: O_21  and  C_23
REMARK    6  A    between atoms: C_23  and  C_24
REMARK    7  A    between atoms: C_25  and  C_26
REMARK    8  A    between atoms: C_26  and  O_27
REMARK    9  A    between atoms: C_26  and  C_29
REMARK   10  A    between atoms: C_29  and  C_30
REMARK   11  A    between atoms: C_30  and  C_31
REMARK                            x       y       z     vdW  Elec       q    Type
REMARK                         _______ _______ _______ _____ _____    ______ ____
ROOT
ATOM      1  O   UNL     1       2.914   1.750  -0.190  0.00  0.00    -0.448 OA
ATOM      2  O   UNL     1       3.302   1.918   2.075  0.00  0.00    -0.250 OA
ATOM      3  C   UNL     1       3.987  -1.628  -0.117  0.00  0.00    +0.138 C 
ATOM      4  C   UNL     1       2.688  -1.077  -0.779  0.00  0.00    +0.141 C 
ATOM      5  C   UNL     1       1.503  -0.709   0.170  0.00  0.00    +0.073 C 
ATOM      6  C   UNL     1       4.626  -0.716   0.978  0.00  0.00    +0.148 C 
ATOM      7  C   UNL     1       0.767   0.572  -0.352  0.00  0.00    +0.211 C 
ATOM      8  C   UNL     1       4.902   0.780   0.675  0.00  0.00    +0.128 C 
ATOM      9  C   UNL     1       1.494   1.907  -0.035  0.00  0.00    +0.209 C 
ATOM     10  C   UNL     1       3.784  -3.046   0.450  0.00  0.00    +0.034 C 
ATOM     11  C   UNL     1       0.507  -1.871   0.338  0.00  0.00    +0.006 C 
ATOM     12  C   UNL     1       3.646   1.588   0.945  0.00  0.00    +0.319 C 
ATOM     13  C   UNL     1       5.568   1.086  -0.663  0.00  0.00    +0.014 C 
ATOM     14  C   UNL     1       1.058   3.023  -0.980  0.00  0.00    +0.051 C 
ENDROOT
BRANCH   3  15
ATOM     15  O   UNL     1       4.936  -1.772  -1.192  0.00  0.00    -0.382 OA
ATOM     16  H   UNL     1       5.106  -0.904  -1.591  0.00  0.00    +0.210 HD
ENDBRANCH   3  15
BRANCH   4  17
ATOM     17  O   UNL     1       2.219  -2.007  -1.768  0.00  0.00    -0.382 OA
ATOM     18  H   UNL     1       2.948  -2.242  -2.363  0.00  0.00    +0.210 HD
ENDBRANCH   4  17
BRANCH   6  19
ATOM     19  O   UNL     1       5.876  -1.309   1.368  0.00  0.00    -0.381 OA
ATOM     20  H   UNL     1       5.740  -2.249   1.566  0.00  0.00    +0.210 HD
ENDBRANCH   6  19
BRANCH   7  21
ATOM     21  O   UNL     1      -0.539   0.651   0.226  0.00  0.00    -0.445 OA
BRANCH  21  23
ATOM     22  O   UNL     1      -1.499   0.455  -1.867  0.00  0.00    -0.245 OA
ATOM     23  C   UNL     1      -1.574   0.579  -0.655  0.00  0.00    +0.341 C 
BRANCH  23  24
ATOM     24  C   UNL     1      -2.829   0.677   0.120  0.00  0.00    +0.080 C 
ATOM     25  C   UNL     1      -4.011   0.632  -0.511  0.00  0.00    +0.009 C 
BRANCH  25  26
ATOM     26  C   UNL     1      -5.330   0.724   0.205  0.00  0.00    +0.133 C 
BRANCH  26  27
ATOM     27  O   UNL     1      -6.004   1.901  -0.236  0.00  0.00    -0.380 OA
ATOM     28  H   UNL     1      -5.449   2.677  -0.059  0.00  0.00    +0.211 HD
ENDBRANCH  26  27
BRANCH  26  29
ATOM     29  C   UNL     1      -6.198  -0.512  -0.070  0.00  0.00    +0.034 C 
BRANCH  29  30
ATOM     30  C   UNL     1      -7.564  -0.420   0.618  0.00  0.00    +0.003 C 
BRANCH  30  31
ATOM     31  C   UNL     1      -8.431  -1.638   0.296  0.00  0.00    +0.000 C 
ATOM     32  C   UNL     1      -9.799  -1.538   0.952  0.00  0.00    +0.000 C 
ENDBRANCH  30  31
ENDBRANCH  29  30
ENDBRANCH  26  29
ENDBRANCH  25  26
ENDBRANCH  23  24
ENDBRANCH  21  23
ENDBRANCH   7  21
TORSDOF 11
