REMARK  Name = 139586745
REMARK  9 active torsions:
REMARK  status: ('A' for Active; 'I' for Inactive)
REMARK    1  A    between atoms: C_2  and  N_19
REMARK    2  A    between atoms: C_3  and  O_30
REMARK    3  A    between atoms: C_4  and  C_32
REMARK    4  A    between atoms: C_5  and  N_6
REMARK    5  A    between atoms: C_20  and  C_22
REMARK    6  A    between atoms: C_22  and  N_23
REMARK    7  A    between atoms: C_22  and  C_27
REMARK    8  A    between atoms: C_27  and  S_28
REMARK    9  A    between atoms: C_32  and  O_33
REMARK                            x       y       z     vdW  Elec       q    Type
REMARK                         _______ _______ _______ _____ _____    ______ ____
ROOT
ATOM      1  O   UNL     1      -0.495  -1.722   0.581  0.00  0.00    -0.334 OA
ATOM      2  C   UNL     1      -1.964  -0.705  -0.977  0.00  0.00    +0.132 C 
ATOM      3  C   UNL     1      -0.603  -0.038  -1.098  0.00  0.00    +0.178 C 
ATOM      4  C   UNL     1      -1.561  -2.032  -0.339  0.00  0.00    +0.167 C 
ATOM      5  C   UNL     1       0.088  -0.457   0.200  0.00  0.00    +0.224 C 
ENDROOT
BRANCH   5   6
ATOM      6  N   UNL     1       1.587  -0.575   0.060  0.00  0.00    -0.247 N 
ATOM      7  N   UNL     1       3.575  -1.487  -0.374  0.00  0.00    -0.242 NA
ATOM      8  N   UNL     1       2.289   1.648   0.743  0.00  0.00    -0.228 NA
ATOM      9  N   UNL     1       6.152   0.089  -0.030  0.00  0.00    -0.289 N 
ATOM     10  N   UNL     1       4.717   1.877   0.655  0.00  0.00    -0.228 NA
ATOM     11  C   UNL     1       2.513   0.396   0.317  0.00  0.00    +0.152 C 
ATOM     12  C   UNL     1       2.273  -1.687  -0.352  0.00  0.00    +0.223 C 
ATOM     13  C   UNL     1       3.739  -0.189   0.042  0.00  0.00    +0.140 C 
ATOM     14  C   UNL     1       4.869   0.601   0.225  0.00  0.00    +0.149 C 
ATOM     15  C   UNL     1       3.455   2.315   0.884  0.00  0.00    +0.253 C 
ATOM     16  C   UNL     1       6.324  -1.276  -0.492  0.00  0.00    +0.114 C 
ATOM     17  C   UNL     1       7.329   0.919   0.155  0.00  0.00    +0.114 C 
ENDBRANCH   5   6
BRANCH   2  19
ATOM     18  O   UNL     1      -3.873   1.228  -1.893  0.00  0.00    -0.277 OA
ATOM     19  N   UNL     1      -2.876   0.057  -0.156  0.00  0.00    -0.303 N 
ATOM     20  C   UNL     1      -3.767   0.973  -0.694  0.00  0.00    +0.203 C 
ATOM     21  H   UNL     1      -2.865  -0.079   0.819  0.00  0.00    +0.149 HD
BRANCH  20  22
ATOM     22  C   UNL     1      -4.599   1.674   0.377  0.00  0.00    +0.024 C 
BRANCH  22  23
ATOM     23  N   UNL     1      -4.224   3.088   0.301  0.00  0.00    +0.388 N 
ATOM     24  H   UNL     1      -3.221   3.182   0.462  0.00  0.00    -0.089 HD
ATOM     25  H   UNL     1      -4.733   3.613   1.012  0.00  0.00    -0.089 HD
ATOM     26  H   UNL     1      -4.456   3.452  -0.623  0.00  0.00    -0.089 HD
ENDBRANCH  22  23
BRANCH  22  27
ATOM     27  C   UNL     1      -6.105   1.542   0.134  0.00  0.00    +0.045 C 
BRANCH  27  28
ATOM     28  S   UNL     1      -6.628  -0.202   0.150  0.00  0.00    -0.141 S 
ATOM     29  C   UNL     1      -6.605  -0.462   1.937  0.00  0.00    +0.069 C 
ENDBRANCH  27  28
ENDBRANCH  22  27
ENDBRANCH  20  22
ENDBRANCH   2  19
BRANCH   3  30
ATOM     30  O   UNL     1      -0.673   1.367  -1.231  0.00  0.00    -0.379 OA
ATOM     31  H   UNL     1      -1.117   1.591  -2.064  0.00  0.00    +0.211 HD
ENDBRANCH   3  30
BRANCH   4  32
ATOM     32  C   UNL     1      -2.659  -2.791   0.383  0.00  0.00    +0.168 C 
BRANCH  32  33
ATOM     33  O   UNL     1      -2.279  -4.153   0.493  0.00  0.00    -0.379 OA
ATOM     34  H   UNL     1      -2.975  -4.647   0.953  0.00  0.00    +0.211 HD
ENDBRANCH  32  33
ENDBRANCH   4  32
TORSDOF 9
