REMARK  Name = 139585598
REMARK  13 active torsions:
REMARK  status: ('A' for Active; 'I' for Inactive)
REMARK    1  A    between atoms: C_1  and  C_2
REMARK    2  A    between atoms: C_1  and  C_17
REMARK    3  A    between atoms: C_2  and  C_8
REMARK    4  A    between atoms: CA_7  and  CB_13
REMARK    5  A    between atoms: CB_13  and  CG1_15
REMARK    6  A    between atoms: C_17  and  N_19
REMARK    7  A    between atoms: C_20  and  C_22
REMARK    8  A    between atoms: C_22  and  C_23
REMARK    9  A    between atoms: C_23  and  C_25
REMARK   10  A    between atoms: C_25  and  O_26
REMARK   11  A    between atoms: O_26  and  C_27
REMARK   12  A    between atoms: C_27  and  C_29
REMARK   13  A    between atoms: C_29  and  O_31
REMARK                            x       y       z     vdW  Elec       q    Type
REMARK                         _______ _______ _______ _____ _____    ______ ____
ROOT
ATOM      1  C   UNK A   1       2.654   2.911  -0.337  0.00  0.00    +0.023 C 
ENDROOT
BRANCH   1   2
ATOM      2  C   UNK A   1       2.784   1.559   0.367  0.00  0.00    +0.031 C 
BRANCH   2   8
ATOM      3  O   ILE A   2       3.902  -2.367   1.640  0.00  0.00    -0.273 OA
ATOM      4  O   UNK A   1       2.339   0.468  -2.599  0.00  0.00    -0.273 OA
ATOM      5  N   UNK A   1       4.180  -0.507   0.270  0.00  0.00    -0.270 N 
ATOM      6  N   ILE A   2       2.032  -1.272  -1.129  0.00  0.00    -0.297 N 
ATOM      7  CA  ILE A   2       2.044  -1.707   0.256  0.00  0.00    +0.149 C 
ATOM      8  C   UNK A   1       3.523   0.551  -0.504  0.00  0.00    +0.152 C 
ATOM      9  C   ILE A   2       3.473  -1.603   0.774  0.00  0.00    +0.244 C 
ATOM     10  C   UNK A   1       2.610  -0.086  -1.535  0.00  0.00    +0.241 C 
ATOM     11  C   UNK A   1       5.554  -0.268   0.690  0.00  0.00    +0.115 C 
ATOM     12  H   ILE A   2       1.597  -1.843  -1.802  0.00  0.00    +0.150 HD
BRANCH   7  13
ATOM     13  CB  ILE A   2       1.504  -3.125   0.381  0.00  0.00    +0.027 C 
ATOM     14  CG2 ILE A   2       2.411  -4.101  -0.376  0.00  0.00    +0.002 C 
BRANCH  13  15
ATOM     15  CG1 ILE A   2       0.060  -3.260  -0.140  0.00  0.00    +0.002 C 
ATOM     16  CD1 ILE A   2      -0.937  -2.378   0.599  0.00  0.00    +0.000 C 
ENDBRANCH  13  15
ENDBRANCH   7  13
ENDBRANCH   2   8
ENDBRANCH   1   2
BRANCH   1  17
ATOM     17  C   UNK A   1       1.866   3.925   0.487  0.00  0.00    +0.089 C 
BRANCH  17  19
ATOM     18  O   UNK A   1      -0.530   4.349  -1.084  0.00  0.00    -0.275 OA
ATOM     19  N   UNK A   1       0.535   3.472   0.787  0.00  0.00    -0.304 N 
ATOM     20  C   UNK A   1      -0.565   3.722  -0.029  0.00  0.00    +0.223 C 
ATOM     21  H   UNK A   1       0.394   2.957   1.614  0.00  0.00    +0.149 HD
BRANCH  20  22
ATOM     22  C   UNK A   1      -1.839   3.118   0.541  0.00  0.00    +0.097 C 
BRANCH  22  23
ATOM     23  C   UNK A   1      -2.095   1.690   0.067  0.00  0.00    +0.119 C 
BRANCH  23  25
ATOM     24  O   UNK A   1      -4.146   1.689   1.378  0.00  0.00    -0.250 OA
ATOM     25  C   UNK A   1      -3.394   1.122   0.598  0.00  0.00    +0.317 C 
BRANCH  25  26
ATOM     26  O   UNK A   1      -3.579  -0.124   0.070  0.00  0.00    -0.450 OA
BRANCH  26  27
ATOM     27  C   UNK A   1      -4.769  -0.800   0.487  0.00  0.00    +0.195 C 
ATOM     28  C   UNK A   1      -4.469  -1.551   1.779  0.00  0.00    +0.050 C 
BRANCH  27  29
ATOM     29  C   UNK A   1      -5.281  -1.722  -0.628  0.00  0.00    +0.150 C 
ATOM     30  C   UNK A   1      -5.552  -0.967  -1.925  0.00  0.00    +0.036 C 
BRANCH  29  31
ATOM     31  O   UNK A   1      -4.315  -2.739  -0.886  0.00  0.00    -0.381 OA
ATOM     32  H   UNK A   1      -4.133  -3.227  -0.068  0.00  0.00    +0.210 HD
ENDBRANCH  29  31
ENDBRANCH  27  29
ENDBRANCH  26  27
ENDBRANCH  25  26
ENDBRANCH  23  25
ENDBRANCH  22  23
ENDBRANCH  20  22
ENDBRANCH  17  19
ENDBRANCH   1  17
TORSDOF 13
