REMARK  Name = 139589451
REMARK  13 active torsions:
REMARK  status: ('A' for Active; 'I' for Inactive)
REMARK    1  A    between atoms: CA_5  and  C_11
REMARK    2  A    between atoms: CA_6  and  C_27
REMARK    3  A    between atoms: C_11  and  C_12
REMARK    4  A    between atoms: C_12  and  C_13
REMARK    5  A    between atoms: C_13  and  N_15
REMARK    6  A    between atoms: C_16  and  C_18
REMARK    7  A    between atoms: C_19  and  C_21
REMARK    8  A    between atoms: C_21  and  C_22
REMARK    9  A    between atoms: C_22  and  O_23
REMARK   10  A    between atoms: O_23  and  C_25
REMARK   11  A    between atoms: C_27  and  C_28
REMARK   12  A    between atoms: C_28  and  C_29
REMARK   13  A    between atoms: C_29  and  N_31
REMARK                            x       y       z     vdW  Elec       q    Type
REMARK                         _______ _______ _______ _____ _____    ______ ____
ROOT
ATOM      1  O   UNL     1       1.519  -0.205   2.606  0.00  0.00    -0.273 OA
ATOM      2  O   UNL     1       4.415  -2.393  -1.248  0.00  0.00    -0.273 OA
ATOM      3  N   UNL     1       2.366  -2.012  -0.270  0.00  0.00    -0.297 N 
ATOM      4  N   UNL     1       3.505  -0.361   1.454  0.00  0.00    -0.297 N 
ATOM      5  CA  UNL     1       1.464  -1.039   0.328  0.00  0.00    +0.149 C 
ATOM      6  CA  UNL     1       4.158  -0.429   0.155  0.00  0.00    +0.149 C 
ATOM      7  C   UNL     1       2.137  -0.535   1.597  0.00  0.00    +0.241 C 
ATOM      8  C   UNL     1       3.704  -1.727  -0.499  0.00  0.00    +0.241 C 
ATOM      9  H   UNL     1       2.017  -2.898  -0.519  0.00  0.00    +0.150 HD
ATOM     10  H   UNL     1       4.051  -0.186   2.255  0.00  0.00    +0.150 HD
ENDROOT
BRANCH   5  11
ATOM     11  C   UNL     1       0.102  -1.651   0.612  0.00  0.00    +0.031 C 
BRANCH  11  12
ATOM     12  C   UNL     1      -0.579  -2.121  -0.676  0.00  0.00    +0.023 C 
BRANCH  12  13
ATOM     13  C   UNL     1      -1.922  -2.795  -0.416  0.00  0.00    +0.090 C 
BRANCH  13  15
ATOM     14  O   UNL     1      -3.778  -1.071  -1.743  0.00  0.00    -0.270 OA
ATOM     15  N   UNL     1      -2.870  -1.909   0.217  0.00  0.00    -0.301 N 
ATOM     16  C   UNL     1      -3.731  -1.109  -0.519  0.00  0.00    +0.245 C 
ATOM     17  H   UNL     1      -2.906  -1.871   1.200  0.00  0.00    +0.150 HD
BRANCH  16  18
ATOM     18  C   UNL     1      -4.593  -0.271   0.364  0.00  0.00    +0.049 C 
ATOM     19  C   UNL     1      -5.094   0.945   0.070  0.00  0.00    -0.036 C 
ATOM     20  C   UNL     1      -4.780   1.563  -1.272  0.00  0.00    +0.027 C 
BRANCH  19  21
ATOM     21  C   UNL     1      -5.923   1.821   0.987  0.00  0.00    +0.070 C 
BRANCH  21  22
ATOM     22  C   UNL     1      -7.314   2.120   0.434  0.00  0.00    +0.213 C 
BRANCH  22  23
ATOM     23  O   UNL     1      -8.045   0.912   0.275  0.00  0.00    -0.448 OA
BRANCH  23  25
ATOM     24  O   UNL     1      -9.863   2.095  -0.522  0.00  0.00    -0.250 OA
ATOM     25  C   UNL     1      -9.315   1.044  -0.216  0.00  0.00    +0.318 C 
ATOM     26  C   UNL     1      -9.961  -0.303  -0.329  0.00  0.00    +0.121 C 
ENDBRANCH  23  25
ENDBRANCH  22  23
ENDBRANCH  21  22
ENDBRANCH  19  21
ENDBRANCH  16  18
ENDBRANCH  13  15
ENDBRANCH  12  13
ENDBRANCH  11  12
ENDBRANCH   5  11
BRANCH   6  27
ATOM     27  C   UNL     1       5.671  -0.362   0.293  0.00  0.00    +0.031 C 
BRANCH  27  28
ATOM     28  C   UNL     1       6.117   0.961   0.920  0.00  0.00    +0.023 C 
BRANCH  28  29
ATOM     29  C   UNL     1       7.626   1.033   1.127  0.00  0.00    +0.089 C 
BRANCH  29  31
ATOM     30  O   UNL     1       8.443   3.200  -0.624  0.00  0.00    -0.275 OA
ATOM     31  N   UNL     1       8.354   0.930  -0.108  0.00  0.00    -0.304 N 
ATOM     32  C   UNL     1       8.704   2.028  -0.884  0.00  0.00    +0.223 C 
ATOM     33  C   UNL     1       9.484   1.641  -2.112  0.00  0.00    +0.095 C 
ATOM     34  H   UNL     1       8.619   0.035  -0.420  0.00  0.00    +0.149 HD
ENDBRANCH  29  31
ENDBRANCH  28  29
ENDBRANCH  27  28
ENDBRANCH   6  27
TORSDOF 13
