REMARK  Name = 139588440
REMARK  7 active torsions:
REMARK  status: ('A' for Active; 'I' for Inactive)
REMARK    1  A    between atoms: C_8  and  O_24
REMARK    2  A    between atoms: C_10  and  O_28
REMARK    3  A    between atoms: C_16  and  O_32
REMARK    4  A    between atoms: C_17  and  C_22
REMARK    5  A    between atoms: O_24  and  C_26
REMARK    6  A    between atoms: O_28  and  C_30
REMARK    7  A    between atoms: O_32  and  C_34
REMARK                            x       y       z     vdW  Elec       q    Type
REMARK                         _______ _______ _______ _____ _____    ______ ____
ROOT
ATOM      1  O   UNL     1       2.850   0.232  -1.931  0.00  0.00    -0.445 OA
ATOM      2  O   UNL     1       1.090   3.861   0.188  0.00  0.00    -0.291 OA
ATOM      3  O   UNL     1       3.288   2.493  -1.965  0.00  0.00    -0.250 OA
ATOM      4  C   UNL     1       0.269   0.512  -0.464  0.00  0.00    +0.052 C 
ATOM      5  C   UNL     1       1.190   1.433   0.419  0.00  0.00    +0.079 C 
ATOM      6  C   UNL     1       2.720   1.355   0.128  0.00  0.00    +0.137 C 
ATOM      7  C   UNL     1      -1.079   0.347   0.359  0.00  0.00    +0.026 C 
ATOM      8  C   UNL     1       0.991  -0.855  -0.745  0.00  0.00    +0.213 C 
ATOM      9  C   UNL     1       2.519  -0.722  -0.906  0.00  0.00    +0.248 C 
ATOM     10  C   UNL     1       3.142  -0.108   0.331  0.00  0.00    +0.222 C 
ATOM     11  C   UNL     1      -1.606   1.678   0.906  0.00  0.00    -0.041 C 
ATOM     12  C   UNL     1      -2.166  -0.416  -0.430  0.00  0.00    +0.048 C 
ATOM     13  C   UNL     1      -0.065   1.169  -1.846  0.00  0.00    +0.004 C 
ATOM     14  C   UNL     1       0.531   2.807   0.469  0.00  0.00    +0.173 C 
ATOM     15  C   UNL     1       3.002   1.476  -1.355  0.00  0.00    +0.320 C 
ATOM     16  C   UNL     1      -3.502  -0.486   0.317  0.00  0.00    +0.173 C 
ATOM     17  C   UNL     1      -4.047   0.923   0.673  0.00  0.00    +0.059 C 
ATOM     18  C   UNL     1      -2.984   1.645   1.533  0.00  0.00    +0.030 C 
ATOM     19  C   UNL     1       3.576   2.310   0.960  0.00  0.00    +0.015 C 
ATOM     20  C   UNL     1      -0.891   2.818   0.913  0.00  0.00    +0.029 C 
ATOM     21  C   UNL     1      -5.343   0.805   1.500  0.00  0.00    +0.008 C 
ENDROOT
BRANCH  17  22
ATOM     22  C   UNL     1      -4.370   1.732  -0.564  0.00  0.00    -0.023 C 
ATOM     23  C   UNL     1      -4.864   2.974  -0.538  0.00  0.00    -0.005 C 
ENDBRANCH  17  22
BRANCH   8  24
ATOM     24  O   UNL     1       0.796  -1.788   0.321  0.00  0.00    -0.448 OA
BRANCH  24  26
ATOM     25  O   UNL     1       0.964  -3.544  -1.171  0.00  0.00    -0.250 OA
ATOM     26  C   UNL     1       0.806  -3.103  -0.040  0.00  0.00    +0.318 C 
ATOM     27  C   UNL     1       0.592  -3.959   1.171  0.00  0.00    +0.121 C 
ENDBRANCH  24  26
ENDBRANCH   8  24
BRANCH  10  28
ATOM     28  O   UNL     1       4.553  -0.293   0.276  0.00  0.00    -0.448 OA
BRANCH  28  30
ATOM     29  O   UNL     1       4.363  -2.235   1.513  0.00  0.00    -0.250 OA
ATOM     30  C   UNL     1       5.031  -1.404   0.912  0.00  0.00    +0.318 C 
ATOM     31  C   UNL     1       6.521  -1.468   0.772  0.00  0.00    +0.121 C 
ENDBRANCH  28  30
ENDBRANCH  10  28
BRANCH  16  32
ATOM     32  O   UNL     1      -4.422  -1.214  -0.495  0.00  0.00    -0.452 OA
BRANCH  32  34
ATOM     33  O   UNL     1      -3.660  -3.202   0.400  0.00  0.00    -0.250 OA
ATOM     34  C   UNL     1      -4.392  -2.571  -0.351  0.00  0.00    +0.317 C 
ATOM     35  C   UNL     1      -5.404  -3.199  -1.260  0.00  0.00    +0.121 C 
ENDBRANCH  32  34
ENDBRANCH  16  32
TORSDOF 7
