139589056
  -OEChem-03292013293D

 59 62  0     1  0  0  0  0  0999 V2000
   -0.7407   -0.1873   -0.5022 O   0  0  0  0  0  0  0  0  0  0  0  0
   -0.5721    2.1195   -0.6019 O   0  0  0  0  0  0  0  0  0  0  0  0
   -2.8380    0.6486    0.1383 O   0  0  0  0  0  0  0  0  0  0  0  0
   -2.5097   -2.1414    0.3965 O   0  0  0  0  0  0  0  0  0  0  0  0
   -4.7386   -2.7974   -1.1519 O   0  0  0  0  0  0  0  0  0  0  0  0
   -6.2472   -0.3454   -0.7822 O   0  0  0  0  0  0  0  0  0  0  0  0
   -6.0653    1.8835    0.7622 O   0  0  0  0  0  0  0  0  0  0  0  0
   -4.1098    1.9430    1.9320 O   0  0  0  0  0  0  0  0  0  0  0  0
    3.4096   -0.3111    0.3134 C   0  0  1  0  0  0  0  0  0  0  0  0
    3.5465    1.2469    0.3877 C   0  0  1  0  0  0  0  0  0  0  0  0
    1.8837   -0.5943    0.1259 C   0  0  1  0  0  0  0  0  0  0  0  0
    4.2527   -0.6929   -0.9198 C   0  0  0  0  0  0  0  0  0  0  0  0
    3.7761   -0.9918    1.6637 C   0  0  1  0  0  0  0  0  0  0  0  0
    5.3418    0.3849   -1.0443 C   0  0  0  0  0  0  0  0  0  0  0  0
    4.5773    1.6627   -0.6738 C   0  0  0  0  0  0  0  0  0  0  0  0
    1.3982   -1.2607    1.4176 C   0  0  0  0  0  0  0  0  0  0  0  0
    2.4628   -0.9379    2.4542 C   0  0  0  0  0  0  0  0  0  0  0  0
    1.3015    0.7663   -0.0763 C   0  0  0  0  0  0  0  0  0  0  0  0
    2.1779    1.7599    0.0713 C   0  0  0  0  0  0  0  0  0  0  0  0
    4.2703   -2.4362    1.5483 C   0  0  0  0  0  0  0  0  0  0  0  0
    6.5211    0.1438   -0.0913 C   0  0  0  0  0  0  0  0  0  0  0  0
    5.8806    0.4541   -2.4784 C   0  0  0  0  0  0  0  0  0  0  0  0
   -0.0908    1.0053   -0.4206 C   0  0  0  0  0  0  0  0  0  0  0  0
   -2.1242   -0.1184   -0.8337 C   0  0  2  0  0  0  0  0  0  0  0  0
   -2.6865   -1.5386   -0.8892 C   0  0  2  0  0  0  0  0  0  0  0  0
   -4.1748   -1.4914   -1.2332 C   0  0  2  0  0  0  0  0  0  0  0  0
   -4.9283   -0.5587   -0.2815 C   0  0  1  0  0  0  0  0  0  0  0  0
   -4.2189    0.7913   -0.1859 C   0  0  1  0  0  0  0  0  0  0  0  0
   -4.7554    1.5937    0.9550 C   0  0  0  0  0  0  0  0  0  0  0  0
    3.8572    1.5938    1.3795 H   0  0  0  0  0  0  0  0  0  0  0  0
    1.6843   -1.2398   -0.7370 H   0  0  0  0  0  0  0  0  0  0  0  0
    4.6718   -1.7013   -0.8834 H   0  0  0  0  0  0  0  0  0  0  0  0
    3.6181   -0.6649   -1.8165 H   0  0  0  0  0  0  0  0  0  0  0  0
    4.5377   -0.4263    2.2111 H   0  0  0  0  0  0  0  0  0  0  0  0
    4.0803    2.0851   -1.5573 H   0  0  0  0  0  0  0  0  0  0  0  0
    5.2442    2.4430   -0.2886 H   0  0  0  0  0  0  0  0  0  0  0  0
    1.3438   -2.3459    1.2693 H   0  0  0  0  0  0  0  0  0  0  0  0
    0.4085   -0.9321    1.7501 H   0  0  0  0  0  0  0  0  0  0  0  0
    2.3034    0.0706    2.8547 H   0  0  0  0  0  0  0  0  0  0  0  0
    2.4381   -1.6355    3.2972 H   0  0  0  0  0  0  0  0  0  0  0  0
    1.9531    2.8129   -0.0282 H   0  0  0  0  0  0  0  0  0  0  0  0
    3.6123   -3.0503    0.9255 H   0  0  0  0  0  0  0  0  0  0  0  0
    4.3305   -2.9040    2.5370 H   0  0  0  0  0  0  0  0  0  0  0  0
    5.2764   -2.4706    1.1191 H   0  0  0  0  0  0  0  0  0  0  0  0
    6.3809   -0.4806   -2.7551 H   0  0  0  0  0  0  0  0  0  0  0  0
    6.6027    1.2707   -2.5891 H   0  0  0  0  0  0  0  0  0  0  0  0
    5.0761    0.6256   -3.2024 H   0  0  0  0  0  0  0  0  0  0  0  0
    6.9701   -0.8404   -0.2642 H   0  0  0  0  0  0  0  0  0  0  0  0
    6.2314    0.2004    0.9600 H   0  0  0  0  0  0  0  0  0  0  0  0
    7.3034    0.8967   -0.2429 H   0  0  0  0  0  0  0  0  0  0  0  0
   -2.2201    0.3580   -1.8190 H   0  0  0  0  0  0  0  0  0  0  0  0
   -2.1348   -2.1613   -1.6010 H   0  0  0  0  0  0  0  0  0  0  0  0
   -4.3084   -1.1503   -2.2674 H   0  0  0  0  0  0  0  0  0  0  0  0
   -5.0348   -1.0272    0.7040 H   0  0  0  0  0  0  0  0  0  0  0  0
   -4.3164    1.3909   -1.0994 H   0  0  0  0  0  0  0  0  0  0  0  0
   -2.8265   -1.5191    1.0726 H   0  0  0  0  0  0  0  0  0  0  0  0
   -4.2365   -3.3706   -1.7561 H   0  0  0  0  0  0  0  0  0  0  0  0
   -6.1741    0.0690   -1.6588 H   0  0  0  0  0  0  0  0  0  0  0  0
   -6.4371    2.4092    1.5023 H   0  0  0  0  0  0  0  0  0  0  0  0
  1 23  1  0  0  0  0
  1 24  1  0  0  0  0
  2 23  2  0  0  0  0
  3 24  1  0  0  0  0
  3 28  1  0  0  0  0
  4 25  1  0  0  0  0
  4 56  1  0  0  0  0
  5 26  1  0  0  0  0
  5 57  1  0  0  0  0
  6 27  1  0  0  0  0
  6 58  1  0  0  0  0
  7 29  1  0  0  0  0
  7 59  1  0  0  0  0
  8 29  2  0  0  0  0
  9 10  1  0  0  0  0
  9 11  1  0  0  0  0
  9 12  1  0  0  0  0
  9 13  1  0  0  0  0
 10 15  1  0  0  0  0
 10 19  1  0  0  0  0
 10 30  1  0  0  0  0
 11 16  1  0  0  0  0
 11 18  1  0  0  0  0
 11 31  1  0  0  0  0
 12 14  1  0  0  0  0
 12 32  1  0  0  0  0
 12 33  1  0  0  0  0
 13 17  1  0  0  0  0
 13 20  1  0  0  0  0
 13 34  1  0  0  0  0
 14 15  1  0  0  0  0
 14 21  1  0  0  0  0
 14 22  1  0  0  0  0
 15 35  1  0  0  0  0
 15 36  1  0  0  0  0
 16 17  1  0  0  0  0
 16 37  1  0  0  0  0
 16 38  1  0  0  0  0
 17 39  1  0  0  0  0
 17 40  1  0  0  0  0
 18 19  2  0  0  0  0
 18 23  1  0  0  0  0
 19 41  1  0  0  0  0
 20 42  1  0  0  0  0
 20 43  1  0  0  0  0
 20 44  1  0  0  0  0
 21 48  1  0  0  0  0
 21 49  1  0  0  0  0
 21 50  1  0  0  0  0
 22 45  1  0  0  0  0
 22 46  1  0  0  0  0
 22 47  1  0  0  0  0
 24 25  1  0  0  0  0
 24 51  1  0  0  0  0
 25 26  1  0  0  0  0
 25 52  1  0  0  0  0
 26 27  1  0  0  0  0
 26 53  1  0  0  0  0
 27 28  1  0  0  0  0
 27 54  1  0  0  0  0
 28 29  1  0  0  0  0
 28 55  1  0  0  0  0
M  END
> <PUBCHEM_COMPOUND_CID>
139589056

> <PUBCHEM_CONFORMER_RMSD>
0.8

> <PUBCHEM_CONFORMER_DIVERSEORDER>
1
199
93
186
106
188
34
140
137
77
165
139
69
116
82
169
206
119
4
222
185
73
102
210
172
103
175
205
216
99
163
35
110
3
141
220
176
128
42
53
74
30
72
40
203
56
98
179
66
202
78
166
149
71
226
61
147
108
193
111
191
13
201
86
162
217
150
63
167
79
100
218
174
7
148
43
112
113
219
227
154
21
92
127
187
115
143
215
24
57
181
123
153
64
27
223
224
94
225
97
157
23
121
85
75
26
182
211
104
91
12
58
114
144
80
170
90
16
126
173
190
31
133
209
197
192
117
33
67
124
164
49
46
214
161
32
8
142
22
60
68
130
83
152
65
168
54
17
212
134
62
159
47
15
198
88
5
29
160
151
207
138
89
45
101
39
171
189
213
221
2
51
228
70
122
25
120
146
18
135
44
208
9
184
145
96
59
52
55
87
155
194
37
105
204
131
6
136
118
195
28
81
156
132
129
76
41
11
183
38
178
36
177
158
125
19
50
107
14
196
20
180
95
84
48
200
10
109

> <PUBCHEM_MMFF94_PARTIAL_CHARGES>
24
1 -0.43
10 0.14
11 0.14
18 -0.12
19 -0.29
2 -0.57
23 0.71
24 0.56
25 0.28
26 0.28
27 0.28
28 0.34
29 0.66
3 -0.56
4 -0.68
41 0.15
5 -0.68
56 0.4
57 0.4
58 0.4
59 0.5
6 -0.68
7 -0.65
8 -0.57

> <PUBCHEM_EFFECTIVE_ROTOR_COUNT>
6.4

> <PUBCHEM_PHARMACOPHORE_FEATURES>
16
1 2 acceptor
1 3 acceptor
1 4 acceptor
1 4 donor
1 5 acceptor
1 5 donor
1 6 acceptor
1 6 donor
1 7 acceptor
1 8 acceptor
3 14 21 22 hydrophobe
3 7 8 29 anion
5 9 10 11 18 19 rings
5 9 10 12 14 15 rings
5 9 11 13 16 17 rings
6 3 24 25 26 27 28 rings

> <PUBCHEM_HEAVY_ATOM_COUNT>
29

> <PUBCHEM_ATOM_DEF_STEREO_COUNT>
9

> <PUBCHEM_ATOM_UDEF_STEREO_COUNT>
0

> <PUBCHEM_BOND_DEF_STEREO_COUNT>
0

> <PUBCHEM_BOND_UDEF_STEREO_COUNT>
0

> <PUBCHEM_ISOTOPIC_ATOM_COUNT>
0

> <PUBCHEM_COMPONENT_COUNT>
1

> <PUBCHEM_CACTVS_TAUTO_COUNT>
-1

> <PUBCHEM_CONFORMER_ID>
0851F5C000000001

> <PUBCHEM_MMFF94_ENERGY>
93.5286

> <PUBCHEM_FEATURE_SELFOVERLAP>
82.134

> <PUBCHEM_SHAPE_FINGERPRINT>
10090160 65 17095241428158052704
10462674 125 12458177791760300566
10670039 82 18202566150816558521
10674148 151 18343030961100133364
11545043 162 17132115762034244879
11796584 16 17274826844287640526
12107183 9 18052535470134829803
12166972 35 11167935853567930618
12236239 1 18411139138513077972
12403259 415 16200429174101289185
12553582 1 18261662718807759724
12616971 3 18041552551374500562
12633257 1 18339072692652820651
12730499 353 16805612460510399240
12788726 201 18339926995881750577
13782708 43 16128369424211494463
13914758 101 13470417617465494275
144659 39 13623524696873174689
14840074 17 17967537865388561887
15183329 4 18342741810099064454
15238133 3 17988637433190475456
15250474 111 18338221730698847615
15537594 2 18260269633296152953
1577012 14 18411698760584139705
15788980 27 15482950557735004629
15799311 1 18259709986294200490
1601671 61 18343584019142693028
17349148 13 18201711873700649461
17844677 252 17917152809180468488
18608769 82 17386858385991616883
18681886 176 18130503149831386876
19319366 153 17530678806130018674
19377110 9 18041271098242073448
20567600 75 16343710906519965604
21033648 29 16200141084785324155
21065198 48 18410568492378935523
21267235 1 18341336695006690247
21623969 137 16515692134332622784
22950370 63 18408882927857384278
23522609 53 18190766196349160156
23559900 14 17632577153887139993
239999 70 18270679887525529284
24771293 8 18263081175688950476
25147074 1 18114739318538005256
34797466 226 17346317158422730424
4073 2 18262802998660553466
4214541 1 18273497888213776061
4340502 62 16587748629512927256
469060 322 14996572862347834147
497634 4 18335133228933301215
504579 68 18339913892416078343
5104073 3 18412256255227319921

> <PUBCHEM_SHAPE_MULTIPOLES>
549.85
15.71
2.3
1.75
6.96
0.61
0.22
-1.32
-3.06
0.71
0.42
-0.77
0.35
-3.54

> <PUBCHEM_SHAPE_SELFOVERLAP>
1186.131

> <PUBCHEM_SHAPE_VOLUME>
303.4

> <PUBCHEM_COORDINATE_TYPE>
2
5
10

$$$$
