139585922
  -OEChem-03292013293D

 68 70  0     1  0  0  0  0  0999 V2000
    2.5095    4.3774   -1.7150 O   0  0  0  0  0  0  0  0  0  0  0  0
   -1.2826   -5.3058   -0.9475 O   0  0  0  0  0  0  0  0  0  0  0  0
    2.0280    1.5137    2.0240 O   0  0  0  0  0  0  0  0  0  0  0  0
   -3.3411   -0.6133   -1.5970 O   0  0  0  0  0  0  0  0  0  0  0  0
   -1.2542    2.7217    1.7444 O   0  0  0  0  0  0  0  0  0  0  0  0
    0.7857   -1.1545   -1.4805 O   0  0  0  0  0  0  0  0  0  0  0  0
    1.5043    1.9868   -0.1728 N   0  0  0  0  0  0  0  0  0  0  0  0
   -1.6836   -1.8076   -0.5518 N   0  0  0  0  0  0  0  0  0  0  0  0
    1.6318   -1.0031    0.6745 N   0  0  0  0  0  0  0  0  0  0  0  0
   -1.2254    1.2775   -0.0764 N   0  0  0  0  0  0  0  0  0  0  0  0
   -0.5516   -2.0000    0.3559 C   0  0  1  0  0  0  0  0  0  0  0  0
    0.5114    3.0086    0.1481 C   0  0  1  0  0  0  0  0  0  0  0  0
   -0.3820   -3.5130    0.4219 C   0  0  0  0  0  0  0  0  0  0  0  0
    0.2395    3.7361   -1.1725 C   0  0  0  0  0  0  0  0  0  0  0  0
   -0.8004   -3.9762   -0.9734 C   0  0  2  0  0  0  0  0  0  0  0  0
    1.4771    3.4431   -2.0154 C   0  0  2  0  0  0  0  0  0  0  0  0
    1.8965    2.0462   -1.5786 C   0  0  0  0  0  0  0  0  0  0  0  0
   -1.9065   -3.0027   -1.3604 C   0  0  0  0  0  0  0  0  0  0  0  0
    2.7281   -0.0857    0.3756 C   0  0  1  0  0  0  0  0  0  0  0  0
   -2.3508    0.4420    0.3252 C   0  0  2  0  0  0  0  0  0  0  0  0
   -2.5091   -0.6999   -0.6869 C   0  0  0  0  0  0  0  0  0  0  0  0
    2.1232    1.2408    0.8234 C   0  0  0  0  0  0  0  0  0  0  0  0
    0.6757   -1.3446   -0.2709 C   0  0  0  0  0  0  0  0  0  0  0  0
   -0.7315    2.3148    0.7066 C   0  0  0  0  0  0  0  0  0  0  0  0
    3.9716   -0.4412    1.1726 C   0  0  0  0  0  0  0  0  0  0  0  0
   -3.6491    1.2522    0.3924 C   0  0  0  0  0  0  0  0  0  0  0  0
    4.5702   -1.8117    0.8061 C   0  0  0  0  0  0  0  0  0  0  0  0
   -4.8760    0.4018    0.7486 C   0  0  0  0  0  0  0  0  0  0  0  0
   -6.1287    1.2809    0.7348 C   0  0  0  0  0  0  0  0  0  0  0  0
    5.7765   -2.1102    1.6996 C   0  0  0  0  0  0  0  0  0  0  0  0
    4.9838   -1.8914   -0.6640 C   0  0  0  0  0  0  0  0  0  0  0  0
   -4.7401   -0.2827    2.1094 C   0  0  0  0  0  0  0  0  0  0  0  0
   -0.7532   -1.5675    1.3387 H   0  0  0  0  0  0  0  0  0  0  0  0
    0.9320    3.6779    0.9070 H   0  0  0  0  0  0  0  0  0  0  0  0
    0.6353   -3.8339    0.6684 H   0  0  0  0  0  0  0  0  0  0  0  0
   -1.0532   -3.9417    1.1769 H   0  0  0  0  0  0  0  0  0  0  0  0
   -0.6537    3.3456   -1.6733 H   0  0  0  0  0  0  0  0  0  0  0  0
    0.0887    4.8073   -1.0027 H   0  0  0  0  0  0  0  0  0  0  0  0
    0.0365   -3.9101   -1.6778 H   0  0  0  0  0  0  0  0  0  0  0  0
    1.2721    3.5041   -3.0882 H   0  0  0  0  0  0  0  0  0  0  0  0
   -1.8694   -2.7407   -2.4232 H   0  0  0  0  0  0  0  0  0  0  0  0
   -2.9082   -3.3909   -1.1432 H   0  0  0  0  0  0  0  0  0  0  0  0
    1.3273    1.2836   -2.1165 H   0  0  0  0  0  0  0  0  0  0  0  0
    2.9697    1.8657   -1.6859 H   0  0  0  0  0  0  0  0  0  0  0  0
   -2.1212    0.0493    1.3187 H   0  0  0  0  0  0  0  0  0  0  0  0
    2.9273   -0.0902   -0.6959 H   0  0  0  0  0  0  0  0  0  0  0  0
    4.7272    0.3413    1.0216 H   0  0  0  0  0  0  0  0  0  0  0  0
    3.7440   -0.4372    2.2473 H   0  0  0  0  0  0  0  0  0  0  0  0
   -3.5539    2.0591    1.1285 H   0  0  0  0  0  0  0  0  0  0  0  0
   -3.8219    1.7509   -0.5715 H   0  0  0  0  0  0  0  0  0  0  0  0
   -0.7378    1.0436   -0.9360 H   0  0  0  0  0  0  0  0  0  0  0  0
    1.4659   -1.2407    1.6487 H   0  0  0  0  0  0  0  0  0  0  0  0
    3.8226   -2.5927    0.9930 H   0  0  0  0  0  0  0  0  0  0  0  0
   -5.0464   -0.3804    0.0031 H   0  0  0  0  0  0  0  0  0  0  0  0
    3.2905    4.1259   -2.2368 H   0  0  0  0  0  0  0  0  0  0  0  0
   -0.5643   -5.8698   -0.6138 H   0  0  0  0  0  0  0  0  0  0  0  0
   -6.0636    2.0791    1.4823 H   0  0  0  0  0  0  0  0  0  0  0  0
   -6.2682    1.7453   -0.2472 H   0  0  0  0  0  0  0  0  0  0  0  0
   -7.0239    0.6881    0.9517 H   0  0  0  0  0  0  0  0  0  0  0  0
   -5.6697   -0.7946    2.3814 H   0  0  0  0  0  0  0  0  0  0  0  0
   -3.9493   -1.0389    2.1006 H   0  0  0  0  0  0  0  0  0  0  0  0
   -4.5131    0.4426    2.8980 H   0  0  0  0  0  0  0  0  0  0  0  0
    6.1886   -3.1009    1.4802 H   0  0  0  0  0  0  0  0  0  0  0  0
    6.5723   -1.3720    1.5529 H   0  0  0  0  0  0  0  0  0  0  0  0
    5.5007   -2.8350   -0.8709 H   0  0  0  0  0  0  0  0  0  0  0  0
    4.1155   -1.8523   -1.3283 H   0  0  0  0  0  0  0  0  0  0  0  0
    5.6593   -1.0720   -0.9320 H   0  0  0  0  0  0  0  0  0  0  0  0
    5.4908   -2.0960    2.7567 H   0  0  0  0  0  0  0  0  0  0  0  0
  1 16  1  0  0  0  0
  1 55  1  0  0  0  0
  2 15  1  0  0  0  0
  2 56  1  0  0  0  0
  3 22  2  0  0  0  0
  4 21  2  0  0  0  0
  5 24  2  0  0  0  0
  6 23  2  0  0  0  0
  7 12  1  0  0  0  0
  7 17  1  0  0  0  0
  7 22  1  0  0  0  0
  8 11  1  0  0  0  0
  8 18  1  0  0  0  0
  8 21  1  0  0  0  0
  9 19  1  0  0  0  0
  9 23  1  0  0  0  0
  9 52  1  0  0  0  0
 10 20  1  0  0  0  0
 10 24  1  0  0  0  0
 10 51  1  0  0  0  0
 11 13  1  0  0  0  0
 11 23  1  0  0  0  0
 11 33  1  0  0  0  0
 12 14  1  0  0  0  0
 12 24  1  0  0  0  0
 12 34  1  0  0  0  0
 13 15  1  0  0  0  0
 13 35  1  0  0  0  0
 13 36  1  0  0  0  0
 14 16  1  0  0  0  0
 14 37  1  0  0  0  0
 14 38  1  0  0  0  0
 15 18  1  0  0  0  0
 15 39  1  0  0  0  0
 16 17  1  0  0  0  0
 16 40  1  0  0  0  0
 17 43  1  0  0  0  0
 17 44  1  0  0  0  0
 18 41  1  0  0  0  0
 18 42  1  0  0  0  0
 19 22  1  0  0  0  0
 19 25  1  0  0  0  0
 19 46  1  0  0  0  0
 20 21  1  0  0  0  0
 20 26  1  0  0  0  0
 20 45  1  0  0  0  0
 25 27  1  0  0  0  0
 25 47  1  0  0  0  0
 25 48  1  0  0  0  0
 26 28  1  0  0  0  0
 26 49  1  0  0  0  0
 26 50  1  0  0  0  0
 27 30  1  0  0  0  0
 27 31  1  0  0  0  0
 27 53  1  0  0  0  0
 28 29  1  0  0  0  0
 28 32  1  0  0  0  0
 28 54  1  0  0  0  0
 29 57  1  0  0  0  0
 29 58  1  0  0  0  0
 29 59  1  0  0  0  0
 30 63  1  0  0  0  0
 30 64  1  0  0  0  0
 30 68  1  0  0  0  0
 31 65  1  0  0  0  0
 31 66  1  0  0  0  0
 31 67  1  0  0  0  0
 32 60  1  0  0  0  0
 32 61  1  0  0  0  0
 32 62  1  0  0  0  0
M  END
> <PUBCHEM_COMPOUND_CID>
139585922

> <PUBCHEM_CONFORMER_RMSD>
0.8

> <PUBCHEM_CONFORMER_DIVERSEORDER>
1
18
9
42
44
37
31
28
32
13
36
33
40
47
30
16
11
15
17
7
24
2
34
19
39
38
8
29
48
27
4
21
46
12
43
22
26
41
10
6
45
5
20
25
35
3
23
14

> <PUBCHEM_MMFF94_PARTIAL_CHARGES>
26
1 -0.68
10 -0.73
11 0.36
12 0.36
15 0.28
16 0.28
17 0.3
18 0.3
19 0.36
2 -0.68
20 0.36
21 0.57
22 0.57
23 0.57
24 0.57
3 -0.57
4 -0.57
5 -0.57
51 0.37
52 0.37
55 0.4
56 0.4
6 -0.57
7 -0.66
8 -0.66
9 -0.73

> <PUBCHEM_EFFECTIVE_ROTOR_COUNT>
6

> <PUBCHEM_PHARMACOPHORE_FEATURES>
14
1 1 acceptor
1 1 donor
1 10 donor
1 2 acceptor
1 2 donor
1 3 acceptor
1 4 acceptor
1 5 acceptor
1 6 acceptor
1 9 donor
3 27 30 31 hydrophobe
3 28 29 32 hydrophobe
5 7 12 14 16 17 rings
5 8 11 13 15 18 rings

> <PUBCHEM_HEAVY_ATOM_COUNT>
32

> <PUBCHEM_ATOM_DEF_STEREO_COUNT>
6

> <PUBCHEM_ATOM_UDEF_STEREO_COUNT>
0

> <PUBCHEM_BOND_DEF_STEREO_COUNT>
0

> <PUBCHEM_BOND_UDEF_STEREO_COUNT>
0

> <PUBCHEM_ISOTOPIC_ATOM_COUNT>
0

> <PUBCHEM_COMPONENT_COUNT>
1

> <PUBCHEM_CACTVS_TAUTO_COUNT>
-1

> <PUBCHEM_CONFORMER_ID>
0851E98200000001

> <PUBCHEM_MMFF94_ENERGY>
94.7453

> <PUBCHEM_FEATURE_SELFOVERLAP>
71.05

> <PUBCHEM_SHAPE_FINGERPRINT>
10940486 97 18340203115714588494
1100329 8 18412823611933451723
11445158 3 18186809092971231983
11578080 2 17058625560797449602
12422481 6 18128540366365952432
12633257 1 17775558724168558952
13004483 165 18261383404785349888
13140716 1 18341608252318644395
13583140 156 17386271152419353091
140371 6 18120670041419728633
14117953 113 18266180535372972837
14955137 171 18261402108776989210
16728300 4 17608634025493552090
17974551 9 17631148961449778954
1813 80 18261399888758977620
19591789 44 17838051507985986538
20028762 73 18059566967306997151
20600515 1 18343018887319414342
20642791 178 18410863170391257617
20739085 24 18194977253015881633
20905425 154 17621321663790819807
21033648 29 18200011959419491329
22113638 7 18410291410684276766
23419403 2 14169482858166390391
23558518 356 18192988450966706402
25019877 29 17632006460065779054
2818148 4 17979367678369330339
3178227 256 18337124384340568787
338550 245 18339922731658979495
340366 18 18409167727049234551
4409770 3 17901922181498006502
469060 322 18046924692168134392
484985 159 14642425346159573986
513202 73 17828765041399348138

> <PUBCHEM_SHAPE_MULTIPOLES>
603.41
9.22
5.83
1.81
0.88
0.92
0.02
2.69
5.11
-1.32
-3.34
-0.25
-0.54
-2.18

> <PUBCHEM_SHAPE_SELFOVERLAP>
1246.518

> <PUBCHEM_SHAPE_VOLUME>
344.7

> <PUBCHEM_COORDINATE_TYPE>
2
5
10

$$$$
