REMARK  Name = 139586502
REMARK  4 active torsions:
REMARK  status: ('A' for Active; 'I' for Inactive)
REMARK    1  A    between atoms: C_6  and  O_22
REMARK    2  A    between atoms: C_8  and  O_24
REMARK    3  A    between atoms: C_15  and  O_28
REMARK    4  A    between atoms: C_17  and  O_26
REMARK                            x       y       z     vdW  Elec       q    Type
REMARK                         _______ _______ _______ _____ _____    ______ ____
ROOT
ATOM      1  O   UNL     1       0.400   2.190  -0.193  0.00  0.00    -0.449 OA
ATOM      2  O   UNL     1      -2.332   0.426  -1.657  0.00  0.00    -0.289 OA
ATOM      3  O   UNL     1       0.161   1.468   1.999  0.00  0.00    -0.245 OA
ATOM      4  C   UNL     1      -1.992  -3.005   0.170  0.00  0.00    +0.033 C 
ATOM      5  C   UNL     1      -0.685  -2.316  -0.225  0.00  0.00    +0.007 C 
ATOM      6  C   UNL     1      -3.151  -2.088   0.585  0.00  0.00    +0.145 C 
ATOM      7  C   UNL     1      -0.009  -1.581   0.941  0.00  0.00    +0.027 C 
ATOM      8  C   UNL     1      -3.726  -1.164  -0.504  0.00  0.00    +0.199 C 
ATOM      9  C   UNL     1       1.336  -1.008   0.552  0.00  0.00    -0.010 C 
ATOM     10  C   UNL     1       1.609   0.368   0.475  0.00  0.00    +0.105 C 
ATOM     11  C   UNL     1      -2.980   0.160  -0.649  0.00  0.00    +0.202 C 
ATOM     12  C   UNL     1       2.377  -1.901   0.234  0.00  0.00    +0.033 C 
ATOM     13  C   UNL     1      -0.388   3.385   0.012  0.00  0.00    +0.174 C 
ATOM     14  C   UNL     1      -1.832   3.146  -0.447  0.00  0.00    +0.070 C 
ATOM     15  C   UNL     1       2.873   0.832   0.078  0.00  0.00    +0.143 C 
ATOM     16  C   UNL     1       0.627   1.388   0.876  0.00  0.00    +0.344 C 
ATOM     17  C   UNL     1       3.634  -1.440  -0.164  0.00  0.00    +0.141 C 
ATOM     18  C   UNL     1      -3.119   1.117   0.488  0.00  0.00    +0.036 C 
ATOM     19  C   UNL     1      -2.621   2.358   0.560  0.00  0.00    -0.019 C 
ATOM     20  C   UNL     1       3.880  -0.074  -0.247  0.00  0.00    +0.074 C 
ATOM     21  C   UNL     1       0.268   4.474  -0.834  0.00  0.00    +0.048 C 
ENDROOT
BRANCH   6  22
ATOM     22  O   UNL     1      -4.210  -2.959   1.014  0.00  0.00    -0.382 OA
ATOM     23  H   UNL     1      -3.878  -3.556   1.703  0.00  0.00    +0.210 HD
ENDBRANCH   6  22
BRANCH   8  24
ATOM     24  O   UNL     1      -3.790  -1.818  -1.762  0.00  0.00    -0.375 OA
ATOM     25  H   UNL     1      -4.264  -2.658  -1.666  0.00  0.00    +0.211 HD
ENDBRANCH   8  24
BRANCH  17  26
ATOM     26  O   UNL     1       4.618  -2.329  -0.469  0.00  0.00    -0.471 OA
ATOM     27  C   UNL     1       5.878  -1.791  -0.870  0.00  0.00    +0.252 C 
ENDBRANCH  17  26
BRANCH  15  28
ATOM     28  O   UNL     1       3.171   2.163   0.034  0.00  0.00    -0.505 OA
ATOM     29  H   UNL     1       2.516   2.797   0.247  0.00  0.00    +0.292 HD
ENDBRANCH  15  28
TORSDOF 4
