REMARK  Name = 139583411
REMARK  4 active torsions:
REMARK  status: ('A' for Active; 'I' for Inactive)
REMARK    1  A    between atoms: C_4  and  O_33
REMARK    2  A    between atoms: C_5  and  O_35
REMARK    3  A    between atoms: C_6  and  O_37
REMARK    4  A    between atoms: C_25  and  O_39
REMARK                            x       y       z     vdW  Elec       q    Type
REMARK                         _______ _______ _______ _____ _____    ______ ____
ROOT
ATOM      1  O   UNL     1       3.223   1.768  -1.766  0.00  0.00    -0.289 OA
ATOM      2  O   UNL     1      -5.806  -2.023  -0.003  0.00  0.00    -0.270 OA
ATOM      3  N   UNL     1      -5.206  -0.964  -1.988  0.00  0.00    -0.300 N 
ATOM      4  C   UNL     1       5.931  -0.297  -0.905  0.00  0.00    +0.176 C 
ATOM      5  C   UNL     1       5.138  -1.613  -1.039  0.00  0.00    +0.162 C 
ATOM      6  C   UNL     1       5.474   0.895  -1.767  0.00  0.00    +0.202 C 
ATOM      7  C   UNL     1      -6.479   1.031  -1.198  0.00  0.00    +0.042 C 
ATOM      8  C   UNL     1      -6.407  -0.163  -2.176  0.00  0.00    +0.094 C 
ATOM      9  C   UNL     1       3.659  -1.484  -0.774  0.00  0.00    +0.005 C 
ATOM     10  C   UNL     1       4.296   1.664  -1.177  0.00  0.00    +0.202 C 
ATOM     11  C   UNL     1      -7.570   2.011  -1.623  0.00  0.00    +0.006 C 
ATOM     12  C   UNL     1      -5.142   1.733  -1.090  0.00  0.00    -0.025 C 
ATOM     13  C   UNL     1       3.001  -1.917   0.314  0.00  0.00    -0.002 C 
ATOM     14  C   UNL     1       4.541   2.340   0.131  0.00  0.00    +0.040 C 
ATOM     15  C   UNL     1      -4.373   1.640   0.006  0.00  0.00    -0.005 C 
ATOM     16  C   UNL     1       1.565  -1.789   0.458  0.00  0.00    -0.005 C 
ATOM     17  C   UNL     1      -4.981  -1.737  -0.862  0.00  0.00    +0.249 C 
ATOM     18  C   UNL     1       0.806  -2.198   1.495  0.00  0.00    -0.022 C 
ATOM     19  C   UNL     1       3.632   2.556   1.092  0.00  0.00    +0.003 C 
ATOM     20  C   UNL     1      -3.015   2.128   0.085  0.00  0.00    -0.000 C 
ATOM     21  C   UNL     1      -3.545  -2.118  -0.764  0.00  0.00    +0.094 C 
ATOM     22  C   UNL     1      -0.640  -1.989   1.493  0.00  0.00    -0.001 C 
ATOM     23  C   UNL     1       2.240   2.167   1.105  0.00  0.00    -0.000 C 
ATOM     24  C   UNL     1       1.308  -2.841   2.760  0.00  0.00    +0.031 C 
ATOM     25  C   UNL     1      -2.893  -2.073   0.410  0.00  0.00    +0.138 C 
ATOM     26  C   UNL     1      -2.229   1.880   1.145  0.00  0.00    -0.000 C 
ATOM     27  C   UNL     1      -1.458  -2.314   0.477  0.00  0.00    +0.036 C 
ATOM     28  C   UNL     1       0.025   2.036   2.220  0.00  0.00    -0.022 C 
ATOM     29  C   UNL     1       1.421   2.450   2.133  0.00  0.00    -0.004 C 
ATOM     30  C   UNL     1      -0.834   2.262   1.204  0.00  0.00    -0.004 C 
ATOM     31  C   UNL     1      -0.311   1.391   3.539  0.00  0.00    +0.031 C 
ATOM     32  H   UNL     1      -4.521  -0.955  -2.696  0.00  0.00    +0.150 HD
ENDROOT
BRANCH   4  33
ATOM     33  O   UNL     1       7.284  -0.600  -1.287  0.00  0.00    -0.379 OA
ATOM     34  H   UNL     1       7.608  -1.349  -0.763  0.00  0.00    +0.211 HD
ENDBRANCH   4  33
BRANCH   5  35
ATOM     35  O   UNL     1       5.710  -2.567  -0.136  0.00  0.00    -0.377 OA
ATOM     36  H   UNL     1       6.661  -2.647  -0.309  0.00  0.00    +0.211 HD
ENDBRANCH   5  35
BRANCH   6  37
ATOM     37  O   UNL     1       5.185   0.493  -3.096  0.00  0.00    -0.375 OA
ATOM     38  H   UNL     1       5.941   0.006  -3.459  0.00  0.00    +0.211 HD
ENDBRANCH   6  37
BRANCH  25  39
ATOM     39  O   UNL     1      -3.552  -1.758   1.584  0.00  0.00    -0.505 OA
ATOM     40  H   UNL     1      -4.475  -1.597   1.575  0.00  0.00    +0.292 HD
ENDBRANCH  25  39
TORSDOF 4
