REMARK  Name = 139583680
REMARK  4 active torsions:
REMARK  status: ('A' for Active; 'I' for Inactive)
REMARK    1  A    between atoms: C_5  and  C_18
REMARK    2  A    between atoms: C_7  and  N_26
REMARK    3  A    between atoms: C_14  and  O_22
REMARK    4  A    between atoms: C_18  and  O_24
REMARK                            x       y       z     vdW  Elec       q    Type
REMARK                         _______ _______ _______ _____ _____    ______ ____
ROOT
ATOM      1  O   UNL     1      -2.033   0.434   1.124  0.00  0.00    -0.433 OA
ATOM      2  O   UNL     1      -1.447  -1.257  -2.697  0.00  0.00    -0.275 OA
ATOM      3  O   UNL     1      -3.212  -1.533   1.408  0.00  0.00    -0.252 OA
ATOM      4  N   UNL     1      -0.867  -0.866  -0.531  0.00  0.00    -0.271 N 
ATOM      5  C   UNL     1      -0.761  -0.119   0.735  0.00  0.00    +0.247 C 
ATOM      6  C   UNL     1      -3.936   0.218  -1.232  0.00  0.00    -0.001 C 
ATOM      7  C   UNL     1      -4.188   0.392   0.275  0.00  0.00    +0.036 C 
ATOM      8  C   UNL     1      -2.524   0.620  -1.689  0.00  0.00    +0.084 C 
ATOM      9  C   UNL     1      -0.201  -1.003   1.853  0.00  0.00    +0.074 C 
ATOM     10  C   UNL     1      -1.562  -0.561  -1.683  0.00  0.00    +0.225 C 
ATOM     11  C   UNL     1      -3.137  -0.367   1.048  0.00  0.00    +0.298 C 
ATOM     12  H   UNL     1      -0.365  -1.712  -0.559  0.00  0.00    +0.153 HD
ENDROOT
BRANCH   5  18
ATOM     13  O   UNL     1       1.202  -1.466  -0.224  0.00  0.00    -0.289 OA
ATOM     14  C   UNL     1       3.444  -0.764   0.296  0.00  0.00    +0.177 C 
ATOM     15  C   UNL     1       4.295   0.364  -0.268  0.00  0.00    +0.042 C 
ATOM     16  C   UNL     1       1.463   0.879   0.146  0.00  0.00    +0.068 C 
ATOM     17  C   UNL     1       3.836   1.711   0.279  0.00  0.00    +0.030 C 
ATOM     18  C   UNL     1       0.180   1.029   0.510  0.00  0.00    +0.168 C 
ATOM     19  C   UNL     1       2.394   1.979  -0.077  0.00  0.00    -0.016 C 
ATOM     20  C   UNL     1       1.963  -0.534   0.033  0.00  0.00    +0.202 C 
ATOM     21  C   UNL     1       2.030   3.151  -0.624  0.00  0.00    -0.004 C 
BRANCH  14  22
ATOM     22  O   UNL     1       3.849  -1.984  -0.298  0.00  0.00    -0.346 OA
ATOM     23  C   UNL     1       5.054  -2.476   0.277  0.00  0.00    +0.175 C 
ENDBRANCH  14  22
BRANCH  18  24
ATOM     24  O   UNL     1      -0.345   2.293   0.698  0.00  0.00    -0.505 OA
ATOM     25  H   UNL     1      -1.241   2.395   0.952  0.00  0.00    +0.292 HD
ENDBRANCH  18  24
ENDBRANCH   5  18
BRANCH   7  26
ATOM     26  N   UNL     1      -5.496  -0.142   0.641  0.00  0.00    +0.389 N 
ATOM     27  H   UNL     1      -6.223   0.358   0.129  0.00  0.00    -0.088 HD
ATOM     28  H   UNL     1      -5.644  -0.022   1.643  0.00  0.00    -0.088 HD
ATOM     29  H   UNL     1      -5.537  -1.134   0.407  0.00  0.00    -0.088 HD
ENDBRANCH   7  26
TORSDOF 4
