REMARK  Name = 139589086
REMARK  7 active torsions:
REMARK  status: ('A' for Active; 'I' for Inactive)
REMARK    1  A    between atoms: C_7  and  C_12
REMARK    2  A    between atoms: C_8  and  S_15
REMARK    3  A    between atoms: C_9  and  C_23
REMARK    4  A    between atoms: C_12  and  O_13
REMARK    5  A    between atoms: S_15  and  C_16
REMARK    6  A    between atoms: C_17  and  N_19
REMARK    7  A    between atoms: C_23  and  O_24
REMARK                            x       y       z     vdW  Elec       q    Type
REMARK                         _______ _______ _______ _____ _____    ______ ____
ROOT
ATOM      1  O   UNL     1       2.441  -0.923   2.094  0.00  0.00    -0.270 OA
ATOM      2  N   UNL     1       1.963  -1.300  -0.203  0.00  0.00    -0.247 N 
ATOM      3  C   UNL     1       2.291  -0.200  -1.129  0.00  0.00    +0.111 C 
ATOM      4  C   UNL     1       0.946   0.192  -1.752  0.00  0.00    +0.059 C 
ATOM      5  C   UNL     1       2.825   0.498   0.103  0.00  0.00    +0.045 C 
ATOM      6  C   UNL     1       2.444  -0.668   0.907  0.00  0.00    +0.250 C 
ATOM      7  C   UNL     1       0.662  -1.686  -0.384  0.00  0.00    +0.133 C 
ATOM      8  C   UNL     1       0.028  -0.901  -1.264  0.00  0.00    +0.029 C 
ATOM      9  C   UNL     1       3.394   1.665   0.386  0.00  0.00    -0.013 C 
ATOM     10  C   UNL     1       3.816   2.063   1.793  0.00  0.00    +0.029 C 
ENDROOT
BRANCH   7  12
ATOM     11  O   UNL     1      -1.045  -2.883   0.758  0.00  0.00    -0.244 OA
ATOM     12  C   UNL     1       0.115  -2.798   0.387  0.00  0.00    +0.352 C 
BRANCH  12  13
ATOM     13  O   UNL     1       1.082  -3.712   0.624  0.00  0.00    -0.476 OA
ATOM     14  H   UNL     1       1.950  -3.569   0.303  0.00  0.00    +0.295 HD
ENDBRANCH  12  13
ENDBRANCH   7  12
BRANCH   8  15
ATOM     15  S   UNL     1      -1.608  -1.008  -1.766  0.00  0.00    -0.088 S 
BRANCH  15  16
ATOM     16  C   UNL     1      -2.321   0.022  -0.583  0.00  0.00    +0.051 C 
ATOM     17  C   UNL     1      -3.635   0.266  -0.557  0.00  0.00    +0.071 C 
BRANCH  17  19
ATOM     18  O   UNL     1      -6.423   0.908  -0.341  0.00  0.00    -0.275 OA
ATOM     19  N   UNL     1      -4.209   1.078   0.373  0.00  0.00    -0.283 N 
ATOM     20  C   UNL     1      -5.569   1.350   0.424  0.00  0.00    +0.227 C 
ATOM     21  C   UNL     1      -5.924   2.306   1.532  0.00  0.00    +0.095 C 
ATOM     22  H   UNL     1      -3.627   1.497   1.048  0.00  0.00    +0.155 HD
ENDBRANCH  17  19
ENDBRANCH  15  16
ENDBRANCH   8  15
BRANCH   9  23
ATOM     23  C   UNL     1       3.667   2.733  -0.665  0.00  0.00    +0.159 C 
BRANCH  23  24
ATOM     24  O   UNL     1       5.061   2.998  -0.737  0.00  0.00    -0.378 OA
ATOM     25  H   UNL     1       5.226   3.679  -1.408  0.00  0.00    +0.211 HD
ENDBRANCH  23  24
ENDBRANCH   9  23
TORSDOF 7
