139584566
  -OEChem-03292013293D

 55 58  0     0  0  0  0  0  0999 V2000
   -1.1591   -0.7097   -0.3415 O   0  0  0  0  0  0  0  0  0  0  0  0
    1.4427   -1.5292   -0.1751 O   0  0  0  0  0  0  0  0  0  0  0  0
    0.2373    3.8413    0.2490 O   0  0  0  0  0  0  0  0  0  0  0  0
    2.8387    3.0216    0.4133 O   0  0  0  0  0  0  0  0  0  0  0  0
   -5.8155    3.2602   -0.3749 O   0  0  0  0  0  0  0  0  0  0  0  0
    7.5036   -0.9357    0.4646 O   0  0  0  0  0  0  0  0  0  0  0  0
   -1.3464   -0.9198    1.9722 O   0  0  0  0  0  0  0  0  0  0  0  0
    1.6472   -1.2546   -2.4908 O   0  0  0  0  0  0  0  0  0  0  0  0
   -0.4883    1.5745   -0.0477 C   0  0  0  0  0  0  0  0  0  0  0  0
    2.1676    0.7374    0.1203 C   0  0  0  0  0  0  0  0  0  0  0  0
   -0.1761    0.2191   -0.1533 C   0  0  0  0  0  0  0  0  0  0  0  0
    1.1518   -0.1994   -0.0691 C   0  0  0  0  0  0  0  0  0  0  0  0
    0.5275    2.5115    0.1417 C   0  0  0  0  0  0  0  0  0  0  0  0
    1.8555    2.0928    0.2257 C   0  0  0  0  0  0  0  0  0  0  0  0
   -1.8655    2.0086   -0.1326 C   0  0  0  0  0  0  0  0  0  0  0  0
    3.5500    0.3022    0.2095 C   0  0  0  0  0  0  0  0  0  0  0  0
   -2.6406    2.0986    1.0235 C   0  0  0  0  0  0  0  0  0  0  0  0
   -2.4181    2.3387   -1.3702 C   0  0  0  0  0  0  0  0  0  0  0  0
    4.3291    0.2143   -0.9442 C   0  0  0  0  0  0  0  0  0  0  0  0
    4.0995   -0.0265    1.4487 C   0  0  0  0  0  0  0  0  0  0  0  0
   -3.9681    2.5189    0.9423 C   0  0  0  0  0  0  0  0  0  0  0  0
   -3.7455    2.7589   -1.4515 C   0  0  0  0  0  0  0  0  0  0  0  0
    5.6576   -0.2019   -0.8587 C   0  0  0  0  0  0  0  0  0  0  0  0
    5.4280   -0.4428    1.5343 C   0  0  0  0  0  0  0  0  0  0  0  0
   -4.5206    2.8491   -0.2952 C   0  0  0  0  0  0  0  0  0  0  0  0
    6.2071   -0.5305    0.3806 C   0  0  0  0  0  0  0  0  0  0  0  0
   -1.6922   -1.2246    0.8406 C   0  0  0  0  0  0  0  0  0  0  0  0
   -2.7520   -2.2253    0.5561 C   0  0  0  0  0  0  0  0  0  0  0  0
    1.6835   -1.9570   -1.4893 C   0  0  0  0  0  0  0  0  0  0  0  0
   -3.4057   -2.8683    1.6072 C   0  0  0  0  0  0  0  0  0  0  0  0
   -3.0935   -2.5223   -0.7633 C   0  0  0  0  0  0  0  0  0  0  0  0
    1.9922   -3.4247   -1.4991 C   0  0  0  0  0  0  0  0  0  0  0  0
   -4.4009   -3.8083    1.3390 C   0  0  0  0  0  0  0  0  0  0  0  0
   -4.0887   -3.4621   -1.0316 C   0  0  0  0  0  0  0  0  0  0  0  0
   -4.7423   -4.1051    0.0196 C   0  0  0  0  0  0  0  0  0  0  0  0
   -2.2251    1.8500    1.9971 H   0  0  0  0  0  0  0  0  0  0  0  0
   -1.8276    2.2738   -2.2811 H   0  0  0  0  0  0  0  0  0  0  0  0
    3.9186    0.4714   -1.9177 H   0  0  0  0  0  0  0  0  0  0  0  0
    3.5058    0.0366    2.3576 H   0  0  0  0  0  0  0  0  0  0  0  0
   -4.5610    2.5857    1.8505 H   0  0  0  0  0  0  0  0  0  0  0  0
   -4.1704    3.0148   -2.4183 H   0  0  0  0  0  0  0  0  0  0  0  0
    6.2542   -0.2650   -1.7648 H   0  0  0  0  0  0  0  0  0  0  0  0
    5.8505   -0.6973    2.5025 H   0  0  0  0  0  0  0  0  0  0  0  0
    0.9331    4.2844    0.7614 H   0  0  0  0  0  0  0  0  0  0  0  0
    2.5437    3.8798    0.0673 H   0  0  0  0  0  0  0  0  0  0  0  0
   -3.1544   -2.6510    2.6420 H   0  0  0  0  0  0  0  0  0  0  0  0
   -2.6107   -2.0452   -1.6113 H   0  0  0  0  0  0  0  0  0  0  0  0
    1.1363   -3.9838   -1.1130 H   0  0  0  0  0  0  0  0  0  0  0  0
    2.1878   -3.7475   -2.5255 H   0  0  0  0  0  0  0  0  0  0  0  0
    2.8832   -3.6178   -0.8966 H   0  0  0  0  0  0  0  0  0  0  0  0
   -6.2005    3.2636    0.5184 H   0  0  0  0  0  0  0  0  0  0  0  0
    7.8913   -0.9381   -0.4275 H   0  0  0  0  0  0  0  0  0  0  0  0
   -4.9100   -4.3090    2.1573 H   0  0  0  0  0  0  0  0  0  0  0  0
   -4.3552   -3.6935   -2.0587 H   0  0  0  0  0  0  0  0  0  0  0  0
   -5.5172   -4.8369   -0.1893 H   0  0  0  0  0  0  0  0  0  0  0  0
  1 11  1  0  0  0  0
  1 27  1  0  0  0  0
  2 12  1  0  0  0  0
  2 29  1  0  0  0  0
  3 13  1  0  0  0  0
  3 44  1  0  0  0  0
  4 14  1  0  0  0  0
  4 45  1  0  0  0  0
  5 25  1  0  0  0  0
  5 51  1  0  0  0  0
  6 26  1  0  0  0  0
  6 52  1  0  0  0  0
  7 27  2  0  0  0  0
  8 29  2  0  0  0  0
  9 11  1  0  0  0  0
  9 13  2  0  0  0  0
  9 15  1  0  0  0  0
 10 12  1  0  0  0  0
 10 14  2  0  0  0  0
 10 16  1  0  0  0  0
 11 12  2  0  0  0  0
 13 14  1  0  0  0  0
 15 17  2  0  0  0  0
 15 18  1  0  0  0  0
 16 19  2  0  0  0  0
 16 20  1  0  0  0  0
 17 21  1  0  0  0  0
 17 36  1  0  0  0  0
 18 22  2  0  0  0  0
 18 37  1  0  0  0  0
 19 23  1  0  0  0  0
 19 38  1  0  0  0  0
 20 24  2  0  0  0  0
 20 39  1  0  0  0  0
 21 25  2  0  0  0  0
 21 40  1  0  0  0  0
 22 25  1  0  0  0  0
 22 41  1  0  0  0  0
 23 26  2  0  0  0  0
 23 42  1  0  0  0  0
 24 26  1  0  0  0  0
 24 43  1  0  0  0  0
 27 28  1  0  0  0  0
 28 30  2  0  0  0  0
 28 31  1  0  0  0  0
 29 32  1  0  0  0  0
 30 33  1  0  0  0  0
 30 46  1  0  0  0  0
 31 34  2  0  0  0  0
 31 47  1  0  0  0  0
 32 48  1  0  0  0  0
 32 49  1  0  0  0  0
 32 50  1  0  0  0  0
 33 35  2  0  0  0  0
 33 53  1  0  0  0  0
 34 35  1  0  0  0  0
 34 54  1  0  0  0  0
 35 55  1  0  0  0  0
M  END
> <PUBCHEM_COMPOUND_CID>
139584566

> <PUBCHEM_CONFORMER_RMSD>
1

> <PUBCHEM_CONFORMER_DIVERSEORDER>
1
6
16
15
7
10
11
4
2
13
8
12
17
14
5
9
3

> <PUBCHEM_MMFF94_PARTIAL_CHARGES>
48
1 -0.23
11 0.08
12 0.08
13 0.08
14 0.08
17 -0.15
18 -0.15
19 -0.15
2 -0.23
20 -0.15
21 -0.15
22 -0.15
23 -0.15
24 -0.15
25 0.08
26 0.08
27 0.63
28 0.09
29 0.66
3 -0.53
30 -0.15
31 -0.15
32 0.06
33 -0.15
34 -0.15
35 -0.15
36 0.15
37 0.15
38 0.15
39 0.15
4 -0.53
40 0.15
41 0.15
42 0.15
43 0.15
44 0.45
45 0.45
46 0.15
47 0.15
5 -0.53
51 0.45
52 0.45
53 0.15
54 0.15
55 0.15
6 -0.53
7 -0.57
8 -0.57

> <PUBCHEM_EFFECTIVE_ROTOR_COUNT>
7

> <PUBCHEM_PHARMACOPHORE_FEATURES>
10
1 3 donor
1 4 donor
1 5 donor
1 6 donor
1 7 acceptor
1 8 acceptor
6 15 17 18 21 22 25 rings
6 16 19 20 23 24 26 rings
6 28 30 31 33 34 35 rings
6 9 10 11 12 13 14 rings

> <PUBCHEM_HEAVY_ATOM_COUNT>
35

> <PUBCHEM_ATOM_DEF_STEREO_COUNT>
0

> <PUBCHEM_ATOM_UDEF_STEREO_COUNT>
0

> <PUBCHEM_BOND_DEF_STEREO_COUNT>
0

> <PUBCHEM_BOND_UDEF_STEREO_COUNT>
0

> <PUBCHEM_ISOTOPIC_ATOM_COUNT>
0

> <PUBCHEM_COMPONENT_COUNT>
1

> <PUBCHEM_CACTVS_TAUTO_COUNT>
-1

> <PUBCHEM_CONFORMER_ID>
0851E43600000001

> <PUBCHEM_MMFF94_ENERGY>
125.9474

> <PUBCHEM_FEATURE_SELFOVERLAP>
50.754

> <PUBCHEM_SHAPE_FINGERPRINT>
10050765 1 18337107981623744096
10906281 52 18269845216086922224
11578080 2 18058182651659516923
11991303 11 18114177493897644853
12107698 1 18336545039932631738
12293681 25 18058465213341769846
12422481 6 17987815123200287907
12597179 24 18269551641691077134
13140716 1 18413103979115120464
13540713 4 18268977843109650320
13540713 5 18189632685781218348
13583140 156 15697735739000064514
13692114 37 18270945904888554765
13726171 33 18194432028862898796
140371 6 18270126695348200184
14117953 113 18201441440916831687
14725015 67 18265330784293575355
14866123 147 18334573543049601131
15484559 13 17905600009602293101
15927050 60 18191862332317062795
16112460 7 18056769728432221201
17980427 23 17894640261995139606
19301679 30 18193001637117523275
20739085 24 17834696155037880339
20775438 99 18056180390005074575
21033648 29 17973448698008049989
21703447 108 18120362414012509208
22182313 1 17988658362771993014
22311459 1 18339079264396622744
23559900 14 18195822769311195494
23569943 247 17199114301383886926
23576562 1 18113624507688803572
3380486 145 18339100206081450513
465052 167 18194127536924184138
5104073 3 18411691111358461512
513202 73 18337958999265118611
5171179 24 18268987772678198625
59755656 520 18262791861937247941
6669772 16 18193835934192718743
70251023 43 18192149523652138379

> <PUBCHEM_SHAPE_MULTIPOLES>
673.33
12.75
5.46
1.56
13.17
0.79
0.17
3.86
-1.75
-10.36
0.44
0.01
0.79
1.66

> <PUBCHEM_SHAPE_SELFOVERLAP>
1500.425

> <PUBCHEM_SHAPE_VOLUME>
354.2

> <PUBCHEM_COORDINATE_TYPE>
2
5
10

$$$$
