REMARK  Name = 139584646
REMARK  11 active torsions:
REMARK  status: ('A' for Active; 'I' for Inactive)
REMARK    1  A    between atoms: C_1  and  C_4
REMARK    2  A    between atoms: C_2  and  C_17
REMARK    3  A    between atoms: C_4  and  C_7
REMARK    4  A    between atoms: C_7  and  C_8
REMARK    5  A    between atoms: C_9  and  N_14
REMARK    6  A    between atoms: C_18  and  C_21
REMARK    7  A    between atoms: N_20  and  C_23
REMARK    8  A    between atoms: C_23  and  C_26
REMARK    9  A    between atoms: C_23  and  C_29
REMARK   10  A    between atoms: C_26  and  O_27
REMARK   11  A    between atoms: C_29  and  O_30
REMARK                            x       y       z     vdW  Elec       q    Type
REMARK                         _______ _______ _______ _____ _____    ______ ____
ROOT
ATOM      1  C   UNL     1       0.766  -2.373   0.275  0.00  0.00    -0.023 C 
ATOM      2  C   UNL     1      -0.045  -1.345   0.606  0.00  0.00    -0.026 C 
ATOM      3  C   UNL     1       0.416  -0.136   1.378  0.00  0.00    +0.031 C 
ENDROOT
BRANCH   1   4
ATOM      4  C   UNL     1       2.245  -2.503   0.555  0.00  0.00    +0.084 C 
ATOM      5  C   UNL     1       2.644  -3.965   0.745  0.00  0.00    +0.013 C 
BRANCH   4   7
ATOM      6  O   UNL     1       2.873  -2.372  -1.775  0.00  0.00    -0.291 OA
ATOM      7  C   UNL     1       3.000  -1.919  -0.637  0.00  0.00    +0.177 C 
BRANCH   7   8
ATOM      8  C   UNL     1       3.916  -0.765  -0.427  0.00  0.00    +0.035 C 
ATOM      9  C   UNL     1       5.631   1.399  -0.032  0.00  0.00    +0.048 C 
ATOM     10  C   UNL     1       4.119   0.160  -1.452  0.00  0.00    +0.004 C 
ATOM     11  C   UNL     1       4.571  -0.608   0.794  0.00  0.00    +0.004 C 
ATOM     12  C   UNL     1       4.976   1.242  -1.254  0.00  0.00    +0.015 C 
ATOM     13  C   UNL     1       5.428   0.474   0.992  0.00  0.00    +0.015 C 
BRANCH   9  14
ATOM     14  N   UNL     1       6.498   2.493   0.166  0.00  0.00    -0.304 N 
ATOM     15  C   UNL     1       7.185   2.666   1.431  0.00  0.00    +0.112 C 
ATOM     16  C   UNL     1       6.721   3.455  -0.895  0.00  0.00    +0.112 C 
ENDBRANCH   9  14
ENDBRANCH   7   8
ENDBRANCH   4   7
ENDBRANCH   1   4
BRANCH   2  17
ATOM     17  C   UNL     1      -1.456  -1.407   0.216  0.00  0.00    +0.000 C 
ATOM     18  C   UNL     1      -2.390  -0.477   0.465  0.00  0.00    +0.057 C 
BRANCH  18  21
ATOM     19  O   UNL     1      -4.145  -1.681  -0.617  0.00  0.00    -0.270 OA
ATOM     20  N   UNL     1      -4.610   0.381   0.347  0.00  0.00    -0.293 N 
ATOM     21  C   UNL     1      -3.792  -0.681   0.000  0.00  0.00    +0.246 C 
ATOM     22  H   UNL     1      -4.217   1.135   0.844  0.00  0.00    +0.150 HD
BRANCH  20  23
ATOM     23  C   UNL     1      -6.015   0.432   0.012  0.00  0.00    +0.174 C 
ATOM     24  C   UNL     1      -6.723  -0.754   0.674  0.00  0.00    +0.034 C 
BRANCH  23  26
ATOM     25  O   UNL     1      -7.803   2.033   0.416  0.00  0.00    -0.248 OA
ATOM     26  C   UNL     1      -6.620   1.736   0.542  0.00  0.00    +0.332 C 
BRANCH  26  27
ATOM     27  O   UNL     1      -5.725   2.584   1.107  0.00  0.00    -0.479 OA
ATOM     28  H   UNL     1      -4.827   2.331   1.190  0.00  0.00    +0.295 HD
ENDBRANCH  26  27
ENDBRANCH  23  26
BRANCH  23  29
ATOM     29  C   UNL     1      -6.166   0.413  -1.518  0.00  0.00    +0.166 C 
BRANCH  29  30
ATOM     30  O   UNL     1      -5.500   1.519  -2.115  0.00  0.00    -0.380 OA
ATOM     31  H   UNL     1      -5.611   1.482  -3.078  0.00  0.00    +0.211 HD
ENDBRANCH  29  30
ENDBRANCH  23  29
ENDBRANCH  20  23
ENDBRANCH  18  21
ENDBRANCH   2  17
TORSDOF 11
