REMARK  Name = 139588010
REMARK  3 active torsions:
REMARK  status: ('A' for Active; 'I' for Inactive)
REMARK    1  A    between atoms: C_9  and  O_24
REMARK    2  A    between atoms: C_11  and  O_26
REMARK    3  A    between atoms: C_18  and  O_28
REMARK                            x       y       z     vdW  Elec       q    Type
REMARK                         _______ _______ _______ _____ _____    ______ ____
ROOT
ATOM      1  O   UNL     1      -0.248  -0.954   1.339  0.00  0.00    -0.350 OA
ATOM      2  O   UNL     1      -0.587  -0.734  -2.210  0.00  0.00    -0.450 OA
ATOM      3  O   UNL     1       0.799   2.667  -1.299  0.00  0.00    -0.296 OA
ATOM      4  O   UNL     1       1.513  -1.027  -3.097  0.00  0.00    -0.245 OA
ATOM      5  C   UNL     1      -1.111  -0.941  -0.906  0.00  0.00    +0.167 C 
ATOM      6  C   UNL     1      -0.065  -0.356   0.054  0.00  0.00    +0.162 C 
ATOM      7  C   UNL     1      -2.292  -0.050  -0.497  0.00  0.00    +0.096 C 
ATOM      8  C   UNL     1      -0.354   1.167   0.202  0.00  0.00    +0.117 C 
ATOM      9  C   UNL     1      -1.654   1.351  -0.587  0.00  0.00    +0.131 C 
ATOM     10  C   UNL     1      -1.594  -1.469   1.521  0.00  0.00    +0.142 C 
ATOM     11  C   UNL     1      -2.686  -0.514   0.944  0.00  0.00    +0.143 C 
ATOM     12  C   UNL     1      -1.402  -2.447  -0.731  0.00  0.00    +0.046 C 
ATOM     13  C   UNL     1      -1.664  -2.786   0.739  0.00  0.00    +0.033 C 
ATOM     14  C   UNL     1       1.178  -0.683  -0.704  0.00  0.00    +0.111 C 
ATOM     15  C   UNL     1       0.810   2.058  -0.228  0.00  0.00    +0.155 C 
ATOM     16  C   UNL     1       0.778  -0.867  -2.139  0.00  0.00    +0.342 C 
ATOM     17  C   UNL     1      -0.665  -3.821   1.258  0.00  0.00    +0.003 C 
ATOM     18  C   UNL     1       2.465  -0.657  -0.322  0.00  0.00    +0.115 C 
ATOM     19  C   UNL     1       1.985   2.232   0.747  0.00  0.00    +0.058 C 
ATOM     20  C   UNL     1       2.989  -0.169   1.017  0.00  0.00    +0.057 C 
ATOM     21  C   UNL     1       2.269   1.034   1.678  0.00  0.00    +0.015 C 
ATOM     22  C   UNL     1       1.698   3.486   1.577  0.00  0.00    +0.008 C 
ATOM     23  C   UNL     1       3.105  -1.336   2.002  0.00  0.00    +0.008 C 
ENDROOT
BRANCH   9  24
ATOM     24  O   UNL     1      -2.459   2.376  -0.038  0.00  0.00    -0.353 OA
ATOM     25  C   UNL     1      -3.409   2.864  -0.980  0.00  0.00    +0.174 C 
ENDBRANCH   9  24
BRANCH  11  26
ATOM     26  O   UNL     1      -2.904   0.567   1.838  0.00  0.00    -0.382 OA
ATOM     27  H   UNL     1      -3.584   1.155   1.474  0.00  0.00    +0.210 HD
ENDBRANCH  11  26
BRANCH  18  28
ATOM     28  O   UNL     1       3.504  -0.990  -1.179  0.00  0.00    -0.510 OA
ATOM     29  H   UNL     1       3.317  -1.306  -2.041  0.00  0.00    +0.292 HD
ENDBRANCH  18  28
TORSDOF 3
