REMARK  Name = 139584358
REMARK  12 active torsions:
REMARK  status: ('A' for Active; 'I' for Inactive)
REMARK    1  A    between atoms: C_9  and  O_30
REMARK    2  A    between atoms: C_9  and  C_34
REMARK    3  A    between atoms: C_11  and  N_14
REMARK    4  A    between atoms: C_12  and  O_32
REMARK    5  A    between atoms: C_15  and  C_17
REMARK    6  A    between atoms: C_18  and  C_19
REMARK    7  A    between atoms: C_20  and  C_22
REMARK    8  A    between atoms: C_22  and  C_24
REMARK    9  A    between atoms: C_24  and  C_25
REMARK   10  A    between atoms: C_25  and  C_26
REMARK   11  A    between atoms: C_27  and  C_28
REMARK   12  A    between atoms: C_34  and  C_36
REMARK                            x       y       z     vdW  Elec       q    Type
REMARK                         _______ _______ _______ _____ _____    ______ ____
ROOT
ATOM      1  O   UNL     1       4.871  -0.307   1.952  0.00  0.00    -0.349 OA
ATOM      2  O   UNL     1       2.792  -1.237   0.439  0.00  0.00    -0.349 OA
ATOM      3  O   UNL     1       3.645   2.255  -0.411  0.00  0.00    -0.329 OA
ATOM      4  C   UNL     1       3.461   1.158   0.520  0.00  0.00    +0.151 C 
ATOM      5  C   UNL     1       4.806   0.873   1.135  0.00  0.00    +0.172 C 
ATOM      6  C   UNL     1       2.876   0.012  -0.265  0.00  0.00    +0.172 C 
ATOM      7  C   UNL     1       5.631  -0.319   0.734  0.00  0.00    +0.172 C 
ATOM      8  C   UNL     1       3.703  -1.178  -0.669  0.00  0.00    +0.172 C 
ATOM      9  C   UNL     1       5.164  -1.283  -0.322  0.00  0.00    +0.150 C 
ATOM     10  C   UNL     1       2.474   1.669   1.592  0.00  0.00    +0.057 C 
ATOM     11  C   UNL     1       1.830   2.887   0.960  0.00  0.00    +0.131 C 
ATOM     12  C   UNL     1       2.965   3.411   0.097  0.00  0.00    +0.250 C 
ENDROOT
BRANCH  11  14
ATOM     13  O   UNL     1      -0.903   2.870   1.873  0.00  0.00    -0.270 OA
ATOM     14  N   UNL     1       0.663   2.528   0.192  0.00  0.00    -0.298 N 
ATOM     15  C   UNL     1      -0.615   2.552   0.724  0.00  0.00    +0.246 C 
ATOM     16  H   UNL     1       0.780   2.256  -0.747  0.00  0.00    +0.150 HD
BRANCH  15  17
ATOM     17  C   UNL     1      -1.640   2.134  -0.276  0.00  0.00    +0.057 C 
ATOM     18  C   UNL     1      -2.937   2.098   0.065  0.00  0.00    +0.000 C 
BRANCH  18  19
ATOM     19  C   UNL     1      -4.054   1.713  -0.804  0.00  0.00    -0.026 C 
ATOM     20  C   UNL     1      -5.304   1.733  -0.294  0.00  0.00    -0.031 C 
ATOM     21  C   UNL     1      -3.726   1.306  -2.217  0.00  0.00    +0.031 C 
BRANCH  20  22
ATOM     22  C   UNL     1      -6.610   1.401  -0.985  0.00  0.00    +0.022 C 
ATOM     23  C   UNL     1      -7.498   2.650  -1.004  0.00  0.00    +0.005 C 
BRANCH  22  24
ATOM     24  C   UNL     1      -7.281   0.217  -0.261  0.00  0.00    +0.009 C 
BRANCH  24  25
ATOM     25  C   UNL     1      -6.432  -1.059  -0.275  0.00  0.00    +0.026 C 
BRANCH  25  26
ATOM     26  C   UNL     1      -7.110  -2.245   0.420  0.00  0.00    -0.031 C 
ATOM     27  C   UNL     1      -6.274  -3.525   0.515  0.00  0.00    -0.031 C 
BRANCH  27  28
ATOM     28  C   UNL     1      -6.975  -4.729   1.147  0.00  0.00    +0.026 C 
ATOM     29  C   UNL     1      -6.088  -5.959   1.260  0.00  0.00    +0.005 C 
ENDBRANCH  27  28
ENDBRANCH  25  26
ENDBRANCH  24  25
ENDBRANCH  22  24
ENDBRANCH  20  22
ENDBRANCH  18  19
ENDBRANCH  15  17
ENDBRANCH  11  14
BRANCH   9  30
ATOM     30  O   UNL     1       5.909  -0.981  -1.508  0.00  0.00    -0.381 OA
ATOM     31  H   UNL     1       5.709  -0.075  -1.794  0.00  0.00    +0.210 HD
ENDBRANCH   9  30
BRANCH  12  32
ATOM     32  O   UNL     1       2.542   4.299  -0.923  0.00  0.00    -0.359 OA
ATOM     33  H   UNL     1       3.312   4.595  -1.434  0.00  0.00    +0.213 HD
ENDBRANCH  12  32
BRANCH   9  34
ATOM     34  C   UNL     1       5.511  -2.718   0.089  0.00  0.00    +0.096 C 
BRANCH  34  36
ATOM     35  O   UNL     1       5.451  -3.727  -2.107  0.00  0.00    -0.296 OA
ATOM     36  C   UNL     1       5.062  -3.731  -0.940  0.00  0.00    +0.154 C 
ATOM     37  C   UNL     1       4.087  -4.769  -0.450  0.00  0.00    +0.072 C 
ENDBRANCH  34  36
ENDBRANCH   9  34
TORSDOF 12
