REMARK  Name = 139588481
REMARK  10 active torsions:
REMARK  status: ('A' for Active; 'I' for Inactive)
REMARK    1  A    between atoms: C_2  and  O_7
REMARK    2  A    between atoms: C_3  and  O_9
REMARK    3  A    between atoms: C_4  and  O_11
REMARK    4  A    between atoms: C_5  and  C_27
REMARK    5  A    between atoms: C_6  and  O_13
REMARK    6  A    between atoms: O_13  and  C_14
REMARK    7  A    between atoms: C_15  and  C_20
REMARK    8  A    between atoms: C_18  and  O_25
REMARK    9  A    between atoms: C_20  and  C_23
REMARK   10  A    between atoms: C_27  and  O_28
REMARK                            x       y       z     vdW  Elec       q    Type
REMARK                         _______ _______ _______ _____ _____    ______ ____
ROOT
ATOM      1  O   UNL     1      -1.677  -0.651   0.676  0.00  0.00    -0.316 OA
ATOM      2  C   UNL     1      -2.987   1.339  -0.925  0.00  0.00    +0.173 C 
ATOM      3  C   UNL     1      -3.780   0.322  -0.101  0.00  0.00    +0.169 C 
ATOM      4  C   UNL     1      -1.593   1.550  -0.334  0.00  0.00    +0.210 C 
ATOM      5  C   UNL     1      -2.956  -0.956   0.110  0.00  0.00    +0.177 C 
ATOM      6  C   UNL     1      -0.894   0.202  -0.162  0.00  0.00    +0.318 C 
ENDROOT
BRANCH   2   7
ATOM      7  O   UNL     1      -3.698   2.574  -0.954  0.00  0.00    -0.379 OA
ATOM      8  H   UNL     1      -4.580   2.430  -1.331  0.00  0.00    +0.211 HD
ENDBRANCH   2   7
BRANCH   3   9
ATOM      9  O   UNL     1      -4.985  -0.007  -0.788  0.00  0.00    -0.379 OA
ATOM     10  H   UNL     1      -5.509   0.797  -0.924  0.00  0.00    +0.211 HD
ENDBRANCH   3   9
BRANCH   4  11
ATOM     11  O   UNL     1      -1.706   2.163   0.954  0.00  0.00    -0.377 OA
ATOM     12  H   UNL     1      -2.148   3.022   0.866  0.00  0.00    +0.211 HD
ENDBRANCH   4  11
BRANCH   6  13
ATOM     13  O   UNL     1       0.392   0.424   0.409  0.00  0.00    -0.451 OA
BRANCH  13  14
ATOM     14  C   UNL     1       1.377  -0.465   0.070  0.00  0.00    +0.141 C 
ATOM     15  C   UNL     1       2.713  -0.065   0.021  0.00  0.00    +0.015 C 
ATOM     16  C   UNL     1       1.033  -1.784  -0.227  0.00  0.00    +0.073 C 
ATOM     17  C   UNL     1       3.704  -0.984  -0.325  0.00  0.00    +0.002 C 
ATOM     18  C   UNL     1       2.024  -2.703  -0.573  0.00  0.00    +0.137 C 
ATOM     19  C   UNL     1       3.360  -2.302  -0.622  0.00  0.00    +0.037 C 
BRANCH  15  20
ATOM     20  C   UNL     1       3.100   1.342   0.336  0.00  0.00    +0.040 C 
ATOM     21  C   UNL     1       4.627   1.665   0.184  0.00  0.00    +0.009 C 
ATOM     22  C   UNL     1       2.775   1.661   1.832  0.00  0.00    +0.009 C 
BRANCH  20  23
ATOM     23  C   UNL     1       2.414   2.335  -0.631  0.00  0.00    -0.023 C 
ATOM     24  C   UNL     1       1.575   3.337  -0.340  0.00  0.00    -0.005 C 
ENDBRANCH  20  23
ENDBRANCH  15  20
BRANCH  18  25
ATOM     25  O   UNL     1       1.689  -3.989  -0.863  0.00  0.00    -0.505 OA
ATOM     26  H   UNL     1       0.792  -4.258  -0.830  0.00  0.00    +0.292 HD
ENDBRANCH  18  25
ENDBRANCH  13  14
ENDBRANCH   6  13
BRANCH   5  27
ATOM     27  C   UNL     1      -3.657  -1.925   1.056  0.00  0.00    +0.169 C 
BRANCH  27  28
ATOM     28  O   UNL     1      -2.851  -3.081   1.197  0.00  0.00    -0.379 OA
ATOM     29  H   UNL     1      -3.285  -3.707   1.797  0.00  0.00    +0.211 HD
ENDBRANCH  27  28
ENDBRANCH   5  27
TORSDOF 10
