REMARK  Name = 139588449
REMARK  4 active torsions:
REMARK  status: ('A' for Active; 'I' for Inactive)
REMARK    1  A    between atoms: C_5  and  O_22
REMARK    2  A    between atoms: C_17  and  O_24
REMARK    3  A    between atoms: C_17  and  C_28
REMARK    4  A    between atoms: C_18  and  O_26
REMARK                            x       y       z     vdW  Elec       q    Type
REMARK                         _______ _______ _______ _____ _____    ______ ____
ROOT
ATOM      1  O   UNL     1       4.023   1.317  -0.769  0.00  0.00    -0.451 OA
ATOM      2  O   UNL     1       1.865  -2.588  -0.512  0.00  0.00    -0.294 OA
ATOM      3  O   UNL     1       4.102  -0.708  -1.903  0.00  0.00    -0.250 OA
ATOM      4  C   UNL     1       0.810   0.688  -0.231  0.00  0.00    +0.030 C 
ATOM      5  C   UNL     1       1.653  -0.408   0.529  0.00  0.00    +0.151 C 
ATOM      6  C   UNL     1      -0.740   0.461   0.121  0.00  0.00    +0.006 C 
ATOM      7  C   UNL     1       3.185  -0.206   0.465  0.00  0.00    +0.155 C 
ATOM      8  C   UNL     1      -1.220  -0.985  -0.225  0.00  0.00    +0.010 C 
ATOM      9  C   UNL     1       1.242   2.126   0.212  0.00  0.00    +0.006 C 
ATOM     10  C   UNL     1       3.621   1.263   0.627  0.00  0.00    +0.181 C 
ATOM     11  C   UNL     1      -2.718  -1.233   0.156  0.00  0.00    +0.031 C 
ATOM     12  C   UNL     1      -1.697   1.498  -0.526  0.00  0.00    +0.032 C 
ATOM     13  C   UNL     1       2.548   2.265   0.997  0.00  0.00    +0.044 C 
ATOM     14  C   UNL     1      -0.303  -2.072   0.353  0.00  0.00    +0.067 C 
ATOM     15  C   UNL     1       1.150  -1.771   0.064  0.00  0.00    +0.175 C 
ATOM     16  C   UNL     1       0.982   0.601  -1.778  0.00  0.00    +0.003 C 
ATOM     17  C   UNL     1      -3.631  -0.150  -0.492  0.00  0.00    +0.131 C 
ATOM     18  C   UNL     1      -3.167   1.280  -0.144  0.00  0.00    +0.139 C 
ATOM     19  C   UNL     1       3.834  -0.025  -0.940  0.00  0.00    +0.322 C 
ATOM     20  C   UNL     1       3.999  -1.154   1.354  0.00  0.00    +0.018 C 
ATOM     21  C   UNL     1      -2.930  -1.395   1.673  0.00  0.00    +0.003 C 
ENDROOT
BRANCH   5  22
ATOM     22  O   UNL     1       1.287  -0.338   1.920  0.00  0.00    -0.379 OA
ATOM     23  H   UNL     1       1.578   0.512   2.288  0.00  0.00    +0.211 HD
ENDBRANCH   5  22
BRANCH  17  24
ATOM     24  O   UNL     1      -3.514  -0.311  -1.919  0.00  0.00    -0.380 OA
ATOM     25  H   UNL     1      -2.589  -0.188  -2.183  0.00  0.00    +0.211 HD
ENDBRANCH  17  24
BRANCH  18  26
ATOM     26  O   UNL     1      -3.312   1.573   1.242  0.00  0.00    -0.382 OA
ATOM     27  H   UNL     1      -3.010   2.478   1.415  0.00  0.00    +0.210 HD
ENDBRANCH  18  26
BRANCH  17  28
ATOM     28  C   UNL     1      -5.088  -0.359  -0.183  0.00  0.00    +0.002 C 
ATOM     29  C   UNL     1      -5.982   0.631  -0.092  0.00  0.00    -0.002 C 
ENDBRANCH  17  28
TORSDOF 4
