REMARK  Name = 139583296
REMARK  8 active torsions:
REMARK  status: ('A' for Active; 'I' for Inactive)
REMARK    1  A    between atoms: C_2  and  C_6
REMARK    2  A    between atoms: C_2  and  C_16
REMARK    3  A    between atoms: C_7  and  O_14
REMARK    4  A    between atoms: C_16  and  C_17
REMARK    5  A    between atoms: C_17  and  O_18
REMARK    6  A    between atoms: C_17  and  C_20
REMARK    7  A    between atoms: C_20  and  C_21
REMARK    8  A    between atoms: C_21  and  O_23
REMARK                            x       y       z     vdW  Elec       q    Type
REMARK                         _______ _______ _______ _____ _____    ______ ____
ROOT
ATOM      1  N   UNL     1      -0.344  -0.280  -2.856  0.00  0.00    -0.302 NA
ATOM      2  C   UNL     1      -0.424  -0.731  -1.645  0.00  0.00    +0.059 C 
ATOM      3  H   UNL     1      -1.125  -0.333  -3.454  0.00  0.00    +0.186 HD
ENDROOT
BRANCH   2   6
ATOM      4  O   UNL     1       0.421  -2.566   0.706  0.00  0.00    -0.270 OA
ATOM      5  N   UNL     1       2.249  -1.102   0.933  0.00  0.00    -0.278 N 
ATOM      6  C   UNL     1       0.734  -0.661  -0.736  0.00  0.00    +0.101 C 
ATOM      7  C   UNL     1       1.705   0.265  -0.748  0.00  0.00    +0.152 C 
ATOM      8  C   UNL     1       2.676   0.023   0.285  0.00  0.00    +0.077 C 
ATOM      9  C   UNL     1       1.072  -1.589   0.379  0.00  0.00    +0.254 C 
ATOM     10  C   UNL     1       3.781   0.697   0.610  0.00  0.00    -0.027 C 
ATOM     11  C   UNL     1       4.212   1.932  -0.132  0.00  0.00    +0.028 C 
ATOM     12  C   UNL     1       4.674   0.270   1.742  0.00  0.00    +0.028 C 
ATOM     13  H   UNL     1       2.717  -1.514   1.695  0.00  0.00    +0.155 HD
BRANCH   7  14
ATOM     14  O   UNL     1       1.795   1.318  -1.614  0.00  0.00    -0.504 OA
ATOM     15  H   UNL     1       1.141   1.440  -2.273  0.00  0.00    +0.292 HD
ENDBRANCH   7  14
ENDBRANCH   2   6
BRANCH   2  16
ATOM     16  C   UNL     1      -1.711  -1.342  -1.123  0.00  0.00    +0.075 C 
BRANCH  16  17
ATOM     17  C   UNL     1      -2.273  -0.532   0.050  0.00  0.00    +0.124 C 
BRANCH  17  18
ATOM     18  O   UNL     1      -3.461  -1.160   0.528  0.00  0.00    -0.353 OA
ATOM     19  C   UNL     1      -3.160  -2.259   1.375  0.00  0.00    +0.174 C 
ENDBRANCH  17  18
BRANCH  17  20
ATOM     20  C   UNL     1      -2.624   0.892  -0.396  0.00  0.00    +0.059 C 
BRANCH  20  21
ATOM     21  C   UNL     1      -3.279   1.758   0.690  0.00  0.00    +0.113 C 
ATOM     22  C   UNL     1      -3.704   3.136   0.199  0.00  0.00    +0.032 C 
BRANCH  21  23
ATOM     23  O   UNL     1      -2.340   1.930   1.753  0.00  0.00    -0.384 OA
ATOM     24  H   UNL     1      -2.058   1.060   2.079  0.00  0.00    +0.210 HD
ENDBRANCH  21  23
ENDBRANCH  20  21
ENDBRANCH  17  20
ENDBRANCH  16  17
ENDBRANCH   2  16
TORSDOF 8
