REMARK  Name = 139584342
REMARK  7 active torsions:
REMARK  status: ('A' for Active; 'I' for Inactive)
REMARK    1  A    between atoms: C_6  and  C_24
REMARK    2  A    between atoms: C_9  and  O_16
REMARK    3  A    between atoms: C_12  and  C_21
REMARK    4  A    between atoms: C_14  and  O_18
REMARK    5  A    between atoms: C_21  and  O_22
REMARK    6  A    between atoms: C_24  and  C_25
REMARK    7  A    between atoms: C_25  and  O_26
REMARK                            x       y       z     vdW  Elec       q    Type
REMARK                         _______ _______ _______ _____ _____    ______ ____
ROOT
ATOM      1  O   UNL     1       0.470  -2.148  -0.022  0.00  0.00    -0.453 OA
ATOM      2  O   UNL     1      -0.818   1.715  -0.421  0.00  0.00    -0.286 OA
ATOM      3  C   UNL     1       0.988   0.216  -0.350  0.00  0.00    +0.107 A 
ATOM      4  C   UNL     1       1.361  -1.120  -0.207  0.00  0.00    +0.151 A 
ATOM      5  C   UNL     1      -1.380  -0.556  -0.103  0.00  0.00    +0.083 A 
ATOM      6  C   UNL     1       3.683  -0.482  -0.434  0.00  0.00    -0.014 C 
ATOM      7  C   UNL     1      -0.441   0.559  -0.301  0.00  0.00    +0.205 A 
ATOM      8  C   UNL     1      -0.869  -1.847   0.025  0.00  0.00    +0.149 A 
ATOM      9  C   UNL     1       1.955   1.207  -0.535  0.00  0.00    +0.144 C 
ATOM     10  C   UNL     1       2.713  -1.468  -0.250  0.00  0.00    +0.034 C 
ATOM     11  C   UNL     1       3.304   0.853  -0.577  0.00  0.00    +0.033 C 
ATOM     12  C   UNL     1      -2.758  -0.329  -0.044  0.00  0.00    +0.115 C 
ATOM     13  C   UNL     1      -1.742  -2.920   0.215  0.00  0.00    +0.041 C 
ATOM     14  C   UNL     1      -3.625  -1.405   0.145  0.00  0.00    +0.140 C 
ATOM     15  C   UNL     1      -3.119  -2.698   0.274  0.00  0.00    +0.040 C 
ENDROOT
BRANCH   9  16
ATOM     16  O   UNL     1       1.644   2.526  -0.678  0.00  0.00    -0.471 OA
ATOM     17  C   UNL     1       1.577   3.309   0.512  0.00  0.00    +0.252 C 
ENDBRANCH   9  16
BRANCH  14  18
ATOM     18  O   UNL     1      -4.975  -1.221   0.208  0.00  0.00    -0.505 OA
ATOM     19  H   UNL     1      -5.335  -0.361   0.124  0.00  0.00    +0.292 HD
ENDBRANCH  14  18
BRANCH  12  21
ATOM     20  O   UNL     1      -3.710   1.500  -1.243  0.00  0.00    -0.245 OA
ATOM     21  C   UNL     1      -3.360   0.997  -0.171  0.00  0.00    +0.344 C 
BRANCH  21  22
ATOM     22  O   UNL     1      -3.485   1.604   1.046  0.00  0.00    -0.441 OA
ATOM     23  C   UNL     1      -4.064   2.913   1.053  0.00  0.00    +0.256 C 
ENDBRANCH  21  22
ENDBRANCH  12  21
BRANCH   6  24
ATOM     24  C   UNL     1       5.126  -0.856  -0.479  0.00  0.00    +0.058 C 
BRANCH  24  25
ATOM     25  C   UNL     1       5.792  -0.832   0.900  0.00  0.00    +0.142 C 
BRANCH  25  26
ATOM     26  O   UNL     1       5.733   0.484   1.435  0.00  0.00    -0.382 OA
ATOM     27  H   UNL     1       6.155   0.498   2.308  0.00  0.00    +0.210 HD
ENDBRANCH  25  26
ENDBRANCH  24  25
ENDBRANCH   6  24
TORSDOF 7
