REMARK  Name = 139587673
REMARK  6 active torsions:
REMARK  status: ('A' for Active; 'I' for Inactive)
REMARK    1  A    between atoms: C_10  and  O_17
REMARK    2  A    between atoms: C_11  and  C_26
REMARK    3  A    between atoms: C_12  and  O_19
REMARK    4  A    between atoms: C_15  and  O_21
REMARK    5  A    between atoms: O_21  and  S_22
REMARK    6  A    between atoms: C_26  and  O_27
REMARK                            x       y       z     vdW  Elec       q    Type
REMARK                         _______ _______ _______ _____ _____    ______ ____
ROOT
ATOM      1  O   UNL     1      -0.247  -2.356  -0.268  0.00  0.00    -0.287 OA
ATOM      2  O   UNL     1      -1.200   2.889   0.103  0.00  0.00    -0.286 OA
ATOM      3  C   UNL     1      -1.841  -0.654   0.018  0.00  0.00    +0.045 C 
ATOM      4  C   UNL     1      -2.091   0.716   0.115  0.00  0.00    +0.076 C 
ATOM      5  C   UNL     1       0.394   1.188  -0.180  0.00  0.00    +0.076 C 
ATOM      6  C   UNL     1       0.643  -0.182  -0.277  0.00  0.00    +0.048 C 
ATOM      7  C   UNL     1      -0.466  -1.154  -0.181  0.00  0.00    +0.196 C 
ATOM      8  C   UNL     1      -0.982   1.688   0.019  0.00  0.00    +0.202 C 
ATOM      9  C   UNL     1      -2.901  -1.565   0.111  0.00  0.00    +0.002 C 
ATOM     10  C   UNL     1      -3.399   1.177   0.304  0.00  0.00    +0.137 C 
ATOM     11  C   UNL     1      -4.204  -1.102   0.299  0.00  0.00    +0.010 C 
ATOM     12  C   UNL     1       1.454   2.099  -0.271  0.00  0.00    +0.140 C 
ATOM     13  C   UNL     1       1.952  -0.642  -0.465  0.00  0.00    +0.043 C 
ATOM     14  C   UNL     1      -4.452   0.266   0.395  0.00  0.00    +0.035 C 
ATOM     15  C   UNL     1       3.005   0.268  -0.556  0.00  0.00    +0.179 C 
ATOM     16  C   UNL     1       2.756   1.636  -0.459  0.00  0.00    +0.077 C 
ENDROOT
BRANCH  10  17
ATOM     17  O   UNL     1      -3.713   2.499   0.406  0.00  0.00    -0.505 OA
ATOM     18  H   UNL     1      -3.039   3.147   0.350  0.00  0.00    +0.292 HD
ENDBRANCH  10  17
BRANCH  12  19
ATOM     19  O   UNL     1       1.283   3.449  -0.185  0.00  0.00    -0.505 OA
ATOM     20  H   UNL     1       0.426   3.805  -0.059  0.00  0.00    +0.292 HD
ENDBRANCH  12  19
BRANCH  15  21
ATOM     21  O   UNL     1       4.277  -0.180  -0.738  0.00  0.00    -0.322 OA
BRANCH  21  22
ATOM     22  S   UNL     1       4.939  -1.179   0.388  0.00  0.00    +0.282 S 
ATOM     23  O   UNL     1       6.545  -0.938   0.228  0.00  0.00    -0.105 OA
ATOM     24  O   UNL     1       4.549  -0.723   1.710  0.00  0.00    -0.012 OA
ATOM     25  O   UNL     1       4.663  -2.545  -0.018  0.00  0.00    -0.105 OA
ENDBRANCH  21  22
ENDBRANCH  15  21
BRANCH  11  26
ATOM     26  C   UNL     1      -5.332  -2.073   0.398  0.00  0.00    +0.164 C 
BRANCH  26  27
ATOM     27  O   UNL     1      -5.632  -2.582  -0.895  0.00  0.00    -0.377 OA
ATOM     28  H   UNL     1      -6.366  -3.213  -0.832  0.00  0.00    +0.211 HD
ENDBRANCH  26  27
ENDBRANCH  11  26
TORSDOF 6
