REMARK  Name = 139584422
REMARK  3 active torsions:
REMARK  status: ('A' for Active; 'I' for Inactive)
REMARK    1  A    between atoms: C_7  and  C_24
REMARK    2  A    between atoms: C_12  and  O_22
REMARK    3  A    between atoms: C_24  and  C_26
REMARK                            x       y       z     vdW  Elec       q    Type
REMARK                         _______ _______ _______ _____ _____    ______ ____
ROOT
ATOM      1  O   UNL     1       0.731   1.254  -1.232  0.00  0.00    -0.448 OA
ATOM      2  O   UNL     1       2.515  -1.766  -0.181  0.00  0.00    -0.452 OA
ATOM      3  O   UNL     1      -2.822  -0.504   1.128  0.00  0.00    -0.446 OA
ATOM      4  O   UNL     1       2.052  -1.455  -2.422  0.00  0.00    -0.250 OA
ATOM      5  O   UNL     1      -0.691   1.687   0.532  0.00  0.00    -0.245 OA
ATOM      6  O   UNL     1      -2.252  -2.022  -0.518  0.00  0.00    -0.245 OA
ATOM      7  C   UNL     1       1.891   1.191  -0.375  0.00  0.00    +0.188 C 
ATOM      8  C   UNL     1       2.946   0.358  -1.104  0.00  0.00    +0.153 C 
ATOM      9  C   UNL     1       2.049  -3.133  -0.216  0.00  0.00    +0.173 C 
ATOM     10  C   UNL     1      -3.976   0.004   0.416  0.00  0.00    +0.200 C 
ATOM     11  C   UNL     1       0.523  -3.183   0.005  0.00  0.00    +0.070 C 
ATOM     12  C   UNL     1      -3.612   1.356  -0.226  0.00  0.00    +0.173 C 
ATOM     13  C   UNL     1       2.455  -1.051  -1.339  0.00  0.00    +0.321 C 
ATOM     14  C   UNL     1       2.847  -3.920   0.819  0.00  0.00    +0.048 C 
ATOM     15  C   UNL     1      -2.824   1.181  -1.496  0.00  0.00    +0.013 C 
ATOM     16  C   UNL     1      -5.082   0.137   1.463  0.00  0.00    +0.050 C 
ATOM     17  C   UNL     1       0.059  -2.590   1.308  0.00  0.00    -0.016 C 
ATOM     18  C   UNL     1      -0.480   1.445  -0.643  0.00  0.00    +0.341 C 
ATOM     19  C   UNL     1      -1.501   1.249  -1.697  0.00  0.00    +0.080 C 
ATOM     20  C   UNL     1      -1.030  -1.848   1.553  0.00  0.00    +0.077 C 
ATOM     21  C   UNL     1      -2.082  -1.498   0.570  0.00  0.00    +0.341 C 
ENDROOT
BRANCH  12  22
ATOM     22  O   UNL     1      -4.810   2.060  -0.564  0.00  0.00    -0.377 OA
ATOM     23  H   UNL     1      -5.345   2.191   0.235  0.00  0.00    +0.211 HD
ENDBRANCH  12  22
BRANCH   7  24
ATOM     24  C   UNL     1       2.401   2.604  -0.119  0.00  0.00    +0.109 C 
BRANCH  24  26
ATOM     25  O   UNL     1       3.547   1.713   1.813  0.00  0.00    -0.296 OA
ATOM     26  C   UNL     1       3.290   2.685   1.105  0.00  0.00    +0.155 C 
ATOM     27  C   UNL     1       3.856   4.046   1.419  0.00  0.00    +0.072 C 
ENDBRANCH  24  26
ENDBRANCH   7  24
TORSDOF 3
