REMARK  Name = 139588937
REMARK  5 active torsions:
REMARK  status: ('A' for Active; 'I' for Inactive)
REMARK    1  A    between atoms: C_3  and  C_9
REMARK    2  A    between atoms: C_5  and  C_18
REMARK    3  A    between atoms: C_8  and  C_15
REMARK    4  A    between atoms: C_15  and  O_16
REMARK    5  A    between atoms: C_19  and  O_24
REMARK                            x       y       z     vdW  Elec       q    Type
REMARK                         _______ _______ _______ _____ _____    ______ ____
ROOT
ATOM      1  S   UNL     1       1.375   2.148  -0.762  0.00  0.00    -0.093 S 
ATOM      2  N   UNL     1       1.036   0.054   0.739  0.00  0.00    -0.266 NA
ATOM      3  C   UNL     1      -0.257   0.770   0.701  0.00  0.00    +0.106 C 
ATOM      4  C   UNL     1      -0.332   1.610  -0.567  0.00  0.00    +0.087 C 
ATOM      5  C   UNL     1       1.932   0.712   0.074  0.00  0.00    +0.104 C 
ENDROOT
BRANCH   3   9
ATOM      6  S   UNL     1      -1.206  -1.423  -0.624  0.00  0.00    -0.162 S 
ATOM      7  N   UNL     1      -2.706   0.386   0.645  0.00  0.00    +0.404 N 
ATOM      8  C   UNL     1      -3.643  -0.563   0.006  0.00  0.00    +0.061 C 
ATOM      9  C   UNL     1      -1.386  -0.254   0.764  0.00  0.00    +0.017 C 
ATOM     10  C   UNL     1      -2.898  -1.163  -1.197  0.00  0.00    +0.047 C 
ATOM     11  C   UNL     1      -4.208  -1.656   0.928  0.00  0.00    -0.009 C 
ATOM     12  C   UNL     1      -3.163   0.940   1.918  0.00  0.00    -0.098 C 
ATOM     13  H   UNL     1      -2.648   1.203   0.036  0.00  0.00    -0.077 HD
BRANCH   8  15
ATOM     14  O   UNL     1      -4.947   1.446  -0.373  0.00  0.00    -0.252 OA
ATOM     15  C   UNL     1      -4.787   0.248  -0.547  0.00  0.00    +0.296 C 
BRANCH  15  16
ATOM     16  O   UNL     1      -5.624  -0.537  -1.269  0.00  0.00    -0.482 OA
ATOM     17  H   UNL     1      -5.443  -1.451  -1.365  0.00  0.00    +0.295 HD
ENDBRANCH  15  16
ENDBRANCH   8  15
ENDBRANCH   3   9
BRANCH   5  18
ATOM     18  C   UNL     1       3.345   0.276  -0.018  0.00  0.00    +0.057 C 
ATOM     19  C   UNL     1       3.682  -1.077   0.042  0.00  0.00    +0.136 C 
ATOM     20  C   UNL     1       4.345   1.238  -0.164  0.00  0.00    +0.005 C 
ATOM     21  C   UNL     1       5.019  -1.467  -0.044  0.00  0.00    +0.037 C 
ATOM     22  C   UNL     1       5.681   0.847  -0.250  0.00  0.00    +0.000 C 
ATOM     23  C   UNL     1       6.018  -0.505  -0.190  0.00  0.00    +0.003 C 
BRANCH  19  24
ATOM     24  O   UNL     1       2.721  -2.031   0.188  0.00  0.00    -0.505 OA
ATOM     25  H   UNL     1       1.819  -1.783   0.247  0.00  0.00    +0.292 HD
ENDBRANCH  19  24
ENDBRANCH   5  18
TORSDOF 5
