139587915
  -OEChem-03292013293D

 60 64  0     1  0  0  0  0  0999 V2000
   -5.6991   -1.3355   -1.0877 O   0  0  0  0  0  0  0  0  0  0  0  0
   -3.0100   -2.3359   -0.2757 O   0  0  0  0  0  0  0  0  0  0  0  0
   -6.6629    1.7094    0.6517 O   0  0  0  0  0  0  0  0  0  0  0  0
   -0.8292   -1.9566    0.6260 O   0  0  0  0  0  0  0  0  0  0  0  0
    1.6900   -0.8884    1.6776 O   0  0  0  0  0  0  0  0  0  0  0  0
   -1.4710    3.3430   -0.7502 O   0  0  0  0  0  0  0  0  0  0  0  0
    1.0071    2.3407   -0.2563 O   0  0  0  0  0  0  0  0  0  0  0  0
   -1.2655    1.9927   -0.4381 N   0  0  0  0  0  0  0  0  0  0  0  0
   -4.4480   -0.6451   -1.1449 C   0  0  1  0  0  0  0  0  0  0  0  0
   -5.7304    0.0801   -0.8161 C   0  0  2  0  0  0  0  0  0  0  0  0
   -3.4610   -0.9933   -0.0609 C   0  0  1  0  0  0  0  0  0  0  0  0
   -6.1147    0.3940    0.5980 C   0  0  1  0  0  0  0  0  0  0  0  0
   -4.1118   -0.9577    1.3370 C   0  0  0  0  0  0  0  0  0  0  0  0
   -4.9258    0.3160    1.5581 C   0  0  0  0  0  0  0  0  0  0  0  0
    3.7204    0.5401    0.0179 C   0  0  1  0  0  0  0  0  0  0  0  0
    2.5705   -0.3639   -0.4872 C   0  0  1  0  0  0  0  0  0  0  0  0
    4.5553   -0.1615    1.1172 C   0  0  2  0  0  0  0  0  0  0  0  0
   -2.2492   -0.1013   -0.0803 C   0  0  0  0  0  0  0  0  0  0  0  0
    4.5968    1.0281   -1.1537 C   0  0  0  0  0  0  0  0  0  0  0  0
    2.9861   -1.8116   -0.8546 C   0  0  2  0  0  0  0  0  0  0  0  0
    5.7765    0.6831    1.5212 C   0  0  0  0  0  0  0  0  0  0  0  0
    5.7611    1.8913   -0.6807 C   0  0  0  0  0  0  0  0  0  0  0  0
    6.6159    1.1457    0.3353 C   0  0  0  0  0  0  0  0  0  0  0  0
    4.9331   -1.5654    0.7255 C   0  0  0  0  0  0  0  0  0  0  0  0
    1.4954   -0.4024    0.5664 C   0  0  0  0  0  0  0  0  0  0  0  0
   -0.9251   -0.6243    0.2609 C   0  0  0  0  0  0  0  0  0  0  0  0
    4.2337   -2.2913   -0.1569 C   0  0  0  0  0  0  0  0  0  0  0  0
    0.1767    0.1601    0.2224 C   0  0  0  0  0  0  0  0  0  0  0  0
   -2.3667    1.1915   -0.4201 C   0  0  0  0  0  0  0  0  0  0  0  0
    3.1276   -1.9881   -2.3709 C   0  0  0  0  0  0  0  0  0  0  0  0
    0.0244    1.6066   -0.1808 C   0  0  0  0  0  0  0  0  0  0  0  0
   -4.0094   -0.5281   -2.1279 H   0  0  0  0  0  0  0  0  0  0  0  0
   -6.1957    0.7076   -1.5633 H   0  0  0  0  0  0  0  0  0  0  0  0
   -6.9019   -0.2989    0.9181 H   0  0  0  0  0  0  0  0  0  0  0  0
   -3.3500   -1.0520    2.1220 H   0  0  0  0  0  0  0  0  0  0  0  0
   -4.7647   -1.8320    1.4671 H   0  0  0  0  0  0  0  0  0  0  0  0
   -5.3065    0.3292    2.5875 H   0  0  0  0  0  0  0  0  0  0  0  0
   -4.3025    1.2129    1.4809 H   0  0  0  0  0  0  0  0  0  0  0  0
    3.2882    1.4388    0.4795 H   0  0  0  0  0  0  0  0  0  0  0  0
    2.1288    0.1065   -1.3760 H   0  0  0  0  0  0  0  0  0  0  0  0
    3.9574   -0.2508    2.0321 H   0  0  0  0  0  0  0  0  0  0  0  0
    3.9847    1.6051   -1.8571 H   0  0  0  0  0  0  0  0  0  0  0  0
    5.0080    0.1815   -1.7118 H   0  0  0  0  0  0  0  0  0  0  0  0
    2.1821   -2.4971   -0.5514 H   0  0  0  0  0  0  0  0  0  0  0  0
    6.4120    0.1290    2.2231 H   0  0  0  0  0  0  0  0  0  0  0  0
    5.4224    1.5700    2.0637 H   0  0  0  0  0  0  0  0  0  0  0  0
    5.3772    2.8171   -0.2350 H   0  0  0  0  0  0  0  0  0  0  0  0
    6.3776    2.1810   -1.5391 H   0  0  0  0  0  0  0  0  0  0  0  0
    7.0954    0.2836   -0.1435 H   0  0  0  0  0  0  0  0  0  0  0  0
    7.4202    1.8008    0.6889 H   0  0  0  0  0  0  0  0  0  0  0  0
    5.7887   -2.0240    1.2138 H   0  0  0  0  0  0  0  0  0  0  0  0
   -2.6533   -2.3958   -1.1789 H   0  0  0  0  0  0  0  0  0  0  0  0
    4.5590   -3.3084   -0.3621 H   0  0  0  0  0  0  0  0  0  0  0  0
   -6.9177    1.8829    1.5740 H   0  0  0  0  0  0  0  0  0  0  0  0
   -3.3011    1.6734   -0.6790 H   0  0  0  0  0  0  0  0  0  0  0  0
    3.9315   -1.3771   -2.7898 H   0  0  0  0  0  0  0  0  0  0  0  0
    2.1963   -1.7162   -2.8799 H   0  0  0  0  0  0  0  0  0  0  0  0
    3.3433   -3.0329   -2.6229 H   0  0  0  0  0  0  0  0  0  0  0  0
    0.0912   -2.1855    0.8297 H   0  0  0  0  0  0  0  0  0  0  0  0
   -1.4141    3.7429    0.1346 H   0  0  0  0  0  0  0  0  0  0  0  0
  1  9  1  0  0  0  0
  1 10  1  0  0  0  0
  2 11  1  0  0  0  0
  2 52  1  0  0  0  0
  3 12  1  0  0  0  0
  3 54  1  0  0  0  0
  4 26  1  0  0  0  0
  4 59  1  0  0  0  0
  5 25  2  0  0  0  0
  6  8  1  0  0  0  0
  6 60  1  0  0  0  0
  7 31  2  0  0  0  0
  8 29  1  0  0  0  0
  8 31  1  0  0  0  0
  9 10  1  0  0  0  0
  9 11  1  0  0  0  0
  9 32  1  0  0  0  0
 10 12  1  0  0  0  0
 10 33  1  0  0  0  0
 11 13  1  0  0  0  0
 11 18  1  0  0  0  0
 12 14  1  0  0  0  0
 12 34  1  0  0  0  0
 13 14  1  0  0  0  0
 13 35  1  0  0  0  0
 13 36  1  0  0  0  0
 14 37  1  0  0  0  0
 14 38  1  0  0  0  0
 15 16  1  0  0  0  0
 15 17  1  0  0  0  0
 15 19  1  0  0  0  0
 15 39  1  0  0  0  0
 16 20  1  0  0  0  0
 16 25  1  0  0  0  0
 16 40  1  0  0  0  0
 17 21  1  0  0  0  0
 17 24  1  0  0  0  0
 17 41  1  0  0  0  0
 18 26  1  0  0  0  0
 18 29  2  0  0  0  0
 19 22  1  0  0  0  0
 19 42  1  0  0  0  0
 19 43  1  0  0  0  0
 20 27  1  0  0  0  0
 20 30  1  0  0  0  0
 20 44  1  0  0  0  0
 21 23  1  0  0  0  0
 21 45  1  0  0  0  0
 21 46  1  0  0  0  0
 22 23  1  0  0  0  0
 22 47  1  0  0  0  0
 22 48  1  0  0  0  0
 23 49  1  0  0  0  0
 23 50  1  0  0  0  0
 24 27  2  0  0  0  0
 24 51  1  0  0  0  0
 25 28  1  0  0  0  0
 26 28  2  0  0  0  0
 27 53  1  0  0  0  0
 28 31  1  0  0  0  0
 29 55  1  0  0  0  0
 30 56  1  0  0  0  0
 30 57  1  0  0  0  0
 30 58  1  0  0  0  0
M  END
> <PUBCHEM_COMPOUND_CID>
139587915

> <PUBCHEM_CONFORMER_RMSD>
0.8

> <PUBCHEM_CONFORMER_DIVERSEORDER>
1
349
54
327
179
67
160
48
56
217
355
335
12
260
283
339
370
62
329
317
68
112
211
194
357
313
20
319
34
107
169
360
189
277
222
110
314
176
278
196
368
119
100
351
168
31
302
226
120
74
144
365
129
276
106
363
372
148
254
354
190
22
134
188
143
246
97
210
353
338
311
21
151
109
146
223
364
199
164
366
128
255
73
301
184
356
167
347
33
227
18
318
96
182
191
213
126
183
328
175
142
197
204
152
59
192
40
248
92
99
2
75
136
150
105
161
43
78
212
342
273
219
294
7
367
312
289
352
316
117
166
90
216
82
247
309
209
300
333
337
373
41
284
11
8
359
218
267
269
270
147
116
279
52
308
346
361
272
262
307
221
306
315
63
26
369
86
202
133
295
271
330
375
257
131
149
185
198
376
348
324
36
104
159
103
29
69
125
178
243
293
334
170
208
261
305
27
332
282
299
15
344
290
84
291
323
214
115
157
111
207
61
177
341
230
71
268
241
127
113
118
3
201
171
220
287
172
200
322
374
162
55
236
19
205
187
378
137
123
321
135
153
23
215
326
98
186
58
17
228
124
371
225
224
28
139
251
181
304
234
39
70
49
145
345
14
280
340
121
37
331
132
266
79
325
156
259
85
173
108
336
292
237
298
130
256
4
350
264
140
158
165
114
231
229
81
258
343
288
286
239
102
66
193
203
83
296
250
57
16
242
42
5
265
233
310
32
35
45
303
50
91
24
263
77
38
358
46
138
163
9
13
281
232
252
320
275
65
377
274
51
155
94
80
174
30
10
53
89
154
101
25
93
6
245
249
235
180
362
64
297
206
88
285
72
47
141
195
253
95
76
240
238
244
87
60
122
44

> <PUBCHEM_MMFF94_PARTIAL_CHARGES>
32
1 -0.3
10 -0.05
11 0.51
12 0.38
16 0.06
17 0.14
18 -0.14
2 -0.68
20 0.14
24 -0.29
25 0.49
26 0.08
27 -0.29
28 0.03
29 -0.04
3 -0.68
31 0.62
32 0.1
33 0.1
4 -0.53
5 -0.57
51 0.15
52 0.4
53 0.15
54 0.4
55 0.15
59 0.45
6 -0.44
60 0.4
7 -0.57
8 -0.13
9 -0.05

> <PUBCHEM_EFFECTIVE_ROTOR_COUNT>
5.2

> <PUBCHEM_PHARMACOPHORE_FEATURES>
13
1 1 acceptor
1 2 acceptor
1 2 donor
1 28 anion
1 3 acceptor
1 3 donor
1 4 donor
1 5 acceptor
1 7 acceptor
6 15 16 17 20 24 27 rings
6 15 17 19 21 22 23 rings
6 8 18 26 28 29 31 rings
7 1 9 10 11 12 13 14 rings

> <PUBCHEM_HEAVY_ATOM_COUNT>
31

> <PUBCHEM_ATOM_DEF_STEREO_COUNT>
4

> <PUBCHEM_ATOM_UDEF_STEREO_COUNT>
4

> <PUBCHEM_BOND_DEF_STEREO_COUNT>
0

> <PUBCHEM_BOND_UDEF_STEREO_COUNT>
0

> <PUBCHEM_ISOTOPIC_ATOM_COUNT>
0

> <PUBCHEM_COMPONENT_COUNT>
1

> <PUBCHEM_CACTVS_TAUTO_COUNT>
-1

> <PUBCHEM_CONFORMER_ID>
0851F14B00000001

> <PUBCHEM_MMFF94_ENERGY>
80.7037

> <PUBCHEM_FEATURE_SELFOVERLAP>
66.073

> <PUBCHEM_SHAPE_FINGERPRINT>
10906281 52 18336559303698129228
11578080 2 13109593094201848323
11963148 33 18338225085622557638
12107698 1 18337670803112910986
12166972 35 15285358427441242492
12236239 1 18273495663631531475
12516196 113 18411980278167612401
12596602 18 16200431389993443866
12616971 3 14129062551281466347
12788726 201 18407760322096077512
13533116 47 17822287934480216274
13583140 156 15482661382462232851
14251764 18 18272651264682063239
14790565 3 18336271137426602721
14840074 17 18202282537003832684
15183329 4 18412544323390409549
15788980 27 16225764129375981595
15927050 60 17405986740315140588
15961568 22 18333452067233782836
17349148 13 16081092554473223912
17492 89 18265045826651989394
1813 80 18410302389011153773
19141452 34 18273494572604622583
19319366 153 17530954783205907211
19377110 9 18342739602823796168
20511986 3 17917137347467085935
20567600 75 15410905049935669973
21236236 1 18336825291239600529
21285901 2 18341614784916175782
21792934 111 18336257938527787865
21814621 53 15357962456708838356
22149856 69 18116174228588554755
23522609 53 18199209380298143352
23559900 14 18268704081608983328
24771293 8 18270392910242674912
24771750 20 17610072521836622245
255183 451 18127980703207958990
300161 21 18060139842565393987
3004659 81 18040715862128750950
34797466 226 16128377133340004570
350125 39 18408040714931180153
3633792 109 18201427087721014741
3680242 22 18187644682858314530
4073 2 18410013268660989898
4325135 7 18408319995532296484
4340502 62 15936407831768511080
5104073 3 18265889169176218152
550186 7 15912780362571387393
6328613 192 18341898476592324753
7226269 152 18040431113891069265

> <PUBCHEM_SHAPE_MULTIPOLES>
591.9
16.49
2.49
1.42
5.15
0.48
0.08
2.12
-1.68
-0.97
0.74
-0.49
-0.38
-0.04

> <PUBCHEM_SHAPE_SELFOVERLAP>
1284.361

> <PUBCHEM_SHAPE_VOLUME>
316.5

> <PUBCHEM_COORDINATE_TYPE>
2
5
10

$$$$
