REMARK  Name = 139589808
REMARK  16 active torsions:
REMARK  status: ('A' for Active; 'I' for Inactive)
REMARK    1  A    between atoms: C_1  and  C_2
REMARK    2  A    between atoms: C_1  and  S_18
REMARK    3  A    between atoms: C_1  and  C_31
REMARK    4  A    between atoms: C_3  and  C_9
REMARK    5  A    between atoms: C_10  and  C_11
REMARK    6  A    between atoms: C_11  and  C_12
REMARK    7  A    between atoms: C_12  and  C_13
REMARK    8  A    between atoms: C_13  and  C_15
REMARK    9  A    between atoms: C_15  and  O_16
REMARK   10  A    between atoms: S_18  and  S_19
REMARK   11  A    between atoms: S_19  and  C_20
REMARK   12  A    between atoms: C_20  and  C_21
REMARK   13  A    between atoms: C_21  and  N_23
REMARK   14  A    between atoms: C_21  and  C_28
REMARK   15  A    between atoms: C_28  and  O_29
REMARK   16  A    between atoms: C_31  and  C_32
REMARK                            x       y       z     vdW  Elec       q    Type
REMARK                         _______ _______ _______ _____ _____    ______ ____
ROOT
ATOM      1  C   UNK A   1       0.926  -1.461   1.411  0.00  0.00    +0.080 C 
ENDROOT
BRANCH   1   2
ATOM      2  C   UNK A   1       1.450  -1.546   0.013  0.00  0.00    -0.012 C 
ATOM      3  C   UNK A   1       0.627  -1.914  -1.052  0.00  0.00    -0.003 C 
ATOM      4  C   UNK A   1       2.794  -1.249  -0.215  0.00  0.00    -0.008 C 
ATOM      5  C   UNK A   1       3.315  -1.320  -1.507  0.00  0.00    -0.022 C 
ATOM      6  C   UNK A   1       1.148  -1.985  -2.344  0.00  0.00    -0.001 C 
ATOM      7  C   UNK A   1       2.491  -1.688  -2.571  0.00  0.00    -0.004 C 
ATOM      8  C   UNK A   1       4.751  -1.002  -1.751  0.00  0.00    +0.031 C 
BRANCH   3   9
ATOM      9  C   UNK A   1      -0.795  -2.232  -0.845  0.00  0.00    -0.005 C 
ATOM     10  C   UNK A   1      -1.823  -1.594  -1.427  0.00  0.00    -0.026 C 
BRANCH  10  11
ATOM     11  C   UNK A   1      -3.261  -1.959  -1.190  0.00  0.00    +0.027 C 
BRANCH  11  12
ATOM     12  C   UNK A   1      -4.106  -0.777  -0.696  0.00  0.00    +0.016 C 
BRANCH  12  13
ATOM     13  C   UNK A   1      -5.564  -1.125  -0.380  0.00  0.00    +0.110 C 
BRANCH  13  15
ATOM     14  O   UNK A   1      -5.921   1.177   0.330  0.00  0.00    -0.250 OA
ATOM     15  C   UNK A   1      -6.356   0.048   0.154  0.00  0.00    +0.314 C 
BRANCH  15  16
ATOM     16  O   UNK A   1      -7.632  -0.309   0.454  0.00  0.00    -0.480 OA
ATOM     17  H   UNK A   1      -7.921  -1.187   0.302  0.00  0.00    +0.295 HD
ENDBRANCH  15  16
ENDBRANCH  13  15
ENDBRANCH  12  13
ENDBRANCH  11  12
ENDBRANCH  10  11
ENDBRANCH   3   9
ENDBRANCH   1   2
BRANCH   1  18
ATOM     18  S   UNK A   1       0.997   0.267   2.045  0.00  0.00    -0.078 S 
BRANCH  18  19
ATOM     19  S   UNK A   1      -0.676   1.067   1.171  0.00  0.00    -0.080 S 
BRANCH  19  20
ATOM     20  C   UNK A   1      -0.015   1.689  -0.394  0.00  0.00    +0.100 C 
BRANCH  20  21
ATOM     21  C   UNK A   1       0.700   3.036  -0.270  0.00  0.00    +0.183 C 
BRANCH  21  23
ATOM     22  O   UNK A   0       3.354   2.385  -1.250  0.00  0.00    -0.275 OA
ATOM     23  N   UNK A   1       1.916   2.933   0.498  0.00  0.00    -0.296 N 
ATOM     24  C   UNK A   0       3.144   2.614  -0.061  0.00  0.00    +0.223 C 
ATOM     25  C   UNK A   0       4.250   2.598   0.959  0.00  0.00    +0.095 C 
ATOM     26  H   UNK A   1       1.872   3.096   1.467  0.00  0.00    +0.150 HD
ENDBRANCH  21  23
BRANCH  21  28
ATOM     27  O   UNK A   1      -1.255   4.471  -0.289  0.00  0.00    -0.248 OA
ATOM     28  C   UNK A   1      -0.214   4.129   0.259  0.00  0.00    +0.333 C 
BRANCH  28  29
ATOM     29  O   UNK A   1       0.242   4.704   1.397  0.00  0.00    -0.479 OA
ATOM     30  H   UNK A   1       1.044   4.410   1.782  0.00  0.00    +0.295 HD
ENDBRANCH  28  29
ENDBRANCH  21  28
ENDBRANCH  20  21
ENDBRANCH  19  20
ENDBRANCH  18  19
ENDBRANCH   1  18
BRANCH   1  31
ATOM     31  C   UNK A   1       1.625  -2.374   2.451  0.00  0.00    +0.016 C 
BRANCH  31  32
ATOM     32  C   UNK A   1       1.563  -3.854   2.055  0.00  0.00    +0.001 C 
ATOM     33  C   UNK A   1       2.323  -4.725   3.044  0.00  0.00    +0.000 C 
ENDBRANCH  31  32
ENDBRANCH   1  31
TORSDOF 16
