139583980
  -OEChem-03292013293D

 57 60  0     1  0  0  0  0  0999 V2000
   -1.7824   -0.2802    0.2585 O   0  0  0  0  0  0  0  0  0  0  0  0
   -0.6622    2.8190   -0.6230 O   0  0  0  0  0  0  0  0  0  0  0  0
    2.9154    3.7361    0.4969 O   0  0  0  0  0  0  0  0  0  0  0  0
   -0.4422   -0.2400   -1.6379 O   0  0  0  0  0  0  0  0  0  0  0  0
    3.6079   -2.2744    1.1565 O   0  0  0  0  0  0  0  0  0  0  0  0
   -0.0728    1.9501    1.4407 N   0  0  0  0  0  0  0  0  0  0  0  0
    2.5609    1.4218    0.5273 N   0  0  0  0  0  0  0  0  0  0  0  0
    1.7798   -1.4431   -0.0631 N   0  0  0  0  0  0  0  0  0  0  0  0
   -2.1153    1.1132    0.2453 C   0  0  2  0  0  0  0  0  0  0  0  0
   -3.0399    1.4223   -0.9294 C   0  0  0  0  0  0  0  0  0  0  0  0
   -0.8852    2.0304    0.3016 C   0  0  0  0  0  0  0  0  0  0  0  0
   -4.4417    0.9402   -0.6739 C   0  0  0  0  0  0  0  0  0  0  0  0
    0.9766    2.9514    1.6055 C   0  0  0  0  0  0  0  0  0  0  0  0
   -0.2852    1.0615    2.5827 C   0  0  0  0  0  0  0  0  0  0  0  0
    2.2319    2.7486    0.7687 C   0  0  0  0  0  0  0  0  0  0  0  0
   -5.3672    1.7825   -0.0581 C   0  0  0  0  0  0  0  0  0  0  0  0
   -4.8162   -0.3488   -1.0531 C   0  0  0  0  0  0  0  0  0  0  0  0
   -0.5561   -2.1262   -0.1869 C   0  0  0  0  0  0  0  0  0  0  0  0
   -0.9268   -0.7829   -0.6624 C   0  0  0  0  0  0  0  0  0  0  0  0
    3.6938    0.9378   -0.1870 C   0  0  0  0  0  0  0  0  0  0  0  0
    0.7766   -2.4223    0.1555 C   0  0  0  0  0  0  0  0  0  0  0  0
    3.9587   -0.4467   -0.2340 C   0  0  0  0  0  0  0  0  0  0  0  0
   -6.6672    1.3359    0.1788 C   0  0  0  0  0  0  0  0  0  0  0  0
   -6.1162   -0.7957   -0.8163 C   0  0  0  0  0  0  0  0  0  0  0  0
    3.0918   -1.4831    0.3758 C   0  0  0  0  0  0  0  0  0  0  0  0
   -1.5776   -3.0705   -0.0206 C   0  0  0  0  0  0  0  0  0  0  0  0
    1.0548   -3.6923    0.6764 C   0  0  0  0  0  0  0  0  0  0  0  0
   -7.0417    0.0468   -0.2004 C   0  0  0  0  0  0  0  0  0  0  0  0
    4.5901    1.7915   -0.8495 C   0  0  0  0  0  0  0  0  0  0  0  0
    5.1010   -0.9416   -0.8858 C   0  0  0  0  0  0  0  0  0  0  0  0
   -1.2772   -4.3271    0.4948 C   0  0  0  0  0  0  0  0  0  0  0  0
    0.0346   -4.6354    0.8445 C   0  0  0  0  0  0  0  0  0  0  0  0
    5.7199    1.2924   -1.5076 C   0  0  0  0  0  0  0  0  0  0  0  0
    5.9796   -0.0713   -1.5204 C   0  0  0  0  0  0  0  0  0  0  0  0
   -2.6645    1.3070    1.1764 H   0  0  0  0  0  0  0  0  0  0  0  0
   -2.6757    0.9825   -1.8651 H   0  0  0  0  0  0  0  0  0  0  0  0
   -3.0848    2.5037   -1.1139 H   0  0  0  0  0  0  0  0  0  0  0  0
    0.5545    3.9272    1.3355 H   0  0  0  0  0  0  0  0  0  0  0  0
    1.2781    2.9970    2.6583 H   0  0  0  0  0  0  0  0  0  0  0  0
    0.6575    0.5613    2.8226 H   0  0  0  0  0  0  0  0  0  0  0  0
   -1.0467    0.3045    2.4107 H   0  0  0  0  0  0  0  0  0  0  0  0
   -0.5976    1.6711    3.4363 H   0  0  0  0  0  0  0  0  0  0  0  0
   -5.0873    2.7882    0.2442 H   0  0  0  0  0  0  0  0  0  0  0  0
   -4.1058   -1.0141   -1.5363 H   0  0  0  0  0  0  0  0  0  0  0  0
    1.9521    0.7142    0.9278 H   0  0  0  0  0  0  0  0  0  0  0  0
    1.4959   -0.6384   -0.6162 H   0  0  0  0  0  0  0  0  0  0  0  0
   -7.3878    1.9915    0.6589 H   0  0  0  0  0  0  0  0  0  0  0  0
   -6.4078   -1.7992   -1.1118 H   0  0  0  0  0  0  0  0  0  0  0  0
   -2.6057   -2.8354   -0.2823 H   0  0  0  0  0  0  0  0  0  0  0  0
    2.0601   -4.0014    0.9405 H   0  0  0  0  0  0  0  0  0  0  0  0
    4.4488    2.8649   -0.8922 H   0  0  0  0  0  0  0  0  0  0  0  0
   -8.0539   -0.3010   -0.0160 H   0  0  0  0  0  0  0  0  0  0  0  0
    5.3070   -2.0091   -0.9173 H   0  0  0  0  0  0  0  0  0  0  0  0
   -2.0635   -5.0642    0.6268 H   0  0  0  0  0  0  0  0  0  0  0  0
    0.2702   -5.6181    1.2439 H   0  0  0  0  0  0  0  0  0  0  0  0
    6.3970    1.9773   -2.0107 H   0  0  0  0  0  0  0  0  0  0  0  0
    6.8576   -0.4562   -2.0298 H   0  0  0  0  0  0  0  0  0  0  0  0
  1  9  1  0  0  0  0
  1 19  1  0  0  0  0
  2 11  2  0  0  0  0
  3 15  2  0  0  0  0
  4 19  2  0  0  0  0
  5 25  2  0  0  0  0
  6 11  1  0  0  0  0
  6 13  1  0  0  0  0
  6 14  1  0  0  0  0
  7 15  1  0  0  0  0
  7 20  1  0  0  0  0
  7 45  1  0  0  0  0
  8 21  1  0  0  0  0
  8 25  1  0  0  0  0
  8 46  1  0  0  0  0
  9 10  1  0  0  0  0
  9 11  1  0  0  0  0
  9 35  1  0  0  0  0
 10 12  1  0  0  0  0
 10 36  1  0  0  0  0
 10 37  1  0  0  0  0
 12 16  2  0  0  0  0
 12 17  1  0  0  0  0
 13 15  1  0  0  0  0
 13 38  1  0  0  0  0
 13 39  1  0  0  0  0
 14 40  1  0  0  0  0
 14 41  1  0  0  0  0
 14 42  1  0  0  0  0
 16 23  1  0  0  0  0
 16 43  1  0  0  0  0
 17 24  2  0  0  0  0
 17 44  1  0  0  0  0
 18 19  1  0  0  0  0
 18 21  1  0  0  0  0
 18 26  2  0  0  0  0
 20 22  1  0  0  0  0
 20 29  2  0  0  0  0
 21 27  2  0  0  0  0
 22 25  1  0  0  0  0
 22 30  2  0  0  0  0
 23 28  2  0  0  0  0
 23 47  1  0  0  0  0
 24 28  1  0  0  0  0
 24 48  1  0  0  0  0
 26 31  1  0  0  0  0
 26 49  1  0  0  0  0
 27 32  1  0  0  0  0
 27 50  1  0  0  0  0
 28 52  1  0  0  0  0
 29 33  1  0  0  0  0
 29 51  1  0  0  0  0
 30 34  1  0  0  0  0
 30 53  1  0  0  0  0
 31 32  2  0  0  0  0
 31 54  1  0  0  0  0
 32 55  1  0  0  0  0
 33 34  2  0  0  0  0
 33 56  1  0  0  0  0
 34 57  1  0  0  0  0
M  END
> <PUBCHEM_COMPOUND_CID>
139583980

> <PUBCHEM_CONFORMER_RMSD>
0.8

> <PUBCHEM_CONFORMER_DIVERSEORDER>
1
3
8
20
11
18
19
17
23
15
10
9
2
21
22
7
14
12
13
5
4
16
6

> <PUBCHEM_MMFF94_PARTIAL_CHARGES>
49
1 -0.43
10 0.14
11 0.57
12 -0.14
13 0.36
14 0.3
15 0.57
16 -0.15
17 -0.15
18 0.09
19 0.63
2 -0.57
20 0.12
21 0.12
22 0.09
23 -0.15
24 -0.15
25 0.54
26 -0.15
27 -0.15
28 -0.15
29 -0.15
3 -0.57
30 -0.15
31 -0.15
32 -0.15
33 -0.15
34 -0.15
4 -0.57
43 0.15
44 0.15
45 0.37
46 0.37
47 0.15
48 0.15
49 0.15
5 -0.57
50 0.15
51 0.15
52 0.15
53 0.15
54 0.15
55 0.15
56 0.15
57 0.15
6 -0.66
7 -0.55
8 -0.55
9 0.34

> <PUBCHEM_EFFECTIVE_ROTOR_COUNT>
3.2

> <PUBCHEM_PHARMACOPHORE_FEATURES>
9
1 2 acceptor
1 3 acceptor
1 4 acceptor
1 5 acceptor
1 7 donor
1 8 donor
6 12 16 17 23 24 28 rings
6 18 21 26 27 31 32 rings
6 20 22 29 30 33 34 rings

> <PUBCHEM_HEAVY_ATOM_COUNT>
34

> <PUBCHEM_ATOM_DEF_STEREO_COUNT>
1

> <PUBCHEM_ATOM_UDEF_STEREO_COUNT>
0

> <PUBCHEM_BOND_DEF_STEREO_COUNT>
0

> <PUBCHEM_BOND_UDEF_STEREO_COUNT>
0

> <PUBCHEM_ISOTOPIC_ATOM_COUNT>
0

> <PUBCHEM_COMPONENT_COUNT>
1

> <PUBCHEM_CACTVS_TAUTO_COUNT>
-1

> <PUBCHEM_CONFORMER_ID>
0851E1EC00000001

> <PUBCHEM_MMFF94_ENERGY>
121.8463

> <PUBCHEM_FEATURE_SELFOVERLAP>
45.673

> <PUBCHEM_SHAPE_FINGERPRINT>
10165383 225 18259706705318605236
10190108 129 18339938047840230305
1100329 8 18411972559721413835
11007060 377 18201446916535806361
11135609 187 18410012130615943161
12166972 35 18115872889003328486
12788726 201 18059298656304445080
1361 2 18333734619360937564
13617811 41 18261105313979677029
13726171 33 17905041809361501344
14114211 68 18189352216005891566
14787075 74 18412540990532925495
14790565 3 18410292515050067037
14931854 50 18341339916153249276
14932702 115 18124051275618720604
15322687 12 18410290332932504080
15927050 60 18196926884447599567
15968369 153 17770765012881519951
16067689 134 17983875397319393345
17492 54 18408611344343441112
19319366 153 18336257955803005270
19591789 44 18338788001135962867
20465049 17 18411984663186679932
20775438 99 17913746556870804790
20832881 197 17846779615770412889
3178227 256 18411146818426072761
3729539 64 18341335513189011703
4058900 60 18262527965981935857
4258327 124 17677917779907382620
437795 51 18408612474252142931
484989 97 18337963392731760835
5171179 24 17913203454035338235
5312544 6 18263360308990066807
53794403 172 18264490766089644340
5776283 40 18265622155455340404
6669772 16 18198042854326815497
6679774 75 18115290229107928810

> <PUBCHEM_SHAPE_MULTIPOLES>
655.41
13.48
4.99
1.43
10.79
4.46
0.4
-5.56
-6.31
-1.48
2
-0.75
-0.54
-0.29

> <PUBCHEM_SHAPE_SELFOVERLAP>
1424.804

> <PUBCHEM_SHAPE_VOLUME>
350.6

> <PUBCHEM_COORDINATE_TYPE>
2
5
10

$$$$
