REMARK  Name = 139591334
REMARK  7 active torsions:
REMARK  status: ('A' for Active; 'I' for Inactive)
REMARK    1  A    between atoms: C_3  and  C_20
REMARK    2  A    between atoms: C_6  and  C_17
REMARK    3  A    between atoms: C_9  and  O_14
REMARK    4  A    between atoms: C_10  and  O_12
REMARK    5  A    between atoms: C_17  and  O_18
REMARK    6  A    between atoms: C_20  and  C_21
REMARK    7  A    between atoms: C_21  and  O_23
REMARK                            x       y       z     vdW  Elec       q    Type
REMARK                         _______ _______ _______ _____ _____    ______ ____
ROOT
ATOM      1  O   UNL     1      -1.645  -0.747  -0.485  0.00  0.00    -0.454 OA
ATOM      2  O   UNL     1       0.404   2.773  -0.384  0.00  0.00    -0.286 OA
ATOM      3  C   UNL     1      -2.282   0.481  -0.570  0.00  0.00    +0.129 C 
ATOM      4  C   UNL     1       0.494   0.394  -0.322  0.00  0.00    +0.083 C 
ATOM      5  C   UNL     1      -0.279  -0.766  -0.364  0.00  0.00    +0.185 C 
ATOM      6  C   UNL     1       1.883   0.315  -0.197  0.00  0.00    +0.085 C 
ATOM      7  C   UNL     1      -1.650   1.663  -0.541  0.00  0.00    +0.075 C 
ATOM      8  C   UNL     1      -0.180   1.699  -0.412  0.00  0.00    +0.202 C 
ATOM      9  C   UNL     1       0.336  -2.015  -0.281  0.00  0.00    +0.203 C 
ATOM     10  C   UNL     1       1.723  -2.099  -0.155  0.00  0.00    +0.175 C 
ATOM     11  C   UNL     1       2.494  -0.936  -0.113  0.00  0.00    +0.047 C 
ENDROOT
BRANCH  10  12
ATOM     12  O   UNL     1       2.339  -3.312  -0.072  0.00  0.00    -0.468 OA
ATOM     13  C   UNL     1       2.519  -3.859   1.232  0.00  0.00    +0.253 C 
ENDBRANCH  10  12
BRANCH   9  14
ATOM     14  O   UNL     1      -0.411  -3.155  -0.321  0.00  0.00    -0.501 OA
ATOM     15  H   UNL     1      -1.343  -3.101  -0.405  0.00  0.00    +0.292 HD
ENDBRANCH   9  14
BRANCH   6  17
ATOM     16  O   UNL     1       3.276   2.005  -1.137  0.00  0.00    -0.245 OA
ATOM     17  C   UNL     1       2.764   1.475  -0.145  0.00  0.00    +0.342 C 
BRANCH  17  18
ATOM     18  O   UNL     1       2.953   1.901   1.140  0.00  0.00    -0.441 OA
ATOM     19  C   UNL     1       3.804   3.038   1.322  0.00  0.00    +0.256 C 
ENDBRANCH  17  18
ENDBRANCH   6  17
BRANCH   3  20
ATOM     20  C   UNL     1      -3.769   0.373  -0.697  0.00  0.00    +0.094 C 
BRANCH  20  21
ATOM     21  C   UNL     1      -4.428   0.040   0.641  0.00  0.00    +0.118 C 
ATOM     22  C   UNL     1      -5.839  -0.496   0.434  0.00  0.00    +0.032 C 
BRANCH  21  23
ATOM     23  O   UNL     1      -4.506   1.228   1.426  0.00  0.00    -0.384 OA
ATOM     24  H   UNL     1      -3.614   1.583   1.566  0.00  0.00    +0.210 HD
ENDBRANCH  21  23
ENDBRANCH  20  21
ENDBRANCH   3  20
TORSDOF 7
