REMARK  Name = 139588913
REMARK  5 active torsions:
REMARK  status: ('A' for Active; 'I' for Inactive)
REMARK    1  A    between atoms: C_14  and  O_23
REMARK    2  A    between atoms: O_23  and  C_29
REMARK    3  A    between atoms: C_25  and  O_31
REMARK    4  A    between atoms: C_26  and  O_33
REMARK    5  A    between atoms: C_27  and  O_35
REMARK                            x       y       z     vdW  Elec       q    Type
REMARK                         _______ _______ _______ _____ _____    ______ ____
ROOT
ATOM      1  O   UNL     1      -4.764   1.976   0.210  0.00  0.00    -0.291 OA
ATOM      2  O   UNL     1      -2.658   2.033  -1.252  0.00  0.00    -0.287 OA
ATOM      3  O   UNL     1       0.771  -1.246   0.982  0.00  0.00    -0.286 OA
ATOM      4  C   UNL     1      -6.438  -1.244  -0.501  0.00  0.00    +0.012 C 
ATOM      5  C   UNL     1      -5.655  -1.933   0.620  0.00  0.00    +0.027 C 
ATOM      6  C   UNL     1      -4.213  -1.501   0.625  0.00  0.00    -0.019 C 
ATOM      7  C   UNL     1      -6.324   0.271  -0.358  0.00  0.00    +0.069 C 
ATOM      8  C   UNL     1      -3.837  -0.201   0.235  0.00  0.00    +0.034 C 
ATOM      9  C   UNL     1      -2.469   0.146   0.172  0.00  0.00    +0.044 C 
ATOM     10  C   UNL     1      -4.943   0.776   0.012  0.00  0.00    +0.173 C 
ATOM     11  C   UNL     1      -1.509  -0.771   0.626  0.00  0.00    +0.042 C 
ATOM     12  C   UNL     1       0.326   0.971   0.369  0.00  0.00    +0.076 C 
ATOM     13  C   UNL     1      -6.011  -1.719  -1.894  0.00  0.00    +0.001 C 
ATOM     14  C   UNL     1       1.640   1.391   0.605  0.00  0.00    +0.144 C 
ATOM     15  C   UNL     1      -3.235  -2.408   1.047  0.00  0.00    -0.004 C 
ATOM     16  C   UNL     1      -0.603   1.857  -0.171  0.00  0.00    +0.045 C 
ATOM     17  C   UNL     1      -1.977   1.403  -0.453  0.00  0.00    +0.196 C 
ATOM     18  C   UNL     1      -0.073  -0.414   0.675  0.00  0.00    +0.199 C 
ATOM     19  C   UNL     1      -1.893  -2.041   1.067  0.00  0.00    +0.003 C 
ATOM     20  C   UNL     1       2.015   2.700   0.301  0.00  0.00    +0.037 C 
ATOM     21  C   UNL     1      -0.223   3.167  -0.481  0.00  0.00    +0.003 C 
ATOM     22  C   UNL     1       1.086   3.586  -0.241  0.00  0.00    +0.003 C 
ENDROOT
BRANCH  14  23
ATOM     23  O   UNL     1       2.591   0.573   1.139  0.00  0.00    -0.450 OA
BRANCH  23  29
ATOM     24  O   UNL     1       3.390  -0.264  -0.888  0.00  0.00    -0.319 OA
ATOM     25  C   UNL     1       5.897  -1.027   0.321  0.00  0.00    +0.173 C 
ATOM     26  C   UNL     1       5.475  -1.524  -1.064  0.00  0.00    +0.167 C 
ATOM     27  C   UNL     1       4.674  -0.600   1.141  0.00  0.00    +0.210 C 
ATOM     28  C   UNL     1       4.509  -0.534  -1.739  0.00  0.00    +0.148 C 
ATOM     29  C   UNL     1       3.760   0.339   0.353  0.00  0.00    +0.318 C 
ATOM     30  C   UNL     1       3.957  -1.072  -3.055  0.00  0.00    +0.035 C 
BRANCH  25  31
ATOM     31  O   UNL     1       6.812   0.060   0.179  0.00  0.00    -0.379 OA
ATOM     32  H   UNL     1       7.578  -0.228  -0.342  0.00  0.00    +0.211 HD
ENDBRANCH  25  31
BRANCH  26  33
ATOM     33  O   UNL     1       4.832  -2.790  -0.926  0.00  0.00    -0.379 OA
ATOM     34  H   UNL     1       5.438  -3.416  -0.501  0.00  0.00    +0.211 HD
ENDBRANCH  26  33
BRANCH  27  35
ATOM     35  O   UNL     1       5.091   0.041   2.343  0.00  0.00    -0.377 OA
ATOM     36  H   UNL     1       5.671  -0.555   2.843  0.00  0.00    +0.211 HD
ENDBRANCH  27  35
ENDBRANCH  23  29
ENDBRANCH  14  23
TORSDOF 5
