REMARK  Name = 139588040
REMARK  10 active torsions:
REMARK  status: ('A' for Active; 'I' for Inactive)
REMARK    1  A    between atoms: C_6  and  C_20
REMARK    2  A    between atoms: C_7  and  O_17
REMARK    3  A    between atoms: C_7  and  C_23
REMARK    4  A    between atoms: C_16  and  C_29
REMARK    5  A    between atoms: C_20  and  O_21
REMARK    6  A    between atoms: C_23  and  C_25
REMARK    7  A    between atoms: C_25  and  O_27
REMARK    8  A    between atoms: C_30  and  C_31
REMARK    9  A    between atoms: C_31  and  C_33
REMARK   10  A    between atoms: C_33  and  O_35
REMARK                            x       y       z     vdW  Elec       q    Type
REMARK                         _______ _______ _______ _____ _____    ______ ____
ROOT
ATOM      1 CL   UNL     1       0.323   3.958  -1.646  0.00  0.00    -0.102 Cl
ATOM      2  O   UNL     1      -3.508   1.073   0.036  0.00  0.00    -0.331 OA
ATOM      3  O   UNL     1      -2.448   3.196  -1.190  0.00  0.00    -0.292 OA
ATOM      4  O   UNL     1       2.370  -0.299   0.856  0.00  0.00    -0.471 OA
ATOM      5  C   UNL     1      -1.368   0.179   0.479  0.00  0.00    +0.069 C 
ATOM      6  C   UNL     1      -1.964  -0.587  -0.700  0.00  0.00    +0.157 C 
ATOM      7  C   UNL     1      -3.450  -0.203  -0.636  0.00  0.00    +0.196 C 
ATOM      8  C   UNL     1      -2.193   1.458   0.457  0.00  0.00    +0.151 C 
ATOM      9  C   UNL     1       0.112   0.412   0.384  0.00  0.00    -0.000 C 
ATOM     10  C   UNL     1      -1.679   2.460  -0.572  0.00  0.00    +0.194 C 
ATOM     11  C   UNL     1      -2.291   2.144   1.815  0.00  0.00    +0.038 C 
ATOM     12  C   UNL     1       0.634   1.601  -0.305  0.00  0.00    -0.002 C 
ATOM     13  C   UNL     1      -0.199   2.550  -0.781  0.00  0.00    +0.161 C 
ATOM     14  C   UNL     1       0.999  -0.440   0.930  0.00  0.00    +0.228 C 
ATOM     15  C   UNL     1       2.092   1.694  -0.453  0.00  0.00    +0.034 C 
ATOM     16  C   UNL     1       2.879   0.768   0.124  0.00  0.00    +0.138 C 
ENDROOT
BRANCH   7  17
ATOM     17  O   UNL     1      -3.938  -0.090  -1.972  0.00  0.00    -0.363 OA
ATOM     18  H   UNL     1      -3.371   0.517  -2.472  0.00  0.00    +0.213 HD
ENDBRANCH   7  17
BRANCH   6  20
ATOM     19  O   UNL     1      -1.072  -2.598   0.281  0.00  0.00    -0.250 OA
ATOM     20  C   UNL     1      -1.716  -2.063  -0.612  0.00  0.00    +0.322 C 
BRANCH  20  21
ATOM     21  O   UNL     1      -2.314  -2.690  -1.665  0.00  0.00    -0.444 OA
ATOM     22  C   UNL     1      -2.156  -4.111  -1.705  0.00  0.00    +0.256 C 
ENDBRANCH  20  21
ENDBRANCH   6  20
BRANCH   7  23
ATOM     23  C   UNL     1      -4.343  -1.161   0.154  0.00  0.00    +0.079 C 
ATOM     24  C   UNL     1      -5.734  -1.213  -0.493  0.00  0.00    +0.008 C 
BRANCH  23  25
ATOM     25  C   UNL     1      -4.448  -0.778   1.646  0.00  0.00    +0.115 C 
ATOM     26  C   UNL     1      -5.485   0.305   1.925  0.00  0.00    +0.032 C 
BRANCH  25  27
ATOM     27  O   UNL     1      -4.817  -1.941   2.389  0.00  0.00    -0.384 OA
ATOM     28  H   UNL     1      -4.171  -2.646   2.228  0.00  0.00    +0.210 HD
ENDBRANCH  25  27
ENDBRANCH  23  25
ENDBRANCH   7  23
BRANCH  16  29
ATOM     29  C   UNL     1       4.313   0.791   0.042  0.00  0.00    +0.032 C 
ATOM     30  C   UNL     1       5.099  -0.130   0.616  0.00  0.00    -0.021 C 
BRANCH  30  31
ATOM     31  C   UNL     1       6.609  -0.109   0.532  0.00  0.00    +0.049 C 
ATOM     32  C   UNL     1       7.186   0.065   1.942  0.00  0.00    +0.007 C 
BRANCH  31  33
ATOM     33  C   UNL     1       7.187  -1.368  -0.153  0.00  0.00    +0.115 C 
ATOM     34  C   UNL     1       6.709  -1.549  -1.591  0.00  0.00    +0.032 C 
BRANCH  33  35
ATOM     35  O   UNL     1       8.612  -1.323  -0.136  0.00  0.00    -0.384 OA
ATOM     36  H   UNL     1       8.921  -1.208   0.777  0.00  0.00    +0.210 HD
ENDBRANCH  33  35
ENDBRANCH  31  33
ENDBRANCH  30  31
ENDBRANCH  16  29
TORSDOF 10
