139585748
  -OEChem-03292013293D

 74 75  0     1  0  0  0  0  0999 V2000
    5.0763    0.8725    0.5121 O   0  0  0  0  0  0  0  0  0  0  0  0
    4.9911   -2.0000    0.8658 O   0  0  0  0  0  0  0  0  0  0  0  0
    2.2423   -1.7715    1.5434 O   0  0  0  0  0  0  0  0  0  0  0  0
   -3.8659    0.2195   -0.4053 O   0  0  0  0  0  0  0  0  0  0  0  0
   -3.8702   -3.9061   -0.5402 O   0  0  0  0  0  0  0  0  0  0  0  0
   -7.4780    2.3117    0.3411 O   0  0  0  0  0  0  0  0  0  0  0  0
   -5.5543    2.0411    1.5272 O   0  0  0  0  0  0  0  0  0  0  0  0
    4.2641    1.7888   -0.2395 C   0  0  1  0  0  0  0  0  0  0  0  0
    3.7856    0.3922    0.1126 C   0  0  1  0  0  0  0  0  0  0  0  0
    3.8133   -0.7480   -0.8412 C   0  0  1  0  0  0  0  0  0  0  0  0
    3.7546    2.9469    0.5681 C   0  0  0  0  0  0  0  0  0  0  0  0
    4.8035    2.1086   -1.5977 C   0  0  0  0  0  0  0  0  0  0  0  0
    3.9582   -2.1275   -0.1174 C   0  0  2  0  0  0  0  0  0  0  0  0
    2.3974    3.4771    0.0702 C   0  0  2  0  0  0  0  0  0  0  0  0
    2.5909   -0.7371   -1.7573 C   0  0  0  0  0  0  0  0  0  0  0  0
    2.7020   -2.7042    0.5595 C   0  0  1  0  0  0  0  0  0  0  0  0
    2.1596    4.8925    0.6023 C   0  0  0  0  0  0  0  0  0  0  0  0
    1.2597    2.5830    0.5068 C   0  0  0  0  0  0  0  0  0  0  0  0
    2.9469   -4.0191    1.2866 C   0  0  0  0  0  0  0  0  0  0  0  0
   -2.5769   -1.8533   -0.5253 C   0  0  2  0  0  0  0  0  0  0  0  0
   -2.6103   -0.3806   -0.0601 C   0  0  1  0  0  0  0  0  0  0  0  0
   -3.7912   -2.6104    0.0465 C   0  0  1  0  0  0  0  0  0  0  0  0
   -5.0881   -1.8557   -0.2352 C   0  0  0  0  0  0  0  0  0  0  0  0
    0.4275    1.9682   -0.3488 C   0  0  0  0  0  0  0  0  0  0  0  0
   -4.9783   -0.4092    0.2346 C   0  0  2  0  0  0  0  0  0  0  0  0
    6.2735   -1.9913    0.2621 C   0  0  0  0  0  0  0  0  0  0  0  0
   -1.5428    0.4596   -0.6879 C   0  0  0  0  0  0  0  0  0  0  0  0
   -0.6586    1.1171    0.0874 C   0  0  0  0  0  0  0  0  0  0  0  0
   -1.2748   -2.5656   -0.1377 C   0  0  0  0  0  0  0  0  0  0  0  0
   -6.2290    0.3807   -0.1246 C   0  0  0  0  0  0  0  0  0  0  0  0
   -1.5832    0.4737   -2.1916 C   0  0  0  0  0  0  0  0  0  0  0  0
   -6.3450    1.6463    0.6836 C   0  0  0  0  0  0  0  0  0  0  0  0
    3.0202    0.3177    0.8696 H   0  0  0  0  0  0  0  0  0  0  0  0
    4.6826   -0.6464   -1.5002 H   0  0  0  0  0  0  0  0  0  0  0  0
    4.5035    3.7484    0.5217 H   0  0  0  0  0  0  0  0  0  0  0  0
    3.6829    2.6738    1.6301 H   0  0  0  0  0  0  0  0  0  0  0  0
    3.9890    2.2060   -2.3219 H   0  0  0  0  0  0  0  0  0  0  0  0
    5.4962    1.3450   -1.9644 H   0  0  0  0  0  0  0  0  0  0  0  0
    5.3562    3.0541   -1.5836 H   0  0  0  0  0  0  0  0  0  0  0  0
    4.2638   -2.8708   -0.8681 H   0  0  0  0  0  0  0  0  0  0  0  0
    2.4155    3.5436   -1.0251 H   0  0  0  0  0  0  0  0  0  0  0  0
    1.6569   -0.7571   -1.1885 H   0  0  0  0  0  0  0  0  0  0  0  0
    2.5712    0.1712   -2.3685 H   0  0  0  0  0  0  0  0  0  0  0  0
    2.6009   -1.5953   -2.4371 H   0  0  0  0  0  0  0  0  0  0  0  0
    1.9059   -2.8456   -0.1776 H   0  0  0  0  0  0  0  0  0  0  0  0
    2.1593    4.9155    1.6981 H   0  0  0  0  0  0  0  0  0  0  0  0
    1.1972    5.2864    0.2566 H   0  0  0  0  0  0  0  0  0  0  0  0
    2.9414    5.5750    0.2516 H   0  0  0  0  0  0  0  0  0  0  0  0
    1.1268    2.4506    1.5790 H   0  0  0  0  0  0  0  0  0  0  0  0
    2.0135   -4.3947    1.7204 H   0  0  0  0  0  0  0  0  0  0  0  0
    3.3405   -4.7793    0.6053 H   0  0  0  0  0  0  0  0  0  0  0  0
    3.6472   -3.8943    2.1196 H   0  0  0  0  0  0  0  0  0  0  0  0
   -2.6670   -1.9061   -1.6188 H   0  0  0  0  0  0  0  0  0  0  0  0
   -2.5192   -0.3520    1.0348 H   0  0  0  0  0  0  0  0  0  0  0  0
   -3.6694   -2.7419    1.1290 H   0  0  0  0  0  0  0  0  0  0  0  0
   -5.2888   -1.8891   -1.3146 H   0  0  0  0  0  0  0  0  0  0  0  0
   -5.9299   -2.3645    0.2495 H   0  0  0  0  0  0  0  0  0  0  0  0
   -4.8212   -0.3909    1.3212 H   0  0  0  0  0  0  0  0  0  0  0  0
    0.5776    2.1075   -1.4140 H   0  0  0  0  0  0  0  0  0  0  0  0
    1.4074   -2.1148    1.9050 H   0  0  0  0  0  0  0  0  0  0  0  0
    7.0180   -1.9477    1.0626 H   0  0  0  0  0  0  0  0  0  0  0  0
    6.4372   -1.1267   -0.3840 H   0  0  0  0  0  0  0  0  0  0  0  0
    6.4441   -2.9153   -0.2999 H   0  0  0  0  0  0  0  0  0  0  0  0
   -0.7495    1.0128    1.1682 H   0  0  0  0  0  0  0  0  0  0  0  0
   -1.1221   -2.5463    0.9466 H   0  0  0  0  0  0  0  0  0  0  0  0
   -0.4105   -2.0908   -0.6105 H   0  0  0  0  0  0  0  0  0  0  0  0
   -1.2834   -3.6120   -0.4594 H   0  0  0  0  0  0  0  0  0  0  0  0
   -6.2175    0.6564   -1.1854 H   0  0  0  0  0  0  0  0  0  0  0  0
   -7.1233   -0.2160    0.0889 H   0  0  0  0  0  0  0  0  0  0  0  0
   -1.1718   -0.4550   -2.5991 H   0  0  0  0  0  0  0  0  0  0  0  0
   -2.6056    0.5946   -2.5643 H   0  0  0  0  0  0  0  0  0  0  0  0
   -1.0084    1.2987   -2.6206 H   0  0  0  0  0  0  0  0  0  0  0  0
   -4.6400   -4.3567   -0.1530 H   0  0  0  0  0  0  0  0  0  0  0  0
   -7.5823    3.1429    0.8516 H   0  0  0  0  0  0  0  0  0  0  0  0
  1  8  1  0  0  0  0
  1  9  1  0  0  0  0
  2 13  1  0  0  0  0
  2 26  1  0  0  0  0
  3 16  1  0  0  0  0
  3 60  1  0  0  0  0
  4 21  1  0  0  0  0
  4 25  1  0  0  0  0
  5 22  1  0  0  0  0
  5 73  1  0  0  0  0
  6 32  1  0  0  0  0
  6 74  1  0  0  0  0
  7 32  2  0  0  0  0
  8  9  1  0  0  0  0
  8 11  1  0  0  0  0
  8 12  1  0  0  0  0
  9 10  1  0  0  0  0
  9 33  1  0  0  0  0
 10 13  1  0  0  0  0
 10 15  1  0  0  0  0
 10 34  1  0  0  0  0
 11 14  1  0  0  0  0
 11 35  1  0  0  0  0
 11 36  1  0  0  0  0
 12 37  1  0  0  0  0
 12 38  1  0  0  0  0
 12 39  1  0  0  0  0
 13 16  1  0  0  0  0
 13 40  1  0  0  0  0
 14 17  1  0  0  0  0
 14 18  1  0  0  0  0
 14 41  1  0  0  0  0
 15 42  1  0  0  0  0
 15 43  1  0  0  0  0
 15 44  1  0  0  0  0
 16 19  1  0  0  0  0
 16 45  1  0  0  0  0
 17 46  1  0  0  0  0
 17 47  1  0  0  0  0
 17 48  1  0  0  0  0
 18 24  2  0  0  0  0
 18 49  1  0  0  0  0
 19 50  1  0  0  0  0
 19 51  1  0  0  0  0
 19 52  1  0  0  0  0
 20 21  1  0  0  0  0
 20 22  1  0  0  0  0
 20 29  1  0  0  0  0
 20 53  1  0  0  0  0
 21 27  1  0  0  0  0
 21 54  1  0  0  0  0
 22 23  1  0  0  0  0
 22 55  1  0  0  0  0
 23 25  1  0  0  0  0
 23 56  1  0  0  0  0
 23 57  1  0  0  0  0
 24 28  1  0  0  0  0
 24 59  1  0  0  0  0
 25 30  1  0  0  0  0
 25 58  1  0  0  0  0
 26 61  1  0  0  0  0
 26 62  1  0  0  0  0
 26 63  1  0  0  0  0
 27 28  2  0  0  0  0
 27 31  1  0  0  0  0
 28 64  1  0  0  0  0
 29 65  1  0  0  0  0
 29 66  1  0  0  0  0
 29 67  1  0  0  0  0
 30 32  1  0  0  0  0
 30 68  1  0  0  0  0
 30 69  1  0  0  0  0
 31 70  1  0  0  0  0
 31 71  1  0  0  0  0
 31 72  1  0  0  0  0
M  END
> <PUBCHEM_COMPOUND_CID>
139585748

> <PUBCHEM_CONFORMER_RMSD>
1.2

> <PUBCHEM_CONFORMER_DIVERSEORDER>
1
147
161
23
100
110
99
115
77
158
167
120
6
121
159
106
104
145
45
72
17
137
122
146
133
118
36
109
150
128
27
20
134
34
151
135
7
131
157
127
46
54
101
116
138
89
22
93
155
11
119
112
75
80
65
81
107
14
164
143
15
98
90
156
19
2
18
21
76
165
94
149
130
152
166
48
85
24
39
26
43
88
87
55
44
91
162
52
84
136
82
69
38
92
66
32
102
61
16
74
86
35
141
163
70
58
78
53
25
73
10
60
64
148
113
40
105
47
50
83
9
111
79
114
8
139
160
49
13
29
63
33
142
37
62
124
59
108
123
30
3
12
68
140
96
95
153
67
5
51
126
4
57
144
41
97
132
154
28
103
129
56
125
31
42
71
117

> <PUBCHEM_MMFF94_PARTIAL_CHARGES>
33
1 -0.3
10 0.09
11 0.09
12 0.09
13 0.28
14 0.14
16 0.28
18 -0.29
2 -0.56
21 0.42
22 0.28
24 -0.15
25 0.28
26 0.28
27 -0.28
28 -0.15
3 -0.68
30 0.06
31 0.14
32 0.66
33 0.1
4 -0.56
49 0.15
5 -0.68
59 0.15
6 -0.65
60 0.4
64 0.15
7 -0.57
73 0.4
74 0.5
8 -0.04
9 -0.05

> <PUBCHEM_EFFECTIVE_ROTOR_COUNT>
12.8

> <PUBCHEM_PHARMACOPHORE_FEATURES>
14
1 1 acceptor
1 15 hydrophobe
1 17 hydrophobe
1 2 acceptor
1 3 acceptor
1 3 donor
1 31 hydrophobe
1 4 acceptor
1 5 acceptor
1 5 donor
1 6 acceptor
1 7 acceptor
3 6 7 32 anion
6 4 20 21 22 23 25 rings

> <PUBCHEM_HEAVY_ATOM_COUNT>
32

> <PUBCHEM_ATOM_DEF_STEREO_COUNT>
9

> <PUBCHEM_ATOM_UDEF_STEREO_COUNT>
1

> <PUBCHEM_BOND_DEF_STEREO_COUNT>
2

> <PUBCHEM_BOND_UDEF_STEREO_COUNT>
0

> <PUBCHEM_ISOTOPIC_ATOM_COUNT>
0

> <PUBCHEM_COMPONENT_COUNT>
1

> <PUBCHEM_CACTVS_TAUTO_COUNT>
-1

> <PUBCHEM_CONFORMER_ID>
0851E8D400000001

> <PUBCHEM_MMFF94_ENERGY>
65.4246

> <PUBCHEM_FEATURE_SELFOVERLAP>
71.112

> <PUBCHEM_SHAPE_FINGERPRINT>
10439779 11 18267011950963066994
12107183 9 18341335483699565745
12128747 34 18408326605598052977
12422481 6 17604722036969006727
12788726 201 17846507997564006521
12925494 130 18412260679708538913
13583140 156 17487336199575922353
1361 2 17830732419524428956
13785724 45 18127701422104363926
14114211 68 17896625954294060638
14117953 113 18200316507250555830
14790565 3 18339644537774045515
14904385 45 18261960617792658658
15183329 4 18202008728976962865
15274700 259 17460861897237101373
15361156 5 18041007279390470389
15776043 110 18264219015171398449
15799311 1 18336557096090603829
16067689 134 18197794219224282097
16067690 210 16414936213063020219
16112460 7 18270691870242036633
17844677 252 18125166184783529785
20511986 3 17846211210897061689
21033648 29 15482680047915074993
21197605 99 17619913202782330358
21421861 104 18260259725228529632
23559900 14 18342454867560394389
239999 70 17915190228897737284
3117164 225 18412829092702130905
3633792 109 18263627585917532495
3680242 22 18409451349551895410
4058900 60 18048044253004564836
4073 2 18263367065126344561
460360 51 18267043793671296465
463206 1 18334013899994416986
5104073 3 18408887364669695915
5265222 85 17543637886498816948

> <PUBCHEM_SHAPE_MULTIPOLES>
617.46
15.99
5.41
1.27
17.47
0.9
0.37
1.33
-2.16
-3.81
-1.68
-0.48
-0.01
-1.96

> <PUBCHEM_SHAPE_SELFOVERLAP>
1234.989

> <PUBCHEM_SHAPE_VOLUME>
363.2

> <PUBCHEM_COORDINATE_TYPE>
2
5
10

$$$$
