139586313
  -OEChem-03292013293D

 65 67  0     1  0  0  0  0  0999 V2000
    0.3554   -0.1642   -1.5754 O   0  0  0  0  0  0  0  0  0  0  0  0
   -2.0576   -3.4084   -0.2596 O   0  0  0  0  0  0  0  0  0  0  0  0
   -1.3268    0.1587   -3.1240 O   0  0  0  0  0  0  0  0  0  0  0  0
   -2.6880    0.1419    2.5915 O   0  0  0  0  0  0  0  0  0  0  0  0
    1.0122    0.8679    1.7439 O   0  0  0  0  0  0  0  0  0  0  0  0
   -8.8514    0.5643    1.4054 O   0  0  0  0  0  0  0  0  0  0  0  0
    4.1847    2.7700   -0.2584 O   0  0  0  0  0  0  0  0  0  0  0  0
    8.4153   -1.8080    0.8318 O   0  0  0  0  0  0  0  0  0  0  0  0
   -2.4213    0.2061    0.2868 N   0  0  0  0  0  0  0  0  0  0  0  0
   -0.5590    2.1491    0.6278 N   0  0  0  0  0  0  0  0  0  0  0  0
    2.7686    0.9340   -0.2225 N   0  0  0  0  0  0  0  0  0  0  0  0
   -2.8809   -1.1455   -0.0181 C   0  0  2  0  0  0  0  0  0  0  0  0
   -1.6889   -2.0365   -0.4416 C   0  0  2  0  0  0  0  0  0  0  0  0
   -4.0290   -1.1097   -1.0232 C   0  0  0  0  0  0  0  0  0  0  0  0
   -1.2110   -1.9040   -1.8905 C   0  0  0  0  0  0  0  0  0  0  0  0
    0.8602    1.1762   -1.7825 C   0  0  1  0  0  0  0  0  0  0  0  0
    1.5488    1.6568   -0.4904 C   0  0  1  0  0  0  0  0  0  0  0  0
   -5.3108   -0.6653   -0.3781 C   0  0  0  0  0  0  0  0  0  0  0  0
   -0.7552   -0.5222   -2.2814 C   0  0  0  0  0  0  0  0  0  0  0  0
   -2.2530    0.6842    1.5763 C   0  0  0  0  0  0  0  0  0  0  0  0
   -1.5866    2.0465    1.6446 C   0  0  0  0  0  0  0  0  0  0  0  0
    0.6652    1.5044    0.7493 C   0  0  0  0  0  0  0  0  0  0  0  0
    1.8004    1.1783   -2.9866 C   0  0  0  0  0  0  0  0  0  0  0  0
   -5.6395    0.6898   -0.3417 C   0  0  0  0  0  0  0  0  0  0  0  0
   -6.1721   -1.6071    0.1849 C   0  0  0  0  0  0  0  0  0  0  0  0
   -6.8294    1.1031    0.2573 C   0  0  0  0  0  0  0  0  0  0  0  0
   -7.3620   -1.1940    0.7838 C   0  0  0  0  0  0  0  0  0  0  0  0
    4.0010    1.5627   -0.1280 C   0  0  0  0  0  0  0  0  0  0  0  0
   -7.6906    0.1611    0.8201 C   0  0  0  0  0  0  0  0  0  0  0  0
    5.1645    0.6746    0.1260 C   0  0  0  0  0  0  0  0  0  0  0  0
    6.4367    1.0519   -0.3040 C   0  0  0  0  0  0  0  0  0  0  0  0
    4.9847   -0.5370    0.7934 C   0  0  0  0  0  0  0  0  0  0  0  0
    7.5291    0.2177   -0.0669 C   0  0  0  0  0  0  0  0  0  0  0  0
    6.0770   -1.3714    1.0305 C   0  0  0  0  0  0  0  0  0  0  0  0
    7.3491   -0.9941    0.6004 C   0  0  0  0  0  0  0  0  0  0  0  0
    8.1601   -3.0320    1.5192 C   0  0  0  0  0  0  0  0  0  0  0  0
   -3.2613   -1.5782    0.9176 H   0  0  0  0  0  0  0  0  0  0  0  0
   -0.8485   -1.8459    0.2381 H   0  0  0  0  0  0  0  0  0  0  0  0
   -4.1904   -2.1071   -1.4525 H   0  0  0  0  0  0  0  0  0  0  0  0
   -3.7990   -0.4530   -1.8716 H   0  0  0  0  0  0  0  0  0  0  0  0
   -1.9983   -2.2191   -2.5864 H   0  0  0  0  0  0  0  0  0  0  0  0
   -0.3816   -2.5970   -2.0827 H   0  0  0  0  0  0  0  0  0  0  0  0
   -2.1183    0.7889   -0.4876 H   0  0  0  0  0  0  0  0  0  0  0  0
    0.0200    1.8478   -1.9979 H   0  0  0  0  0  0  0  0  0  0  0  0
    1.7791    2.7244   -0.5931 H   0  0  0  0  0  0  0  0  0  0  0  0
   -2.3321    2.8255    1.4638 H   0  0  0  0  0  0  0  0  0  0  0  0
   -1.1307    2.1798    2.6302 H   0  0  0  0  0  0  0  0  0  0  0  0
   -1.2703   -3.9513   -0.4354 H   0  0  0  0  0  0  0  0  0  0  0  0
    2.5889    0.4256   -2.8811 H   0  0  0  0  0  0  0  0  0  0  0  0
    2.2612    2.1607   -3.1277 H   0  0  0  0  0  0  0  0  0  0  0  0
    1.2536    0.9221   -3.9002 H   0  0  0  0  0  0  0  0  0  0  0  0
    2.6907   -0.0739   -0.1393 H   0  0  0  0  0  0  0  0  0  0  0  0
   -0.7534    2.7201   -0.1886 H   0  0  0  0  0  0  0  0  0  0  0  0
   -4.9785    1.4341   -0.7778 H   0  0  0  0  0  0  0  0  0  0  0  0
   -5.9261   -2.6655    0.1653 H   0  0  0  0  0  0  0  0  0  0  0  0
   -7.0739    2.1617    0.2791 H   0  0  0  0  0  0  0  0  0  0  0  0
   -8.0285   -1.9323    1.2213 H   0  0  0  0  0  0  0  0  0  0  0  0
    6.5965    1.9896   -0.8297 H   0  0  0  0  0  0  0  0  0  0  0  0
    4.0180   -0.8533    1.1739 H   0  0  0  0  0  0  0  0  0  0  0  0
   -8.9172    1.5326    1.3404 H   0  0  0  0  0  0  0  0  0  0  0  0
    8.5176    0.5163   -0.4050 H   0  0  0  0  0  0  0  0  0  0  0  0
    5.8682   -2.2945    1.5604 H   0  0  0  0  0  0  0  0  0  0  0  0
    9.1176   -3.5543    1.6156 H   0  0  0  0  0  0  0  0  0  0  0  0
    7.4959   -3.6859    0.9438 H   0  0  0  0  0  0  0  0  0  0  0  0
    7.7897   -2.8537    2.5344 H   0  0  0  0  0  0  0  0  0  0  0  0
  1 16  1  0  0  0  0
  1 19  1  0  0  0  0
  2 13  1  0  0  0  0
  2 48  1  0  0  0  0
  3 19  2  0  0  0  0
  4 20  2  0  0  0  0
  5 22  2  0  0  0  0
  6 29  1  0  0  0  0
  6 60  1  0  0  0  0
  7 28  2  0  0  0  0
  8 35  1  0  0  0  0
  8 36  1  0  0  0  0
  9 12  1  0  0  0  0
  9 20  1  0  0  0  0
  9 43  1  0  0  0  0
 10 21  1  0  0  0  0
 10 22  1  0  0  0  0
 10 53  1  0  0  0  0
 11 17  1  0  0  0  0
 11 28  1  0  0  0  0
 11 52  1  0  0  0  0
 12 13  1  0  0  0  0
 12 14  1  0  0  0  0
 12 37  1  0  0  0  0
 13 15  1  0  0  0  0
 13 38  1  0  0  0  0
 14 18  1  0  0  0  0
 14 39  1  0  0  0  0
 14 40  1  0  0  0  0
 15 19  1  0  0  0  0
 15 41  1  0  0  0  0
 15 42  1  0  0  0  0
 16 17  1  0  0  0  0
 16 23  1  0  0  0  0
 16 44  1  0  0  0  0
 17 22  1  0  0  0  0
 17 45  1  0  0  0  0
 18 24  2  0  0  0  0
 18 25  1  0  0  0  0
 20 21  1  0  0  0  0
 21 46  1  0  0  0  0
 21 47  1  0  0  0  0
 23 49  1  0  0  0  0
 23 50  1  0  0  0  0
 23 51  1  0  0  0  0
 24 26  1  0  0  0  0
 24 54  1  0  0  0  0
 25 27  2  0  0  0  0
 25 55  1  0  0  0  0
 26 29  2  0  0  0  0
 26 56  1  0  0  0  0
 27 29  1  0  0  0  0
 27 57  1  0  0  0  0
 28 30  1  0  0  0  0
 30 31  2  0  0  0  0
 30 32  1  0  0  0  0
 31 33  1  0  0  0  0
 31 58  1  0  0  0  0
 32 34  2  0  0  0  0
 32 59  1  0  0  0  0
 33 35  2  0  0  0  0
 33 61  1  0  0  0  0
 34 35  1  0  0  0  0
 34 62  1  0  0  0  0
 36 63  1  0  0  0  0
 36 64  1  0  0  0  0
 36 65  1  0  0  0  0
M  END
> <PUBCHEM_COMPOUND_CID>
139586313

> <PUBCHEM_CONFORMER_RMSD>
1

> <PUBCHEM_CONFORMER_DIVERSEORDER>
1
53
25
61
8
50
35
59
60
57
13
4
55
28
58
44
46
62
16
37
26
21
63
39
48
19
54
17
41
3
40
22
49
33
20
18
11
9
30
42
15
27
36
47
43
29
7
34
5
10
51
52
45
23
12
31
38
32
56
14
24
6
2

> <PUBCHEM_MMFF94_PARTIAL_CHARGES>
48
1 -0.43
10 -0.73
11 -0.73
12 0.3
13 0.28
14 0.14
15 0.06
16 0.28
17 0.36
18 -0.14
19 0.66
2 -0.68
20 0.57
21 0.36
22 0.57
24 -0.15
25 -0.15
26 -0.15
27 -0.15
28 0.54
29 0.08
3 -0.57
30 0.09
31 -0.15
32 -0.15
33 -0.15
34 -0.15
35 0.08
36 0.28
4 -0.57
43 0.37
48 0.4
5 -0.57
52 0.37
53 0.37
54 0.15
55 0.15
56 0.15
57 0.15
58 0.15
59 0.15
6 -0.53
60 0.45
61 0.15
62 0.15
7 -0.57
8 -0.36
9 -0.73

> <PUBCHEM_EFFECTIVE_ROTOR_COUNT>
7.8

> <PUBCHEM_PHARMACOPHORE_FEATURES>
13
1 10 donor
1 11 donor
1 2 acceptor
1 2 donor
1 3 acceptor
1 4 acceptor
1 5 acceptor
1 6 donor
1 7 acceptor
1 8 acceptor
1 9 donor
6 18 24 25 26 27 29 rings
6 30 31 32 33 34 35 rings

> <PUBCHEM_HEAVY_ATOM_COUNT>
36

> <PUBCHEM_ATOM_DEF_STEREO_COUNT>
3

> <PUBCHEM_ATOM_UDEF_STEREO_COUNT>
1

> <PUBCHEM_BOND_DEF_STEREO_COUNT>
0

> <PUBCHEM_BOND_UDEF_STEREO_COUNT>
0

> <PUBCHEM_ISOTOPIC_ATOM_COUNT>
0

> <PUBCHEM_COMPONENT_COUNT>
1

> <PUBCHEM_CACTVS_TAUTO_COUNT>
-1

> <PUBCHEM_CONFORMER_ID>
0851EB0900000001

> <PUBCHEM_MMFF94_ENERGY>
99.7207

> <PUBCHEM_FEATURE_SELFOVERLAP>
65.983

> <PUBCHEM_SHAPE_FINGERPRINT>
10076449 9 13912327880397867053
10692045 39 18113059350532998303
10930396 42 15912747424477626866
11456790 92 18272660056311554313
12107183 9 18411980295025650582
12144603 126 18340492252992056572
12677640 9 18126841831788284447
12838862 33 16487252141569222713
13673619 4 15140957378852761175
13726171 33 9222694197234043135
13811026 1 17988648450224558053
14347424 109 18343015636441017408
15131766 46 17906736156722063668
15150948 74 15068336835151568568
15183329 4 18261101989700427577
15320294 125 18130781253501591518
15849732 13 18113337522458149701
19841028 212 18260827077993408970
22224240 67 14405188373815886508
24893992 56 18130508639422245791
25269216 80 15213299678062873918
3383291 50 17060338539214256479
4093350 32 17241048833412427980
4366758 6 14908180858567701727
437815 12 16660365904491079013
5085150 59 17632578240539901831
513202 73 18187642462629449180
7226269 152 17846501461219679145

> <PUBCHEM_SHAPE_MULTIPOLES>
678.97
23.78
2.61
2.17
8.92
1.1
1.2
10.07
-11.16
2.65
-0.26
-0.66
-0.3
-2.71

> <PUBCHEM_SHAPE_SELFOVERLAP>
1431.969

> <PUBCHEM_SHAPE_VOLUME>
375.4

> <PUBCHEM_COORDINATE_TYPE>
2
5
10

$$$$
