139591368
  -OEChem-03292013293D

 50 51  0     1  0  0  0  0  0999 V2000
    3.1371    0.7283    1.2151 O   0  0  0  0  0  0  0  0  0  0  0  0
    1.8640   -0.8777    0.0110 O   0  0  0  0  0  0  0  0  0  0  0  0
   -0.2956    0.8640   -0.0619 O   0  0  0  0  0  0  0  0  0  0  0  0
    3.7934    2.7344   -1.7901 O   0  0  0  0  0  0  0  0  0  0  0  0
    1.1632    2.1497   -1.9698 O   0  0  0  0  0  0  0  0  0  0  0  0
   -1.1348    1.3824    2.0183 O   0  0  0  0  0  0  0  0  0  0  0  0
   -1.5222   -1.7507    0.0103 O   0  0  0  0  0  0  0  0  0  0  0  0
   -6.1348   -1.1736   -1.0274 O   0  0  0  0  0  0  0  0  0  0  0  0
    3.8609    1.1956    0.0681 C   0  0  1  0  0  0  0  0  0  0  0  0
    0.9741    1.3582    0.3027 C   0  0  1  0  0  0  0  0  0  0  0  0
    1.8295    0.2410    0.8958 C   0  0  2  0  0  0  0  0  0  0  0  0
    3.1372    2.3708   -0.5931 C   0  0  2  0  0  0  0  0  0  0  0  0
    1.7046    1.9594   -0.8840 C   0  0  0  0  0  0  0  0  0  0  0  0
    5.2537    1.5979    0.5442 C   0  0  0  0  0  0  0  0  0  0  0  0
    2.2416   -2.0637    0.6927 C   0  0  0  0  0  0  0  0  0  0  0  0
    2.2797   -3.2131   -0.3043 C   0  0  0  0  0  0  0  0  0  0  0  0
    2.6651   -4.5286    0.3666 C   0  0  0  0  0  0  0  0  0  0  0  0
   -1.2726    0.9329    0.8912 C   0  0  0  0  0  0  0  0  0  0  0  0
   -2.5556    0.3828    0.3851 C   0  0  0  0  0  0  0  0  0  0  0  0
    2.6600   -5.6817   -0.6242 C   0  0  0  0  0  0  0  0  0  0  0  0
   -3.6930    1.1885    0.3308 C   0  0  0  0  0  0  0  0  0  0  0  0
   -2.6211   -0.9456   -0.0350 C   0  0  0  0  0  0  0  0  0  0  0  0
   -4.8959    0.6656   -0.1437 C   0  0  0  0  0  0  0  0  0  0  0  0
   -3.8241   -1.4685   -0.5093 C   0  0  0  0  0  0  0  0  0  0  0  0
   -3.6529    2.6145    0.7744 C   0  0  0  0  0  0  0  0  0  0  0  0
   -4.9615   -0.6629   -0.5636 C   0  0  0  0  0  0  0  0  0  0  0  0
    3.9821    0.3690   -0.6441 H   0  0  0  0  0  0  0  0  0  0  0  0
    0.8879    2.1878    1.0183 H   0  0  0  0  0  0  0  0  0  0  0  0
    1.3610   -0.0710    1.8377 H   0  0  0  0  0  0  0  0  0  0  0  0
    3.1024    3.2388    0.0759 H   0  0  0  0  0  0  0  0  0  0  0  0
    5.1964    2.4025    1.2856 H   0  0  0  0  0  0  0  0  0  0  0  0
    5.7454    0.7520    1.0372 H   0  0  0  0  0  0  0  0  0  0  0  0
    5.8846    1.9291   -0.2859 H   0  0  0  0  0  0  0  0  0  0  0  0
    1.5124   -2.2833    1.4815 H   0  0  0  0  0  0  0  0  0  0  0  0
    3.2293   -1.9326    1.1498 H   0  0  0  0  0  0  0  0  0  0  0  0
    2.9869   -2.9747   -1.1086 H   0  0  0  0  0  0  0  0  0  0  0  0
    1.2982   -3.3059   -0.7862 H   0  0  0  0  0  0  0  0  0  0  0  0
    3.3513    3.5278   -2.1375 H   0  0  0  0  0  0  0  0  0  0  0  0
    1.9640   -4.7522    1.1791 H   0  0  0  0  0  0  0  0  0  0  0  0
    3.6622   -4.4405    0.8134 H   0  0  0  0  0  0  0  0  0  0  0  0
    3.3732   -5.5046   -1.4356 H   0  0  0  0  0  0  0  0  0  0  0  0
    2.9401   -6.6134   -0.1229 H   0  0  0  0  0  0  0  0  0  0  0  0
    1.6664   -5.8175   -1.0631 H   0  0  0  0  0  0  0  0  0  0  0  0
   -5.7853    1.2899   -0.1864 H   0  0  0  0  0  0  0  0  0  0  0  0
   -3.8838   -2.5030   -0.8386 H   0  0  0  0  0  0  0  0  0  0  0  0
   -3.5533    2.6733    1.8629 H   0  0  0  0  0  0  0  0  0  0  0  0
   -2.8209    3.1479    0.3025 H   0  0  0  0  0  0  0  0  0  0  0  0
   -4.5676    3.1503    0.4971 H   0  0  0  0  0  0  0  0  0  0  0  0
   -1.7596   -2.6336   -0.3214 H   0  0  0  0  0  0  0  0  0  0  0  0
   -6.8155   -0.4795   -0.9959 H   0  0  0  0  0  0  0  0  0  0  0  0
  1  9  1  0  0  0  0
  1 11  1  0  0  0  0
  2 11  1  0  0  0  0
  2 15  1  0  0  0  0
  3 10  1  0  0  0  0
  3 18  1  0  0  0  0
  4 12  1  0  0  0  0
  4 38  1  0  0  0  0
  5 13  2  0  0  0  0
  6 18  2  0  0  0  0
  7 22  1  0  0  0  0
  7 49  1  0  0  0  0
  8 26  1  0  0  0  0
  8 50  1  0  0  0  0
  9 12  1  0  0  0  0
  9 14  1  0  0  0  0
  9 27  1  0  0  0  0
 10 11  1  0  0  0  0
 10 13  1  0  0  0  0
 10 28  1  0  0  0  0
 11 29  1  0  0  0  0
 12 13  1  0  0  0  0
 12 30  1  0  0  0  0
 14 31  1  0  0  0  0
 14 32  1  0  0  0  0
 14 33  1  0  0  0  0
 15 16  1  0  0  0  0
 15 34  1  0  0  0  0
 15 35  1  0  0  0  0
 16 17  1  0  0  0  0
 16 36  1  0  0  0  0
 16 37  1  0  0  0  0
 17 20  1  0  0  0  0
 17 39  1  0  0  0  0
 17 40  1  0  0  0  0
 18 19  1  0  0  0  0
 19 21  1  0  0  0  0
 19 22  2  0  0  0  0
 20 41  1  0  0  0  0
 20 42  1  0  0  0  0
 20 43  1  0  0  0  0
 21 23  2  0  0  0  0
 21 25  1  0  0  0  0
 22 24  1  0  0  0  0
 23 26  1  0  0  0  0
 23 44  1  0  0  0  0
 24 26  2  0  0  0  0
 24 45  1  0  0  0  0
 25 46  1  0  0  0  0
 25 47  1  0  0  0  0
 25 48  1  0  0  0  0
M  END
> <PUBCHEM_COMPOUND_CID>
139591368

> <PUBCHEM_CONFORMER_RMSD>
1

> <PUBCHEM_CONFORMER_DIVERSEORDER>
1
63
45
32
62
20
17
74
80
75
40
43
42
65
87
34
82
31
53
78
86
10
6
73
60
71
35
99
89
69
92
46
98
36
56
81
23
4
13
70
79
94
9
58
85
48
50
90
66
54
67
84
28
25
91
37
96
38
93
26
41
55
83
88
57
97
16
95
12
68
8
61
76
77
11
44
47
14
33
24
51
64
15
59
22
21
18
7
49
27
2
39
29
52
30
19
5
3
72

> <PUBCHEM_MMFF94_PARTIAL_CHARGES>
27
1 -0.56
10 0.34
11 0.56
12 0.34
13 0.45
15 0.28
18 0.63
19 0.09
2 -0.56
21 -0.14
22 0.08
23 -0.15
24 -0.15
25 0.14
26 0.08
3 -0.43
38 0.4
4 -0.68
44 0.15
45 0.15
49 0.45
5 -0.57
50 0.45
6 -0.57
7 -0.53
8 -0.53
9 0.28

> <PUBCHEM_EFFECTIVE_ROTOR_COUNT>
8

> <PUBCHEM_PHARMACOPHORE_FEATURES>
11
1 1 acceptor
1 2 acceptor
1 20 hydrophobe
1 4 acceptor
1 4 donor
1 5 acceptor
1 6 acceptor
1 7 donor
1 8 donor
6 1 9 10 11 12 13 rings
6 19 21 22 23 24 26 rings

> <PUBCHEM_HEAVY_ATOM_COUNT>
26

> <PUBCHEM_ATOM_DEF_STEREO_COUNT>
4

> <PUBCHEM_ATOM_UDEF_STEREO_COUNT>
0

> <PUBCHEM_BOND_DEF_STEREO_COUNT>
0

> <PUBCHEM_BOND_UDEF_STEREO_COUNT>
0

> <PUBCHEM_ISOTOPIC_ATOM_COUNT>
0

> <PUBCHEM_COMPONENT_COUNT>
1

> <PUBCHEM_CACTVS_TAUTO_COUNT>
-1

> <PUBCHEM_CONFORMER_ID>
0851FEC800000001

> <PUBCHEM_MMFF94_ENERGY>
52.2537

> <PUBCHEM_FEATURE_SELFOVERLAP>
55.865

> <PUBCHEM_SHAPE_FINGERPRINT>
10616163 171 18265614462635643547
10906281 52 17676217874517000284
11069576 57 18270102574584863791
12107183 9 17766564547576523297
12236239 1 18335697290555699585
12788726 201 17346329154878396745
13533116 47 18271517625101968835
13583140 156 17917411125920775377
13836976 161 18261389013769636012
138480 1 18194964033033379850
14863182 85 18411981399227890834
17492 89 18340485565622715571
17818456 19 17912931573989284521
1813 80 17972036946647474874
18681886 176 18191581063757199800
19319366 153 18270954773210466494
20028762 73 18342735226737678062
21033648 144 17532651449901348741
21054139 6 18270392927100037142
21285901 2 17676194763107615901
23366157 5 18262522493993517402
23559900 14 18057029212580335731
23929065 36 16898208137282049032
25222932 49 17201900721641167023
4280585 95 17975690594059783898
474 4 17894909684687215505
56633871 153 17623854522587391291
59554788 248 17754206337506711872
9709674 26 18408324359092728779
9981440 41 18337670948535034522

> <PUBCHEM_SHAPE_MULTIPOLES>
488.11
10.7
5.23
1.24
9.36
8.95
-0.14
-0.08
-1.41
-8.39
-1.19
-0.39
-0.79
-1.57

> <PUBCHEM_SHAPE_SELFOVERLAP>
1015.592

> <PUBCHEM_SHAPE_VOLUME>
276.9

> <PUBCHEM_COORDINATE_TYPE>
2
5
10

$$$$
