139588440
  -OEChem-03292013293D

 67 70  0     1  0  0  0  0  0999 V2000
    2.8499    0.2318   -1.9315 O   0  0  0  0  0  0  0  0  0  0  0  0
    0.7961   -1.7883    0.3214 O   0  0  0  0  0  0  0  0  0  0  0  0
    4.5534   -0.2933    0.2758 O   0  0  0  0  0  0  0  0  0  0  0  0
   -4.4222   -1.2136   -0.4955 O   0  0  0  0  0  0  0  0  0  0  0  0
    1.0898    3.8609    0.1884 O   0  0  0  0  0  0  0  0  0  0  0  0
    3.2884    2.4933   -1.9649 O   0  0  0  0  0  0  0  0  0  0  0  0
    0.9639   -3.5438   -1.1709 O   0  0  0  0  0  0  0  0  0  0  0  0
    4.3627   -2.2349    1.5130 O   0  0  0  0  0  0  0  0  0  0  0  0
   -3.6603   -3.2023    0.3997 O   0  0  0  0  0  0  0  0  0  0  0  0
    0.2686    0.5116   -0.4636 C   0  0  2  0  0  0  0  0  0  0  0  0
    1.1905    1.4328    0.4187 C   0  0  1  0  0  0  0  0  0  0  0  0
    2.7202    1.3552    0.1283 C   0  0  1  0  0  0  0  0  0  0  0  0
   -1.0791    0.3467    0.3586 C   0  0  1  0  0  0  0  0  0  0  0  0
    0.9905   -0.8554   -0.7445 C   0  0  1  0  0  0  0  0  0  0  0  0
    2.5190   -0.7222   -0.9059 C   0  0  2  0  0  0  0  0  0  0  0  0
    3.1421   -0.1081    0.3312 C   0  0  1  0  0  0  0  0  0  0  0  0
   -1.6059    1.6781    0.9059 C   0  0  0  0  0  0  0  0  0  0  0  0
   -2.1660   -0.4156   -0.4302 C   0  0  0  0  0  0  0  0  0  0  0  0
   -0.0649    1.1691   -1.8457 C   0  0  0  0  0  0  0  0  0  0  0  0
    0.5314    2.8065    0.4685 C   0  0  0  0  0  0  0  0  0  0  0  0
    3.0022    1.4755   -1.3552 C   0  0  0  0  0  0  0  0  0  0  0  0
   -3.5024   -0.4860    0.3170 C   0  0  1  0  0  0  0  0  0  0  0  0
   -4.0470    0.9232    0.6727 C   0  0  2  0  0  0  0  0  0  0  0  0
   -2.9841    1.6449    1.5333 C   0  0  0  0  0  0  0  0  0  0  0  0
    3.5760    2.3101    0.9597 C   0  0  0  0  0  0  0  0  0  0  0  0
   -0.8907    2.8180    0.9128 C   0  0  0  0  0  0  0  0  0  0  0  0
   -5.3427    0.8046    1.4998 C   0  0  0  0  0  0  0  0  0  0  0  0
   -4.3699    1.7316   -0.5639 C   0  0  0  0  0  0  0  0  0  0  0  0
    0.8064   -3.1035   -0.0402 C   0  0  0  0  0  0  0  0  0  0  0  0
    5.0307   -1.4040    0.9124 C   0  0  0  0  0  0  0  0  0  0  0  0
   -4.8638    2.9741   -0.5380 C   0  0  0  0  0  0  0  0  0  0  0  0
   -4.3920   -2.5709   -0.3506 C   0  0  0  0  0  0  0  0  0  0  0  0
    0.5921   -3.9593    1.1714 C   0  0  0  0  0  0  0  0  0  0  0  0
    6.5214   -1.4681    0.7720 C   0  0  0  0  0  0  0  0  0  0  0  0
   -5.4043   -3.1987   -1.2601 C   0  0  0  0  0  0  0  0  0  0  0  0
    1.1116    1.0753    1.4603 H   0  0  0  0  0  0  0  0  0  0  0  0
   -0.8596   -0.2540    1.2536 H   0  0  0  0  0  0  0  0  0  0  0  0
    0.5713   -1.2636   -1.6732 H   0  0  0  0  0  0  0  0  0  0  0  0
    2.9882   -1.6780   -1.1610 H   0  0  0  0  0  0  0  0  0  0  0  0
    2.7495   -0.5051    1.2748 H   0  0  0  0  0  0  0  0  0  0  0  0
   -2.3370    0.0284   -1.4159 H   0  0  0  0  0  0  0  0  0  0  0  0
   -1.8150   -1.4328   -0.6417 H   0  0  0  0  0  0  0  0  0  0  0  0
    0.7984    1.5927   -2.3556 H   0  0  0  0  0  0  0  0  0  0  0  0
   -0.7921    1.9828   -1.7570 H   0  0  0  0  0  0  0  0  0  0  0  0
   -0.4997    0.4403   -2.5391 H   0  0  0  0  0  0  0  0  0  0  0  0
   -3.3440   -1.0212    1.2647 H   0  0  0  0  0  0  0  0  0  0  0  0
   -2.8840    1.1142    2.4914 H   0  0  0  0  0  0  0  0  0  0  0  0
   -3.3151    2.6577    1.7981 H   0  0  0  0  0  0  0  0  0  0  0  0
    3.3743    3.3586    0.7256 H   0  0  0  0  0  0  0  0  0  0  0  0
    4.6454    2.1665    0.7678 H   0  0  0  0  0  0  0  0  0  0  0  0
    3.4039    2.1581    2.0304 H   0  0  0  0  0  0  0  0  0  0  0  0
   -1.2870    3.7550    1.2869 H   0  0  0  0  0  0  0  0  0  0  0  0
   -5.1901    0.1523    2.3679 H   0  0  0  0  0  0  0  0  0  0  0  0
   -6.1603    0.3731    0.9099 H   0  0  0  0  0  0  0  0  0  0  0  0
   -5.6837    1.7717    1.8866 H   0  0  0  0  0  0  0  0  0  0  0  0
   -4.2253    1.2779   -1.5408 H   0  0  0  0  0  0  0  0  0  0  0  0
   -5.0864    3.4899   -1.4662 H   0  0  0  0  0  0  0  0  0  0  0  0
   -5.0545    3.5069    0.3862 H   0  0  0  0  0  0  0  0  0  0  0  0
    1.3955   -3.7880    1.8923 H   0  0  0  0  0  0  0  0  0  0  0  0
    0.6052   -5.0130    0.8785 H   0  0  0  0  0  0  0  0  0  0  0  0
   -0.3802   -3.7330    1.6164 H   0  0  0  0  0  0  0  0  0  0  0  0
    6.7909   -1.5363   -0.2849 H   0  0  0  0  0  0  0  0  0  0  0  0
    6.8964   -2.3579    1.2857 H   0  0  0  0  0  0  0  0  0  0  0  0
    6.9746   -0.5849    1.2291 H   0  0  0  0  0  0  0  0  0  0  0  0
   -5.1674   -2.9584   -2.2996 H   0  0  0  0  0  0  0  0  0  0  0  0
   -6.4051   -2.8444   -1.0009 H   0  0  0  0  0  0  0  0  0  0  0  0
   -5.3767   -4.2853   -1.1384 H   0  0  0  0  0  0  0  0  0  0  0  0
  1 15  1  0  0  0  0
  1 21  1  0  0  0  0
  2 14  1  0  0  0  0
  2 29  1  0  0  0  0
  3 16  1  0  0  0  0
  3 30  1  0  0  0  0
  4 22  1  0  0  0  0
  4 32  1  0  0  0  0
  5 20  2  0  0  0  0
  6 21  2  0  0  0  0
  7 29  2  0  0  0  0
  8 30  2  0  0  0  0
  9 32  2  0  0  0  0
 10 11  1  0  0  0  0
 10 13  1  0  0  0  0
 10 14  1  0  0  0  0
 10 19  1  0  0  0  0
 11 12  1  0  0  0  0
 11 20  1  0  0  0  0
 11 36  1  0  0  0  0
 12 16  1  0  0  0  0
 12 21  1  0  0  0  0
 12 25  1  0  0  0  0
 13 17  1  0  0  0  0
 13 18  1  0  0  0  0
 13 37  1  0  0  0  0
 14 15  1  0  0  0  0
 14 38  1  0  0  0  0
 15 16  1  0  0  0  0
 15 39  1  0  0  0  0
 16 40  1  0  0  0  0
 17 24  1  0  0  0  0
 17 26  2  0  0  0  0
 18 22  1  0  0  0  0
 18 41  1  0  0  0  0
 18 42  1  0  0  0  0
 19 43  1  0  0  0  0
 19 44  1  0  0  0  0
 19 45  1  0  0  0  0
 20 26  1  0  0  0  0
 22 23  1  0  0  0  0
 22 46  1  0  0  0  0
 23 24  1  0  0  0  0
 23 27  1  0  0  0  0
 23 28  1  0  0  0  0
 24 47  1  0  0  0  0
 24 48  1  0  0  0  0
 25 49  1  0  0  0  0
 25 50  1  0  0  0  0
 25 51  1  0  0  0  0
 26 52  1  0  0  0  0
 27 53  1  0  0  0  0
 27 54  1  0  0  0  0
 27 55  1  0  0  0  0
 28 31  2  0  0  0  0
 28 56  1  0  0  0  0
 29 33  1  0  0  0  0
 30 34  1  0  0  0  0
 31 57  1  0  0  0  0
 31 58  1  0  0  0  0
 32 35  1  0  0  0  0
 33 59  1  0  0  0  0
 33 60  1  0  0  0  0
 33 61  1  0  0  0  0
 34 62  1  0  0  0  0
 34 63  1  0  0  0  0
 34 64  1  0  0  0  0
 35 65  1  0  0  0  0
 35 66  1  0  0  0  0
 35 67  1  0  0  0  0
M  END
> <PUBCHEM_COMPOUND_CID>
139588440

> <PUBCHEM_CONFORMER_RMSD>
1

> <PUBCHEM_CONFORMER_DIVERSEORDER>
1

> <PUBCHEM_MMFF94_PARTIAL_CHARGES>
34
1 -0.43
11 0.06
12 0.06
13 0.14
14 0.28
15 0.28
16 0.28
17 -0.28
2 -0.43
20 0.49
21 0.66
22 0.28
23 0.14
24 0.14
26 -0.14
28 -0.29
29 0.66
3 -0.43
30 0.66
31 -0.3
32 0.66
33 0.06
34 0.06
35 0.06
4 -0.43
5 -0.57
52 0.15
56 0.15
57 0.15
58 0.15
6 -0.57
7 -0.57
8 -0.57
9 -0.57

> <PUBCHEM_EFFECTIVE_ROTOR_COUNT>
8.4

> <PUBCHEM_PHARMACOPHORE_FEATURES>
9
1 31 hydrophobe
1 5 acceptor
1 6 acceptor
1 7 acceptor
1 8 acceptor
1 9 acceptor
6 10 11 13 17 20 26 rings
6 13 17 18 22 23 24 rings
8 1 10 11 12 14 15 16 21 rings

> <PUBCHEM_HEAVY_ATOM_COUNT>
35

> <PUBCHEM_ATOM_DEF_STEREO_COUNT>
8

> <PUBCHEM_ATOM_UDEF_STEREO_COUNT>
1

> <PUBCHEM_BOND_DEF_STEREO_COUNT>
0

> <PUBCHEM_BOND_UDEF_STEREO_COUNT>
0

> <PUBCHEM_ISOTOPIC_ATOM_COUNT>
0

> <PUBCHEM_COMPONENT_COUNT>
1

> <PUBCHEM_CACTVS_TAUTO_COUNT>
-1

> <PUBCHEM_CONFORMER_ID>
0851F35800000001

> <PUBCHEM_MMFF94_ENERGY>
109.6654

> <PUBCHEM_FEATURE_SELFOVERLAP>
45.696

> <PUBCHEM_SHAPE_FINGERPRINT>
1100329 8 18409729582134402114
11578080 2 17028531647997396628
11607047 403 15905410645114881171
11963148 33 17478316991361046103
12166972 35 18187922919244846686
12422481 6 18264479599132242490
12553582 1 18198075693926185961
12633257 1 18341337708181265081
12788726 201 18126579039512193719
13140716 1 18413669110610741048
13224815 77 18201446886723923977
13583140 156 18273207582868817957
14178342 30 18201444631660099145
14725015 67 18267016331746020763
14787075 74 17984986161480993701
17349148 13 18260271836582630043
20028762 73 18201433718344282086
21421861 104 18119540829317049931
22393880 68 18341341041102176341
23559900 14 18130233631600491014
3380486 145 18263652770856903321
350125 39 18336265652916863628
392239 28 18272092698983098378
463206 1 18409735028068212779
5104073 3 18130508625555974513
56638632 33 17978774732195788851
59755656 215 18196655090722878222

> <PUBCHEM_SHAPE_MULTIPOLES>
667.46
11.41
4.73
1.48
0.88
2.39
-0.33
3.63
1.57
1.86
0.18
-0.36
-0.19
-1.9

> <PUBCHEM_SHAPE_SELFOVERLAP>
1433.076

> <PUBCHEM_SHAPE_VOLUME>
361

> <PUBCHEM_COORDINATE_TYPE>
2
5
10

$$$$
