REMARK  Name = 139589374
REMARK  9 active torsions:
REMARK  status: ('A' for Active; 'I' for Inactive)
REMARK    1  A    between atoms: C_1  and  C_12
REMARK    2  A    between atoms: C_2  and  N_5
REMARK    3  A    between atoms: N_4  and  N_5
REMARK    4  A    between atoms: N_4  and  C_6
REMARK    5  A    between atoms: C_6  and  C_8
REMARK    6  A    between atoms: C_8  and  O_10
REMARK    7  A    between atoms: C_12  and  C_15
REMARK    8  A    between atoms: C_12  and  C_18
REMARK    9  A    between atoms: C_18  and  C_19
REMARK                            x       y       z     vdW  Elec       q    Type
REMARK                         _______ _______ _______ _____ _____    ______ ____
ROOT
ATOM      1  C   UNL     1       1.062  -0.156   0.292  0.00  0.00    +0.005 C 
ATOM      2  C   UNL     1      -0.092   0.001  -0.365  0.00  0.00    +0.120 C 
ENDROOT
BRANCH   2   4
ATOM      3  O   UNL     1      -1.258  -0.503   1.646  0.00  0.00    -0.066 OA
ATOM      4  N   UNL     1      -1.284  -0.193   0.396  0.00  0.00    -0.128 N 
BRANCH   4   5
ATOM      5  N   UNL     1      -2.360  -0.030  -0.284  0.00  0.00    -0.092 NA
BRANCH   5   6
ATOM      6  C   UNL     1      -3.594  -0.226   0.482  0.00  0.00    +0.125 C 
ATOM      7  C   UNL     1      -3.954  -1.706   0.419  0.00  0.00    +0.024 C 
BRANCH   6   8
ATOM      8  C   UNL     1      -4.705   0.668  -0.089  0.00  0.00    +0.129 C 
ATOM      9  C   UNL     1      -4.359   2.151  -0.043  0.00  0.00    +0.033 C 
BRANCH   8  10
ATOM     10  O   UNL     1      -5.005   0.304  -1.435  0.00  0.00    -0.383 OA
ATOM     11  H   UNL     1      -5.227  -0.639  -1.473  0.00  0.00    +0.210 HD
ENDBRANCH   8  10
ENDBRANCH   6   8
ENDBRANCH   5   6
ENDBRANCH   4   5
ENDBRANCH   2   4
BRANCH   1  12
ATOM     12  C   UNL     1       2.409   0.014  -0.364  0.00  0.00    +0.100 C 
BRANCH  12  15
ATOM     13  O   UNL     1       3.365  -1.887   0.805  0.00  0.00    -0.275 OA
ATOM     14  N   UNL     1       3.381  -1.903  -1.492  0.00  0.00    -0.329 N 
ATOM     15  C   UNL     1       3.105  -1.340  -0.264  0.00  0.00    +0.223 C 
ATOM     16  H   UNL     1       3.830  -2.777  -1.542  0.00  0.00    +0.145 HD
ATOM     17  H   UNL     1       3.130  -1.430  -2.318  0.00  0.00    +0.145 HD
ENDBRANCH  12  15
BRANCH  12  18
ATOM     18  C   UNL     1       3.256   1.101   0.320  0.00  0.00    +0.014 C 
BRANCH  18  19
ATOM     19  C   UNL     1       4.616   1.303  -0.353  0.00  0.00    +0.001 C 
ATOM     20  C   UNL     1       5.416   2.401   0.331  0.00  0.00    +0.000 C 
ENDBRANCH  18  19
ENDBRANCH  12  18
ENDBRANCH   1  12
TORSDOF 9
