139584465
  -OEChem-03292013293D

 34 36  0     0  0  0  0  0  0999 V2000
   -0.2639    0.7911   -0.0048 O   0  0  0  0  0  0  0  0  0  0  0  0
    1.9911   -0.0453    2.4038 O   0  0  0  0  0  0  0  0  0  0  0  0
   -4.3242   -1.8564    0.0221 O   0  0  0  0  0  0  0  0  0  0  0  0
   -1.9286   -2.9273    0.0387 O   0  0  0  0  0  0  0  0  0  0  0  0
    6.0534    0.6464    0.0226 O   0  0  0  0  0  0  0  0  0  0  0  0
   -4.5237    2.8881   -0.0241 O   0  0  0  0  0  0  0  0  0  0  0  0
    1.9691   -0.0924   -0.0007 C   0  0  0  0  0  0  0  0  0  0  0  0
    0.5160   -0.3553   -0.0027 C   0  0  0  0  0  0  0  0  0  0  0  0
   -2.2633   -0.5880    0.0092 C   0  0  0  0  0  0  0  0  0  0  0  0
    2.6657    0.0119   -1.2047 C   0  0  0  0  0  0  0  0  0  0  0  0
   -1.6288    0.6530   -0.0033 C   0  0  0  0  0  0  0  0  0  0  0  0
    0.0238   -1.6043    0.0165 C   0  0  0  0  0  0  0  0  0  0  0  0
   -1.4391   -1.8063    0.0226 C   0  0  0  0  0  0  0  0  0  0  0  0
    2.6450    0.0514    1.2109 C   0  0  0  0  0  0  0  0  0  0  0  0
   -3.6578   -0.6686    0.0101 C   0  0  0  0  0  0  0  0  0  0  0  0
    4.0383    0.2602   -1.1970 C   0  0  0  0  0  0  0  0  0  0  0  0
   -2.3874    1.8238   -0.0142 C   0  0  0  0  0  0  0  0  0  0  0  0
    4.0176    0.2996    1.2186 C   0  0  0  0  0  0  0  0  0  0  0  0
    1.9770   -0.1369   -2.5236 C   0  0  0  0  0  0  0  0  0  0  0  0
    4.7142    0.4039    0.0147 C   0  0  0  0  0  0  0  0  0  0  0  0
   -3.7804    1.7476   -0.0134 C   0  0  0  0  0  0  0  0  0  0  0  0
   -4.4140    0.5041   -0.0014 C   0  0  0  0  0  0  0  0  0  0  0  0
    0.6580   -2.4837    0.0260 H   0  0  0  0  0  0  0  0  0  0  0  0
    4.5863    0.3418   -2.1327 H   0  0  0  0  0  0  0  0  0  0  0  0
   -1.8964    2.7936   -0.0235 H   0  0  0  0  0  0  0  0  0  0  0  0
    4.5527    0.4131    2.1582 H   0  0  0  0  0  0  0  0  0  0  0  0
    1.5811   -1.1511   -2.6391 H   0  0  0  0  0  0  0  0  0  0  0  0
    1.1609    0.5870   -2.6198 H   0  0  0  0  0  0  0  0  0  0  0  0
    2.6601    0.0414   -3.3616 H   0  0  0  0  0  0  0  0  0  0  0  0
   -5.4999    0.4434   -0.0007 H   0  0  0  0  0  0  0  0  0  0  0  0
    2.6272    0.0822    3.1283 H   0  0  0  0  0  0  0  0  0  0  0  0
   -3.6990   -2.5973    0.0258 H   0  0  0  0  0  0  0  0  0  0  0  0
    6.3723    0.6877   -0.8954 H   0  0  0  0  0  0  0  0  0  0  0  0
   -5.4668    2.6503   -0.0218 H   0  0  0  0  0  0  0  0  0  0  0  0
  1  8  1  0  0  0  0
  1 11  1  0  0  0  0
  2 14  1  0  0  0  0
  2 31  1  0  0  0  0
  3 15  1  0  0  0  0
  3 32  1  0  0  0  0
  4 13  2  0  0  0  0
  5 20  1  0  0  0  0
  5 33  1  0  0  0  0
  6 21  1  0  0  0  0
  6 34  1  0  0  0  0
  7  8  1  0  0  0  0
  7 10  1  0  0  0  0
  7 14  2  0  0  0  0
  8 12  2  0  0  0  0
  9 11  1  0  0  0  0
  9 13  1  0  0  0  0
  9 15  2  0  0  0  0
 10 16  2  0  0  0  0
 10 19  1  0  0  0  0
 11 17  2  0  0  0  0
 12 13  1  0  0  0  0
 12 23  1  0  0  0  0
 14 18  1  0  0  0  0
 15 22  1  0  0  0  0
 16 20  1  0  0  0  0
 16 24  1  0  0  0  0
 17 21  1  0  0  0  0
 17 25  1  0  0  0  0
 18 20  2  0  0  0  0
 18 26  1  0  0  0  0
 19 27  1  0  0  0  0
 19 28  1  0  0  0  0
 19 29  1  0  0  0  0
 21 22  2  0  0  0  0
 22 30  1  0  0  0  0
M  END
> <PUBCHEM_COMPOUND_CID>
139584465

> <PUBCHEM_CONFORMER_RMSD>
0.6

> <PUBCHEM_CONFORMER_DIVERSEORDER>
1
3
5
4
2

> <PUBCHEM_MMFF94_PARTIAL_CHARGES>
31
1 -0.16
10 -0.14
11 0.08
12 -0.14
13 0.47
14 0.08
15 0.08
16 -0.15
17 -0.15
18 -0.15
19 0.14
2 -0.53
20 0.08
21 0.08
22 -0.15
23 0.15
24 0.15
25 0.15
26 0.15
3 -0.53
30 0.15
31 0.45
32 0.45
33 0.45
34 0.45
4 -0.57
5 -0.53
6 -0.53
7 0.03
8 0.05
9 0.09

> <PUBCHEM_EFFECTIVE_ROTOR_COUNT>
1

> <PUBCHEM_PHARMACOPHORE_FEATURES>
9
1 1 acceptor
1 2 donor
1 3 donor
1 4 acceptor
1 5 donor
1 6 donor
6 1 8 9 11 12 13 rings
6 7 10 14 16 18 20 rings
6 9 11 15 17 21 22 rings

> <PUBCHEM_HEAVY_ATOM_COUNT>
22

> <PUBCHEM_ATOM_DEF_STEREO_COUNT>
0

> <PUBCHEM_ATOM_UDEF_STEREO_COUNT>
0

> <PUBCHEM_BOND_DEF_STEREO_COUNT>
0

> <PUBCHEM_BOND_UDEF_STEREO_COUNT>
0

> <PUBCHEM_ISOTOPIC_ATOM_COUNT>
0

> <PUBCHEM_COMPONENT_COUNT>
1

> <PUBCHEM_CACTVS_TAUTO_COUNT>
-1

> <PUBCHEM_CONFORMER_ID>
0851E3D100000001

> <PUBCHEM_MMFF94_ENERGY>
68.1324

> <PUBCHEM_FEATURE_SELFOVERLAP>
45.701

> <PUBCHEM_SHAPE_FINGERPRINT>
10319926 262 18269817823096057106
10366900 7 17418371385227286984
10411042 1 17834114521993390043
10498660 4 18341050714134986961
10646746 165 18342174457830616136
11640471 11 17749119901747219916
11796584 16 18342742889075547542
12107183 9 17901374607337822122
12236239 1 17748824142247365562
12390115 104 18200324217022839449
12403259 415 17846492664488308200
12403814 3 17385439904348580813
12788726 201 17535208931227736147
13140716 1 18048602809358942571
13538477 17 17968376861253535170
13583140 156 17917709141148579510
13911987 19 16486979557196004632
13965767 371 17679020391858389764
14294032 229 18263077731277835253
14386348 63 17632302306440345974
14739800 52 18119809364481379284
15042514 8 18193280908781454355
15375358 24 17988926669252067836
16752209 62 18408599288549777555
16945 1 18410575123903632835
16988056 13 15523184600252669613
18186145 218 17775006760888998107
18915476 22 16845021121196088015
200 152 16226040119684587087
20510252 161 18344148085850837161
20511986 3 17749376100831201388
20645477 70 16630538301913967758
21033648 29 17632002113679700800
21065201 7 18342458157743181178
23366157 5 17825951425081841603
23402539 116 18413665820718416524
23557571 272 18272939348954189460
23559900 14 18200320918397960670
3268164 11 18343011212371047191
3472631 163 18409168809502832516
34797466 226 17986972915058817756
38570 142 16662933264674498452
469060 322 18264793063604993129
474 4 16879359028862734652
495365 180 17416956253738435022
5104073 3 18336548213781569347
77492 1 17603864537678467950
7808743 9 18337390439889320857
9849439 229 17905044756004477709

> <PUBCHEM_SHAPE_MULTIPOLES>
417.53
10.41
2.04
1.39
3.75
0.27
0.2
-3.73
-0.2
-3.67
-0.02
1.97
0
0.15

> <PUBCHEM_SHAPE_SELFOVERLAP>
933.818

> <PUBCHEM_SHAPE_VOLUME>
222.9

> <PUBCHEM_COORDINATE_TYPE>
2
5
10

$$$$
