REMARK  Name = 139589504
REMARK  13 active torsions:
REMARK  status: ('A' for Active; 'I' for Inactive)
REMARK    1  A    between atoms: C_1  and  C_18
REMARK    2  A    between atoms: C_2  and  C_3
REMARK    3  A    between atoms: C_4  and  C_6
REMARK    4  A    between atoms: C_6  and  C_7
REMARK    5  A    between atoms: C_7  and  O_8
REMARK    6  A    between atoms: C_7  and  C_10
REMARK    7  A    between atoms: C_11  and  C_12
REMARK    8  A    between atoms: C_14  and  C_15
REMARK    9  A    between atoms: C_15  and  O_16
REMARK   10  A    between atoms: C_18  and  O_19
REMARK   11  A    between atoms: C_18  and  C_21
REMARK   12  A    between atoms: C_21  and  C_24
REMARK   13  A    between atoms: C_26  and  O_31
REMARK                            x       y       z     vdW  Elec       q    Type
REMARK                         _______ _______ _______ _____ _____    ______ ____
ROOT
ATOM      1  C   UNL     1       0.652  -0.683  -0.968  0.00  0.00    +0.002 C 
ATOM      2  C   UNL     1      -0.104   0.218  -0.319  0.00  0.00    -0.007 C 
ENDROOT
BRANCH   2   3
ATOM      3  C   UNL     1      -1.111   1.103  -0.907  0.00  0.00    -0.026 C 
ATOM      4  C   UNL     1      -1.778   1.950  -0.095  0.00  0.00    -0.028 C 
ATOM      5  C   UNL     1      -1.328   1.025  -2.396  0.00  0.00    +0.031 C 
BRANCH   4   6
ATOM      6  C   UNL     1      -2.864   2.932  -0.460  0.00  0.00    +0.059 C 
BRANCH   6   7
ATOM      7  C   UNL     1      -4.186   2.698   0.291  0.00  0.00    +0.137 C 
BRANCH   7   8
ATOM      8  O   UNL     1      -3.994   2.928   1.685  0.00  0.00    -0.380 OA
ATOM      9  H   UNL     1      -3.609   3.808   1.818  0.00  0.00    +0.211 HD
ENDBRANCH   7   8
BRANCH   7  10
ATOM     10  C   UNL     1      -4.784   1.339   0.026  0.00  0.00    +0.003 C 
ATOM     11  C   UNL     1      -5.046   0.398   0.948  0.00  0.00    -0.007 C 
BRANCH  11  12
ATOM     12  C   UNL     1      -5.602  -0.921   0.662  0.00  0.00    -0.024 C 
ATOM     13  C   UNL     1      -5.009  -2.011   1.512  0.00  0.00    +0.031 C 
ATOM     14  C   UNL     1      -6.578  -1.089  -0.252  0.00  0.00    +0.001 C 
BRANCH  14  15
ATOM     15  C   UNL     1      -7.269  -2.360  -0.637  0.00  0.00    +0.163 C 
BRANCH  15  16
ATOM     16  O   UNL     1      -8.660  -2.213  -0.376  0.00  0.00    -0.377 OA
ATOM     17  H   UNL     1      -9.123  -3.030  -0.620  0.00  0.00    +0.211 HD
ENDBRANCH  15  16
ENDBRANCH  14  15
ENDBRANCH  11  12
ENDBRANCH   7  10
ENDBRANCH   6   7
ENDBRANCH   4   6
ENDBRANCH   2   3
BRANCH   1  18
ATOM     18  C   UNL     1       1.669  -1.555  -0.283  0.00  0.00    +0.136 C 
BRANCH  18  19
ATOM     19  O   UNL     1       1.254  -2.909  -0.453  0.00  0.00    -0.380 OA
ATOM     20  H   UNL     1       1.891  -3.499  -0.021  0.00  0.00    +0.211 HD
ENDBRANCH  18  19
BRANCH  18  21
ATOM     21  C   UNL     1       3.059  -1.349  -0.894  0.00  0.00    +0.078 C 
BRANCH  21  24
ATOM     22  O   UNL     1       3.502   0.468   0.647  0.00  0.00    -0.449 OA
ATOM     23  O   UNL     1       4.328   0.230   2.733  0.00  0.00    -0.245 OA
ATOM     24  C   UNL     1       3.560   0.088  -0.747  0.00  0.00    +0.179 C 
ATOM     25  C   UNL     1       4.968   0.312  -1.306  0.00  0.00    +0.097 C 
ATOM     26  C   UNL     1       5.973  -0.297  -0.369  0.00  0.00    +0.116 C 
ATOM     27  C   UNL     1       5.268   1.802  -1.491  0.00  0.00    +0.012 C 
ATOM     28  C   UNL     1       5.742  -0.427   0.948  0.00  0.00    +0.083 C 
ATOM     29  C   UNL     1       4.478   0.107   1.522  0.00  0.00    +0.340 C 
ATOM     30  C   UNL     1       6.708  -1.038   1.919  0.00  0.00    +0.041 C 
BRANCH  26  31
ATOM     31  O   UNL     1       7.149  -0.744  -0.940  0.00  0.00    -0.510 OA
ATOM     32  H   UNL     1       7.290  -0.643  -1.861  0.00  0.00    +0.292 HD
ENDBRANCH  26  31
ENDBRANCH  21  24
ENDBRANCH  18  21
ENDBRANCH   1  18
TORSDOF 13
