REMARK  Name = 139585748
REMARK  14 active torsions:
REMARK  status: ('A' for Active; 'I' for Inactive)
REMARK    1  A    between atoms: C_1  and  C_20
REMARK    2  A    between atoms: C_2  and  C_4
REMARK    3  A    between atoms: C_3  and  C_8
REMARK    4  A    between atoms: C_9  and  O_13
REMARK    5  A    between atoms: C_11  and  C_15
REMARK    6  A    between atoms: C_15  and  C_17
REMARK    7  A    between atoms: C_17  and  O_18
REMARK    8  A    between atoms: C_20  and  C_22
REMARK    9  A    between atoms: C_22  and  C_24
REMARK   10  A    between atoms: C_25  and  C_27
REMARK   11  A    between atoms: C_27  and  C_29
REMARK   12  A    between atoms: C_29  and  O_30
REMARK   13  A    between atoms: C_29  and  C_32
REMARK   14  A    between atoms: C_32  and  O_34
REMARK                            x       y       z     vdW  Elec       q    Type
REMARK                         _______ _______ _______ _____ _____    ______ ____
ROOT
ATOM      1  C   UNL     1       1.260   2.583   0.507  0.00  0.00    -0.026 C 
ATOM      2  C   UNL     1       0.427   1.968  -0.349  0.00  0.00    -0.005 C 
ENDROOT
BRANCH   2   4
ATOM      3  C   UNL     1      -1.543   0.460  -0.688  0.00  0.00    -0.017 C 
ATOM      4  C   UNL     1      -0.659   1.117   0.087  0.00  0.00    -0.007 C 
ATOM      5  C   UNL     1      -1.583   0.474  -2.192  0.00  0.00    +0.029 C 
BRANCH   3   8
ATOM      6  O   UNL     1      -3.866   0.220  -0.405  0.00  0.00    -0.354 OA
ATOM      7  C   UNL     1      -2.577  -1.853  -0.525  0.00  0.00    +0.058 C 
ATOM      8  C   UNL     1      -2.610  -0.381  -0.060  0.00  0.00    +0.136 C 
ATOM      9  C   UNL     1      -3.791  -2.610   0.046  0.00  0.00    +0.116 C 
ATOM     10  C   UNL     1      -5.088  -1.856  -0.235  0.00  0.00    +0.059 C 
ATOM     11  C   UNL     1      -4.978  -0.409   0.235  0.00  0.00    +0.129 C 
ATOM     12  C   UNL     1      -1.275  -2.566  -0.138  0.00  0.00    +0.005 C 
BRANCH   9  13
ATOM     13  O   UNL     1      -3.870  -3.906  -0.540  0.00  0.00    -0.384 OA
ATOM     14  H   UNL     1      -3.049  -4.391  -0.365  0.00  0.00    +0.210 HD
ENDBRANCH   9  13
BRANCH  11  15
ATOM     15  C   UNL     1      -6.229   0.381  -0.125  0.00  0.00    +0.139 C 
BRANCH  15  17
ATOM     16  O   UNL     1      -5.554   2.041   1.527  0.00  0.00    -0.250 OA
ATOM     17  C   UNL     1      -6.345   1.646   0.684  0.00  0.00    +0.316 C 
BRANCH  17  18
ATOM     18  O   UNL     1      -7.478   2.312   0.341  0.00  0.00    -0.480 OA
ATOM     19  H   UNL     1      -8.048   1.960  -0.314  0.00  0.00    +0.295 HD
ENDBRANCH  17  18
ENDBRANCH  15  17
ENDBRANCH  11  15
ENDBRANCH   3   8
ENDBRANCH   2   4
BRANCH   1  20
ATOM     20  C   UNL     1       2.397   3.477   0.070  0.00  0.00    +0.024 C 
ATOM     21  C   UNL     1       2.160   4.893   0.602  0.00  0.00    +0.005 C 
BRANCH  20  22
ATOM     22  C   UNL     1       3.755   2.947   0.568  0.00  0.00    +0.034 C 
BRANCH  22  24
ATOM     23  O   UNL     1       5.076   0.873   0.512  0.00  0.00    -0.356 OA
ATOM     24  C   UNL     1       4.264   1.789  -0.239  0.00  0.00    +0.118 C 
ATOM     25  C   UNL     1       3.786   0.392   0.113  0.00  0.00    +0.142 C 
ATOM     26  C   UNL     1       4.803   2.109  -1.598  0.00  0.00    +0.032 C 
BRANCH  25  27
ATOM     27  C   UNL     1       3.813  -0.748  -0.841  0.00  0.00    +0.059 C 
ATOM     28  C   UNL     1       2.591  -0.737  -1.757  0.00  0.00    +0.005 C 
BRANCH  27  29
ATOM     29  C   UNL     1       3.958  -2.127  -0.117  0.00  0.00    +0.144 C 
BRANCH  29  30
ATOM     30  O   UNL     1       4.991  -2.000   0.866  0.00  0.00    -0.351 OA
ATOM     31  C   UNL     1       6.274  -1.991   0.262  0.00  0.00    +0.174 C 
ENDBRANCH  29  30
BRANCH  29  32
ATOM     32  C   UNL     1       2.702  -2.704   0.559  0.00  0.00    +0.138 C 
ATOM     33  C   UNL     1       2.947  -4.019   1.287  0.00  0.00    +0.034 C 
BRANCH  32  34
ATOM     34  O   UNL     1       2.242  -1.772   1.543  0.00  0.00    -0.382 OA
ATOM     35  H   UNL     1       2.073  -0.914   1.122  0.00  0.00    +0.210 HD
ENDBRANCH  32  34
ENDBRANCH  29  32
ENDBRANCH  27  29
ENDBRANCH  25  27
ENDBRANCH  22  24
ENDBRANCH  20  22
ENDBRANCH   1  20
TORSDOF 14
