139584746
  -OEChem-03292013293D

 31 33  0     0  0  0  0  0  0999 V2000
    0.4506   -0.9785    0.0129 O   0  0  0  0  0  0  0  0  0  0  0  0
    4.3808    0.5410   -0.0357 O   0  0  0  0  0  0  0  0  0  0  0  0
    0.8915    3.0804   -0.0189 O   0  0  0  0  0  0  0  0  0  0  0  0
   -4.2917   -0.6132    0.0550 O   0  0  0  0  0  0  0  0  0  0  0  0
   -4.1082    2.1404    0.0360 O   0  0  0  0  0  0  0  0  0  0  0  0
   -2.6762   -2.7231   -1.0364 O   0  0  0  0  0  0  0  0  0  0  0  0
   -1.5414   -2.9833    0.9158 O   0  0  0  0  0  0  0  0  0  0  0  0
    1.9193    0.9440   -0.0135 C   0  0  0  0  0  0  0  0  0  0  0  0
   -0.5706    1.2273    0.0083 C   0  0  0  0  0  0  0  0  0  0  0  0
    1.6894   -0.3748   -0.0026 C   0  0  0  0  0  0  0  0  0  0  0  0
   -0.6558   -0.1656    0.0181 C   0  0  0  0  0  0  0  0  0  0  0  0
    0.7591    1.8642   -0.0089 C   0  0  0  0  0  0  0  0  0  0  0  0
    3.3105    1.5034   -0.0305 C   0  0  0  0  0  0  0  0  0  0  0  0
   -1.9037   -0.7890    0.0335 C   0  0  0  0  0  0  0  0  0  0  0  0
    2.8090   -1.2753   -0.0074 C   0  0  0  0  0  0  0  0  0  0  0  0
   -1.7320    2.0038    0.0143 C   0  0  0  0  0  0  0  0  0  0  0  0
    4.0660   -0.8024   -0.0233 C   0  0  0  0  0  0  0  0  0  0  0  0
   -3.0648   -0.0157    0.0393 C   0  0  0  0  0  0  0  0  0  0  0  0
   -2.9790    1.3772    0.0299 C   0  0  0  0  0  0  0  0  0  0  0  0
    5.2502   -1.7157   -0.0295 C   0  0  0  0  0  0  0  0  0  0  0  0
   -2.0032   -2.2451    0.0436 C   0  0  0  0  0  0  0  0  0  0  0  0
    3.4442    2.1300   -0.9195 H   0  0  0  0  0  0  0  0  0  0  0  0
    3.4617    2.1400    0.8486 H   0  0  0  0  0  0  0  0  0  0  0  0
    2.6092   -2.3420    0.0017 H   0  0  0  0  0  0  0  0  0  0  0  0
   -1.6715    3.0890    0.0069 H   0  0  0  0  0  0  0  0  0  0  0  0
    5.8560   -1.5411   -0.9245 H   0  0  0  0  0  0  0  0  0  0  0  0
    4.9620   -2.7720   -0.0198 H   0  0  0  0  0  0  0  0  0  0  0  0
    5.8742   -1.5297    0.8506 H   0  0  0  0  0  0  0  0  0  0  0  0
   -4.2056   -1.5795    0.0782 H   0  0  0  0  0  0  0  0  0  0  0  0
   -3.8568    3.0800    0.0278 H   0  0  0  0  0  0  0  0  0  0  0  0
   -2.7403   -3.7020   -1.0231 H   0  0  0  0  0  0  0  0  0  0  0  0
  1 10  1  0  0  0  0
  1 11  1  0  0  0  0
  2 13  1  0  0  0  0
  2 17  1  0  0  0  0
  3 12  2  0  0  0  0
  4 18  1  0  0  0  0
  4 29  1  0  0  0  0
  5 19  1  0  0  0  0
  5 30  1  0  0  0  0
  6 21  1  0  0  0  0
  6 31  1  0  0  0  0
  7 21  2  0  0  0  0
  8 10  2  0  0  0  0
  8 12  1  0  0  0  0
  8 13  1  0  0  0  0
  9 11  1  0  0  0  0
  9 12  1  0  0  0  0
  9 16  2  0  0  0  0
 10 15  1  0  0  0  0
 11 14  2  0  0  0  0
 13 22  1  0  0  0  0
 13 23  1  0  0  0  0
 14 18  1  0  0  0  0
 14 21  1  0  0  0  0
 15 17  2  0  0  0  0
 15 24  1  0  0  0  0
 16 19  1  0  0  0  0
 16 25  1  0  0  0  0
 17 20  1  0  0  0  0
 18 19  2  0  0  0  0
 20 26  1  0  0  0  0
 20 27  1  0  0  0  0
 20 28  1  0  0  0  0
M  END
> <PUBCHEM_COMPOUND_CID>
139584746

> <PUBCHEM_CONFORMER_RMSD>
0.6

> <PUBCHEM_CONFORMER_DIVERSEORDER>
1

> <PUBCHEM_MMFF94_PARTIAL_CHARGES>
26
1 -0.16
10 0.08
11 0.08
12 0.47
13 0.42
14 0.09
15 -0.15
16 -0.15
17 -0.06
18 0.08
19 0.08
2 -0.36
20 0.14
21 0.63
24 0.15
25 0.15
29 0.45
3 -0.57
30 0.45
31 0.5
4 -0.53
5 -0.53
6 -0.65
7 -0.57
8 -0.12
9 0.09

> <PUBCHEM_EFFECTIVE_ROTOR_COUNT>
1.4

> <PUBCHEM_PHARMACOPHORE_FEATURES>
11
1 1 acceptor
1 2 acceptor
1 3 acceptor
1 4 donor
1 5 donor
1 6 acceptor
1 7 acceptor
3 6 7 21 anion
6 1 8 9 10 11 12 rings
6 2 8 10 13 15 17 rings
6 9 11 14 16 18 19 rings

> <PUBCHEM_HEAVY_ATOM_COUNT>
21

> <PUBCHEM_ATOM_DEF_STEREO_COUNT>
0

> <PUBCHEM_ATOM_UDEF_STEREO_COUNT>
0

> <PUBCHEM_BOND_DEF_STEREO_COUNT>
0

> <PUBCHEM_BOND_UDEF_STEREO_COUNT>
0

> <PUBCHEM_ISOTOPIC_ATOM_COUNT>
0

> <PUBCHEM_COMPONENT_COUNT>
1

> <PUBCHEM_CACTVS_TAUTO_COUNT>
-1

> <PUBCHEM_CONFORMER_ID>
0851E4EA00000001

> <PUBCHEM_MMFF94_ENERGY>
61.7981

> <PUBCHEM_FEATURE_SELFOVERLAP>
55.939

> <PUBCHEM_SHAPE_FINGERPRINT>
10062212 137 18335697234958053322
10616163 171 18340209690929547918
10967382 1 18410293601106989696
1100329 8 18410857629129273321
11132069 177 18410849950086294680
11578080 2 17130132337768544987
11680986 33 18340200920310917400
12553582 1 18335973199586993650
12555020 224 18338507535054600103
12715332 25 18343585127381294915
13140716 1 18412269466504543466
14115302 16 18187092766538564108
14223421 5 18122905597002026736
14790565 3 18123196696890548337
14965852 173 18411981407290343610
15042514 8 18409454695848383571
15099037 51 18337953376920345381
15196674 1 18410575071947293896
15442244 35 18410856577057191496
15536298 74 18341892996224311960
16945 1 18337675333701852705
17492 89 18266740366848347054
17804303 29 18412829062247067116
17859628 97 18262519165530857443
1813 80 17385442112067337516
19141452 34 18342457019349565764
19591789 44 18265052427283006603
200 152 17989199322255364388
20510252 161 18271247127623999121
21267235 1 18410302397284706754
21478907 32 18196368346074665143
21501502 16 18337956812746541060
221490 88 18264495160056647114
23184049 29 18339365295720925318
2334 1 17762059139535675489
23366157 5 17970062456035289716
23402539 116 18270673165031175580
23463225 33 18409731751119149708
23557571 272 18272378546927372084
23558518 356 18043534021445684968
23559900 14 18341890767457863392
2748010 2 17834674173068257157
3084891 72 18268427923627263321
3178227 256 18337123267960620001
335352 9 18338798896940699924
34934 24 18409442558038488530
350125 39 18410016537911498841
4214541 1 18411138013452874124
5104073 3 18411419505541162464
54173680 148 18337675324969350483
559249 180 18263922146900308458
633830 44 17240207638191830072
69090 78 18410009897290295673
7364860 26 18269273645991563760
7832392 63 18410571790613190440
8809292 202 18408325509748234010
9709674 26 18338800129791479294
9981440 41 17397828359457284544

> <PUBCHEM_SHAPE_MULTIPOLES>
391.08
8.27
3.1
0.66
5.54
0.41
0.01
1.8
0.19
-1.45
-0.01
-0.12
0.2
-0.13

> <PUBCHEM_SHAPE_SELFOVERLAP>
874.836

> <PUBCHEM_SHAPE_VOLUME>
207.5

> <PUBCHEM_COORDINATE_TYPE>
2
5
10

$$$$
