REMARK  Name = 139589448
REMARK  13 active torsions:
REMARK  status: ('A' for Active; 'I' for Inactive)
REMARK    1  A    between atoms: N_2  and  CA_5
REMARK    2  A    between atoms: C_3  and  CA_20
REMARK    3  A    between atoms: CA_5  and  C_9
REMARK    4  A    between atoms: N_8  and  CA_11
REMARK    5  A    between atoms: CA_11  and  C_13
REMARK    6  A    between atoms: CA_11  and  CB_16
REMARK    7  A    between atoms: C_13  and  O_14
REMARK    8  A    between atoms: CB_16  and  CG_17
REMARK    9  A    between atoms: CA_20  and  N_22
REMARK   10  A    between atoms: CA_20  and  C_31
REMARK   11  A    between atoms: C_23  and  C_25
REMARK   12  A    between atoms: C_31  and  C_32
REMARK   13  A    between atoms: C_32  and  O_33
REMARK                            x       y       z     vdW  Elec       q    Type
REMARK                         _______ _______ _______ _____ _____    ______ ____
ROOT
ATOM      1  O   UNL     1      -0.157   0.174  -0.441  0.00  0.00    -0.273 OA
ATOM      2  N   UNL     1       0.678  -1.924   0.091  0.00  0.00    -0.297 N 
ATOM      3  C   UNL     1      -0.336  -1.002  -0.130  0.00  0.00    +0.241 C 
ATOM      4  H   UNL     1       0.434  -2.846   0.336  0.00  0.00    +0.150 HD
ENDROOT
BRANCH   2   5
ATOM      5  CA  UNL     1       2.075  -1.583  -0.025  0.00  0.00    +0.149 C 
ATOM      6  CB  UNL     1       2.888  -2.796  -0.450  0.00  0.00    +0.031 C 
BRANCH   5   9
ATOM      7  O   UNL     1       2.073  -1.563   2.372  0.00  0.00    -0.273 OA
ATOM      8  N   UNL     1       3.457   0.002   1.331  0.00  0.00    -0.268 N 
ATOM      9  C   UNL     1       2.537  -1.069   1.338  0.00  0.00    +0.244 C 
ATOM     10  C   UNL     1       3.880   0.550   2.625  0.00  0.00    +0.115 C 
BRANCH   8  11
ATOM     11  CA  UNL     1       4.079   0.590   0.174  0.00  0.00    +0.175 C 
BRANCH  11  13
ATOM     12  OXT UNL     1       6.347   1.094  -0.503  0.00  0.00    -0.248 OA
ATOM     13  C   UNL     1       5.582   0.369   0.125  0.00  0.00    +0.332 C 
BRANCH  13  14
ATOM     14  O   UNL     1       6.011  -0.731   0.790  0.00  0.00    -0.479 OA
ATOM     15  H   UNL     1       5.399  -1.262   1.259  0.00  0.00    +0.295 HD
ENDBRANCH  13  14
ENDBRANCH  11  13
BRANCH  11  16
ATOM     16  CB  UNL     1       3.684   2.063  -0.014  0.00  0.00    +0.031 C 
BRANCH  16  17
ATOM     17  CG  UNL     1       3.679   2.628  -1.452  0.00  0.00    +0.002 C 
ATOM     18  CD1 UNL     1       2.685   1.829  -2.304  0.00  0.00    +0.000 C 
ATOM     19  CD2 UNL     1       3.335   4.113  -1.531  0.00  0.00    +0.000 C 
ENDBRANCH  16  17
ENDBRANCH  11  16
ENDBRANCH   8  11
ENDBRANCH   5   9
ENDBRANCH   2   5
BRANCH   3  20
ATOM     20  CA  UNL     1      -1.721  -1.602   0.090  0.00  0.00    +0.151 C 
BRANCH  20  22
ATOM     21  O   UNL     1      -4.169  -1.411   1.578  0.00  0.00    -0.270 OA
ATOM     22  N   UNL     1      -2.702  -0.551   0.001  0.00  0.00    -0.295 N 
ATOM     23  C   UNL     1      -3.862  -0.544   0.764  0.00  0.00    +0.246 C 
ATOM     24  H   UNL     1      -2.544   0.191  -0.626  0.00  0.00    +0.150 HD
BRANCH  23  25
ATOM     25  C   UNL     1      -4.785   0.597   0.536  0.00  0.00    +0.053 C 
ATOM     26  C   UNL     1      -6.150   0.450   0.779  0.00  0.00    +0.005 C 
ATOM     27  C   UNL     1      -4.286   1.817   0.079  0.00  0.00    +0.005 C 
ATOM     28  C   UNL     1      -7.017   1.522   0.566  0.00  0.00    +0.000 C 
ATOM     29  C   UNL     1      -5.152   2.889  -0.135  0.00  0.00    +0.000 C 
ATOM     30  C   UNL     1      -6.517   2.742   0.109  0.00  0.00    +0.000 C 
ENDBRANCH  23  25
ENDBRANCH  20  22
BRANCH  20  31
ATOM     31  C   UNL     1      -2.020  -2.752  -0.875  0.00  0.00    +0.061 C 
BRANCH  31  32
ATOM     32  C   UNL     1      -1.919  -2.374  -2.351  0.00  0.00    +0.139 C 
BRANCH  32  33
ATOM     33  O   UNL     1      -2.197  -3.527  -3.136  0.00  0.00    -0.382 OA
ATOM     34  H   UNL     1      -2.137  -3.300  -4.077  0.00  0.00    +0.210 HD
ENDBRANCH  32  33
ENDBRANCH  31  32
ENDBRANCH  20  31
ENDBRANCH   3  20
TORSDOF 13
