139583167
  -OEChem-03292013293D

 51 55  0     1  0  0  0  0  0999 V2000
    0.2305    1.8365    2.4000 O   0  0  0  0  0  0  0  0  0  0  0  0
   -0.0979   -0.3405   -2.3968 O   0  0  0  0  0  0  0  0  0  0  0  0
   -4.2994    0.0144    2.3661 O   0  0  0  0  0  0  0  0  0  0  0  0
   -6.0772   -1.5414    0.9676 O   0  0  0  0  0  0  0  0  0  0  0  0
   -5.9768   -1.6234   -1.7943 O   0  0  0  0  0  0  0  0  0  0  0  0
   -0.9524    1.5183    0.4155 N   0  0  0  0  0  0  0  0  0  0  0  0
    1.1654    0.2904   -0.5752 N   0  0  0  0  0  0  0  0  0  0  0  0
    5.6039    1.0069   -0.9428 N   0  0  0  0  0  0  0  0  0  0  0  0
   -0.8479    1.5473   -1.0532 C   0  0  2  0  0  0  0  0  0  0  0  0
   -2.1953    1.5209   -1.7902 C   0  0  0  0  0  0  0  0  0  0  0  0
    1.4777    1.3398    0.3860 C   0  0  1  0  0  0  0  0  0  0  0  0
   -2.2757    1.5888    1.0360 C   0  0  0  0  0  0  0  0  0  0  0  0
    0.2071    1.5628    1.2016 C   0  0  0  0  0  0  0  0  0  0  0  0
   -3.2112    0.6612   -1.0860 C   0  0  0  0  0  0  0  0  0  0  0  0
   -3.2584    0.7064    0.3179 C   0  0  0  0  0  0  0  0  0  0  0  0
    0.0609    0.3759   -1.4125 C   0  0  0  0  0  0  0  0  0  0  0  0
    2.6576    0.9494    1.2618 C   0  0  0  0  0  0  0  0  0  0  0  0
    3.9019    0.7031    0.4493 C   0  0  0  0  0  0  0  0  0  0  0  0
   -4.2273   -0.0296    1.0050 C   0  0  0  0  0  0  0  0  0  0  0  0
   -4.1322   -0.1193   -1.7896 C   0  0  0  0  0  0  0  0  0  0  0  0
   -5.1355   -0.8172    0.2972 C   0  0  0  0  0  0  0  0  0  0  0  0
   -5.0876   -0.8624   -1.0963 C   0  0  0  0  0  0  0  0  0  0  0  0
    4.6643   -0.4978    0.4100 C   0  0  0  0  0  0  0  0  0  0  0  0
    4.5044    1.6093   -0.3925 C   0  0  0  0  0  0  0  0  0  0  0  0
    5.7262   -0.2805   -0.4707 C   0  0  0  0  0  0  0  0  0  0  0  0
    4.5526   -1.7526    1.0411 C   0  0  0  0  0  0  0  0  0  0  0  0
    6.6857   -1.2593   -0.7529 C   0  0  0  0  0  0  0  0  0  0  0  0
    5.5051   -2.7412    0.7684 C   0  0  0  0  0  0  0  0  0  0  0  0
    6.5544   -2.4961   -0.1152 C   0  0  0  0  0  0  0  0  0  0  0  0
   -5.7229   -2.8699    1.3446 C   0  0  0  0  0  0  0  0  0  0  0  0
   -0.3125    2.4619   -1.3406 H   0  0  0  0  0  0  0  0  0  0  0  0
   -2.0649    1.1996   -2.8299 H   0  0  0  0  0  0  0  0  0  0  0  0
   -2.6049    2.5392   -1.8240 H   0  0  0  0  0  0  0  0  0  0  0  0
    1.6885    2.2609   -0.1711 H   0  0  0  0  0  0  0  0  0  0  0  0
   -2.6114    2.6314    0.9945 H   0  0  0  0  0  0  0  0  0  0  0  0
   -2.1582    1.3134    2.0872 H   0  0  0  0  0  0  0  0  0  0  0  0
    1.8553   -0.4262   -0.7800 H   0  0  0  0  0  0  0  0  0  0  0  0
    2.4099    0.0580    1.8515 H   0  0  0  0  0  0  0  0  0  0  0  0
    2.8697    1.7465    1.9862 H   0  0  0  0  0  0  0  0  0  0  0  0
   -4.1027   -0.1421   -2.8761 H   0  0  0  0  0  0  0  0  0  0  0  0
    4.2531    2.6288   -0.6500 H   0  0  0  0  0  0  0  0  0  0  0  0
    6.2351    1.4436   -1.6003 H   0  0  0  0  0  0  0  0  0  0  0  0
    3.7417   -1.9633    1.7324 H   0  0  0  0  0  0  0  0  0  0  0  0
   -3.9598    0.8646    2.6880 H   0  0  0  0  0  0  0  0  0  0  0  0
    7.5029   -1.0695   -1.4406 H   0  0  0  0  0  0  0  0  0  0  0  0
   -5.7945   -1.5325   -2.7453 H   0  0  0  0  0  0  0  0  0  0  0  0
    5.4240   -3.7111    1.2521 H   0  0  0  0  0  0  0  0  0  0  0  0
    7.2829   -3.2783   -0.3126 H   0  0  0  0  0  0  0  0  0  0  0  0
   -5.5037   -3.4763    0.4601 H   0  0  0  0  0  0  0  0  0  0  0  0
   -4.8597   -2.8627    2.0177 H   0  0  0  0  0  0  0  0  0  0  0  0
   -6.5720   -3.3145    1.8708 H   0  0  0  0  0  0  0  0  0  0  0  0
  1 13  2  0  0  0  0
  2 16  2  0  0  0  0
  3 19  1  0  0  0  0
  3 44  1  0  0  0  0
  4 21  1  0  0  0  0
  4 30  1  0  0  0  0
  5 22  1  0  0  0  0
  5 46  1  0  0  0  0
  6  9  1  0  0  0  0
  6 12  1  0  0  0  0
  6 13  1  0  0  0  0
  7 11  1  0  0  0  0
  7 16  1  0  0  0  0
  7 37  1  0  0  0  0
  8 24  1  0  0  0  0
  8 25  1  0  0  0  0
  8 42  1  0  0  0  0
  9 10  1  0  0  0  0
  9 16  1  0  0  0  0
  9 31  1  0  0  0  0
 10 14  1  0  0  0  0
 10 32  1  0  0  0  0
 10 33  1  0  0  0  0
 11 13  1  0  0  0  0
 11 17  1  0  0  0  0
 11 34  1  0  0  0  0
 12 15  1  0  0  0  0
 12 35  1  0  0  0  0
 12 36  1  0  0  0  0
 14 15  1  0  0  0  0
 14 20  2  0  0  0  0
 15 19  2  0  0  0  0
 17 18  1  0  0  0  0
 17 38  1  0  0  0  0
 17 39  1  0  0  0  0
 18 23  1  0  0  0  0
 18 24  2  0  0  0  0
 19 21  1  0  0  0  0
 20 22  1  0  0  0  0
 20 40  1  0  0  0  0
 21 22  2  0  0  0  0
 23 25  1  0  0  0  0
 23 26  2  0  0  0  0
 24 41  1  0  0  0  0
 25 27  2  0  0  0  0
 26 28  1  0  0  0  0
 26 43  1  0  0  0  0
 27 29  1  0  0  0  0
 27 45  1  0  0  0  0
 28 29  2  0  0  0  0
 28 47  1  0  0  0  0
 29 48  1  0  0  0  0
 30 49  1  0  0  0  0
 30 50  1  0  0  0  0
 30 51  1  0  0  0  0
M  END
> <PUBCHEM_COMPOUND_CID>
139583167

> <PUBCHEM_CONFORMER_RMSD>
0.8

> <PUBCHEM_CONFORMER_DIVERSEORDER>
1
34
10
25
20
17
24
38
41
21
6
31
15
2
37
36
14
5
27
28
18
8
12
11
40
16
13
30
35
23
3
39
9
7
4
26
32
33
22
29
19

> <PUBCHEM_MMFF94_PARTIAL_CHARGES>
39
1 -0.57
10 0.14
11 0.36
12 0.44
13 0.57
14 -0.14
15 -0.14
16 0.57
17 0.18
18 -0.18
19 0.08
2 -0.57
20 -0.15
21 0.08
22 0.08
24 -0.3
25 -0.15
26 -0.15
27 -0.15
28 -0.15
29 -0.15
3 -0.53
30 0.28
37 0.37
4 -0.36
40 0.15
41 0.15
42 0.27
43 0.15
44 0.45
45 0.15
46 0.45
47 0.15
48 0.15
5 -0.53
6 -0.66
7 -0.73
8 0.03
9 0.36

> <PUBCHEM_EFFECTIVE_ROTOR_COUNT>
3.8

> <PUBCHEM_PHARMACOPHORE_FEATURES>
13
1 1 acceptor
1 2 acceptor
1 3 donor
1 4 acceptor
1 5 donor
1 7 donor
1 8 cation
1 8 donor
5 8 18 23 24 25 rings
6 14 15 19 20 21 22 rings
6 23 25 26 27 28 29 rings
6 6 7 9 11 13 16 rings
6 6 9 10 12 14 15 rings

> <PUBCHEM_HEAVY_ATOM_COUNT>
30

> <PUBCHEM_ATOM_DEF_STEREO_COUNT>
2

> <PUBCHEM_ATOM_UDEF_STEREO_COUNT>
0

> <PUBCHEM_BOND_DEF_STEREO_COUNT>
0

> <PUBCHEM_BOND_UDEF_STEREO_COUNT>
0

> <PUBCHEM_ISOTOPIC_ATOM_COUNT>
0

> <PUBCHEM_COMPONENT_COUNT>
1

> <PUBCHEM_CACTVS_TAUTO_COUNT>
-1

> <PUBCHEM_CONFORMER_ID>
0851DEBF00000001

> <PUBCHEM_MMFF94_ENERGY>
98.2411

> <PUBCHEM_FEATURE_SELFOVERLAP>
66.136

> <PUBCHEM_SHAPE_FINGERPRINT>
10 15 14979950393591766178
10319926 262 15195288650764744853
10498660 4 13984954974625916284
10928967 22 17987780956825145278
117089 54 17983866584226032062
11763715 3 18189917356620013444
11991303 11 18049156662335065781
12422481 6 16271933679283306812
12633257 1 17274265084039951687
13383668 40 18261673685020127647
13533116 47 18411699911529990352
13782708 43 18334292046482067306
13911987 19 12901551225675481432
14251764 30 18407761447387460696
14528608 73 15140680276479817708
14739800 52 12535087277667558951
14950920 106 17917998316922180387
14951699 99 12678884788650942546
15082195 135 15719402711622707566
15352257 5 18335143093814173410
15799311 1 18201450176827174214
17349148 13 18130791131694081116
17913733 40 14404912362053089269
1813 80 18059860583961295276
18335252 98 18261959656299595700
19438510 23 11671245002612864983
19841028 212 17487319672900743327
19958102 18 17749109967926156170
20567600 247 18409724029005373850
21304303 64 11025797561871664271
21424621 283 11671791454889449191
22061861 79 18040994029611294022
23522609 53 17914364422123793672
23559900 14 16515963778356611749
23569914 152 16376592759294601183
23845131 108 14831661270524978344
25122255 55 18113060436896135899
2748736 6 11386359344331009479
2916195 48 11240001165804072421
34797466 226 17240485844355764788
392239 28 17418096550665700423
439807 62 18335702719394108379
44880568 143 16877657967766630212
46194498 28 17821727248253959668
465052 167 18273220811272831996
474113 269 17417231218340999079
5104073 3 16128083567861589714
513202 73 18341895147697160549
54039377 194 18201159850682580342
7970288 3 18131061607127963854
999808 66 18202002097452252710

> <PUBCHEM_SHAPE_MULTIPOLES>
573.1
17.83
2.52
1.96
8.34
1.68
-0.03
14.55
1.82
0.69
-0.52
-2.15
-0.32
0.56

> <PUBCHEM_SHAPE_SELFOVERLAP>
1278.568

> <PUBCHEM_SHAPE_VOLUME>
302.1

> <PUBCHEM_COORDINATE_TYPE>
2
5
10

$$$$
