REMARK  Name = 139583429
REMARK  8 active torsions:
REMARK  status: ('A' for Active; 'I' for Inactive)
REMARK    1  A    between atoms: C_7  and  C_21
REMARK    2  A    between atoms: C_15  and  O_19
REMARK    3  A    between atoms: C_21  and  C_22
REMARK    4  A    between atoms: C_23  and  N_25
REMARK    5  A    between atoms: C_26  and  C_28
REMARK    6  A    between atoms: C_28  and  C_29
REMARK    7  A    between atoms: N_30  and  C_31
REMARK    8  A    between atoms: N_30  and  O_32
REMARK                            x       y       z     vdW  Elec       q    Type
REMARK                         _______ _______ _______ _____ _____    ______ ____
ROOT
ATOM      1  O   UNL     1       5.657   2.142   0.930  0.00  0.00    -0.349 OA
ATOM      2  O   UNL     1       1.874   0.429  -0.319  0.00  0.00    -0.449 OA
ATOM      3  O   UNL     1       0.232   0.232  -1.939  0.00  0.00    -0.245 OA
ATOM      4  C   UNL     1       4.290   1.714   0.800  0.00  0.00    +0.150 C 
ATOM      5  C   UNL     1       5.422   0.740   1.111  0.00  0.00    +0.164 C 
ATOM      6  C   UNL     1       3.734   1.988  -0.572  0.00  0.00    +0.076 C 
ATOM      7  C   UNL     1       2.216   1.777  -0.708  0.00  0.00    +0.176 C 
ATOM      8  C   UNL     1       5.877  -0.258   0.132  0.00  0.00    +0.005 C 
ATOM      9  C   UNL     1       5.197  -1.316  -0.339  0.00  0.00    -0.002 C 
ATOM     10  C   UNL     1       0.887  -0.200  -1.005  0.00  0.00    +0.344 C 
ATOM     11  C   UNL     1       3.857  -1.646   0.079  0.00  0.00    -0.000 C 
ATOM     12  C   UNL     1       0.627  -1.520  -0.392  0.00  0.00    +0.109 C 
ATOM     13  C   UNL     1       1.608  -2.522  -0.251  0.00  0.00    +0.009 C 
ATOM     14  C   UNL     1       3.002  -2.351  -0.673  0.00  0.00    +0.000 C 
ATOM     15  C   UNL     1      -0.693  -1.764   0.007  0.00  0.00    +0.140 C 
ATOM     16  C   UNL     1       1.241  -3.754   0.310  0.00  0.00    +0.000 C 
ATOM     17  C   UNL     1      -1.039  -2.994   0.566  0.00  0.00    +0.037 C 
ATOM     18  C   UNL     1      -0.074  -3.986   0.718  0.00  0.00    +0.003 C 
ENDROOT
BRANCH  15  19
ATOM     19  O   UNL     1      -1.667  -0.816  -0.115  0.00  0.00    -0.505 OA
ATOM     20  H   UNL     1      -1.463   0.020  -0.486  0.00  0.00    +0.292 HD
ENDBRANCH  15  19
BRANCH   7  21
ATOM     21  C   UNL     1       1.391   2.754   0.123  0.00  0.00    +0.071 C 
BRANCH  21  22
ATOM     22  C   UNL     1      -0.004   2.878  -0.411  0.00  0.00    -0.006 C 
ATOM     23  C   UNL     1      -1.097   2.571   0.299  0.00  0.00    +0.059 C 
BRANCH  23  25
ATOM     24  O   UNL     1      -3.533   1.962   1.676  0.00  0.00    -0.274 OA
ATOM     25  N   UNL     1      -2.357   2.697  -0.197  0.00  0.00    -0.283 N 
ATOM     26  C   UNL     1      -3.502   2.384   0.524  0.00  0.00    +0.231 C 
ATOM     27  H   UNL     1      -2.464   3.029  -1.118  0.00  0.00    +0.155 HD
BRANCH  26  28
ATOM     28  C   UNL     1      -4.740   2.621  -0.271  0.00  0.00    +0.113 C 
BRANCH  28  29
ATOM     29  C   UNL     1      -5.572   1.604  -0.521  0.00  0.00    +0.006 C 
ATOM     30  C   UNL     1      -5.229   0.269   0.007  0.00  0.00    +0.123 C 
BRANCH  30  31
ATOM     31  N   UNL     1      -5.982  -0.762  -0.194  0.00  0.00    -0.130 NA
BRANCH  31  32
ATOM     32  O   UNL     1      -5.393  -1.873   0.425  0.00  0.00    -0.234 OA
ATOM     33  C   UNL     1      -6.228  -2.999   0.198  0.00  0.00    +0.211 C 
ENDBRANCH  31  32
ENDBRANCH  30  31
ENDBRANCH  28  29
ENDBRANCH  26  28
ENDBRANCH  23  25
ENDBRANCH  21  22
ENDBRANCH   7  21
TORSDOF 8
