REMARK  Name = 139585084
REMARK  9 active torsions:
REMARK  status: ('A' for Active; 'I' for Inactive)
REMARK    1  A    between atoms: C_2  and  C_13
REMARK    2  A    between atoms: C_3  and  C_28
REMARK    3  A    between atoms: C_4  and  O_10
REMARK    4  A    between atoms: C_6  and  O_8
REMARK    5  A    between atoms: C_13  and  C_14
REMARK    6  A    between atoms: C_15  and  C_24
REMARK    7  A    between atoms: C_18  and  O_21
REMARK    8  A    between atoms: C_24  and  O_25
REMARK    9  A    between atoms: C_28  and  O_29
REMARK                            x       y       z     vdW  Elec       q    Type
REMARK                         _______ _______ _______ _____ _____    ______ ____
ROOT
ATOM      1 CL   UNL     1      -4.666  -1.837   1.373  0.00  0.00    -0.076 Cl
ATOM      2  C   UNL     1      -1.105  -0.733  -0.103  0.00  0.00    +0.080 C 
ATOM      3  C   UNL     1      -1.433   0.382  -0.874  0.00  0.00    +0.085 C 
ATOM      4  C   UNL     1      -2.102  -1.418   0.591  0.00  0.00    +0.150 C 
ATOM      5  C   UNL     1      -2.758   0.812  -0.952  0.00  0.00    +0.045 C 
ATOM      6  C   UNL     1      -3.755   0.126  -0.258  0.00  0.00    +0.152 C 
ATOM      7  C   UNL     1      -3.427  -0.989   0.513  0.00  0.00    +0.125 C 
ENDROOT
BRANCH   6   8
ATOM      8  O   UNL     1      -5.040   0.570  -0.354  0.00  0.00    -0.470 OA
ATOM      9  C   UNL     1      -5.466   1.532   0.608  0.00  0.00    +0.253 C 
ENDBRANCH   6   8
BRANCH   4  10
ATOM     10  O   UNL     1      -1.772  -2.509   1.344  0.00  0.00    -0.504 OA
ATOM     11  H   UNL     1      -0.881  -2.792   1.392  0.00  0.00    +0.292 HD
ENDBRANCH   4  10
BRANCH   2  13
ATOM     12  O   UNL     1       0.561  -2.346  -0.404  0.00  0.00    -0.286 OA
ATOM     13  C   UNL     1       0.311  -1.197  -0.016  0.00  0.00    +0.199 C 
BRANCH  13  14
ATOM     14  C   UNL     1       1.378  -0.350   0.502  0.00  0.00    +0.048 C 
ATOM     15  C   UNL     1       2.692  -0.480   0.052  0.00  0.00    +0.112 C 
ATOM     16  C   UNL     1       1.063   0.605   1.470  0.00  0.00    -0.001 C 
ATOM     17  C   UNL     1       2.063   1.430   1.985  0.00  0.00    -0.019 C 
ATOM     18  C   UNL     1       3.691   0.345   0.568  0.00  0.00    +0.140 C 
ATOM     19  C   UNL     1       3.376   1.300   1.534  0.00  0.00    +0.033 C 
ATOM     20  C   UNL     1       1.727   2.451   3.019  0.00  0.00    +0.031 C 
BRANCH  18  21
ATOM     21  O   UNL     1       4.981   0.236   0.142  0.00  0.00    -0.505 OA
ATOM     22  H   UNL     1       5.207  -0.401  -0.507  0.00  0.00    +0.292 HD
ENDBRANCH  18  21
BRANCH  15  24
ATOM     23  O   UNL     1       2.558  -1.524  -2.097  0.00  0.00    -0.245 OA
ATOM     24  C   UNL     1       3.032  -1.475  -0.960  0.00  0.00    +0.341 C 
BRANCH  24  25
ATOM     25  O   UNL     1       3.950  -2.372  -0.513  0.00  0.00    -0.477 OA
ATOM     26  H   UNL     1       4.287  -2.303   0.359  0.00  0.00    +0.295 HD
ENDBRANCH  24  25
ENDBRANCH  15  24
ENDBRANCH  13  14
ENDBRANCH   2  13
BRANCH   3  28
ATOM     27  O   UNL     1       0.300   0.633  -2.493  0.00  0.00    -0.245 OA
ATOM     28  C   UNL     1      -0.416   1.122  -1.612  0.00  0.00    +0.342 C 
BRANCH  28  29
ATOM     29  O   UNL     1      -0.354   2.426  -1.206  0.00  0.00    -0.441 OA
ATOM     30  C   UNL     1       0.611   3.258  -1.860  0.00  0.00    +0.256 C 
ENDBRANCH  28  29
ENDBRANCH   3  28
TORSDOF 9
