139591369
  -OEChem-03292013293D

 41 43  0     1  0  0  0  0  0999 V2000
   -3.3263    1.6248    1.1666 O   0  0  0  0  0  0  0  0  0  0  0  0
   -3.8356   -0.7468   -2.2441 O   0  0  0  0  0  0  0  0  0  0  0  0
   -2.7039   -1.1677    2.0574 O   0  0  0  0  0  0  0  0  0  0  0  0
   -2.9188   -2.6510    0.3400 O   0  0  0  0  0  0  0  0  0  0  0  0
    0.8939    1.9294    1.0272 O   0  0  0  0  0  0  0  0  0  0  0  0
    3.0934    2.4888   -0.3773 O   0  0  0  0  0  0  0  0  0  0  0  0
    4.2293   -2.8748    0.2045 O   0  0  0  0  0  0  0  0  0  0  0  0
   -1.4486    0.5770    0.1481 C   0  0  1  0  0  0  0  0  0  0  0  0
   -2.6806   -0.2835   -0.1265 C   0  0  2  0  0  0  0  0  0  0  0  0
   -1.3040    1.3643   -1.1713 C   0  0  0  0  0  0  0  0  0  0  0  0
   -2.5707   -0.6852   -1.6041 C   0  0  2  0  0  0  0  0  0  0  0  0
   -1.6879    0.3753   -2.2713 C   0  0  0  0  0  0  0  0  0  0  0  0
   -1.9066    1.4604    1.2993 C   0  0  0  0  0  0  0  0  0  0  0  0
   -3.8325    0.6605    0.2258 C   0  0  0  0  0  0  0  0  0  0  0  0
   -0.1506   -0.1681    0.4650 C   0  0  0  0  0  0  0  0  0  0  0  0
   -2.7823   -1.5071    0.7475 C   0  0  0  0  0  0  0  0  0  0  0  0
    1.0249    0.7785    0.6167 C   0  0  0  0  0  0  0  0  0  0  0  0
    2.3852    0.2848    0.2509 C   0  0  0  0  0  0  0  0  0  0  0  0
    3.3591    1.1603   -0.2291 C   0  0  0  0  0  0  0  0  0  0  0  0
    2.6772   -1.0713    0.3962 C   0  0  0  0  0  0  0  0  0  0  0  0
    3.9432   -1.5520    0.0615 C   0  0  0  0  0  0  0  0  0  0  0  0
    4.6251    0.6797   -0.5641 C   0  0  0  0  0  0  0  0  0  0  0  0
    4.9171   -0.6763   -0.4188 C   0  0  0  0  0  0  0  0  0  0  0  0
   -0.3091    1.7823   -1.3500 H   0  0  0  0  0  0  0  0  0  0  0  0
   -1.9987    2.2138   -1.2018 H   0  0  0  0  0  0  0  0  0  0  0  0
   -2.0929   -1.6636   -1.7330 H   0  0  0  0  0  0  0  0  0  0  0  0
   -2.1788    0.8835   -3.1077 H   0  0  0  0  0  0  0  0  0  0  0  0
   -0.7800   -0.1000   -2.6617 H   0  0  0  0  0  0  0  0  0  0  0  0
   -1.4647    2.4609    1.2753 H   0  0  0  0  0  0  0  0  0  0  0  0
   -1.7034    1.0361    2.2874 H   0  0  0  0  0  0  0  0  0  0  0  0
   -4.1944    1.2260   -0.6397 H   0  0  0  0  0  0  0  0  0  0  0  0
   -4.6948    0.1559    0.6745 H   0  0  0  0  0  0  0  0  0  0  0  0
    0.0596   -0.8825   -0.3391 H   0  0  0  0  0  0  0  0  0  0  0  0
   -0.2294   -0.7311    1.4015 H   0  0  0  0  0  0  0  0  0  0  0  0
   -3.6812   -0.9661   -3.1788 H   0  0  0  0  0  0  0  0  0  0  0  0
   -2.7673   -1.9515    2.6435 H   0  0  0  0  0  0  0  0  0  0  0  0
    1.9378   -1.7656    0.7864 H   0  0  0  0  0  0  0  0  0  0  0  0
    5.3884    1.3565   -0.9386 H   0  0  0  0  0  0  0  0  0  0  0  0
    5.9051   -1.0448   -0.6810 H   0  0  0  0  0  0  0  0  0  0  0  0
    2.1567    2.6714   -0.2027 H   0  0  0  0  0  0  0  0  0  0  0  0
    3.4427   -3.3335    0.5464 H   0  0  0  0  0  0  0  0  0  0  0  0
  1 13  1  0  0  0  0
  1 14  1  0  0  0  0
  2 11  1  0  0  0  0
  2 35  1  0  0  0  0
  3 16  1  0  0  0  0
  3 36  1  0  0  0  0
  4 16  2  0  0  0  0
  5 17  2  0  0  0  0
  6 19  1  0  0  0  0
  6 40  1  0  0  0  0
  7 21  1  0  0  0  0
  7 41  1  0  0  0  0
  8  9  1  0  0  0  0
  8 10  1  0  0  0  0
  8 13  1  0  0  0  0
  8 15  1  0  0  0  0
  9 11  1  0  0  0  0
  9 14  1  0  0  0  0
  9 16  1  0  0  0  0
 10 12  1  0  0  0  0
 10 24  1  0  0  0  0
 10 25  1  0  0  0  0
 11 12  1  0  0  0  0
 11 26  1  0  0  0  0
 12 27  1  0  0  0  0
 12 28  1  0  0  0  0
 13 29  1  0  0  0  0
 13 30  1  0  0  0  0
 14 31  1  0  0  0  0
 14 32  1  0  0  0  0
 15 17  1  0  0  0  0
 15 33  1  0  0  0  0
 15 34  1  0  0  0  0
 17 18  1  0  0  0  0
 18 19  2  0  0  0  0
 18 20  1  0  0  0  0
 19 22  1  0  0  0  0
 20 21  2  0  0  0  0
 20 37  1  0  0  0  0
 21 23  1  0  0  0  0
 22 23  2  0  0  0  0
 22 38  1  0  0  0  0
 23 39  1  0  0  0  0
M  END
> <PUBCHEM_COMPOUND_CID>
139591369

> <PUBCHEM_CONFORMER_RMSD>
0.8

> <PUBCHEM_CONFORMER_DIVERSEORDER>
1
8
12
46
43
39
32
20
9
17
16
40
34
23
22
49
33
15
10
36
19
48
11
7
29
51
2
37
25
4
44
38
50
45
54
21
53
18
26
14
42
27
13
55
52
5
35
24
6
41
30
47
3
28
31

> <PUBCHEM_MMFF94_PARTIAL_CHARGES>
27
1 -0.56
11 0.28
13 0.28
14 0.28
15 0.06
16 0.66
17 0.42
18 0.09
19 0.08
2 -0.68
20 -0.15
21 0.08
22 -0.15
23 -0.15
3 -0.65
35 0.4
36 0.5
37 0.15
38 0.15
39 0.15
4 -0.57
40 0.45
41 0.45
5 -0.57
6 -0.53
7 -0.53
9 0.06

> <PUBCHEM_EFFECTIVE_ROTOR_COUNT>
5.2

> <PUBCHEM_PHARMACOPHORE_FEATURES>
12
1 1 acceptor
1 2 acceptor
1 2 donor
1 3 acceptor
1 4 acceptor
1 5 acceptor
1 6 donor
1 7 donor
3 3 4 16 anion
5 1 8 9 13 14 rings
5 8 9 10 11 12 rings
6 18 19 20 21 22 23 rings

> <PUBCHEM_HEAVY_ATOM_COUNT>
23

> <PUBCHEM_ATOM_DEF_STEREO_COUNT>
3

> <PUBCHEM_ATOM_UDEF_STEREO_COUNT>
0

> <PUBCHEM_BOND_DEF_STEREO_COUNT>
0

> <PUBCHEM_BOND_UDEF_STEREO_COUNT>
0

> <PUBCHEM_ISOTOPIC_ATOM_COUNT>
0

> <PUBCHEM_COMPONENT_COUNT>
1

> <PUBCHEM_CACTVS_TAUTO_COUNT>
-1

> <PUBCHEM_CONFORMER_ID>
0851FEC900000001

> <PUBCHEM_MMFF94_ENERGY>
81.1444

> <PUBCHEM_FEATURE_SELFOVERLAP>
61.378

> <PUBCHEM_SHAPE_FINGERPRINT>
10062212 137 18131349674583587318
10498660 4 16950553406965935662
10616163 171 18342183288420981462
11552529 35 18340492290934716219
11759241 127 17168994542050759092
121448 382 16588586529849751298
12346177 29 15913316983868647661
12553582 1 17918273190317820078
12592029 89 17275109388595020095
12670546 177 17458634462176351188
12788726 201 17845664624711075097
128620 24 15285362820876268170
12969540 114 17023726954478527487
13224815 77 18334008428200287202
13583140 156 17916869135228001640
14289901 80 18340211906979516648
15788980 27 17847063268616620124
16752209 62 16916770890944011661
17349148 13 15697995245503983397
18186145 218 17822009800760714552
200 152 18343860039152163588
20281475 54 18410855469008305378
20645477 70 18407758127757971170
20775530 9 17832985323087570635
221490 88 18334586763043262498
22646028 28 18202278083344298630
235170 7 17748824150795200110
23557571 272 17240482554220567588
23559900 14 18407757045752916168
23598288 3 17917727793769637457
23728640 28 17418087664272674895
2838139 119 10375053787016545067
3268164 11 15936407857622879238
4921388 177 17385732417011486123
5104073 3 18412547604908863736
5281201 14 17313109601483350294
6287921 2 17749967664273571396
90525 40 17775007872932125885

> <PUBCHEM_SHAPE_MULTIPOLES>
432.24
9.29
2.28
1.6
7.9
0.68
0.62
2.57
1.03
0.91
-0.44
-2.1
-0.02
-0.35

> <PUBCHEM_SHAPE_SELFOVERLAP>
948.222

> <PUBCHEM_SHAPE_VOLUME>
233.2

> <PUBCHEM_COORDINATE_TYPE>
2
5
10

$$$$
