REMARK  Name = 139583364
REMARK  3 active torsions:
REMARK  status: ('A' for Active; 'I' for Inactive)
REMARK    1  A    between atoms: C_8  and  O_26
REMARK    2  A    between atoms: C_13  and  O_24
REMARK    3  A    between atoms: O_26  and  C_27
REMARK                            x       y       z     vdW  Elec       q    Type
REMARK                         _______ _______ _______ _____ _____    ______ ____
ROOT
ATOM      1  O   UNL     1       1.576  -1.526   0.353  0.00  0.00    -0.448 OA
ATOM      2  O   UNL     1      -1.542   2.255   0.451  0.00  0.00    -0.445 OA
ATOM      3  O   UNL     1      -3.316  -0.745  -0.742  0.00  0.00    -0.449 OA
ATOM      4  O   UNL     1       1.506   3.248   0.775  0.00  0.00    -0.292 OA
ATOM      5  O   UNL     1       3.535  -1.249  -0.833  0.00  0.00    -0.247 OA
ATOM      6  O   UNL     1      -3.241   2.552  -1.083  0.00  0.00    -0.250 OA
ATOM      7  O   UNL     1      -2.038  -1.534   1.014  0.00  0.00    -0.245 OA
ATOM      8  C   UNL     1       2.406   0.672   0.128  0.00  0.00    +0.221 C 
ATOM      9  C   UNL     1       1.140   1.237  -0.514  0.00  0.00    +0.109 C 
ATOM     10  C   UNL     1       1.606  -2.961   0.174  0.00  0.00    +0.200 C 
ATOM     11  C   UNL     1      -0.648   3.092  -0.298  0.00  0.00    +0.225 C 
ATOM     12  C   UNL     1       0.741   2.588   0.071  0.00  0.00    +0.193 C 
ATOM     13  C   UNL     1       0.152  -3.459   0.090  0.00  0.00    +0.173 C 
ATOM     14  C   UNL     1       2.591  -0.798  -0.198  0.00  0.00    +0.345 C 
ATOM     15  C   UNL     1      -4.252   0.020   0.060  0.00  0.00    +0.180 C 
ATOM     16  C   UNL     1      -3.569   1.136   0.854  0.00  0.00    +0.153 C 
ATOM     17  C   UNL     1       2.360  -3.561   1.360  0.00  0.00    +0.050 C 
ATOM     18  C   UNL     1      -0.859   4.547   0.090  0.00  0.00    +0.056 C 
ATOM     19  C   UNL     1      -0.522  -2.937  -1.151  0.00  0.00    +0.013 C 
ATOM     20  C   UNL     1      -2.793   2.061  -0.056  0.00  0.00    +0.321 C 
ATOM     21  C   UNL     1      -5.091  -0.897   0.945  0.00  0.00    +0.048 C 
ATOM     22  C   UNL     1      -1.558  -2.096  -1.279  0.00  0.00    +0.080 C 
ATOM     23  C   UNL     1      -2.300  -1.448  -0.172  0.00  0.00    +0.341 C 
ENDROOT
BRANCH  13  24
ATOM     24  O   UNL     1       0.125  -4.883   0.003  0.00  0.00    -0.377 OA
ATOM     25  H   UNL     1       0.551  -5.263   0.787  0.00  0.00    +0.211 HD
ENDBRANCH  13  24
BRANCH   8  26
ATOM     26  O   UNL     1       3.527   1.378  -0.387  0.00  0.00    -0.345 OA
BRANCH  26  27
ATOM     27  C   UNL     1       4.652   1.269   0.474  0.00  0.00    +0.143 C 
ATOM     28  C   UNL     1       5.809   2.039  -0.126  0.00  0.00    +0.035 C 
ENDBRANCH  26  27
ENDBRANCH   8  26
TORSDOF 3
