139590569
  -OEChem-03292013293D

 36 37  0     0  0  0  0  0  0999 V2000
    0.8747    1.4727    0.9244 O   0  0  0  0  0  0  0  0  0  0  0  0
   -0.8472   -2.0036   -0.8637 O   0  0  0  0  0  0  0  0  0  0  0  0
    1.4946   -3.2670    0.6704 O   0  0  0  0  0  0  0  0  0  0  0  0
   -4.5117    1.0679   -1.0430 O   0  0  0  0  0  0  0  0  0  0  0  0
   -3.8134    1.9799    1.3582 O   0  0  0  0  0  0  0  0  0  0  0  0
    2.4556    2.8662   -0.7118 O   0  0  0  0  0  0  0  0  0  0  0  0
   -0.1000   -1.0992    1.5925 C   0  0  0  0  0  0  0  0  0  0  0  0
    1.1643   -0.8960    0.8100 C   0  0  0  0  0  0  0  0  0  0  0  0
   -1.2976   -0.4903    0.9126 C   0  0  0  0  0  0  0  0  0  0  0  0
    1.5995    0.3943    0.5076 C   0  0  0  0  0  0  0  0  0  0  0  0
   -1.6765   -0.9980   -0.4039 C   0  0  0  0  0  0  0  0  0  0  0  0
    1.9042   -1.9994    0.3846 C   0  0  0  0  0  0  0  0  0  0  0  0
   -2.7300   -0.5295   -1.1031 C   0  0  0  0  0  0  0  0  0  0  0  0
    2.7747    0.5813   -0.2206 C   0  0  0  0  0  0  0  0  0  0  0  0
   -1.9825    0.4904    1.5187 C   0  0  0  0  0  0  0  0  0  0  0  0
    3.0793   -1.8124   -0.3435 C   0  0  0  0  0  0  0  0  0  0  0  0
    3.5143   -0.5221   -0.6463 C   0  0  0  0  0  0  0  0  0  0  0  0
   -3.5402    0.5650   -0.4965 C   0  0  0  0  0  0  0  0  0  0  0  0
   -3.1516    1.0851    0.8551 C   0  0  0  0  0  0  0  0  0  0  0  0
   -3.1993   -0.9920   -2.4515 C   0  0  0  0  0  0  0  0  0  0  0  0
    3.2483    1.9189   -0.5486 C   0  0  0  0  0  0  0  0  0  0  0  0
    4.7406    2.1875   -0.7014 C   0  0  0  0  0  0  0  0  0  0  0  0
   -0.3089   -2.1598    1.7795 H   0  0  0  0  0  0  0  0  0  0  0  0
    0.0536   -0.6681    2.5917 H   0  0  0  0  0  0  0  0  0  0  0  0
   -1.7115    0.8746    2.4956 H   0  0  0  0  0  0  0  0  0  0  0  0
    3.6636   -2.6630   -0.6841 H   0  0  0  0  0  0  0  0  0  0  0  0
    4.4254   -0.4093   -1.2273 H   0  0  0  0  0  0  0  0  0  0  0  0
   -4.2465   -1.3094   -2.3984 H   0  0  0  0  0  0  0  0  0  0  0  0
   -2.6336   -1.8353   -2.8522 H   0  0  0  0  0  0  0  0  0  0  0  0
   -3.1246   -0.1743   -3.1765 H   0  0  0  0  0  0  0  0  0  0  0  0
    1.3430    2.3004    0.7340 H   0  0  0  0  0  0  0  0  0  0  0  0
   -1.1209   -2.2774   -1.7518 H   0  0  0  0  0  0  0  0  0  0  0  0
    2.1311   -3.8989    0.2944 H   0  0  0  0  0  0  0  0  0  0  0  0
    5.0410    2.0107   -1.7370 H   0  0  0  0  0  0  0  0  0  0  0  0
    4.9440    3.2293   -0.4354 H   0  0  0  0  0  0  0  0  0  0  0  0
    5.3210    1.5571   -0.0224 H   0  0  0  0  0  0  0  0  0  0  0  0
  1 10  1  0  0  0  0
  1 31  1  0  0  0  0
  2 11  1  0  0  0  0
  2 32  1  0  0  0  0
  3 12  1  0  0  0  0
  3 33  1  0  0  0  0
  4 18  2  0  0  0  0
  5 19  2  0  0  0  0
  6 21  2  0  0  0  0
  7  8  1  0  0  0  0
  7  9  1  0  0  0  0
  7 23  1  0  0  0  0
  7 24  1  0  0  0  0
  8 10  1  0  0  0  0
  8 12  2  0  0  0  0
  9 11  1  0  0  0  0
  9 15  2  0  0  0  0
 10 14  2  0  0  0  0
 11 13  2  0  0  0  0
 12 16  1  0  0  0  0
 13 18  1  0  0  0  0
 13 20  1  0  0  0  0
 14 17  1  0  0  0  0
 14 21  1  0  0  0  0
 15 19  1  0  0  0  0
 15 25  1  0  0  0  0
 16 17  2  0  0  0  0
 16 26  1  0  0  0  0
 17 27  1  0  0  0  0
 18 19  1  0  0  0  0
 20 28  1  0  0  0  0
 20 29  1  0  0  0  0
 20 30  1  0  0  0  0
 21 22  1  0  0  0  0
 22 34  1  0  0  0  0
 22 35  1  0  0  0  0
 22 36  1  0  0  0  0
M  END
> <PUBCHEM_COMPOUND_CID>
139590569

> <PUBCHEM_CONFORMER_RMSD>
0.6

> <PUBCHEM_CONFORMER_DIVERSEORDER>
1
51
38
26
44
50
3
37
34
65
11
68
27
32
23
55
45
48
60
42
4
61
17
41
67
29
12
35
47
57
73
28
39
40
33
21
2
72
63
43
18
46
5
71
53
31
59
10
62
54
8
56
36
25
7
58
49
30
6
69
66
24
52
22
70
64
9
15
20
16
19
14
13

> <PUBCHEM_MMFF94_PARTIAL_CHARGES>
28
1 -0.53
10 0.08
11 0.08
12 0.08
13 -0.12
14 0.09
15 -0.14
16 -0.15
17 -0.15
18 0.56
19 0.56
2 -0.53
20 0.14
21 0.42
22 0.06
25 0.15
26 0.15
27 0.15
3 -0.53
31 0.45
32 0.45
33 0.45
4 -0.57
5 -0.57
6 -0.57
7 0.28
8 -0.14
9 -0.14

> <PUBCHEM_EFFECTIVE_ROTOR_COUNT>
3

> <PUBCHEM_PHARMACOPHORE_FEATURES>
8
1 1 donor
1 2 donor
1 3 donor
1 4 acceptor
1 5 acceptor
1 6 acceptor
6 8 10 12 14 16 17 rings
6 9 11 13 15 18 19 rings

> <PUBCHEM_HEAVY_ATOM_COUNT>
22

> <PUBCHEM_ATOM_DEF_STEREO_COUNT>
0

> <PUBCHEM_ATOM_UDEF_STEREO_COUNT>
0

> <PUBCHEM_BOND_DEF_STEREO_COUNT>
0

> <PUBCHEM_BOND_UDEF_STEREO_COUNT>
0

> <PUBCHEM_ISOTOPIC_ATOM_COUNT>
0

> <PUBCHEM_COMPONENT_COUNT>
1

> <PUBCHEM_CACTVS_TAUTO_COUNT>
-1

> <PUBCHEM_CONFORMER_ID>
0851FBA900000001

> <PUBCHEM_MMFF94_ENERGY>
58.4317

> <PUBCHEM_FEATURE_SELFOVERLAP>
40.606

> <PUBCHEM_SHAPE_FINGERPRINT>
10165383 225 16952279562801681082
105312 117 17971772205522564020
10756046 5 18271239512367375879
11640471 11 18343585144096960095
12156800 1 14011047896506122500
12173636 292 18337967799420544827
12714826 92 16415201230094043719
12730499 353 18114189626884921691
12788726 201 17417822707930524569
13009979 54 17916016859097905683
13134695 92 17824810158156274330
13464514 151 18337116747809484164
13583140 156 18115314358872051835
13764800 53 15719672065763644623
13782708 43 16879374236814637027
14115302 16 17488733476796053939
14250199 8 18335701598534017177
15295992 7 16661752268510495641
15475509 35 9220932809934757661
15664445 248 16551112017248903325
16752209 62 17203316772606779095
16945 1 18261394386668455850
17980427 23 18129078105578881506
1813 80 17836083373434964630
18186145 218 18259993677726808178
18219364 16 17531244014903674413
18981168 100 17603874432882074479
19784866 34 18408611383108929520
19862831 5 18060419131345553246
20645476 183 18272087163208454023
21033648 29 16805896087223929661
21486144 27 17967256390258993275
21639500 275 18260827077138534602
21864079 5 18114738244406161189
22393880 68 17703793664954297956
2255824 54 18337388240987287178
22907989 373 17326626194107552004
23175994 123 17316469605448599594
23557571 272 16371590123754410265
23559900 14 18056496165334538532
23598291 2 18272932678632504533
238 59 18263066876792203638
25 1 18259994760053396162
3082319 5 18131631188088403095
474 4 18334857238154982336
53917941 68 18196935685421093000
633830 44 18336838510726411882
84936 182 18271805774189001512
9981440 41 17908410704514279104

> <PUBCHEM_SHAPE_MULTIPOLES>
417.53
8.01
2.77
1.6
0.45
0.19
-0.31
-4.66
-2.88
-2.41
0
1.65
0.15
-1.52

> <PUBCHEM_SHAPE_SELFOVERLAP>
907.774

> <PUBCHEM_SHAPE_VOLUME>
226

> <PUBCHEM_COORDINATE_TYPE>
2
5
10

$$$$
