REMARK  Name = 139585408
REMARK  5 active torsions:
REMARK  status: ('A' for Active; 'I' for Inactive)
REMARK    1  A    between atoms: C_3  and  O_23
REMARK    2  A    between atoms: C_5  and  O_25
REMARK    3  A    between atoms: C_11  and  O_27
REMARK    4  A    between atoms: C_19  and  O_29
REMARK    5  A    between atoms: C_20  and  O_31
REMARK                            x       y       z     vdW  Elec       q    Type
REMARK                         _______ _______ _______ _____ _____    ______ ____
ROOT
ATOM      1  O   UNL     1       4.761   0.410  -0.208  0.00  0.00    -0.289 OA
ATOM      2  O   UNL     1      -4.943   1.438   0.057  0.00  0.00    -0.291 OA
ATOM      3  C   UNL     1      -0.770   1.078   0.272  0.00  0.00    +0.114 C 
ATOM      4  C   UNL     1       0.602   0.907  -0.464  0.00  0.00    +0.081 C 
ATOM      5  C   UNL     1       1.598   2.070  -0.239  0.00  0.00    +0.151 C 
ATOM      6  C   UNL     1       1.237  -0.446  -0.144  0.00  0.00    -0.012 C 
ATOM      7  C   UNL     1      -1.667  -0.128   0.021  0.00  0.00    +0.008 C 
ATOM      8  C   UNL     1      -1.466   2.367  -0.203  0.00  0.00    +0.040 C 
ATOM      9  C   UNL     1       0.390  -1.564   0.050  0.00  0.00    -0.004 C 
ATOM     10  C   UNL     1      -1.078  -1.411  -0.091  0.00  0.00    -0.002 C 
ATOM     11  C   UNL     1       2.921   1.778  -0.934  0.00  0.00    +0.199 C 
ATOM     12  C   UNL     1       2.637  -0.612  -0.086  0.00  0.00    +0.067 C 
ATOM     13  C   UNL     1      -2.849   2.520   0.411  0.00  0.00    +0.072 C 
ATOM     14  C   UNL     1      -3.068   0.010  -0.071  0.00  0.00    +0.067 C 
ATOM     15  C   UNL     1       3.551   0.519  -0.380  0.00  0.00    +0.205 C 
ATOM     16  C   UNL     1      -3.721   1.332   0.105  0.00  0.00    +0.176 C 
ATOM     17  C   UNL     1       0.985  -2.797   0.384  0.00  0.00    +0.003 C 
ATOM     18  C   UNL     1      -1.922  -2.508  -0.352  0.00  0.00    +0.003 C 
ATOM     19  C   UNL     1       3.197  -1.851   0.235  0.00  0.00    +0.136 C 
ATOM     20  C   UNL     1      -3.879  -1.101  -0.317  0.00  0.00    +0.136 C 
ATOM     21  C   UNL     1       2.369  -2.937   0.481  0.00  0.00    +0.037 C 
ATOM     22  C   UNL     1      -3.303  -2.356  -0.465  0.00  0.00    +0.037 C 
ENDROOT
BRANCH   3  23
ATOM     23  O   UNL     1      -0.558   1.203   1.684  0.00  0.00    -0.382 OA
ATOM     24  H   UNL     1      -0.119   0.404   2.016  0.00  0.00    +0.211 HD
ENDBRANCH   3  23
BRANCH   5  25
ATOM     25  O   UNL     1       1.854   2.302   1.145  0.00  0.00    -0.381 OA
ATOM     26  H   UNL     1       1.019   2.489   1.602  0.00  0.00    +0.210 HD
ENDBRANCH   5  25
BRANCH  11  27
ATOM     27  O   UNL     1       3.816   2.866  -0.779  0.00  0.00    -0.375 OA
ATOM     28  H   UNL     1       3.409   3.672  -1.135  0.00  0.00    +0.211 HD
ENDBRANCH  11  27
BRANCH  19  29
ATOM     29  O   UNL     1       4.541  -2.064   0.315  0.00  0.00    -0.505 OA
ATOM     30  H   UNL     1       5.137  -1.359   0.157  0.00  0.00    +0.292 HD
ENDBRANCH  19  29
BRANCH  20  31
ATOM     31  O   UNL     1      -5.236  -1.026  -0.428  0.00  0.00    -0.505 OA
ATOM     32  H   UNL     1      -5.668  -0.200  -0.335  0.00  0.00    +0.292 HD
ENDBRANCH  20  31
TORSDOF 5
