REMARK  Name = 139583294
REMARK  7 active torsions:
REMARK  status: ('A' for Active; 'I' for Inactive)
REMARK    1  A    between atoms: C_6  and  O_20
REMARK    2  A    between atoms: C_7  and  C_24
REMARK    3  A    between atoms: C_14  and  C_27
REMARK    4  A    between atoms: C_17  and  O_22
REMARK    5  A    between atoms: C_24  and  C_25
REMARK    6  A    between atoms: C_27  and  C_29
REMARK    7  A    between atoms: C_29  and  O_30
REMARK                            x       y       z     vdW  Elec       q    Type
REMARK                         _______ _______ _______ _____ _____    ______ ____
ROOT
ATOM      1  O   UNL     1      -2.103   0.123  -0.877  0.00  0.00    -0.353 OA
ATOM      2  O   UNL     1       0.495   2.093  -1.006  0.00  0.00    -0.291 OA
ATOM      3  O   UNL     1       2.283   0.491   3.336  0.00  0.00    -0.296 OA
ATOM      4  C   UNL     1      -0.106   0.304   0.546  0.00  0.00    +0.105 C 
ATOM      5  C   UNL     1       0.134  -1.157   0.207  0.00  0.00    -0.009 C 
ATOM      6  C   UNL     1       1.531  -1.623   0.566  0.00  0.00    +0.129 C 
ATOM      7  C   UNL     1      -1.625   0.623   0.376  0.00  0.00    +0.126 C 
ATOM      8  C   UNL     1       0.303   0.667   1.997  0.00  0.00    +0.078 C 
ATOM      9  C   UNL     1       1.751  -1.472   2.076  0.00  0.00    +0.099 C 
ATOM     10  C   UNL     1       0.817   1.052  -0.441  0.00  0.00    +0.181 C 
ATOM     11  C   UNL     1       2.542  -0.778  -0.205  0.00  0.00    +0.011 C 
ATOM     12  C   UNL     1      -0.779  -1.885  -0.460  0.00  0.00    -0.002 C 
ATOM     13  C   UNL     1       1.540  -0.042   2.513  0.00  0.00    +0.154 C 
ATOM     14  C   UNL     1      -2.069  -1.307  -0.972  0.00  0.00    +0.148 C 
ATOM     15  C   UNL     1       2.190   0.502  -0.682  0.00  0.00    +0.067 C 
ATOM     16  C   UNL     1       3.849  -1.240  -0.424  0.00  0.00    -0.001 C 
ATOM     17  C   UNL     1       3.120   1.277  -1.386  0.00  0.00    +0.136 C 
ATOM     18  C   UNL     1       4.774  -0.462  -1.122  0.00  0.00    +0.003 C 
ATOM     19  C   UNL     1       4.408   0.791  -1.605  0.00  0.00    +0.037 C 
ENDROOT
BRANCH   6  20
ATOM     20  O   UNL     1       1.717  -2.997   0.220  0.00  0.00    -0.378 OA
ATOM     21  H   UNL     1       1.078  -3.542   0.706  0.00  0.00    +0.211 HD
ENDBRANCH   6  20
BRANCH  17  22
ATOM     22  O   UNL     1       2.837   2.521  -1.867  0.00  0.00    -0.505 OA
ATOM     23  H   UNL     1       1.984   2.888  -1.743  0.00  0.00    +0.292 HD
ENDBRANCH  17  22
BRANCH   7  24
ATOM     24  C   UNL     1      -2.027   2.094   0.474  0.00  0.00    +0.030 C 
BRANCH  24  25
ATOM     25  C   UNL     1      -3.521   2.240   0.744  0.00  0.00    +0.003 C 
ATOM     26  C   UNL     1      -3.917   3.703   0.868  0.00  0.00    +0.000 C 
ENDBRANCH  24  25
ENDBRANCH   7  24
BRANCH  14  27
ATOM     27  C   UNL     1      -3.288  -1.927  -0.296  0.00  0.00    +0.143 C 
BRANCH  27  29
ATOM     28  O   UNL     1      -4.769  -0.896  -1.934  0.00  0.00    -0.250 OA
ATOM     29  C   UNL     1      -4.572  -1.337  -0.812  0.00  0.00    +0.317 C 
BRANCH  29  30
ATOM     30  O   UNL     1      -5.513  -1.358   0.167  0.00  0.00    -0.480 OA
ATOM     31  H   UNL     1      -5.304  -1.709   1.010  0.00  0.00    +0.295 HD
ENDBRANCH  29  30
ENDBRANCH  27  29
ENDBRANCH  14  27
TORSDOF 7
