REMARK  Name = 139587666
REMARK  6 active torsions:
REMARK  status: ('A' for Active; 'I' for Inactive)
REMARK    1  A    between atoms: C_4  and  O_34
REMARK    2  A    between atoms: C_7  and  C_24
REMARK    3  A    between atoms: C_14  and  O_38
REMARK    4  A    between atoms: C_17  and  O_36
REMARK    5  A    between atoms: C_26  and  O_30
REMARK    6  A    between atoms: C_27  and  O_32
REMARK                            x       y       z     vdW  Elec       q    Type
REMARK                         _______ _______ _______ _____ _____    ______ ____
ROOT
ATOM      1  O   UNL     1      -3.234  -2.703   0.971  0.00  0.00    -0.291 OA
ATOM      2  O   UNL     1      -1.402  -2.311  -0.790  0.00  0.00    -0.287 OA
ATOM      3  O   UNL     1       0.006   2.721  -0.306  0.00  0.00    -0.286 OA
ATOM      4  C   UNL     1      -6.281  -1.094  -0.365  0.00  0.00    +0.100 C 
ATOM      5  C   UNL     1      -5.933   0.219   0.343  0.00  0.00    +0.057 C 
ATOM      6  C   UNL     1      -4.462   0.525   0.210  0.00  0.00    +0.017 C 
ATOM      7  C   UNL     1       3.021  -0.178  -0.020  0.00  0.00    +0.038 C 
ATOM      8  C   UNL     1      -5.431  -2.241   0.177  0.00  0.00    +0.096 C 
ATOM      9  C   UNL     1      -3.501  -0.501   0.155  0.00  0.00    +0.037 C 
ATOM     10  C   UNL     1      -2.141  -0.181  -0.056  0.00  0.00    +0.045 C 
ATOM     11  C   UNL     1      -3.982  -1.881   0.445  0.00  0.00    +0.175 C 
ATOM     12  C   UNL     1      -1.750   1.166  -0.076  0.00  0.00    +0.045 C 
ATOM     13  C   UNL     1       0.701   0.489  -0.148  0.00  0.00    +0.075 C 
ATOM     14  C   UNL     1       2.055   0.827  -0.049  0.00  0.00    +0.135 C 
ATOM     15  C   UNL     1       0.320  -0.849  -0.221  0.00  0.00    +0.045 C 
ATOM     16  C   UNL     1      -7.770  -1.414  -0.202  0.00  0.00    +0.030 C 
ATOM     17  C   UNL     1      -4.050   1.862   0.162  0.00  0.00    +0.135 C 
ATOM     18  C   UNL     1      -1.105  -1.204  -0.360  0.00  0.00    +0.196 C 
ATOM     19  C   UNL     1       2.640  -1.517  -0.094  0.00  0.00    +0.001 C 
ATOM     20  C   UNL     1      -0.324   1.546  -0.193  0.00  0.00    +0.199 C 
ATOM     21  C   UNL     1      -2.702   2.183   0.038  0.00  0.00    +0.040 C 
ATOM     22  C   UNL     1       1.291  -1.856  -0.199  0.00  0.00    +0.003 C 
ENDROOT
BRANCH   7  24
ATOM     23  O   UNL     1       5.147  -0.873   0.839  0.00  0.00    -0.352 OA
ATOM     24  C   UNL     1       4.492   0.160   0.092  0.00  0.00    +0.143 C 
ATOM     25  C   UNL     1       5.136   0.316  -1.295  0.00  0.00    +0.066 C 
ATOM     26  C   UNL     1       6.637   0.565  -1.169  0.00  0.00    +0.142 C 
ATOM     27  C   UNL     1       7.272  -0.507  -0.279  0.00  0.00    +0.164 C 
ATOM     28  C   UNL     1       6.537  -0.608   1.065  0.00  0.00    +0.145 C 
ATOM     29  C   UNL     1       7.074  -1.740   1.934  0.00  0.00    +0.035 C 
BRANCH  26  30
ATOM     30  O   UNL     1       6.831   1.860  -0.600  0.00  0.00    -0.382 OA
ATOM     31  H   UNL     1       6.425   2.529  -1.173  0.00  0.00    +0.210 HD
ENDBRANCH  26  30
BRANCH  27  32
ATOM     32  O   UNL     1       8.647  -0.193  -0.095  0.00  0.00    -0.380 OA
ATOM     33  H   UNL     1       9.084  -0.136  -0.959  0.00  0.00    +0.211 HD
ENDBRANCH  27  32
ENDBRANCH   7  24
BRANCH   4  34
ATOM     34  O   UNL     1      -6.027  -0.968  -1.768  0.00  0.00    -0.386 OA
ATOM     35  H   UNL     1      -5.089  -0.764  -1.910  0.00  0.00    +0.210 HD
ENDBRANCH   4  34
BRANCH  17  36
ATOM     36  O   UNL     1      -4.949   2.885   0.256  0.00  0.00    -0.472 OA
ATOM     37  C   UNL     1      -5.238   3.372   1.564  0.00  0.00    +0.252 C 
ENDBRANCH  17  36
BRANCH  14  38
ATOM     38  O   UNL     1       2.471   2.124   0.035  0.00  0.00    -0.506 OA
ATOM     39  H   UNL     1       3.386   2.319   0.100  0.00  0.00    +0.292 HD
ENDBRANCH  14  38
TORSDOF 6
