REMARK  Name = 139588092
REMARK  3 active torsions:
REMARK  status: ('A' for Active; 'I' for Inactive)
REMARK    1  A    between atoms: C_7  and  C_23
REMARK    2  A    between atoms: C_11  and  O_21
REMARK    3  A    between atoms: C_23  and  O_25
REMARK                            x       y       z     vdW  Elec       q    Type
REMARK                         _______ _______ _______ _____ _____    ______ ____
ROOT
ATOM      1  O   UNL     1      -2.374   0.184  -0.329  0.00  0.00    -0.445 OA
ATOM      2  O   UNL     1       2.148  -1.590  -0.713  0.00  0.00    -0.446 OA
ATOM      3  O   UNL     1      -0.162   2.588   0.275  0.00  0.00    -0.449 OA
ATOM      4  O   UNL     1      -2.683   0.924   1.835  0.00  0.00    -0.250 OA
ATOM      5  O   UNL     1       0.782  -1.798   1.139  0.00  0.00    -0.245 OA
ATOM      6  O   UNL     1       1.218   1.518  -1.237  0.00  0.00    -0.245 OA
ATOM      7  C   UNL     1      -2.101  -1.167   0.101  0.00  0.00    +0.218 C 
ATOM      8  C   UNL     1       3.351  -1.341   0.056  0.00  0.00    +0.200 C 
ATOM      9  C   UNL     1      -1.216   2.783  -0.694  0.00  0.00    +0.180 C 
ATOM     10  C   UNL     1      -2.545   2.509   0.018  0.00  0.00    +0.153 C 
ATOM     11  C   UNL     1       3.610   0.179   0.108  0.00  0.00    +0.173 C 
ATOM     12  C   UNL     1      -1.343  -1.818  -1.021  0.00  0.00    +0.026 C 
ATOM     13  C   UNL     1      -2.556   1.129   0.635  0.00  0.00    +0.321 C 
ATOM     14  C   UNL     1       4.462  -2.100  -0.669  0.00  0.00    +0.050 C 
ATOM     15  C   UNL     1      -1.141   4.215  -1.203  0.00  0.00    +0.048 C 
ATOM     16  C   UNL     1       2.814   0.846   1.199  0.00  0.00    +0.013 C 
ATOM     17  C   UNL     1      -0.035  -2.096  -1.107  0.00  0.00    +0.081 C 
ATOM     18  C   UNL     1       0.976  -1.814  -0.064  0.00  0.00    +0.341 C 
ATOM     19  C   UNL     1       1.708   1.598   1.122  0.00  0.00    +0.080 C 
ATOM     20  C   UNL     1       0.939   1.886  -0.110  0.00  0.00    +0.341 C 
ENDROOT
BRANCH  11  21
ATOM     21  O   UNL     1       4.991   0.419   0.394  0.00  0.00    -0.377 OA
ATOM     22  H   UNL     1       5.539   0.003  -0.289  0.00  0.00    +0.211 HD
ENDBRANCH  11  21
BRANCH   7  23
ATOM     23  C   UNL     1      -3.417  -1.895   0.361  0.00  0.00    +0.155 C 
ATOM     24  C   UNL     1      -3.192  -3.358   0.704  0.00  0.00    +0.036 C 
BRANCH  23  25
ATOM     25  O   UNL     1      -4.235  -1.803  -0.799  0.00  0.00    -0.380 OA
ATOM     26  H   UNL     1      -4.380  -0.869  -1.019  0.00  0.00    +0.211 HD
ENDBRANCH  23  25
ENDBRANCH   7  23
TORSDOF 3
