139584342
  -OEChem-03292013293D

 41 43  0     0  0  0  0  0  0999 V2000
    0.4699   -2.1482   -0.0221 O   0  0  0  0  0  0  0  0  0  0  0  0
    1.6439    2.5259   -0.6779 O   0  0  0  0  0  0  0  0  0  0  0  0
   -0.8175    1.7151   -0.4209 O   0  0  0  0  0  0  0  0  0  0  0  0
   -4.9750   -1.2214    0.2081 O   0  0  0  0  0  0  0  0  0  0  0  0
    5.7328    0.4843    1.4347 O   0  0  0  0  0  0  0  0  0  0  0  0
   -3.4847    1.6038    1.0460 O   0  0  0  0  0  0  0  0  0  0  0  0
   -3.7097    1.4997   -1.2426 O   0  0  0  0  0  0  0  0  0  0  0  0
    0.9882    0.2157   -0.3497 C   0  0  0  0  0  0  0  0  0  0  0  0
    1.3615   -1.1203   -0.2070 C   0  0  0  0  0  0  0  0  0  0  0  0
   -1.3802   -0.5560   -0.1030 C   0  0  0  0  0  0  0  0  0  0  0  0
    3.6825   -0.4818   -0.4345 C   0  0  0  0  0  0  0  0  0  0  0  0
   -0.4413    0.5588   -0.3014 C   0  0  0  0  0  0  0  0  0  0  0  0
   -0.8691   -1.8471    0.0255 C   0  0  0  0  0  0  0  0  0  0  0  0
    1.9552    1.2073   -0.5347 C   0  0  0  0  0  0  0  0  0  0  0  0
    2.7132   -1.4684   -0.2498 C   0  0  0  0  0  0  0  0  0  0  0  0
    3.3039    0.8534   -0.5766 C   0  0  0  0  0  0  0  0  0  0  0  0
    5.1256   -0.8558   -0.4787 C   0  0  0  0  0  0  0  0  0  0  0  0
   -2.7576   -0.3285   -0.0440 C   0  0  0  0  0  0  0  0  0  0  0  0
   -1.7424   -2.9202    0.2147 C   0  0  0  0  0  0  0  0  0  0  0  0
   -3.6249   -1.4045    0.1452 C   0  0  0  0  0  0  0  0  0  0  0  0
    5.7917   -0.8321    0.9003 C   0  0  0  0  0  0  0  0  0  0  0  0
   -3.1187   -2.6980    0.2743 C   0  0  0  0  0  0  0  0  0  0  0  0
   -3.3598    0.9967   -0.1710 C   0  0  0  0  0  0  0  0  0  0  0  0
    1.5768    3.3086    0.5125 C   0  0  0  0  0  0  0  0  0  0  0  0
   -4.0643    2.9129    1.0527 C   0  0  0  0  0  0  0  0  0  0  0  0
    3.0064   -2.5095   -0.1367 H   0  0  0  0  0  0  0  0  0  0  0  0
    4.0578    1.6238   -0.7220 H   0  0  0  0  0  0  0  0  0  0  0  0
    5.6538   -0.1645   -1.1484 H   0  0  0  0  0  0  0  0  0  0  0  0
    5.2404   -1.8529   -0.9214 H   0  0  0  0  0  0  0  0  0  0  0  0
   -1.3585   -3.9319    0.3164 H   0  0  0  0  0  0  0  0  0  0  0  0
    6.8425   -1.1262    0.8153 H   0  0  0  0  0  0  0  0  0  0  0  0
    5.2876   -1.5126    1.5945 H   0  0  0  0  0  0  0  0  0  0  0  0
   -3.7913   -3.5387    0.4219 H   0  0  0  0  0  0  0  0  0  0  0  0
    1.1130    4.2677    0.2665 H   0  0  0  0  0  0  0  0  0  0  0  0
    2.5863    3.4953    0.8919 H   0  0  0  0  0  0  0  0  0  0  0  0
    0.9770    2.8162    1.2847 H   0  0  0  0  0  0  0  0  0  0  0  0
   -5.2058   -0.2840    0.1114 H   0  0  0  0  0  0  0  0  0  0  0  0
    6.1673    0.4584    2.3042 H   0  0  0  0  0  0  0  0  0  0  0  0
   -4.0995    3.2644    2.0872 H   0  0  0  0  0  0  0  0  0  0  0  0
   -3.4472    3.6011    0.4673 H   0  0  0  0  0  0  0  0  0  0  0  0
   -5.0838    2.8760    0.6577 H   0  0  0  0  0  0  0  0  0  0  0  0
  1  9  1  0  0  0  0
  1 13  1  0  0  0  0
  2 14  1  0  0  0  0
  2 24  1  0  0  0  0
  3 12  2  0  0  0  0
  4 20  1  0  0  0  0
  4 37  1  0  0  0  0
  5 21  1  0  0  0  0
  5 38  1  0  0  0  0
  6 23  1  0  0  0  0
  6 25  1  0  0  0  0
  7 23  2  0  0  0  0
  8  9  2  0  0  0  0
  8 12  1  0  0  0  0
  8 14  1  0  0  0  0
  9 15  1  0  0  0  0
 10 12  1  0  0  0  0
 10 13  2  0  0  0  0
 10 18  1  0  0  0  0
 11 15  2  0  0  0  0
 11 16  1  0  0  0  0
 11 17  1  0  0  0  0
 13 19  1  0  0  0  0
 14 16  2  0  0  0  0
 15 26  1  0  0  0  0
 16 27  1  0  0  0  0
 17 21  1  0  0  0  0
 17 28  1  0  0  0  0
 17 29  1  0  0  0  0
 18 20  2  0  0  0  0
 18 23  1  0  0  0  0
 19 22  2  0  0  0  0
 19 30  1  0  0  0  0
 20 22  1  0  0  0  0
 21 31  1  0  0  0  0
 21 32  1  0  0  0  0
 22 33  1  0  0  0  0
 24 34  1  0  0  0  0
 24 35  1  0  0  0  0
 24 36  1  0  0  0  0
 25 39  1  0  0  0  0
 25 40  1  0  0  0  0
 25 41  1  0  0  0  0
M  END
> <PUBCHEM_COMPOUND_CID>
139584342

> <PUBCHEM_CONFORMER_RMSD>
0.8

> <PUBCHEM_CONFORMER_DIVERSEORDER>
2
1
6
5
4
3

> <PUBCHEM_MMFF94_PARTIAL_CHARGES>
31
1 -0.17
10 0.09
11 -0.14
12 0.4
13 0.08
14 0.08
15 -0.15
16 -0.15
17 0.14
18 0.09
19 -0.15
2 -0.36
20 0.08
21 0.28
22 -0.15
23 0.63
24 0.28
25 0.28
26 0.15
27 0.15
3 -0.57
30 0.15
33 0.15
37 0.45
38 0.4
4 -0.53
5 -0.68
6 -0.43
7 -0.57
8 0.09
9 0.08

> <PUBCHEM_EFFECTIVE_ROTOR_COUNT>
5

> <PUBCHEM_PHARMACOPHORE_FEATURES>
10
1 1 acceptor
1 2 acceptor
1 3 acceptor
1 4 donor
1 5 acceptor
1 5 donor
1 7 acceptor
6 1 8 9 10 12 13 rings
6 10 13 18 19 20 22 rings
6 8 9 11 14 15 16 rings

> <PUBCHEM_HEAVY_ATOM_COUNT>
25

> <PUBCHEM_ATOM_DEF_STEREO_COUNT>
0

> <PUBCHEM_ATOM_UDEF_STEREO_COUNT>
0

> <PUBCHEM_BOND_DEF_STEREO_COUNT>
0

> <PUBCHEM_BOND_UDEF_STEREO_COUNT>
0

> <PUBCHEM_ISOTOPIC_ATOM_COUNT>
0

> <PUBCHEM_COMPONENT_COUNT>
1

> <PUBCHEM_CACTVS_TAUTO_COUNT>
-1

> <PUBCHEM_CONFORMER_ID>
0851E35600000002

> <PUBCHEM_MMFF94_ENERGY>
92.3126

> <PUBCHEM_FEATURE_SELFOVERLAP>
50.817

> <PUBCHEM_SHAPE_FINGERPRINT>
10319926 262 18268974450739237906
10493431 412 18268157448663379505
10675989 125 16676388765120587349
10906281 52 18270134417772647532
10967382 1 18193279589766818063
1100329 8 18411708651187395512
12236239 1 17458344156362335958
12403259 226 18265331888152320005
12403260 363 18339359772598756479
12507557 5 18410854365143713865
12633257 1 18335706009460402452
13140716 1 18410296946876327641
13583140 156 16199855254880788206
14223421 5 18194123138602645405
14466204 15 18335978705861388402
14790565 3 18050582737252680564
15196674 1 18408606980788381294
15442244 35 18337678606313620294
15788980 27 17022620858185935702
1601671 61 18338801117971320718
16945 1 18120094975130962871
17492 89 18047474705649002434
17804303 29 18408326609396804134
1813 80 17095240307425049966
19591789 44 18336269045297273935
20600515 1 18341623572741685628
21033648 29 17560786733027906778
21236236 1 18411138026032119871
21267235 1 18335713766045030702
21792934 111 18339642356537165267
21859007 373 17824234112599680757
221490 88 18191314977289256934
23366157 5 17752485627748182284
23402539 116 18341043039260187038
23557571 272 18272385152402801518
23558518 356 18189625023384748345
23559900 14 18267581488647389384
3004659 81 18113904862591003358
3286 77 18262800795173532318
335352 9 18408605833589086415
34934 24 18336259042603420966
350125 39 18409456903493066129
3680242 22 18188491264310460938
4214541 1 18408606967534428583
4409770 3 17679847242114721132
5104073 3 18335985345938922160
559249 180 18187076222451529906
7226269 152 18201720587957574312
9709674 26 18119814861163382991

> <PUBCHEM_SHAPE_MULTIPOLES>
473.4
10.46
3.38
0.92
7.66
1.17
0.12
-0.45
2.51
-2.64
0.55
0.3
0.33
-0.21

> <PUBCHEM_SHAPE_SELFOVERLAP>
1044.113

> <PUBCHEM_SHAPE_VOLUME>
256

> <PUBCHEM_COORDINATE_TYPE>
2
5
10

$$$$
