REMARK  Name = 139588497
REMARK  9 active torsions:
REMARK  status: ('A' for Active; 'I' for Inactive)
REMARK    1  A    between atoms: O_1  and  C_3
REMARK    2  A    between atoms: O_1  and  C_16
REMARK    3  A    between atoms: C_3  and  C_4
REMARK    4  A    between atoms: C_6  and  O_12
REMARK    5  A    between atoms: C_9  and  O_14
REMARK    6  A    between atoms: C_16  and  C_17
REMARK    7  A    between atoms: C_18  and  C_29
REMARK    8  A    between atoms: C_21  and  O_26
REMARK    9  A    between atoms: C_22  and  O_24
REMARK                            x       y       z     vdW  Elec       q    Type
REMARK                         _______ _______ _______ _____ _____    ______ ____
ROOT
ATOM      1  O   UNL     1      -0.328  -0.565  -0.757  0.00  0.00    -0.440 OA
ENDROOT
BRANCH   1   3
ATOM      2  O   UNL     1      -1.637  -1.476  -2.417  0.00  0.00    -0.245 OA
ATOM      3  C   UNL     1      -1.508  -0.923  -1.336  0.00  0.00    +0.344 C 
BRANCH   3   4
ATOM      4  C   UNL     1      -2.654  -0.551  -0.469  0.00  0.00    +0.105 C 
ATOM      5  C   UNL     1      -3.525  -1.534   0.001  0.00  0.00    -0.010 C 
ATOM      6  C   UNL     1      -2.858   0.785  -0.125  0.00  0.00    +0.138 C 
ATOM      7  C   UNL     1      -3.933   1.138   0.691  0.00  0.00    +0.046 C 
ATOM      8  C   UNL     1      -4.600  -1.180   0.817  0.00  0.00    +0.032 C 
ATOM      9  C   UNL     1      -4.804   0.156   1.162  0.00  0.00    +0.132 C 
ATOM     10  C   UNL     1      -3.332  -2.973  -0.352  0.00  0.00    +0.031 C 
ATOM     11  C   UNL     1      -4.153   2.570   1.063  0.00  0.00    +0.037 C 
BRANCH   6  12
ATOM     12  O   UNL     1      -2.007   1.749  -0.582  0.00  0.00    -0.506 OA
ATOM     13  H   UNL     1      -1.285   1.514  -1.130  0.00  0.00    +0.292 HD
ENDBRANCH   6  12
BRANCH   9  14
ATOM     14  O   UNL     1      -5.859   0.482   1.960  0.00  0.00    -0.506 OA
ATOM     15  H   UNL     1      -6.007   1.376   2.198  0.00  0.00    +0.292 HD
ENDBRANCH   9  14
ENDBRANCH   3   4
ENDBRANCH   1   3
BRANCH   1  16
ATOM     16  C   UNL     1       0.848  -0.870  -1.494  0.00  0.00    +0.236 C 
BRANCH  16  17
ATOM     17  C   UNL     1       2.045  -0.414  -0.725  0.00  0.00    +0.030 C 
ATOM     18  C   UNL     1       2.383   0.936  -0.647  0.00  0.00    +0.075 C 
ATOM     19  C   UNL     1       4.291   0.380   0.726  0.00  0.00    +0.046 C 
ATOM     20  C   UNL     1       2.830  -1.368  -0.077  0.00  0.00    +0.036 C 
ATOM     21  C   UNL     1       3.506   1.334   0.078  0.00  0.00    +0.135 C 
ATOM     22  C   UNL     1       3.953  -0.971   0.648  0.00  0.00    +0.137 C 
ATOM     23  C   UNL     1       5.497   0.803   1.503  0.00  0.00    +0.037 C 
BRANCH  22  24
ATOM     24  O   UNL     1       4.709  -1.917   1.274  0.00  0.00    -0.472 OA
ATOM     25  C   UNL     1       4.289  -3.273   1.141  0.00  0.00    +0.252 C 
ENDBRANCH  22  24
BRANCH  21  26
ATOM     26  O   UNL     1       3.841   2.655   0.155  0.00  0.00    -0.506 OA
ATOM     27  H   UNL     1       3.316   3.297  -0.279  0.00  0.00    +0.292 HD
ENDBRANCH  21  26
BRANCH  18  29
ATOM     28  O   UNL     1       1.442   3.091  -0.913  0.00  0.00    -0.283 OA
ATOM     29  C   UNL     1       1.566   1.937  -1.325  0.00  0.00    +0.237 C 
ENDBRANCH  18  29
ENDBRANCH  16  17
ENDBRANCH   1  16
TORSDOF 9
