REMARK  Name = 139591094
REMARK  4 active torsions:
REMARK  status: ('A' for Active; 'I' for Inactive)
REMARK    1  A    between atoms: C_1  and  C_5
REMARK    2  A    between atoms: C_1  and  C_26
REMARK    3  A    between atoms: C_5  and  O_19
REMARK    4  A    between atoms: C_28  and  C_38
REMARK                            x       y       z     vdW  Elec       q    Type
REMARK                         _______ _______ _______ _____ _____    ______ ____
ROOT
ATOM      1  C   UNL     1       0.348  -0.888  -0.405  0.00  0.00    +0.060 C 
ENDROOT
BRANCH   1   5
ATOM      2  O   UNL     1       5.643   1.820   0.241  0.00  0.00    -0.277 OA
ATOM      3  N   UNL     1       3.669   0.640  -0.214  0.00  0.00    -0.279 N 
ATOM      4  N   UNL     1       2.396   1.201   1.580  0.00  0.00    +0.406 N 
ATOM      5  C   UNL     1       1.815  -0.814  -0.010  0.00  0.00    +0.109 C 
ATOM      6  C   UNL     1       2.305   0.634   0.237  0.00  0.00    +0.052 C 
ATOM      7  C   UNL     1       3.569   2.131   1.527  0.00  0.00    +0.028 C 
ATOM      8  C   UNL     1       2.801  -1.252  -1.081  0.00  0.00    +0.015 C 
ATOM      9  C   UNL     1       3.909  -0.389  -1.107  0.00  0.00    +0.050 C 
ATOM     10  C   UNL     1       4.471   1.545   0.434  0.00  0.00    +0.209 C 
ATOM     11  C   UNL     1       4.318   2.163   2.861  0.00  0.00    -0.012 C 
ATOM     12  C   UNL     1       3.081   3.523   1.137  0.00  0.00    -0.012 C 
ATOM     13  C   UNL     1       2.780  -2.380  -1.882  0.00  0.00    -0.001 C 
ATOM     14  C   UNL     1       5.024  -0.633  -1.882  0.00  0.00    +0.015 C 
ATOM     15  C   UNL     1       3.885  -2.628  -2.702  0.00  0.00    -0.000 C 
ATOM     16  C   UNL     1       4.998  -1.766  -2.697  0.00  0.00    +0.001 C 
ATOM     17  H   UNL     1       2.552   0.466   2.270  0.00  0.00    -0.081 HD
ATOM     18  H   UNL     1       1.538   1.680   1.853  0.00  0.00    -0.081 HD
BRANCH   5  19
ATOM     19  O   UNL     1       2.040  -1.623   1.141  0.00  0.00    -0.383 OA
ATOM     20  H   UNL     1       1.423  -1.366   1.843  0.00  0.00    +0.211 HD
ENDBRANCH   5  19
ENDBRANCH   1   5
BRANCH   1  26
ATOM     21  O   UNL     1      -0.006  -1.688   2.678  0.00  0.00    -0.273 OA
ATOM     22  O   UNL     1      -1.038   2.312   0.074  0.00  0.00    -0.274 OA
ATOM     23  N   UNL     1      -1.846   0.123   0.224  0.00  0.00    -0.229 N 
ATOM     24  N   UNL     1      -1.945  -2.225   1.563  0.00  0.00    -0.298 N 
ATOM     25  N   UNL     1      -4.059  -0.379  -0.491  0.00  0.00    -0.393 NA
ATOM     26  C   UNL     1      -0.561  -0.400   0.716  0.00  0.00    +0.160 C 
ATOM     27  C   UNL     1      -0.810  -1.466   1.774  0.00  0.00    +0.241 C 
ATOM     28  C   UNL     1      -2.638  -2.212   0.289  0.00  0.00    +0.139 C 
ATOM     29  C   UNL     1      -2.911  -0.748  -0.017  0.00  0.00    +0.184 C 
ATOM     30  C   UNL     1      -1.942   1.492  -0.059  0.00  0.00    +0.242 C 
ATOM     31  C   UNL     1      -3.257   1.936  -0.570  0.00  0.00    +0.151 C 
ATOM     32  C   UNL     1      -4.259   0.981  -0.765  0.00  0.00    +0.123 C 
ATOM     33  C   UNL     1      -3.489   3.286  -0.856  0.00  0.00    -0.010 C 
ATOM     34  C   UNL     1      -5.503   1.397  -1.253  0.00  0.00    +0.028 C 
ATOM     35  C   UNL     1      -4.733   3.685  -1.341  0.00  0.00    -0.004 C 
ATOM     36  C   UNL     1      -5.739   2.742  -1.540  0.00  0.00    +0.002 C 
ATOM     37  H   UNL     1      -2.292  -2.786   2.294  0.00  0.00    +0.150 HD
BRANCH  28  38
ATOM     38  C   UNL     1      -3.901  -3.062   0.352  0.00  0.00    +0.026 C 
ATOM     39  C   UNL     1      -4.858  -2.530   1.418  0.00  0.00    +0.002 C 
ATOM     40  C   UNL     1      -3.555  -4.525   0.627  0.00  0.00    +0.002 C 
ENDBRANCH  28  38
ENDBRANCH   1  26
TORSDOF 4
