REMARK  Name = 139591369
REMARK  8 active torsions:
REMARK  status: ('A' for Active; 'I' for Inactive)
REMARK    1  A    between atoms: C_2  and  C_15
REMARK    2  A    between atoms: C_3  and  C_12
REMARK    3  A    between atoms: C_5  and  O_9
REMARK    4  A    between atoms: C_12  and  O_13
REMARK    5  A    between atoms: C_15  and  C_17
REMARK    6  A    between atoms: C_17  and  C_18
REMARK    7  A    between atoms: C_19  and  O_24
REMARK    8  A    between atoms: C_21  and  O_26
REMARK                            x       y       z     vdW  Elec       q    Type
REMARK                         _______ _______ _______ _____ _____    ______ ____
ROOT
ATOM      1  O   UNL     1      -3.326   1.625   1.167  0.00  0.00    -0.353 OA
ATOM      2  C   UNL     1      -1.449   0.577   0.148  0.00  0.00    +0.049 C 
ATOM      3  C   UNL     1      -2.681  -0.283  -0.127  0.00  0.00    +0.144 C 
ATOM      4  C   UNL     1      -1.304   1.364  -1.171  0.00  0.00    +0.006 C 
ATOM      5  C   UNL     1      -2.571  -0.685  -1.604  0.00  0.00    +0.123 C 
ATOM      6  C   UNL     1      -1.688   0.375  -2.271  0.00  0.00    +0.030 C 
ATOM      7  C   UNL     1      -1.907   1.460   1.299  0.00  0.00    +0.143 C 
ATOM      8  C   UNL     1      -3.833   0.660   0.226  0.00  0.00    +0.155 C 
ENDROOT
BRANCH   5   9
ATOM      9  O   UNL     1      -3.836  -0.747  -2.244  0.00  0.00    -0.384 OA
ATOM     10  H   UNL     1      -4.384  -1.421  -1.813  0.00  0.00    +0.210 HD
ENDBRANCH   5   9
BRANCH   3  12
ATOM     11  O   UNL     1      -2.919  -2.651   0.340  0.00  0.00    -0.250 OA
ATOM     12  C   UNL     1      -2.782  -1.507   0.748  0.00  0.00    +0.318 C 
BRANCH  12  13
ATOM     13  O   UNL     1      -2.704  -1.168   2.057  0.00  0.00    -0.480 OA
ATOM     14  H   UNL     1      -2.599  -0.270   2.303  0.00  0.00    +0.295 HD
ENDBRANCH  12  13
ENDBRANCH   3  12
BRANCH   2  15
ATOM     15  C   UNL     1      -0.151  -0.168   0.465  0.00  0.00    +0.072 C 
BRANCH  15  17
ATOM     16  O   UNL     1       0.894   1.929   1.027  0.00  0.00    -0.291 OA
ATOM     17  C   UNL     1       1.025   0.778   0.617  0.00  0.00    +0.176 C 
BRANCH  17  18
ATOM     18  C   UNL     1       2.385   0.285   0.251  0.00  0.00    +0.071 C 
ATOM     19  C   UNL     1       3.359   1.160  -0.229  0.00  0.00    +0.137 C 
ATOM     20  C   UNL     1       2.677  -1.071   0.396  0.00  0.00    +0.042 C 
ATOM     21  C   UNL     1       3.943  -1.552   0.061  0.00  0.00    +0.134 C 
ATOM     22  C   UNL     1       4.625   0.680  -0.564  0.00  0.00    +0.040 C 
ATOM     23  C   UNL     1       4.917  -0.676  -0.419  0.00  0.00    +0.040 C 
BRANCH  19  24
ATOM     24  O   UNL     1       3.093   2.489  -0.377  0.00  0.00    -0.505 OA
ATOM     25  H   UNL     1       2.247   2.825  -0.156  0.00  0.00    +0.292 HD
ENDBRANCH  19  24
BRANCH  21  26
ATOM     26  O   UNL     1       4.229  -2.875   0.204  0.00  0.00    -0.506 OA
ATOM     27  H   UNL     1       3.575  -3.463   0.527  0.00  0.00    +0.292 HD
ENDBRANCH  21  26
ENDBRANCH  17  18
ENDBRANCH  15  17
ENDBRANCH   2  15
TORSDOF 8
