REMARK  Name = 139585597
REMARK  10 active torsions:
REMARK  status: ('A' for Active; 'I' for Inactive)
REMARK    1  A    between atoms: C_6  and  O_19
REMARK    2  A    between atoms: C_7  and  O_21
REMARK    3  A    between atoms: C_9  and  C_25
REMARK    4  A    between atoms: C_16  and  O_23
REMARK    5  A    between atoms: C_25  and  C_26
REMARK    6  A    between atoms: C_27  and  N_29
REMARK    7  A    between atoms: C_30  and  C_32
REMARK    8  A    between atoms: C_32  and  C_33
REMARK    9  A    between atoms: N_34  and  C_35
REMARK   10  A    between atoms: N_34  and  O_36
REMARK                            x       y       z     vdW  Elec       q    Type
REMARK                         _______ _______ _______ _____ _____    ______ ____
ROOT
ATOM      1  O   UNL     1       2.365  -2.241  -1.473  0.00  0.00    -0.348 OA
ATOM      2  O   UNL     1       2.142   0.654   0.075  0.00  0.00    -0.449 OA
ATOM      3  O   UNL     1       2.700   1.420  -2.047  0.00  0.00    -0.245 OA
ATOM      4  C   UNL     1       1.573  -2.860  -0.451  0.00  0.00    +0.172 C 
ATOM      5  C   UNL     1       2.925  -3.418  -0.880  0.00  0.00    +0.175 C 
ATOM      6  C   UNL     1       1.349  -2.054   0.789  0.00  0.00    +0.144 C 
ATOM      7  C   UNL     1       4.251  -3.219  -0.195  0.00  0.00    +0.162 C 
ATOM      8  C   UNL     1       0.352  -0.899   0.600  0.00  0.00    +0.076 C 
ATOM      9  C   UNL     1       0.830   0.219  -0.342  0.00  0.00    +0.176 C 
ATOM     10  C   UNL     1       4.631  -1.832   0.247  0.00  0.00    +0.005 C 
ATOM     11  C   UNL     1       5.015  -0.864  -0.598  0.00  0.00    -0.002 C 
ATOM     12  C   UNL     1       5.233   0.507  -0.130  0.00  0.00    +0.009 C 
ATOM     13  C   UNL     1       2.944   1.196  -0.875  0.00  0.00    +0.344 C 
ATOM     14  C   UNL     1       4.238   1.493  -0.249  0.00  0.00    +0.109 C 
ATOM     15  C   UNL     1       6.452   0.852   0.467  0.00  0.00    +0.000 C 
ATOM     16  C   UNL     1       4.457   2.799   0.198  0.00  0.00    +0.140 C 
ATOM     17  C   UNL     1       6.671   2.155   0.922  0.00  0.00    +0.003 C 
ATOM     18  C   UNL     1       5.677   3.125   0.786  0.00  0.00    +0.037 C 
ENDROOT
BRANCH   6  19
ATOM     19  O   UNL     1       0.835  -2.927   1.800  0.00  0.00    -0.382 OA
ATOM     20  H   UNL     1       1.451  -3.665   1.934  0.00  0.00    +0.210 HD
ENDBRANCH   6  19
BRANCH   7  21
ATOM     21  O   UNL     1       4.303  -4.072   0.951  0.00  0.00    -0.377 OA
ATOM     22  H   UNL     1       4.061  -4.976   0.693  0.00  0.00    +0.211 HD
ENDBRANCH   7  21
BRANCH  16  23
ATOM     23  O   UNL     1       3.501   3.761   0.076  0.00  0.00    -0.505 OA
ATOM     24  H   UNL     1       2.676   3.555  -0.318  0.00  0.00    +0.292 HD
ENDBRANCH  16  23
BRANCH   9  25
ATOM     25  C   UNL     1      -0.127   1.407  -0.292  0.00  0.00    +0.071 C 
BRANCH  25  26
ATOM     26  C   UNL     1      -1.509   1.009  -0.712  0.00  0.00    -0.006 C 
ATOM     27  C   UNL     1      -2.581   1.118   0.082  0.00  0.00    +0.059 C 
BRANCH  27  29
ATOM     28  O   UNL     1      -4.975   1.283   1.645  0.00  0.00    -0.274 OA
ATOM     29  N   UNL     1      -3.832   0.760  -0.317  0.00  0.00    -0.283 N 
ATOM     30  C   UNL     1      -4.956   0.865   0.491  0.00  0.00    +0.231 C 
ATOM     31  H   UNL     1      -3.946   0.408  -1.230  0.00  0.00    +0.155 HD
BRANCH  30  32
ATOM     32  C   UNL     1      -6.187   0.402  -0.209  0.00  0.00    +0.113 C 
BRANCH  32  33
ATOM     33  C   UNL     1      -7.364   0.435   0.426  0.00  0.00    +0.006 C 
ATOM     34  C   UNL     1      -8.566  -0.028  -0.295  0.00  0.00    +0.123 C 
BRANCH  34  35
ATOM     35  N   UNL     1      -9.736  -0.025   0.252  0.00  0.00    -0.130 NA
BRANCH  35  36
ATOM     36  O   UNL     1     -10.665  -0.515  -0.677  0.00  0.00    -0.234 OA
ATOM     37  C   UNL     1     -11.946  -0.508  -0.067  0.00  0.00    +0.211 C 
ENDBRANCH  35  36
ENDBRANCH  34  35
ENDBRANCH  32  33
ENDBRANCH  30  32
ENDBRANCH  27  29
ENDBRANCH  25  26
ENDBRANCH   9  25
TORSDOF 10
