REMARK  Name = 139588339
REMARK  5 active torsions:
REMARK  status: ('A' for Active; 'I' for Inactive)
REMARK    1  A    between atoms: C_16  and  O_33
REMARK    2  A    between atoms: C_22  and  O_35
REMARK    3  A    between atoms: C_24  and  O_37
REMARK    4  A    between atoms: C_27  and  O_39
REMARK    5  A    between atoms: C_29  and  O_41
REMARK                            x       y       z     vdW  Elec       q    Type
REMARK                         _______ _______ _______ _____ _____    ______ ____
ROOT
ATOM      1  O   UNL     1      -3.074   2.756   1.710  0.00  0.00    -0.291 OA
ATOM      2  O   UNL     1      -3.399  -0.625   1.939  0.00  0.00    -0.291 OA
ATOM      3  O   UNL     1       5.763  -1.363  -0.279  0.00  0.00    -0.286 OA
ATOM      4  C   UNL     1       0.144   0.368   0.497  0.00  0.00    +0.060 C 
ATOM      5  C   UNL     1      -0.273   0.526   1.999  0.00  0.00    +0.027 C 
ATOM      6  C   UNL     1       0.367  -1.152   0.155  0.00  0.00    -0.015 C 
ATOM      7  C   UNL     1       1.579   0.874   0.373  0.00  0.00    +0.019 C 
ATOM      8  C   UNL     1      -0.780   1.061  -0.505  0.00  0.00    -0.006 C 
ATOM      9  C   UNL     1      -0.930   1.879   2.285  0.00  0.00    +0.071 C 
ATOM     10  C   UNL     1      -1.097  -0.637   2.573  0.00  0.00    +0.071 C 
ATOM     11  C   UNL     1       2.414  -0.216   0.183  0.00  0.00    +0.005 C 
ATOM     12  C   UNL     1       1.681  -1.462   0.072  0.00  0.00    -0.003 C 
ATOM     13  C   UNL     1      -1.833   1.894  -0.098  0.00  0.00    +0.065 C 
ATOM     14  C   UNL     1      -0.786  -2.054  -0.093  0.00  0.00    +0.002 C 
ATOM     15  C   UNL     1      -2.047   2.199   1.332  0.00  0.00    +0.176 C 
ATOM     16  C   UNL     1       2.130   2.142   0.439  0.00  0.00    +0.133 C 
ATOM     17  C   UNL     1      -2.264  -1.037   1.714  0.00  0.00    +0.176 C 
ATOM     18  C   UNL     1      -2.017  -1.972   0.588  0.00  0.00    +0.068 C 
ATOM     19  C   UNL     1       3.785  -0.115   0.056  0.00  0.00    +0.072 C 
ATOM     20  C   UNL     1      -0.592   0.876  -1.891  0.00  0.00    +0.033 C 
ATOM     21  C   UNL     1       2.419  -2.681  -0.138  0.00  0.00    +0.003 C 
ATOM     22  C   UNL     1      -2.694   2.481  -1.038  0.00  0.00    +0.139 C 
ATOM     23  C   UNL     1       3.524   2.273   0.316  0.00  0.00    +0.073 C 
ATOM     24  C   UNL     1       4.356   1.151   0.128  0.00  0.00    +0.140 C 
ATOM     25  C   UNL     1      -0.705  -2.964  -1.167  0.00  0.00    -0.000 C 
ATOM     26  C   UNL     1       4.544  -1.369  -0.165  0.00  0.00    +0.199 C 
ATOM     27  C   UNL     1      -1.444   1.465  -2.827  0.00  0.00    +0.136 C 
ATOM     28  C   UNL     1       3.760  -2.651  -0.246  0.00  0.00    +0.042 C 
ATOM     29  C   UNL     1      -3.096  -2.797   0.224  0.00  0.00    +0.136 C 
ATOM     30  C   UNL     1      -2.499   2.262  -2.400  0.00  0.00    +0.073 C 
ATOM     31  C   UNL     1      -1.777  -3.788  -1.520  0.00  0.00    +0.003 C 
ATOM     32  C   UNL     1      -2.972  -3.706  -0.822  0.00  0.00    +0.037 C 
ENDROOT
BRANCH  16  33
ATOM     33  O   UNL     1       1.373   3.261   0.555  0.00  0.00    -0.506 OA
ATOM     34  H   UNL     1       0.443   3.191   0.638  0.00  0.00    +0.292 HD
ENDBRANCH  16  33
BRANCH  22  35
ATOM     35  O   UNL     1      -3.728   3.297  -0.686  0.00  0.00    -0.505 OA
ATOM     36  H   UNL     1      -3.898   3.474   0.219  0.00  0.00    +0.292 HD
ENDBRANCH  22  35
BRANCH  24  37
ATOM     37  O   UNL     1       5.697   1.347   0.010  0.00  0.00    -0.505 OA
ATOM     38  H   UNL     1       6.269   0.616  -0.116  0.00  0.00    +0.292 HD
ENDBRANCH  24  37
BRANCH  27  39
ATOM     39  O   UNL     1      -1.241   1.257  -4.156  0.00  0.00    -0.505 OA
ATOM     40  H   UNL     1      -0.529   0.720  -4.443  0.00  0.00    +0.292 HD
ENDBRANCH  27  39
BRANCH  29  41
ATOM     41  O   UNL     1      -4.291  -2.779   0.885  0.00  0.00    -0.505 OA
ATOM     42  H   UNL     1      -4.424  -2.184   1.596  0.00  0.00    +0.292 HD
ENDBRANCH  29  41
TORSDOF 5
