REMARK  Name = 139583759
REMARK  2 active torsions:
REMARK  status: ('A' for Active; 'I' for Inactive)
REMARK    1  A    between atoms: C_9  and  C_30
REMARK    2  A    between atoms: C_30  and  O_31
REMARK                            x       y       z     vdW  Elec       q    Type
REMARK                         _______ _______ _______ _____ _____    ______ ____
ROOT
ATOM      1  O   UNL     1       3.479  -2.124  -0.277  0.00  0.00    -0.274 OA
ATOM      2  O   UNL     1       0.208  -4.105   0.332  0.00  0.00    -0.273 OA
ATOM      3  O   UNL     1      -2.726  -1.335   2.253  0.00  0.00    -0.274 OA
ATOM      4  N   UNL     1      -1.057  -0.990   0.668  0.00  0.00    -0.229 N 
ATOM      5  N   UNL     1       0.593  -2.225  -0.999  0.00  0.00    -0.297 N 
ATOM      6  N   UNL     1       4.040   0.136  -0.061  0.00  0.00    -0.284 N 
ATOM      7  N   UNL     1      -1.394   0.462  -1.195  0.00  0.00    -0.393 NA
ATOM      8  C   UNL     1       1.740  -0.423   0.244  0.00  0.00    +0.116 C 
ATOM      9  C   UNL     1       0.761  -0.764  -0.928  0.00  0.00    +0.155 C 
ATOM     10  C   UNL     1       1.228  -1.084   1.558  0.00  0.00    +0.044 C 
ATOM     11  C   UNL     1      -0.056  -1.877   1.273  0.00  0.00    +0.159 C 
ATOM     12  C   UNL     1      -0.658  -0.359  -0.519  0.00  0.00    +0.185 C 
ATOM     13  C   UNL     1       2.012   1.057   0.430  0.00  0.00    +0.001 C 
ATOM     14  C   UNL     1       3.174  -0.959  -0.068  0.00  0.00    +0.231 C 
ATOM     15  C   UNL     1       0.226  -2.892   0.173  0.00  0.00    +0.241 C 
ATOM     16  C   UNL     1       3.367   1.314   0.230  0.00  0.00    +0.047 C 
ATOM     17  C   UNL     1      -2.314  -0.800   1.229  0.00  0.00    +0.242 C 
ATOM     18  C   UNL     1       1.157   2.096   0.760  0.00  0.00    -0.003 C 
ATOM     19  C   UNL     1      -3.176   0.143   0.477  0.00  0.00    +0.151 C 
ATOM     20  C   UNL     1      -2.680   0.734  -0.696  0.00  0.00    +0.123 C 
ATOM     21  C   UNL     1       3.914   2.579   0.328  0.00  0.00    +0.014 C 
ATOM     22  C   UNL     1       1.685   3.387   0.866  0.00  0.00    -0.000 C 
ATOM     23  C   UNL     1       3.052   3.627   0.649  0.00  0.00    +0.001 C 
ATOM     24  C   UNL     1      -4.463   0.440   0.939  0.00  0.00    -0.010 C 
ATOM     25  C   UNL     1      -3.497   1.627  -1.397  0.00  0.00    +0.028 C 
ATOM     26  C   UNL     1      -5.263   1.332   0.227  0.00  0.00    -0.004 C 
ATOM     27  C   UNL     1      -4.782   1.925  -0.938  0.00  0.00    +0.002 C 
ATOM     28  H   UNL     1       0.733  -2.714  -1.841  0.00  0.00    +0.150 HD
ATOM     29  H   UNL     1       5.007   0.079  -0.240  0.00  0.00    +0.155 HD
ENDROOT
BRANCH   9  30
ATOM     30  C   UNL     1       1.163  -0.208  -2.294  0.00  0.00    +0.164 C 
BRANCH  30  31
ATOM     31  O   UNL     1       0.267  -0.714  -3.265  0.00  0.00    -0.380 OA
ATOM     32  H   UNL     1       0.509  -0.370  -4.139  0.00  0.00    +0.211 HD
ENDBRANCH  30  31
ENDBRANCH   9  30
TORSDOF 2
