REMARK  Name = 139587994
REMARK  6 active torsions:
REMARK  status: ('A' for Active; 'I' for Inactive)
REMARK    1  A    between atoms: C_6  and  O_17
REMARK    2  A    between atoms: C_8  and  C_23
REMARK    3  A    between atoms: C_11  and  O_19
REMARK    4  A    between atoms: C_14  and  C_22
REMARK    5  A    between atoms: C_23  and  O_24
REMARK    6  A    between atoms: O_24  and  C_27
REMARK                            x       y       z     vdW  Elec       q    Type
REMARK                         _______ _______ _______ _____ _____    ______ ____
ROOT
ATOM      1  O   UNL     1       0.335   2.342  -1.235  0.00  0.00    -0.236 OA
ATOM      2  N   UNL     1       2.187   2.377   1.629  0.00  0.00    +0.388 N 
ATOM      3  N   UNL     1      -0.739   2.106  -0.328  0.00  0.00    -0.239 N 
ATOM      4  C   UNL     1       1.559   1.531   0.681  0.00  0.00    -0.024 C 
ATOM      5  C   UNL     1       1.000   2.946   1.077  0.00  0.00    -0.051 C 
ATOM      6  C   UNL     1       1.409   1.441  -0.818  0.00  0.00    +0.196 C 
ATOM      7  C   UNL     1      -0.472   2.721   1.006  0.00  0.00    +0.109 C 
ATOM      8  C   UNL     1       0.940   0.031  -1.313  0.00  0.00    +0.122 C 
ATOM      9  C   UNL     1      -0.495  -0.262  -0.845  0.00  0.00    +0.037 C 
ATOM     10  C   UNL     1      -1.283   0.803  -0.331  0.00  0.00    +0.081 C 
ATOM     11  C   UNL     1      -1.050  -1.546  -0.908  0.00  0.00    +0.131 C 
ATOM     12  C   UNL     1      -2.569   0.549   0.160  0.00  0.00    +0.022 C 
ATOM     13  C   UNL     1      -2.341  -1.782  -0.431  0.00  0.00    +0.040 C 
ATOM     14  C   UNL     1      -3.094  -0.741   0.109  0.00  0.00    +0.047 C 
ATOM     15  H   UNL     1       3.087   2.795   1.394  0.00  0.00    -0.084 HD
ATOM     16  H   UNL     1       2.480   2.219   2.593  0.00  0.00    -0.084 HD
ENDROOT
BRANCH   6  17
ATOM     17  O   UNL     1       2.624   1.795  -1.473  0.00  0.00    -0.363 OA
ATOM     18  H   UNL     1       2.915   2.668  -1.167  0.00  0.00    +0.213 HD
ENDBRANCH   6  17
BRANCH  11  19
ATOM     19  O   UNL     1      -0.390  -2.600  -1.462  0.00  0.00    -0.506 OA
ATOM     20  H   UNL     1       0.478  -2.487  -1.795  0.00  0.00    +0.292 HD
ENDBRANCH  11  19
BRANCH  14  22
ATOM     21  O   UNL     1      -5.158  -0.118   1.084  0.00  0.00    -0.283 OA
ATOM     22  C   UNL     1      -4.437  -0.998   0.606  0.00  0.00    +0.234 C 
ENDBRANCH  14  22
BRANCH   8  23
ATOM     23  C   UNL     1       1.988  -1.032  -0.938  0.00  0.00    +0.219 C 
BRANCH  23  24
ATOM     24  O   UNL     1       1.720  -1.465   0.379  0.00  0.00    -0.434 OA
BRANCH  24  27
ATOM     25  O   UNL     1       3.507  -2.913   0.287  0.00  0.00    -0.227 OA
ATOM     26  N   UNL     1       2.200  -2.763   2.172  0.00  0.00    -0.295 N 
ATOM     27  C   UNL     1       2.559  -2.423   0.891  0.00  0.00    +0.398 C 
ATOM     28  H   UNL     1       1.426  -2.328   2.598  0.00  0.00    +0.148 HD
ATOM     29  H   UNL     1       2.717  -3.440   2.665  0.00  0.00    +0.148 HD
ENDBRANCH  24  27
ENDBRANCH  23  24
ENDBRANCH   8  23
TORSDOF 6
