REMARK  Name = 139585975
REMARK  7 active torsions:
REMARK  status: ('A' for Active; 'I' for Inactive)
REMARK    1  A    between atoms: C_2  and  O_8
REMARK    2  A    between atoms: C_3  and  O_10
REMARK    3  A    between atoms: C_4  and  O_12
REMARK    4  A    between atoms: C_6  and  O_14
REMARK    5  A    between atoms: O_14  and  C_15
REMARK    6  A    between atoms: C_20  and  C_21
REMARK    7  A    between atoms: C_22  and  C_24
REMARK                            x       y       z     vdW  Elec       q    Type
REMARK                         _______ _______ _______ _____ _____    ______ ____
ROOT
ATOM      1  O   UNL     1      -1.969  -0.970   0.808  0.00  0.00    -0.319 OA
ATOM      2  C   UNL     1      -3.976   0.746  -0.320  0.00  0.00    +0.173 C 
ATOM      3  C   UNL     1      -4.194  -0.762  -0.186  0.00  0.00    +0.167 C 
ATOM      4  C   UNL     1      -2.968   1.247   0.716  0.00  0.00    +0.210 C 
ATOM      5  C   UNL     1      -2.844  -1.493  -0.196  0.00  0.00    +0.148 C 
ATOM      6  C   UNL     1      -1.682   0.425   0.668  0.00  0.00    +0.318 C 
ATOM      7  C   UNL     1      -3.000  -2.986   0.081  0.00  0.00    +0.035 C 
ENDROOT
BRANCH   2   8
ATOM      8  O   UNL     1      -5.222   1.417  -0.150  0.00  0.00    -0.379 OA
ATOM      9  H   UNL     1      -5.856   1.094  -0.810  0.00  0.00    +0.211 HD
ENDBRANCH   2   8
BRANCH   3  10
ATOM     10  O   UNL     1      -4.997  -1.193  -1.283  0.00  0.00    -0.379 OA
ATOM     11  H   UNL     1      -5.846  -0.725  -1.265  0.00  0.00    +0.211 HD
ENDBRANCH   3  10
BRANCH   4  12
ATOM     12  O   UNL     1      -3.517   1.121   2.029  0.00  0.00    -0.377 OA
ATOM     13  H   UNL     1      -4.337   1.635   2.088  0.00  0.00    +0.211 HD
ENDBRANCH   4  12
BRANCH   6  14
ATOM     14  O   UNL     1      -0.970   0.716  -0.529  0.00  0.00    -0.451 OA
BRANCH  14  15
ATOM     15  C   UNL     1       0.396   0.627  -0.471  0.00  0.00    +0.141 C 
ATOM     16  C   UNL     1       1.002  -0.584  -0.135  0.00  0.00    +0.037 C 
ATOM     17  C   UNL     1       1.180   1.747  -0.747  0.00  0.00    +0.037 C 
ATOM     18  C   UNL     1       2.393  -0.674  -0.076  0.00  0.00    +0.003 C 
ATOM     19  C   UNL     1       2.571   1.656  -0.688  0.00  0.00    +0.003 C 
ATOM     20  C   UNL     1       3.177   0.446  -0.353  0.00  0.00    +0.001 C 
BRANCH  20  21
ATOM     21  C   UNL     1       4.627   0.350  -0.293  0.00  0.00    +0.011 C 
ATOM     22  C   UNL     1       5.329  -0.601   0.363  0.00  0.00    +0.078 C 
BRANCH  22  24
ATOM     23  N   UNL     1       7.911  -0.624   0.388  0.00  0.00    -0.191 NA
ATOM     24  C   UNL     1       6.751  -0.611   0.375  0.00  0.00    +0.101 C 
ENDBRANCH  22  24
ENDBRANCH  20  21
ENDBRANCH  14  15
ENDBRANCH   6  14
TORSDOF 7
