139586670
  -OEChem-03292013293D

 60 64  0     1  0  0  0  0  0999 V2000
   -0.1624    0.5427    2.7856 O   0  0  0  0  0  0  0  0  0  0  0  0
   -2.1847   -2.0746   -1.5830 O   0  0  0  0  0  0  0  0  0  0  0  0
   -3.0217    2.5430    0.8589 O   0  0  0  0  0  0  0  0  0  0  0  0
   -0.8914   -4.8367   -0.1123 O   0  0  0  0  0  0  0  0  0  0  0  0
   -5.1945    1.0352    0.4090 O   0  0  0  0  0  0  0  0  0  0  0  0
    3.3120    1.2592   -1.4453 N   0  0  1  0  0  0  0  0  0  0  0  0
    1.0493    1.2847    0.3029 N   0  0  1  0  0  0  0  0  0  0  0  0
    0.8088   -1.5950    0.3936 N   0  0  2  0  0  0  0  0  0  0  0  0
    1.9011    4.5414   -0.6369 N   0  0  0  0  0  0  0  0  0  0  0  0
    3.3908   -3.3460    1.9481 N   0  0  0  0  0  0  0  0  0  0  0  0
    2.4484    0.0712   -1.4441 C   0  0  2  0  0  0  0  0  0  0  0  0
    1.0435    0.5029   -0.9494 C   0  0  1  0  0  0  0  0  0  0  0  0
    3.1079   -0.8761   -0.4432 C   0  0  1  0  0  0  0  0  0  0  0  0
    3.4987    1.4967   -0.0019 C   0  0  2  0  0  0  0  0  0  0  0  0
    0.1851   -0.7621   -0.6825 C   0  0  2  0  0  0  0  0  0  0  0  0
    3.6590    0.0908    0.6249 C   0  0  0  0  0  0  0  0  0  0  0  0
    2.1985    2.1795    0.5010 C   0  0  1  0  0  0  0  0  0  0  0  0
    2.1792   -2.0230    0.0107 C   0  0  1  0  0  0  0  0  0  0  0  0
   -0.2763    1.7652    0.7364 C   0  0  1  0  0  0  0  0  0  0  0  0
   -1.2280   -0.2824   -0.3651 C   0  0  0  0  0  0  0  0  0  0  0  0
   -1.4323    0.8855    0.2644 C   0  0  0  0  0  0  0  0  0  0  0  0
    4.5714    1.0810   -2.1594 C   0  0  0  0  0  0  0  0  0  0  0  0
   -0.0243   -2.7662    0.7140 C   0  0  0  0  0  0  0  0  0  0  0  0
   -0.2930    1.8514    2.2725 C   0  0  0  0  0  0  0  0  0  0  0  0
    2.0318    3.5028   -0.1365 C   0  0  0  0  0  0  0  0  0  0  0  0
    2.8584   -2.7645    1.0968 C   0  0  0  0  0  0  0  0  0  0  0  0
   -2.3722   -1.0793   -0.8871 C   0  0  0  0  0  0  0  0  0  0  0  0
   -2.8144    1.4086    0.4348 C   0  0  0  0  0  0  0  0  0  0  0  0
   -0.0938   -3.7160   -0.4711 C   0  0  0  0  0  0  0  0  0  0  0  0
   -3.7573   -0.6498   -0.5355 C   0  0  0  0  0  0  0  0  0  0  0  0
   -3.9539    0.5275    0.0803 C   0  0  0  0  0  0  0  0  0  0  0  0
   -4.8349   -1.6207   -0.9342 C   0  0  0  0  0  0  0  0  0  0  0  0
   -5.7087    1.8231   -0.6464 C   0  0  0  0  0  0  0  0  0  0  0  0
    2.3638   -0.3809   -2.4398 H   0  0  0  0  0  0  0  0  0  0  0  0
    0.5930    1.1136   -1.7468 H   0  0  0  0  0  0  0  0  0  0  0  0
    3.9787   -1.3482   -0.9236 H   0  0  0  0  0  0  0  0  0  0  0  0
    4.3614    2.1395    0.2136 H   0  0  0  0  0  0  0  0  0  0  0  0
    0.1697   -1.3109   -1.6325 H   0  0  0  0  0  0  0  0  0  0  0  0
    3.1480    0.0058    1.5899 H   0  0  0  0  0  0  0  0  0  0  0  0
    4.7206   -0.1271    0.7932 H   0  0  0  0  0  0  0  0  0  0  0  0
    2.3374    2.3427    1.5760 H   0  0  0  0  0  0  0  0  0  0  0  0
    2.1359   -2.6692   -0.8730 H   0  0  0  0  0  0  0  0  0  0  0  0
   -0.4482    2.7643    0.3175 H   0  0  0  0  0  0  0  0  0  0  0  0
    5.2226    0.3106   -1.7351 H   0  0  0  0  0  0  0  0  0  0  0  0
    5.1310    2.0230   -2.1609 H   0  0  0  0  0  0  0  0  0  0  0  0
    4.3800    0.8286   -3.2080 H   0  0  0  0  0  0  0  0  0  0  0  0
   -1.0291   -2.4752    1.0400 H   0  0  0  0  0  0  0  0  0  0  0  0
    0.3683   -3.2961    1.5912 H   0  0  0  0  0  0  0  0  0  0  0  0
   -1.2348    2.2702    2.6410 H   0  0  0  0  0  0  0  0  0  0  0  0
    0.5086    2.4795    2.6711 H   0  0  0  0  0  0  0  0  0  0  0  0
    0.8832   -4.1624   -0.6743 H   0  0  0  0  0  0  0  0  0  0  0  0
   -0.4461   -3.3206   -1.4168 H   0  0  0  0  0  0  0  0  0  0  0  0
   -0.1813    0.6097    3.7554 H   0  0  0  0  0  0  0  0  0  0  0  0
   -4.8702   -1.7283   -2.0232 H   0  0  0  0  0  0  0  0  0  0  0  0
   -5.8249   -1.2946   -0.5999 H   0  0  0  0  0  0  0  0  0  0  0  0
   -4.6486   -2.6039   -0.4893 H   0  0  0  0  0  0  0  0  0  0  0  0
   -0.8942   -5.4440   -0.8718 H   0  0  0  0  0  0  0  0  0  0  0  0
   -6.6865    2.2060   -0.3387 H   0  0  0  0  0  0  0  0  0  0  0  0
   -5.8535    1.2288   -1.5554 H   0  0  0  0  0  0  0  0  0  0  0  0
   -5.0660    2.6833   -0.8626 H   0  0  0  0  0  0  0  0  0  0  0  0
  1 24  1  0  0  0  0
  1 53  1  0  0  0  0
  2 27  2  0  0  0  0
  3 28  2  0  0  0  0
  4 29  1  0  0  0  0
  4 57  1  0  0  0  0
  5 31  1  0  0  0  0
  5 33  1  0  0  0  0
  6 11  1  0  0  0  0
  6 14  1  0  0  0  0
  6 22  1  0  0  0  0
  7 12  1  0  0  0  0
  7 17  1  0  0  0  0
  7 19  1  0  0  0  0
  8 15  1  0  0  0  0
  8 18  1  0  0  0  0
  8 23  1  0  0  0  0
  9 25  3  0  0  0  0
 10 26  3  0  0  0  0
 11 12  1  0  0  0  0
 11 13  1  0  0  0  0
 11 34  1  0  0  0  0
 12 15  1  0  0  0  0
 12 35  1  0  0  0  0
 13 16  1  0  0  0  0
 13 18  1  0  0  0  0
 13 36  1  0  0  0  0
 14 16  1  0  0  0  0
 14 17  1  0  0  0  0
 14 37  1  0  0  0  0
 15 20  1  0  0  0  0
 15 38  1  0  0  0  0
 16 39  1  0  0  0  0
 16 40  1  0  0  0  0
 17 25  1  0  0  0  0
 17 41  1  0  0  0  0
 18 26  1  0  0  0  0
 18 42  1  0  0  0  0
 19 21  1  0  0  0  0
 19 24  1  0  0  0  0
 19 43  1  0  0  0  0
 20 21  2  0  0  0  0
 20 27  1  0  0  0  0
 21 28  1  0  0  0  0
 22 44  1  0  0  0  0
 22 45  1  0  0  0  0
 22 46  1  0  0  0  0
 23 29  1  0  0  0  0
 23 47  1  0  0  0  0
 23 48  1  0  0  0  0
 24 49  1  0  0  0  0
 24 50  1  0  0  0  0
 27 30  1  0  0  0  0
 28 31  1  0  0  0  0
 29 51  1  0  0  0  0
 29 52  1  0  0  0  0
 30 31  2  0  0  0  0
 30 32  1  0  0  0  0
 32 54  1  0  0  0  0
 32 55  1  0  0  0  0
 32 56  1  0  0  0  0
 33 58  1  0  0  0  0
 33 59  1  0  0  0  0
 33 60  1  0  0  0  0
M  END
> <PUBCHEM_COMPOUND_CID>
139586670

> <PUBCHEM_CONFORMER_RMSD>
0.8

> <PUBCHEM_CONFORMER_DIVERSEORDER>
1
2
4
5
3

> <PUBCHEM_MMFF94_PARTIAL_CHARGES>
33
1 -0.68
10 -0.56
11 0.27
12 0.27
14 0.27
15 0.41
17 0.47
18 0.47
19 0.41
2 -0.57
20 -0.12
21 -0.12
22 0.27
23 0.27
24 0.28
25 0.36
26 0.36
27 0.54
28 0.54
29 0.28
3 -0.57
30 -0.12
31 0.09
32 0.14
33 0.28
4 -0.68
5 -0.36
53 0.4
57 0.4
6 -0.81
7 -0.81
8 -0.81
9 -0.56

> <PUBCHEM_EFFECTIVE_ROTOR_COUNT>
5.2

> <PUBCHEM_PHARMACOPHORE_FEATURES>
16
1 1 acceptor
1 1 donor
1 10 acceptor
1 2 acceptor
1 3 acceptor
1 4 acceptor
1 4 donor
1 5 acceptor
1 6 cation
1 7 cation
1 8 cation
1 9 acceptor
6 20 21 27 28 30 31 rings
6 7 12 15 19 20 21 rings
6 8 11 12 13 15 18 rings
8 6 7 11 12 13 14 16 17 rings

> <PUBCHEM_HEAVY_ATOM_COUNT>
33

> <PUBCHEM_ATOM_DEF_STEREO_COUNT>
7

> <PUBCHEM_ATOM_UDEF_STEREO_COUNT>
1

> <PUBCHEM_BOND_DEF_STEREO_COUNT>
0

> <PUBCHEM_BOND_UDEF_STEREO_COUNT>
0

> <PUBCHEM_ISOTOPIC_ATOM_COUNT>
0

> <PUBCHEM_COMPONENT_COUNT>
1

> <PUBCHEM_CACTVS_TAUTO_COUNT>
-1

> <PUBCHEM_CONFORMER_ID>
0851EC6E00000001

> <PUBCHEM_MMFF94_ENERGY>
109.9084

> <PUBCHEM_FEATURE_SELFOVERLAP>
81.719

> <PUBCHEM_SHAPE_FINGERPRINT>
1100329 8 18337102462796178842
12788726 201 18131079233182765939
13140716 1 18196644099706096458
13583140 156 18188789309070623881
13965767 371 16691059570243747744
14117953 113 17549261428643741717
14790565 3 18413112779792448053
14955137 171 18193838133015910426
15420108 30 17337619759844849592
16945 1 18267307710679146326
1813 80 17755304466134620582
18681886 176 18340200796063139138
19591789 44 18269554000287414415
20600515 1 17773019874473565992
20642791 178 18337104558555440467
20691752 17 18262506104561573421
20764821 26 17834105725456704195
21421861 104 18122075199529834409
22393880 68 18342744026418649661
23558518 356 18052530264238931797
23559900 14 17846505815625492588
238 59 18335718160038862608
392239 28 18193843871376840427
394222 165 18114188531789625930
469060 322 17463996887263883859
474 4 18264485263951279004
5104073 3 18410856534656197395
9709674 26 17984146134560547356
9981440 41 17977096091704739752

> <PUBCHEM_SHAPE_MULTIPOLES>
624.87
8.46
4.75
1.65
8.17
2.15
0.52
-2.49
-2.43
-1.83
0.6
-1
-0.11
-2.06

> <PUBCHEM_SHAPE_SELFOVERLAP>
1363.698

> <PUBCHEM_SHAPE_VOLUME>
330.2

> <PUBCHEM_COORDINATE_TYPE>
2
5
10

$$$$
