REMARK  Name = 139591310
REMARK  10 active torsions:
REMARK  status: ('A' for Active; 'I' for Inactive)
REMARK    1  A    between atoms: C_1  and  C_4
REMARK    2  A    between atoms: C_1  and  C_17
REMARK    3  A    between atoms: C_6  and  O_14
REMARK    4  A    between atoms: C_8  and  O_12
REMARK    5  A    between atoms: C_16  and  C_19
REMARK    6  A    between atoms: C_19  and  C_20
REMARK    7  A    between atoms: C_20  and  C_21
REMARK    8  A    between atoms: C_20  and  O_28
REMARK    9  A    between atoms: C_22  and  C_25
REMARK   10  A    between atoms: C_25  and  O_26
REMARK                            x       y       z     vdW  Elec       q    Type
REMARK                         _______ _______ _______ _____ _____    ______ ____
ROOT
ATOM      1  C   UNL     1       0.413  -2.428   0.809  0.00  0.00    +0.058 C 
ENDROOT
BRANCH   1   4
ATOM      2  O   UNL     1       3.422   2.795   0.407  0.00  0.00    -0.440 OA
ATOM      3  O   UNL     1       5.128   1.879  -0.859  0.00  0.00    -0.245 OA
ATOM      4  C   UNL     1       1.420  -1.350   0.495  0.00  0.00    +0.050 C 
ATOM      5  C   UNL     1       2.153   0.916   0.663  0.00  0.00    +0.061 C 
ATOM      6  C   UNL     1       1.212  -0.050   0.967  0.00  0.00    +0.133 C 
ATOM      7  C   UNL     1       3.266   0.596  -0.088  0.00  0.00    +0.081 C 
ATOM      8  C   UNL     1       2.558  -1.662  -0.269  0.00  0.00    +0.138 C 
ATOM      9  C   UNL     1       2.189   2.344   1.024  0.00  0.00    +0.239 C 
ATOM     10  C   UNL     1       3.501  -0.678  -0.569  0.00  0.00    +0.043 C 
ATOM     11  C   UNL     1       4.079   1.790  -0.254  0.00  0.00    +0.342 C 
BRANCH   8  12
ATOM     12  O   UNL     1       2.757  -2.930  -0.727  0.00  0.00    -0.472 OA
ATOM     13  C   UNL     1       3.936  -3.163  -1.494  0.00  0.00    +0.252 C 
ENDBRANCH   8  12
BRANCH   6  14
ATOM     14  O   UNL     1       0.116   0.265   1.707  0.00  0.00    -0.506 OA
ATOM     15  H   UNL     1      -0.518  -0.395   1.909  0.00  0.00    +0.292 HD
ENDBRANCH   6  14
ENDBRANCH   1   4
BRANCH   1  17
ATOM     16  C   UNL     1      -2.113  -2.186   0.427  0.00  0.00    -0.045 C 
ATOM     17  C   UNL     1      -0.846  -2.338  -0.007  0.00  0.00    -0.030 C 
ATOM     18  C   UNL     1      -2.378  -2.088   1.909  0.00  0.00    +0.026 C 
BRANCH  16  19
ATOM     19  C   UNL     1      -3.335  -2.145  -0.474  0.00  0.00    +0.055 C 
BRANCH  19  20
ATOM     20  C   UNL     1      -4.219  -0.885  -0.374  0.00  0.00    +0.136 C 
BRANCH  20  21
ATOM     21  C   UNL     1      -3.530   0.381  -0.811  0.00  0.00    +0.005 C 
ATOM     22  C   UNL     1      -3.346   1.496  -0.079  0.00  0.00    +0.052 C 
ATOM     23  C   UNL     1      -3.849   1.718   1.317  0.00  0.00    +0.038 C 
BRANCH  22  25
ATOM     24  O   UNL     1      -2.608   2.830  -1.953  0.00  0.00    -0.245 OA
ATOM     25  C   UNL     1      -2.608   2.601  -0.753  0.00  0.00    +0.334 C 
BRANCH  25  26
ATOM     26  O   UNL     1      -1.919   3.337   0.151  0.00  0.00    -0.477 OA
ATOM     27  H   UNL     1      -1.956   3.115   1.061  0.00  0.00    +0.295 HD
ENDBRANCH  25  26
ENDBRANCH  22  25
ENDBRANCH  20  21
BRANCH  20  28
ATOM     28  O   UNL     1      -5.398  -1.045  -1.164  0.00  0.00    -0.380 OA
ATOM     29  H   UNL     1      -5.858  -1.857  -0.898  0.00  0.00    +0.211 HD
ENDBRANCH  20  28
ENDBRANCH  19  20
ENDBRANCH  16  19
ENDBRANCH   1  17
TORSDOF 10
