139591632
  -OEChem-03292013293D

 62 63  0     1  0  0  0  0  0999 V2000
   -1.6972    2.2008   -0.4045 O   0  0  0  0  0  0  0  0  0  0  0  0
   -2.1094   -0.3425    0.7968 O   0  0  0  0  0  0  0  0  0  0  0  0
   -5.2482    2.7705    0.1994 O   0  0  0  0  0  0  0  0  0  0  0  0
   -2.7696   -0.5962   -1.3992 O   0  0  0  0  0  0  0  0  0  0  0  0
   -0.3073    2.4579    1.4237 O   0  0  0  0  0  0  0  0  0  0  0  0
    1.9515   -0.5307   -1.8772 O   0  0  0  0  0  0  0  0  0  0  0  0
    3.9601   -2.1903   -0.4611 O   0  0  0  0  0  0  0  0  0  0  0  0
    8.8072   -1.0623    0.6767 O   0  0  0  0  0  0  0  0  0  0  0  0
    1.3920    0.6439    0.0434 N   0  0  0  0  0  0  0  0  0  0  0  0
    6.6677   -1.9404    0.1749 N   0  0  0  0  0  0  0  0  0  0  0  0
   -4.1803    0.5905    0.1966 C   0  0  1  0  0  0  0  0  0  0  0  0
   -4.1018    2.0670   -0.2801 C   0  0  2  0  0  0  0  0  0  0  0  0
   -5.4437   -0.1180   -0.2991 C   0  0  0  0  0  0  0  0  0  0  0  0
   -2.8414    2.8261    0.2061 C   0  0  2  0  0  0  0  0  0  0  0  0
   -5.5603   -1.5156    0.2989 C   0  0  0  0  0  0  0  0  0  0  0  0
   -2.9696   -0.2150   -0.2542 C   0  0  0  0  0  0  0  0  0  0  0  0
   -0.7143   -0.6345    0.5246 C   0  0  1  0  0  0  0  0  0  0  0  0
   -0.0331    0.5921   -0.1325 C   0  0  1  0  0  0  0  0  0  0  0  0
   -6.8072   -2.2318   -0.2227 C   0  0  0  0  0  0  0  0  0  0  0  0
   -2.8441    4.2936   -0.2100 C   0  0  0  0  0  0  0  0  0  0  0  0
   -0.6340    1.8864    0.3942 C   0  0  0  0  0  0  0  0  0  0  0  0
   -6.9504   -3.6214    0.3977 C   0  0  0  0  0  0  0  0  0  0  0  0
   -0.1095   -1.0216    1.8738 C   0  0  0  0  0  0  0  0  0  0  0  0
   -8.2067   -4.3235   -0.0925 C   0  0  0  0  0  0  0  0  0  0  0  0
    2.2814    0.0692   -0.8575 C   0  0  0  0  0  0  0  0  0  0  0  0
    3.7230    0.1867   -0.5189 C   0  0  0  0  0  0  0  0  0  0  0  0
    4.5118   -0.9484   -0.3326 C   0  0  0  0  0  0  0  0  0  0  0  0
    4.2857    1.4564   -0.3878 C   0  0  0  0  0  0  0  0  0  0  0  0
    5.8634   -0.8140   -0.0152 C   0  0  0  0  0  0  0  0  0  0  0  0
    5.6374    1.5907   -0.0704 C   0  0  0  0  0  0  0  0  0  0  0  0
    6.4261    0.4554    0.1159 C   0  0  0  0  0  0  0  0  0  0  0  0
    8.0207   -1.9807    0.4928 C   0  0  0  0  0  0  0  0  0  0  0  0
   -4.2185    0.5874    1.2951 H   0  0  0  0  0  0  0  0  0  0  0  0
   -4.1311    2.0854   -1.3768 H   0  0  0  0  0  0  0  0  0  0  0  0
   -5.4372   -0.1829   -1.3946 H   0  0  0  0  0  0  0  0  0  0  0  0
   -6.3322    0.4615   -0.0214 H   0  0  0  0  0  0  0  0  0  0  0  0
   -2.7856    2.7702    1.3009 H   0  0  0  0  0  0  0  0  0  0  0  0
   -5.6081   -1.4453    1.3926 H   0  0  0  0  0  0  0  0  0  0  0  0
   -4.6825   -2.1238    0.0536 H   0  0  0  0  0  0  0  0  0  0  0  0
   -0.6482   -1.5052   -0.1397 H   0  0  0  0  0  0  0  0  0  0  0  0
   -0.2281    0.5623   -1.2127 H   0  0  0  0  0  0  0  0  0  0  0  0
   -6.7527   -2.3203   -1.3146 H   0  0  0  0  0  0  0  0  0  0  0  0
   -7.6975   -1.6343    0.0092 H   0  0  0  0  0  0  0  0  0  0  0  0
   -3.6731    4.8430    0.2453 H   0  0  0  0  0  0  0  0  0  0  0  0
   -2.9136    4.3904   -1.2990 H   0  0  0  0  0  0  0  0  0  0  0  0
   -1.9070    4.7758    0.0889 H   0  0  0  0  0  0  0  0  0  0  0  0
   -6.0751   -4.2324    0.1485 H   0  0  0  0  0  0  0  0  0  0  0  0
   -6.9890   -3.5399    1.4902 H   0  0  0  0  0  0  0  0  0  0  0  0
   -5.2269    2.7456    1.1714 H   0  0  0  0  0  0  0  0  0  0  0  0
   -0.1553   -0.1877    2.5824 H   0  0  0  0  0  0  0  0  0  0  0  0
    0.9308   -1.3453    1.7748 H   0  0  0  0  0  0  0  0  0  0  0  0
   -0.6798   -1.8429    2.3221 H   0  0  0  0  0  0  0  0  0  0  0  0
    1.7586    1.0969    0.8762 H   0  0  0  0  0  0  0  0  0  0  0  0
   -9.1033   -3.7537    0.1717 H   0  0  0  0  0  0  0  0  0  0  0  0
   -8.1869   -4.4489   -1.1798 H   0  0  0  0  0  0  0  0  0  0  0  0
   -8.2885   -5.3156    0.3625 H   0  0  0  0  0  0  0  0  0  0  0  0
    3.6850    2.3504   -0.5344 H   0  0  0  0  0  0  0  0  0  0  0  0
    6.0747    2.5799    0.0304 H   0  0  0  0  0  0  0  0  0  0  0  0
    7.4632    0.6401    0.3592 H   0  0  0  0  0  0  0  0  0  0  0  0
    3.0133   -2.1254   -0.6651 H   0  0  0  0  0  0  0  0  0  0  0  0
    6.2009   -2.8381    0.0661 H   0  0  0  0  0  0  0  0  0  0  0  0
    8.3491   -3.0313    0.5708 H   0  0  0  0  0  0  0  0  0  0  0  0
  1 14  1  0  0  0  0
  1 21  1  0  0  0  0
  2 16  1  0  0  0  0
  2 17  1  0  0  0  0
  3 12  1  0  0  0  0
  3 49  1  0  0  0  0
  4 16  2  0  0  0  0
  5 21  2  0  0  0  0
  6 25  2  0  0  0  0
  7 27  1  0  0  0  0
  7 60  1  0  0  0  0
  8 32  2  0  0  0  0
  9 18  1  0  0  0  0
  9 25  1  0  0  0  0
  9 53  1  0  0  0  0
 10 29  1  0  0  0  0
 10 32  1  0  0  0  0
 10 61  1  0  0  0  0
 11 12  1  0  0  0  0
 11 13  1  0  0  0  0
 11 16  1  0  0  0  0
 11 33  1  0  0  0  0
 12 14  1  0  0  0  0
 12 34  1  0  0  0  0
 13 15  1  0  0  0  0
 13 35  1  0  0  0  0
 13 36  1  0  0  0  0
 14 20  1  0  0  0  0
 14 37  1  0  0  0  0
 15 19  1  0  0  0  0
 15 38  1  0  0  0  0
 15 39  1  0  0  0  0
 17 18  1  0  0  0  0
 17 23  1  0  0  0  0
 17 40  1  0  0  0  0
 18 21  1  0  0  0  0
 18 41  1  0  0  0  0
 19 22  1  0  0  0  0
 19 42  1  0  0  0  0
 19 43  1  0  0  0  0
 20 44  1  0  0  0  0
 20 45  1  0  0  0  0
 20 46  1  0  0  0  0
 22 24  1  0  0  0  0
 22 47  1  0  0  0  0
 22 48  1  0  0  0  0
 23 50  1  0  0  0  0
 23 51  1  0  0  0  0
 23 52  1  0  0  0  0
 24 54  1  0  0  0  0
 24 55  1  0  0  0  0
 24 56  1  0  0  0  0
 25 26  1  0  0  0  0
 26 27  2  0  0  0  0
 26 28  1  0  0  0  0
 27 29  1  0  0  0  0
 28 30  2  0  0  0  0
 28 57  1  0  0  0  0
 29 31  2  0  0  0  0
 30 31  1  0  0  0  0
 30 58  1  0  0  0  0
 31 59  1  0  0  0  0
 32 62  1  0  0  0  0
M  END
> <PUBCHEM_COMPOUND_CID>
139591632

> <PUBCHEM_CONFORMER_RMSD>
1

> <PUBCHEM_CONFORMER_DIVERSEORDER>
1
73
58
56
48
22
6
70
141
140
97
79
42
55
108
157
90
76
78
5
23
104
41
67
156
26
117
39
135
88
146
133
126
43
81
32
147
114
123
115
85
111
99
151
77
10
68
46
47
59
112
125
15
107
158
40
134
113
132
155
57
150
159
71
92
116
129
72
33
63
37
93
65
19
89
137
130
152
154
124
34
69
50
102
101
87
136
149
110
142
60
74
54
96
106
44
16
53
103
84
49
143
80
52
36
98
20
131
91
139
144
145
18
82
25
128
45
24
94
9
61
62
138
31
86
75
119
66
13
120
153
51
30
121
17
122
83
12
105
2
95
7
64
109
28
27
148
29
38
118
8
100
35
4
11
3
127
21
14

> <PUBCHEM_MMFF94_PARTIAL_CHARGES>
33
1 -0.43
10 -0.55
11 0.06
12 0.28
14 0.28
16 0.66
17 0.28
18 0.36
2 -0.43
21 0.66
25 0.54
26 0.09
27 0.08
28 -0.15
29 0.12
3 -0.68
30 -0.15
31 -0.15
32 0.57
4 -0.57
49 0.4
5 -0.57
53 0.37
57 0.15
58 0.15
59 0.15
6 -0.57
60 0.45
61 0.37
62 0.06
7 -0.53
8 -0.57
9 -0.73

> <PUBCHEM_EFFECTIVE_ROTOR_COUNT>
10.4

> <PUBCHEM_PHARMACOPHORE_FEATURES>
12
1 10 donor
1 24 hydrophobe
1 3 acceptor
1 3 donor
1 4 acceptor
1 5 acceptor
1 6 acceptor
1 7 donor
1 8 acceptor
1 9 donor
4 13 15 19 22 hydrophobe
6 26 27 28 29 30 31 rings

> <PUBCHEM_HEAVY_ATOM_COUNT>
32

> <PUBCHEM_ATOM_DEF_STEREO_COUNT>
5

> <PUBCHEM_ATOM_UDEF_STEREO_COUNT>
0

> <PUBCHEM_BOND_DEF_STEREO_COUNT>
0

> <PUBCHEM_BOND_UDEF_STEREO_COUNT>
0

> <PUBCHEM_ISOTOPIC_ATOM_COUNT>
0

> <PUBCHEM_COMPONENT_COUNT>
1

> <PUBCHEM_CACTVS_TAUTO_COUNT>
-1

> <PUBCHEM_CONFORMER_ID>
0851FFD000000001

> <PUBCHEM_MMFF94_ENERGY>
83.1263

> <PUBCHEM_FEATURE_SELFOVERLAP>
60.903

> <PUBCHEM_SHAPE_FINGERPRINT>
10100884 174 18261390104586951994
10411042 1 18338236085407277065
10595046 47 18408325480089742292
12166972 35 17967536795847175444
12236239 1 18261112946236041180
13248334 5 17689999360146215373
13782708 43 18131913775683455871
14251764 18 18114185203743566908
15183329 4 17313383388574102570
15461852 350 18410863144711085846
17492 89 18269278967477168766
18393751 57 17264669800520897657
18608769 82 18411700963221763937
21130935 74 18339920395561391298
21315763 129 18410293580197038996
21315763 28 18408885135919090570
23559900 14 18409726275268410776
23569943 247 17751912520239694458
4073 2 18040725762434485530
4144715 1 17984993587627252124
439807 62 18411982472758711697
5283173 99 18339923689020851592
5718773 13 18410011061079142563

> <PUBCHEM_SHAPE_MULTIPOLES>
601.63
22.73
4.24
1.02
13.88
0.57
0.06
-24
0.83
-9.48
0.27
0.16
-0.11
-0.41

> <PUBCHEM_SHAPE_SELFOVERLAP>
1241.325

> <PUBCHEM_SHAPE_VOLUME>
338.3

> <PUBCHEM_COORDINATE_TYPE>
2
5
10

$$$$
