REMARK  Name = 139589131
REMARK  6 active torsions:
REMARK  status: ('A' for Active; 'I' for Inactive)
REMARK    1  A    between atoms: C_6  and  O_26
REMARK    2  A    between atoms: C_7  and  O_28
REMARK    3  A    between atoms: C_9  and  O_30
REMARK    4  A    between atoms: C_15  and  O_32
REMARK    5  A    between atoms: C_22  and  C_34
REMARK    6  A    between atoms: C_34  and  C_35
REMARK                            x       y       z     vdW  Elec       q    Type
REMARK                         _______ _______ _______ _____ _____    ______ ____
ROOT
ATOM      1  O   UNL     1       4.756   1.139  -1.177  0.00  0.00    -0.318 OA
ATOM      2  O   UNL     1       2.413   1.409  -0.705  0.00  0.00    -0.447 OA
ATOM      3  O   UNL     1       1.693  -3.097   0.046  0.00  0.00    -0.287 OA
ATOM      4  O   UNL     1      -3.264  -2.382   0.356  0.00  0.00    -0.287 OA
ATOM      5  N   UNL     1      -5.162   1.545   0.391  0.00  0.00    -0.414 NA
ATOM      6  C   UNL     1       3.298  -0.790  -0.548  0.00  0.00    +0.205 C 
ATOM      7  C   UNL     1       4.084  -0.914   0.770  0.00  0.00    +0.174 C 
ATOM      8  C   UNL     1       3.451   0.570  -1.239  0.00  0.00    +0.320 C 
ATOM      9  C   UNL     1       5.490  -0.334   0.593  0.00  0.00    +0.167 C 
ATOM     10  C   UNL     1       1.802  -0.784  -0.360  0.00  0.00    +0.086 C 
ATOM     11  C   UNL     1       5.385   1.115   0.103  0.00  0.00    +0.148 C 
ATOM     12  C   UNL     1       1.382   0.483  -0.446  0.00  0.00    +0.176 C 
ATOM     13  C   UNL     1       1.077  -2.038  -0.077  0.00  0.00    +0.197 C 
ATOM     14  C   UNL     1       6.752   1.773  -0.061  0.00  0.00    +0.035 C 
ATOM     15  C   UNL     1       0.071   1.073  -0.279  0.00  0.00    +0.167 C 
ATOM     16  C   UNL     1      -1.077   0.406  -0.064  0.00  0.00    +0.037 C 
ATOM     17  C   UNL     1      -1.245  -1.036   0.054  0.00  0.00    +0.045 C 
ATOM     18  C   UNL     1      -0.395  -2.063   0.057  0.00  0.00    +0.045 C 
ATOM     19  C   UNL     1      -2.421   1.024   0.076  0.00  0.00    -0.007 C 
ATOM     20  C   UNL     1      -3.360   0.002   0.245  0.00  0.00    +0.061 C 
ATOM     21  C   UNL     1      -2.707  -1.311   0.236  0.00  0.00    +0.198 C 
ATOM     22  C   UNL     1      -4.699   0.278   0.397  0.00  0.00    +0.111 C 
ATOM     23  C   UNL     1      -2.872   2.333   0.068  0.00  0.00    +0.081 C 
ATOM     24  C   UNL     1      -4.241   2.533   0.228  0.00  0.00    +0.091 C 
ATOM     25  C   UNL     1      -4.770   3.930   0.225  0.00  0.00    +0.062 C 
ENDROOT
BRANCH   6  26
ATOM     26  O   UNL     1       3.730  -1.785  -1.470  0.00  0.00    -0.375 OA
ATOM     27  H   UNL     1       4.696  -1.749  -1.556  0.00  0.00    +0.211 HD
ENDBRANCH   6  26
BRANCH   7  28
ATOM     28  O   UNL     1       3.427  -0.194   1.818  0.00  0.00    -0.379 OA
ATOM     29  H   UNL     1       2.533  -0.550   1.943  0.00  0.00    +0.211 HD
ENDBRANCH   7  28
BRANCH   9  30
ATOM     30  O   UNL     1       6.174  -0.414   1.838  0.00  0.00    -0.379 OA
ATOM     31  H   UNL     1       6.224  -1.340   2.121  0.00  0.00    +0.211 HD
ENDBRANCH   9  30
BRANCH  15  32
ATOM     32  O   UNL     1       0.061   2.458  -0.374  0.00  0.00    -0.503 OA
ATOM     33  H   UNL     1       0.861   2.924  -0.523  0.00  0.00    +0.292 HD
ENDBRANCH  15  32
BRANCH  22  34
ATOM     34  C   UNL     1      -5.713  -0.797   0.579  0.00  0.00    +0.059 C 
BRANCH  34  35
ATOM     35  C   UNL     1      -6.055  -1.506  -0.740  0.00  0.00    +0.007 C 
ATOM     36  C   UNL     1      -7.065  -2.625  -0.541  0.00  0.00    +0.000 C 
ENDBRANCH  34  35
ENDBRANCH  22  34
TORSDOF 6
