139584827
  -OEChem-03292013293D

 62 62  0     1  0  0  0  0  0999 V2000
    4.9363   -1.7716   -1.1915 O   0  0  0  0  0  0  0  0  0  0  0  0
    2.2188   -2.0075   -1.7681 O   0  0  0  0  0  0  0  0  0  0  0  0
    2.9143    1.7495   -0.1900 O   0  0  0  0  0  0  0  0  0  0  0  0
   -0.5390    0.6515    0.2256 O   0  0  0  0  0  0  0  0  0  0  0  0
    5.8764   -1.3091    1.3680 O   0  0  0  0  0  0  0  0  0  0  0  0
    3.3019    1.9183    2.0746 O   0  0  0  0  0  0  0  0  0  0  0  0
   -1.4986    0.4550   -1.8669 O   0  0  0  0  0  0  0  0  0  0  0  0
   -6.0041    1.9014   -0.2365 O   0  0  0  0  0  0  0  0  0  0  0  0
    3.9869   -1.6284   -0.1174 C   0  0  2  0  0  0  0  0  0  0  0  0
    2.6883   -1.0768   -0.7786 C   0  0  2  0  0  0  0  0  0  0  0  0
    1.5030   -0.7090    0.1700 C   0  0  1  0  0  0  0  0  0  0  0  0
    4.6260   -0.7157    0.9777 C   0  0  2  0  0  0  0  0  0  0  0  0
    0.7673    0.5716   -0.3522 C   0  0  2  0  0  0  0  0  0  0  0  0
    4.9016    0.7801    0.6747 C   0  0  2  0  0  0  0  0  0  0  0  0
    1.4938    1.9065   -0.0353 C   0  0  2  0  0  0  0  0  0  0  0  0
    3.7837   -3.0463    0.4503 C   0  0  0  0  0  0  0  0  0  0  0  0
    0.5075   -1.8715    0.3379 C   0  0  0  0  0  0  0  0  0  0  0  0
    3.6456    1.5879    0.9450 C   0  0  0  0  0  0  0  0  0  0  0  0
    5.5680    1.0859   -0.6629 C   0  0  0  0  0  0  0  0  0  0  0  0
    1.0578    3.0233   -0.9802 C   0  0  0  0  0  0  0  0  0  0  0  0
   -1.5740    0.5791   -0.6549 C   0  0  0  0  0  0  0  0  0  0  0  0
   -2.8294    0.6775    0.1202 C   0  0  0  0  0  0  0  0  0  0  0  0
   -4.0106    0.6322   -0.5106 C   0  0  0  0  0  0  0  0  0  0  0  0
   -5.3304    0.7236    0.2048 C   0  0  2  0  0  0  0  0  0  0  0  0
   -6.1977   -0.5120   -0.0698 C   0  0  0  0  0  0  0  0  0  0  0  0
   -7.5644   -0.4197    0.6180 C   0  0  0  0  0  0  0  0  0  0  0  0
   -8.4306   -1.6378    0.2960 C   0  0  0  0  0  0  0  0  0  0  0  0
   -9.7985   -1.5379    0.9521 C   0  0  0  0  0  0  0  0  0  0  0  0
    2.9804   -0.2124   -1.3781 H   0  0  0  0  0  0  0  0  0  0  0  0
    1.8777   -0.4790    1.1724 H   0  0  0  0  0  0  0  0  0  0  0  0
    3.9892   -0.7728    1.8698 H   0  0  0  0  0  0  0  0  0  0  0  0
    0.7172    0.4745   -1.4445 H   0  0  0  0  0  0  0  0  0  0  0  0
    5.6194    1.1446    1.4253 H   0  0  0  0  0  0  0  0  0  0  0  0
    1.2395    2.2241    0.9839 H   0  0  0  0  0  0  0  0  0  0  0  0
    3.3448   -3.7188   -0.2946 H   0  0  0  0  0  0  0  0  0  0  0  0
    3.1432   -3.0372    1.3369 H   0  0  0  0  0  0  0  0  0  0  0  0
    4.7393   -3.5048    0.7300 H   0  0  0  0  0  0  0  0  0  0  0  0
   -0.0693   -2.0492   -0.5759 H   0  0  0  0  0  0  0  0  0  0  0  0
   -0.2026   -1.6614    1.1452 H   0  0  0  0  0  0  0  0  0  0  0  0
    1.0137   -2.8030    0.6023 H   0  0  0  0  0  0  0  0  0  0  0  0
    5.7772   -2.0731   -0.8070 H   0  0  0  0  0  0  0  0  0  0  0  0
    4.9401    0.8338   -1.5209 H   0  0  0  0  0  0  0  0  0  0  0  0
    6.5140    0.5433   -0.7592 H   0  0  0  0  0  0  0  0  0  0  0  0
    5.7889    2.1568   -0.7392 H   0  0  0  0  0  0  0  0  0  0  0  0
    1.5113   -1.5698   -2.2715 H   0  0  0  0  0  0  0  0  0  0  0  0
   -0.0170    3.2133   -0.9089 H   0  0  0  0  0  0  0  0  0  0  0  0
    1.5910    3.9503   -0.7428 H   0  0  0  0  0  0  0  0  0  0  0  0
    1.3043    2.7770   -2.0189 H   0  0  0  0  0  0  0  0  0  0  0  0
    6.1890   -0.8432    2.1622 H   0  0  0  0  0  0  0  0  0  0  0  0
   -2.7676    0.7804    1.1982 H   0  0  0  0  0  0  0  0  0  0  0  0
   -4.0512    0.5339   -1.5930 H   0  0  0  0  0  0  0  0  0  0  0  0
   -5.1828    0.8213    1.2872 H   0  0  0  0  0  0  0  0  0  0  0  0
   -5.6757   -1.4175    0.2635 H   0  0  0  0  0  0  0  0  0  0  0  0
   -6.3634   -0.6089   -1.1510 H   0  0  0  0  0  0  0  0  0  0  0  0
   -7.4243   -0.3419    1.7030 H   0  0  0  0  0  0  0  0  0  0  0  0
   -8.0877    0.4875    0.2935 H   0  0  0  0  0  0  0  0  0  0  0  0
   -7.9311   -2.5509    0.6401 H   0  0  0  0  0  0  0  0  0  0  0  0
   -8.5598   -1.7275   -0.7889 H   0  0  0  0  0  0  0  0  0  0  0  0
   -5.4441    2.6642   -0.0114 H   0  0  0  0  0  0  0  0  0  0  0  0
  -10.3381   -0.6522    0.6018 H   0  0  0  0  0  0  0  0  0  0  0  0
   -9.7074   -1.4768    2.0413 H   0  0  0  0  0  0  0  0  0  0  0  0
  -10.4001   -2.4197    0.7104 H   0  0  0  0  0  0  0  0  0  0  0  0
  1  9  1  0  0  0  0
  1 41  1  0  0  0  0
  2 10  1  0  0  0  0
  2 45  1  0  0  0  0
  3 15  1  0  0  0  0
  3 18  1  0  0  0  0
  4 13  1  0  0  0  0
  4 21  1  0  0  0  0
  5 12  1  0  0  0  0
  5 49  1  0  0  0  0
  6 18  2  0  0  0  0
  7 21  2  0  0  0  0
  8 24  1  0  0  0  0
  8 59  1  0  0  0  0
  9 10  1  0  0  0  0
  9 12  1  0  0  0  0
  9 16  1  0  0  0  0
 10 11  1  0  0  0  0
 10 29  1  0  0  0  0
 11 13  1  0  0  0  0
 11 17  1  0  0  0  0
 11 30  1  0  0  0  0
 12 14  1  0  0  0  0
 12 31  1  0  0  0  0
 13 15  1  0  0  0  0
 13 32  1  0  0  0  0
 14 18  1  0  0  0  0
 14 19  1  0  0  0  0
 14 33  1  0  0  0  0
 15 20  1  0  0  0  0
 15 34  1  0  0  0  0
 16 35  1  0  0  0  0
 16 36  1  0  0  0  0
 16 37  1  0  0  0  0
 17 38  1  0  0  0  0
 17 39  1  0  0  0  0
 17 40  1  0  0  0  0
 19 42  1  0  0  0  0
 19 43  1  0  0  0  0
 19 44  1  0  0  0  0
 20 46  1  0  0  0  0
 20 47  1  0  0  0  0
 20 48  1  0  0  0  0
 21 22  1  0  0  0  0
 22 23  2  0  0  0  0
 22 50  1  0  0  0  0
 23 24  1  0  0  0  0
 23 51  1  0  0  0  0
 24 25  1  0  0  0  0
 24 52  1  0  0  0  0
 25 26  1  0  0  0  0
 25 53  1  0  0  0  0
 25 54  1  0  0  0  0
 26 27  1  0  0  0  0
 26 55  1  0  0  0  0
 26 56  1  0  0  0  0
 27 28  1  0  0  0  0
 27 57  1  0  0  0  0
 27 58  1  0  0  0  0
 28 60  1  0  0  0  0
 28 61  1  0  0  0  0
 28 62  1  0  0  0  0
M  END
> <PUBCHEM_COMPOUND_CID>
139584827

> <PUBCHEM_CONFORMER_RMSD>
1

> <PUBCHEM_CONFORMER_DIVERSEORDER>
1
105
74
66
77
88
8
63
95
62
60
38
54
27
102
47
14
80
40
106
70
97
9
43
22
49
20
107
13
58
100
86
67
15
83
32
45
19
94
28
78
101
89
56
11
108
50
85
18
103
48
109
29
68
23
72
26
98
87
93
90
41
71
7
65
64
6
91
46
12
104
3
99
75
84
92
17
42
52
57
69
25
79
21
53
51
110
31
2
82
16
59
33
39
44
73
96
34
36
81
24
61
55
10
30
35
4
76
5
37

> <PUBCHEM_MMFF94_PARTIAL_CHARGES>
25
1 -0.68
10 0.28
12 0.28
13 0.28
14 0.06
15 0.28
18 0.66
2 -0.68
21 0.71
22 -0.14
23 -0.29
24 0.42
3 -0.43
4 -0.43
41 0.4
45 0.4
49 0.4
5 -0.68
50 0.15
51 0.15
59 0.4
6 -0.57
7 -0.57
8 -0.68
9 0.28

> <PUBCHEM_EFFECTIVE_ROTOR_COUNT>
8.6

> <PUBCHEM_PHARMACOPHORE_FEATURES>
11
1 1 acceptor
1 1 donor
1 2 acceptor
1 2 donor
1 28 hydrophobe
1 5 acceptor
1 5 donor
1 6 acceptor
1 7 acceptor
1 8 acceptor
1 8 donor

> <PUBCHEM_HEAVY_ATOM_COUNT>
28

> <PUBCHEM_ATOM_DEF_STEREO_COUNT>
7

> <PUBCHEM_ATOM_UDEF_STEREO_COUNT>
1

> <PUBCHEM_BOND_DEF_STEREO_COUNT>
1

> <PUBCHEM_BOND_UDEF_STEREO_COUNT>
0

> <PUBCHEM_ISOTOPIC_ATOM_COUNT>
0

> <PUBCHEM_COMPONENT_COUNT>
1

> <PUBCHEM_CACTVS_TAUTO_COUNT>
-1

> <PUBCHEM_CONFORMER_ID>
0851E53B00000001

> <PUBCHEM_MMFF94_ENERGY>
79.9202

> <PUBCHEM_FEATURE_SELFOVERLAP>
55.843

> <PUBCHEM_SHAPE_FINGERPRINT>
10066227 112 9367353626769874123
10165383 225 18271241746811114688
10316853 100 18260831505313542883
12035758 1 18268970069624260194
12166972 35 18411982490129303833
12236239 1 17846776287107084389
12596602 18 18202567251002991417
12730499 353 18343020003926553994
13073987 5 18343303648479291529
13140716 1 18197198438977972712
13533116 47 18273214192306099561
13685833 64 18335141995109166747
13692114 37 18114461258087546323
13782708 43 17894911815718578649
14170010 4 18410575106428371077
14251764 18 18060701706820465399
14341114 176 18342740702340503645
15510794 2 18260546750326606579
15510800 12 17676781954827120899
15721738 202 18060423499686094027
18222031 100 16588026818792372093
19377110 9 17275111622246909507
1979834 28 17917709076618178918
20397935 70 18343867714374707725
21130935 74 18338235956173507059
21197605 99 18412545444224529335
21267235 1 18342739564548749118
22956985 138 16518474873724992595
23559900 14 18334571344274570121
3383291 50 17894920676780255355
4073 2 18187369861107763739
4340502 62 18272088335834232815
465052 167 18334570223081936032
5104073 3 18201723912763233081
58260988 393 16702305607201140522
70251023 43 17914908526530482798

> <PUBCHEM_SHAPE_MULTIPOLES>
529.27
21.51
2.78
1.25
60.65
0.18
-0.01
9.84
5.99
-2.59
-0.12
-1.21
-0.03
1.2

> <PUBCHEM_SHAPE_SELFOVERLAP>
1050.202

> <PUBCHEM_SHAPE_VOLUME>
311.4

> <PUBCHEM_COORDINATE_TYPE>
2
5
10

$$$$
