REMARK  Name = 139591368
REMARK  10 active torsions:
REMARK  status: ('A' for Active; 'I' for Inactive)
REMARK    1  A    between atoms: C_4  and  O_16
REMARK    2  A    between atoms: C_5  and  O_11
REMARK    3  A    between atoms: C_6  and  O_9
REMARK    4  A    between atoms: O_11  and  C_12
REMARK    5  A    between atoms: C_12  and  C_13
REMARK    6  A    between atoms: C_13  and  C_14
REMARK    7  A    between atoms: O_16  and  C_18
REMARK    8  A    between atoms: C_18  and  C_19
REMARK    9  A    between atoms: C_21  and  O_26
REMARK   10  A    between atoms: C_25  and  O_28
REMARK                            x       y       z     vdW  Elec       q    Type
REMARK                         _______ _______ _______ _____ _____    ______ ____
ROOT
ATOM      1  O   UNL     1       3.137   0.728   1.215  0.00  0.00    -0.327 OA
ATOM      2  O   UNL     1       1.163   2.150  -1.970  0.00  0.00    -0.289 OA
ATOM      3  C   UNL     1       3.861   1.196   0.068  0.00  0.00    +0.152 C 
ATOM      4  C   UNL     1       0.974   1.358   0.303  0.00  0.00    +0.284 C 
ATOM      5  C   UNL     1       1.829   0.241   0.896  0.00  0.00    +0.285 C 
ATOM      6  C   UNL     1       3.137   2.371  -0.593  0.00  0.00    +0.199 C 
ATOM      7  C   UNL     1       1.705   1.959  -0.884  0.00  0.00    +0.224 C 
ATOM      8  C   UNL     1       5.254   1.598   0.544  0.00  0.00    +0.035 C 
ENDROOT
BRANCH   6   9
ATOM      9  O   UNL     1       3.793   2.734  -1.790  0.00  0.00    -0.375 OA
ATOM     10  H   UNL     1       4.707   2.995  -1.592  0.00  0.00    +0.211 HD
ENDBRANCH   6   9
BRANCH   5  11
ATOM     11  O   UNL     1       1.864  -0.878   0.011  0.00  0.00    -0.328 OA
BRANCH  11  12
ATOM     12  C   UNL     1       2.242  -2.064   0.693  0.00  0.00    +0.145 C 
BRANCH  12  13
ATOM     13  C   UNL     1       2.280  -3.213  -0.304  0.00  0.00    +0.032 C 
BRANCH  13  14
ATOM     14  C   UNL     1       2.665  -4.529   0.367  0.00  0.00    +0.003 C 
ATOM     15  C   UNL     1       2.660  -5.682  -0.624  0.00  0.00    +0.000 C 
ENDBRANCH  13  14
ENDBRANCH  12  13
ENDBRANCH  11  12
ENDBRANCH   5  11
BRANCH   4  16
ATOM     16  O   UNL     1      -0.296   0.864  -0.062  0.00  0.00    -0.436 OA
BRANCH  16  18
ATOM     17  O   UNL     1      -1.135   1.382   2.018  0.00  0.00    -0.245 OA
ATOM     18  C   UNL     1      -1.273   0.933   0.891  0.00  0.00    +0.344 C 
BRANCH  18  19
ATOM     19  C   UNL     1      -2.556   0.383   0.385  0.00  0.00    +0.105 C 
ATOM     20  C   UNL     1      -3.693   1.188   0.331  0.00  0.00    -0.010 C 
ATOM     21  C   UNL     1      -2.621  -0.946  -0.035  0.00  0.00    +0.143 C 
ATOM     22  C   UNL     1      -4.896   0.666  -0.144  0.00  0.00    +0.033 C 
ATOM     23  C   UNL     1      -3.824  -1.468  -0.509  0.00  0.00    +0.073 C 
ATOM     24  C   UNL     1      -3.653   2.615   0.774  0.00  0.00    +0.031 C 
ATOM     25  C   UNL     1      -4.962  -0.663  -0.564  0.00  0.00    +0.136 C 
BRANCH  21  26
ATOM     26  O   UNL     1      -1.522  -1.751   0.010  0.00  0.00    -0.505 OA
ATOM     27  H   UNL     1      -0.707  -1.414   0.326  0.00  0.00    +0.292 HD
ENDBRANCH  21  26
BRANCH  25  28
ATOM     28  O   UNL     1      -6.135  -1.174  -1.027  0.00  0.00    -0.505 OA
ATOM     29  H   UNL     1      -6.899  -0.633  -1.064  0.00  0.00    +0.292 HD
ENDBRANCH  25  28
ENDBRANCH  18  19
ENDBRANCH  16  18
ENDBRANCH   4  16
TORSDOF 10
