REMARK  Name = 139588955
REMARK  10 active torsions:
REMARK  status: ('A' for Active; 'I' for Inactive)
REMARK    1  A    between atoms: C_1  and  N_3
REMARK    2  A    between atoms: C_1  and  C_11
REMARK    3  A    between atoms: C_1  and  C_14
REMARK    4  A    between atoms: C_4  and  C_8
REMARK    5  A    between atoms: N_7  and  C_8
REMARK    6  A    between atoms: N_7  and  O_9
REMARK    7  A    between atoms: C_14  and  O_15
REMARK    8  A    between atoms: C_14  and  C_17
REMARK    9  A    between atoms: C_17  and  C_20
REMARK   10  A    between atoms: C_20  and  O_21
REMARK                            x       y       z     vdW  Elec       q    Type
REMARK                         _______ _______ _______ _____ _____    ______ ____
ROOT
ATOM      1  C   UNL     1      -0.854   0.774   0.035  0.00  0.00    +0.099 C 
ENDROOT
BRANCH   1   3
ATOM      2  O   UNL     1       1.244   0.351  -1.992  0.00  0.00    -0.273 OA
ATOM      3  N   UNL     1       0.589   0.838   0.207  0.00  0.00    -0.302 N 
ATOM      4  C   UNL     1       1.464   0.620  -0.823  0.00  0.00    +0.244 C 
ATOM      5  H   UNL     1       0.951   1.047   1.099  0.00  0.00    +0.149 HD
BRANCH   4   6
ATOM      6  C   UNL     1       2.879   0.732  -0.382  0.00  0.00    +0.220 C 
BRANCH   6   8
ATOM      7  O   UNL     1       2.910  -1.444   0.096  0.00  0.00    -0.090 OA
ATOM      8  N   UNL     1       3.515  -0.322   0.054  0.00  0.00    -0.009 NA
BRANCH   8   9
ATOM      9  O   UNL     1       4.872  -0.201   0.519  0.00  0.00    -0.253 OA
ATOM     10  C   UNL     1       5.604  -1.401   0.302  0.00  0.00    +0.203 C 
ENDBRANCH   8   9
ENDBRANCH   6   8
ENDBRANCH   4   6
ENDBRANCH   1   3
BRANCH   1  11
ATOM     11  C   UNL     1      -1.493   2.156   0.313  0.00  0.00    +0.020 C 
ATOM     12  C   UNL     1      -0.873   3.289  -0.512  0.00  0.00    +0.002 C 
ATOM     13  C   UNL     1      -1.425   2.514   1.804  0.00  0.00    +0.002 C 
ENDBRANCH   1  11
BRANCH   1  14
ATOM     14  C   UNL     1      -1.387  -0.414   0.877  0.00  0.00    +0.139 C 
BRANCH  14  15
ATOM     15  O   UNL     1      -0.630  -1.578   0.491  0.00  0.00    -0.382 OA
ATOM     16  H   UNL     1       0.318  -1.387   0.565  0.00  0.00    +0.210 HD
ENDBRANCH  14  15
BRANCH  14  17
ATOM     17  C   UNL     1      -2.873  -0.814   0.729  0.00  0.00    +0.127 C 
ATOM     18  C   UNL     1      -3.273  -1.999   1.609  0.00  0.00    +0.014 C 
BRANCH  17  20
ATOM     19  O   UNL     1      -3.255  -2.134  -1.290  0.00  0.00    -0.250 OA
ATOM     20  C   UNL     1      -3.288  -1.052  -0.718  0.00  0.00    +0.316 C 
BRANCH  20  21
ATOM     21  O   UNL     1      -3.726   0.084  -1.321  0.00  0.00    -0.480 OA
ATOM     22  H   UNL     1      -3.735   0.892  -0.847  0.00  0.00    +0.295 HD
ENDBRANCH  20  21
ENDBRANCH  17  20
ENDBRANCH  14  17
ENDBRANCH   1  14
TORSDOF 10
