REMARK  Name = 139587691
REMARK  9 active torsions:
REMARK  status: ('A' for Active; 'I' for Inactive)
REMARK    1  A    between atoms: C_3  and  C_15
REMARK    2  A    between atoms: C_5  and  C_26
REMARK    3  A    between atoms: C_7  and  O_23
REMARK    4  A    between atoms: C_12  and  O_32
REMARK    5  A    between atoms: C_12  and  C_34
REMARK    6  A    between atoms: C_16  and  O_21
REMARK    7  A    between atoms: C_26  and  C_27
REMARK    8  A    between atoms: C_28  and  C_29
REMARK    9  A    between atoms: C_35  and  C_36
REMARK                            x       y       z     vdW  Elec       q    Type
REMARK                         _______ _______ _______ _____ _____    ______ ____
ROOT
ATOM      1  O   UNL     1       1.240  -3.805   0.063  0.00  0.00    -0.293 OA
ATOM      2  O   UNL     1      -0.566  -1.271  -2.892  0.00  0.00    -0.291 OA
ATOM      3  C   UNL     1       0.097  -0.118   0.960  0.00  0.00    +0.059 C 
ATOM      4  C   UNL     1      -1.114  -1.083   0.722  0.00  0.00    +0.064 C 
ATOM      5  C   UNL     1       1.198  -0.394  -0.109  0.00  0.00    +0.080 C 
ATOM      6  C   UNL     1       0.834  -1.641  -0.942  0.00  0.00    +0.129 C 
ATOM      7  C   UNL     1      -0.638  -2.549   0.962  0.00  0.00    +0.143 C 
ATOM      8  C   UNL     1       0.549  -2.791   0.023  0.00  0.00    +0.182 C 
ATOM      9  C   UNL     1      -1.564  -0.943  -0.723  0.00  0.00    +0.049 C 
ATOM     10  C   UNL     1      -0.453  -1.284  -1.674  0.00  0.00    +0.179 C 
ATOM     11  C   UNL     1      -1.730  -3.591   0.727  0.00  0.00    +0.037 C 
ATOM     12  C   UNL     1      -2.772  -0.571  -1.154  0.00  0.00    +0.132 C 
ENDROOT
BRANCH   3  15
ATOM     13  O   UNL     1      -0.697   1.692  -0.406  0.00  0.00    -0.446 OA
ATOM     14  O   UNL     1       0.034   3.198  -1.982  0.00  0.00    -0.245 OA
ATOM     15  C   UNL     1      -0.325   1.355   0.942  0.00  0.00    +0.186 C 
ATOM     16  C   UNL     1       0.802   2.278   1.208  0.00  0.00    +0.149 C 
ATOM     17  C   UNL     1      -1.530   1.599   1.845  0.00  0.00    +0.052 C 
ATOM     18  C   UNL     1       1.073   3.069   0.170  0.00  0.00    +0.086 C 
ATOM     19  C   UNL     1       0.107   2.694  -0.874  0.00  0.00    +0.340 C 
ATOM     20  C   UNL     1       2.095   4.124  -0.002  0.00  0.00    +0.041 C 
BRANCH  16  21
ATOM     21  O   UNL     1       1.462   2.284   2.405  0.00  0.00    -0.506 OA
ATOM     22  H   UNL     1       1.205   1.692   3.084  0.00  0.00    +0.292 HD
ENDBRANCH  16  21
ENDBRANCH   3  15
BRANCH   7  23
ATOM     23  O   UNL     1      -0.166  -2.681   2.296  0.00  0.00    -0.379 OA
ATOM     24  H   UNL     1       0.530  -2.024   2.459  0.00  0.00    +0.211 HD
ENDBRANCH   7  23
BRANCH   5  26
ATOM     25  O   UNL     1       2.670  -1.005   1.660  0.00  0.00    -0.291 OA
ATOM     26  C   UNL     1       2.550  -0.568   0.518  0.00  0.00    +0.174 C 
BRANCH  26  27
ATOM     27  C   UNL     1       3.723  -0.152  -0.301  0.00  0.00    +0.037 C 
ATOM     28  C   UNL     1       4.967  -0.273   0.181  0.00  0.00    +0.003 C 
BRANCH  28  29
ATOM     29  C   UNL     1       6.137   0.117  -0.574  0.00  0.00    -0.004 C 
ATOM     30  C   UNL     1       7.387   0.001  -0.102  0.00  0.00    -0.026 C 
ATOM     31  C   UNL     1       8.603   0.400  -0.872  0.00  0.00    +0.031 C 
ENDBRANCH  28  29
ENDBRANCH  26  27
ENDBRANCH   5  26
BRANCH  12  32
ATOM     32  O   UNL     1      -3.072  -0.478  -2.502  0.00  0.00    -0.506 OA
ATOM     33  H   UNL     1      -2.418  -0.679  -3.142  0.00  0.00    +0.292 HD
ENDBRANCH  12  32
BRANCH  12  34
ATOM     34  C   UNL     1      -3.858  -0.237  -0.247  0.00  0.00    +0.036 C 
ATOM     35  C   UNL     1      -5.093   0.143  -0.612  0.00  0.00    +0.003 C 
BRANCH  35  36
ATOM     36  C   UNL     1      -6.132   0.462   0.343  0.00  0.00    -0.004 C 
ATOM     37  C   UNL     1      -7.367   0.842  -0.016  0.00  0.00    -0.026 C 
ATOM     38  C   UNL     1      -8.448   1.173   0.961  0.00  0.00    +0.031 C 
ENDBRANCH  35  36
ENDBRANCH  12  34
TORSDOF 9
