REMARK  Name = 139585922
REMARK  6 active torsions:
REMARK  status: ('A' for Active; 'I' for Inactive)
REMARK    1  A    between atoms: CG_13  and  OD_27
REMARK    2  A    between atoms: CG_14  and  OD_25
REMARK    3  A    between atoms: CA_17  and  CB_29
REMARK    4  A    between atoms: CA_18  and  CB_33
REMARK    5  A    between atoms: CB_29  and  CG_30
REMARK    6  A    between atoms: CB_33  and  CG_34
REMARK                            x       y       z     vdW  Elec       q    Type
REMARK                         _______ _______ _______ _____ _____    ______ ____
ROOT
ATOM      1  O   LEU A   4       2.028   1.514   2.024  0.00  0.00    -0.273 OA
ATOM      2  O   LEU A   2      -3.341  -0.613  -1.597  0.00  0.00    -0.273 OA
ATOM      3  O   HYP A   1      -1.254   2.722   1.744  0.00  0.00    -0.273 OA
ATOM      4  O   HYP A   3       0.786  -1.155  -1.480  0.00  0.00    -0.273 OA
ATOM      5  N   HYP A   1       1.504   1.987  -0.173  0.00  0.00    -0.269 N 
ATOM      6  N   HYP A   3      -1.684  -1.808  -0.552  0.00  0.00    -0.269 N 
ATOM      7  N   LEU A   4       1.632  -1.003   0.674  0.00  0.00    -0.297 N 
ATOM      8  N   LEU A   2      -1.225   1.278  -0.076  0.00  0.00    -0.297 N 
ATOM      9  CA  HYP A   3      -0.552  -2.000   0.356  0.00  0.00    +0.154 C 
ATOM     10  CA  HYP A   1       0.511   3.009   0.148  0.00  0.00    +0.154 C 
ATOM     11  CB  HYP A   3      -0.382  -3.513   0.422  0.00  0.00    +0.060 C 
ATOM     12  CB  HYP A   1       0.239   3.736  -1.173  0.00  0.00    +0.060 C 
ATOM     13  CG  HYP A   3      -0.800  -3.976  -0.973  0.00  0.00    +0.132 C 
ATOM     14  CG  HYP A   1       1.477   3.443  -2.015  0.00  0.00    +0.132 C 
ATOM     15  CD  HYP A   1       1.897   2.046  -1.579  0.00  0.00    +0.123 C 
ATOM     16  CD  HYP A   3      -1.907  -3.003  -1.360  0.00  0.00    +0.123 C 
ATOM     17  CA  LEU A   4       2.728  -0.086   0.376  0.00  0.00    +0.149 C 
ATOM     18  CA  LEU A   2      -2.351   0.442   0.325  0.00  0.00    +0.149 C 
ATOM     19  C   LEU A   2      -2.509  -0.700  -0.687  0.00  0.00    +0.244 C 
ATOM     20  C   LEU A   4       2.123   1.241   0.823  0.00  0.00    +0.244 C 
ATOM     21  C   HYP A   3       0.676  -1.345  -0.271  0.00  0.00    +0.241 C 
ATOM     22  C   HYP A   1      -0.732   2.315   0.707  0.00  0.00    +0.241 C 
ATOM     23  H   LEU A   4       1.569  -1.392   1.577  0.00  0.00    +0.150 HD
ATOM     24  H   LEU A   2      -0.795   1.099  -0.943  0.00  0.00    +0.150 HD
ENDROOT
BRANCH  14  25
ATOM     25  OD  HYP A   1       2.510   4.377  -1.715  0.00  0.00    -0.383 OA
ATOM     26  HD  HYP A   1       2.235   5.264  -1.996  0.00  0.00    +0.210 HD
ENDBRANCH  14  25
BRANCH  13  27
ATOM     27  OD  HYP A   3      -1.283  -5.306  -0.948  0.00  0.00    -0.383 OA
ATOM     28  HD  HYP A   3      -0.562  -5.906  -0.699  0.00  0.00    +0.210 HD
ENDBRANCH  13  27
BRANCH  17  29
ATOM     29  CB  LEU A   4       3.972  -0.441   1.173  0.00  0.00    +0.029 C 
BRANCH  29  30
ATOM     30  CG  LEU A   4       4.570  -1.812   0.806  0.00  0.00    +0.002 C 
ATOM     31  CD1 LEU A   4       5.777  -2.110   1.700  0.00  0.00    +0.000 C 
ATOM     32  CD2 LEU A   4       4.984  -1.891  -0.664  0.00  0.00    +0.000 C 
ENDBRANCH  29  30
ENDBRANCH  17  29
BRANCH  18  33
ATOM     33  CB  LEU A   2      -3.649   1.252   0.392  0.00  0.00    +0.029 C 
BRANCH  33  34
ATOM     34  CG  LEU A   2      -4.876   0.402   0.749  0.00  0.00    +0.002 C 
ATOM     35  CD1 LEU A   2      -6.129   1.281   0.735  0.00  0.00    +0.000 C 
ATOM     36  CD2 LEU A   2      -4.740  -0.283   2.109  0.00  0.00    +0.000 C 
ENDBRANCH  33  34
ENDBRANCH  18  33
TORSDOF 6
