139587045
  -OEChem-03292013293D

 52 57  0     1  0  0  0  0  0999 V2000
    0.1532   -0.9181   -0.7441 O   0  0  0  0  0  0  0  0  0  0  0  0
   -1.7576   -0.6234    2.2025 O   0  0  0  0  0  0  0  0  0  0  0  0
   -1.2796   -2.4432    0.3240 O   0  0  0  0  0  0  0  0  0  0  0  0
   -2.0282   -0.8352   -2.3618 O   0  0  0  0  0  0  0  0  0  0  0  0
   -3.0277    1.6458   -1.3838 O   0  0  0  0  0  0  0  0  0  0  0  0
    1.2945   -2.6542    1.5106 O   0  0  0  0  0  0  0  0  0  0  0  0
   -3.7942   -1.9203    0.3823 O   0  0  0  0  0  0  0  0  0  0  0  0
   -1.8311    1.0487    0.5626 N   0  0  0  0  0  0  0  0  0  0  0  0
    3.1230   -1.7469    0.3158 N   0  0  0  0  0  0  0  0  0  0  0  0
    0.3029    0.3323    1.2634 C   0  0  2  0  0  0  0  0  0  0  0  0
   -1.1368   -0.1242    1.0388 C   0  0  1  0  0  0  0  0  0  0  0  0
    0.2908    1.8931    0.9271 C   0  0  2  0  0  0  0  0  0  0  0  0
    1.0827   -0.5241    0.2759 C   0  0  2  0  0  0  0  0  0  0  0  0
   -1.2115    2.2872    1.0520 C   0  0  0  0  0  0  0  0  0  0  0  0
   -1.1314   -1.1023   -0.1216 C   0  0  1  0  0  0  0  0  0  0  0  0
   -2.3154   -0.6434   -0.9958 C   0  0  1  0  0  0  0  0  0  0  0  0
    0.9096    2.2710   -0.4560 C   0  0  0  0  0  0  0  0  0  0  0  0
    2.2249    0.2260   -0.3116 C   0  0  0  0  0  0  0  0  0  0  0  0
   -2.4649    0.8342   -0.6632 C   0  0  0  0  0  0  0  0  0  0  0  0
    2.1960    1.5490   -0.6885 C   0  0  0  0  0  0  0  0  0  0  0  0
    1.8020   -1.7884    0.8136 C   0  0  0  0  0  0  0  0  0  0  0  0
   -1.6125    3.5599    0.2940 C   0  0  0  0  0  0  0  0  0  0  0  0
   -1.5820    2.5097    2.5351 C   0  0  0  0  0  0  0  0  0  0  0  0
    3.3808   -0.5333   -0.3339 C   0  0  0  0  0  0  0  0  0  0  0  0
   -3.5812   -1.4061   -0.7147 C   0  0  0  0  0  0  0  0  0  0  0  0
    3.3579    2.0881   -1.2354 C   0  0  0  0  0  0  0  0  0  0  0  0
    4.5501   -0.0212   -0.8591 C   0  0  0  0  0  0  0  0  0  0  0  0
    4.1345   -2.7506    0.5426 C   0  0  0  0  0  0  0  0  0  0  0  0
    4.5242    1.3001   -1.3293 C   0  0  0  0  0  0  0  0  0  0  0  0
   -4.5733   -1.5100   -1.8414 C   0  0  0  0  0  0  0  0  0  0  0  0
    0.6351    0.1816    2.2973 H   0  0  0  0  0  0  0  0  0  0  0  0
    0.8865    2.4076    1.6941 H   0  0  0  0  0  0  0  0  0  0  0  0
    1.0764    3.3540   -0.4931 H   0  0  0  0  0  0  0  0  0  0  0  0
    0.2303    2.0120   -1.2768 H   0  0  0  0  0  0  0  0  0  0  0  0
   -2.6836    3.7618    0.4120 H   0  0  0  0  0  0  0  0  0  0  0  0
   -1.0656    4.4294    0.6757 H   0  0  0  0  0  0  0  0  0  0  0  0
   -1.4185    3.4997   -0.7806 H   0  0  0  0  0  0  0  0  0  0  0  0
   -1.2469    1.6955    3.1850 H   0  0  0  0  0  0  0  0  0  0  0  0
   -1.1265    3.4303    2.9177 H   0  0  0  0  0  0  0  0  0  0  0  0
   -2.6683    2.5932    2.6550 H   0  0  0  0  0  0  0  0  0  0  0  0
   -2.7004   -0.7411    1.9982 H   0  0  0  0  0  0  0  0  0  0  0  0
   -0.9531   -2.5002    1.2375 H   0  0  0  0  0  0  0  0  0  0  0  0
   -1.5636   -1.6840   -2.4592 H   0  0  0  0  0  0  0  0  0  0  0  0
    3.3822    3.1204   -1.5729 H   0  0  0  0  0  0  0  0  0  0  0  0
    5.4682   -0.5966   -0.8907 H   0  0  0  0  0  0  0  0  0  0  0  0
    4.9239   -2.3313    1.1733 H   0  0  0  0  0  0  0  0  0  0  0  0
    4.5518   -3.0696   -0.4168 H   0  0  0  0  0  0  0  0  0  0  0  0
    3.6983   -3.6157    1.0495 H   0  0  0  0  0  0  0  0  0  0  0  0
    5.4284    1.7368   -1.7462 H   0  0  0  0  0  0  0  0  0  0  0  0
   -4.2060   -2.2011   -2.6038 H   0  0  0  0  0  0  0  0  0  0  0  0
   -4.7589   -0.5241   -2.2749 H   0  0  0  0  0  0  0  0  0  0  0  0
   -5.5217   -1.8920   -1.4518 H   0  0  0  0  0  0  0  0  0  0  0  0
  1 13  1  0  0  0  0
  1 15  1  0  0  0  0
  2 11  1  0  0  0  0
  2 41  1  0  0  0  0
  3 15  1  0  0  0  0
  3 42  1  0  0  0  0
  4 16  1  0  0  0  0
  4 43  1  0  0  0  0
  5 19  2  0  0  0  0
  6 21  2  0  0  0  0
  7 25  2  0  0  0  0
  8 11  1  0  0  0  0
  8 14  1  0  0  0  0
  8 19  1  0  0  0  0
  9 21  1  0  0  0  0
  9 24  1  0  0  0  0
  9 28  1  0  0  0  0
 10 11  1  0  0  0  0
 10 12  1  0  0  0  0
 10 13  1  0  0  0  0
 10 31  1  0  0  0  0
 11 15  1  0  0  0  0
 12 14  1  0  0  0  0
 12 17  1  0  0  0  0
 12 32  1  0  0  0  0
 13 18  1  0  0  0  0
 13 21  1  0  0  0  0
 14 22  1  0  0  0  0
 14 23  1  0  0  0  0
 15 16  1  0  0  0  0
 16 19  1  0  0  0  0
 16 25  1  0  0  0  0
 17 20  1  0  0  0  0
 17 33  1  0  0  0  0
 17 34  1  0  0  0  0
 18 20  2  0  0  0  0
 18 24  1  0  0  0  0
 20 26  1  0  0  0  0
 22 35  1  0  0  0  0
 22 36  1  0  0  0  0
 22 37  1  0  0  0  0
 23 38  1  0  0  0  0
 23 39  1  0  0  0  0
 23 40  1  0  0  0  0
 24 27  2  0  0  0  0
 25 30  1  0  0  0  0
 26 29  2  0  0  0  0
 26 44  1  0  0  0  0
 27 29  1  0  0  0  0
 27 45  1  0  0  0  0
 28 46  1  0  0  0  0
 28 47  1  0  0  0  0
 28 48  1  0  0  0  0
 29 49  1  0  0  0  0
 30 50  1  0  0  0  0
 30 51  1  0  0  0  0
 30 52  1  0  0  0  0
M  END
> <PUBCHEM_COMPOUND_CID>
139587045

> <PUBCHEM_CONFORMER_RMSD>
0.6

> <PUBCHEM_CONFORMER_DIVERSEORDER>
1
3
2

> <PUBCHEM_MMFF94_PARTIAL_CHARGES>
32
1 -0.56
11 0.58
13 0.48
14 0.3
15 0.56
16 0.4
17 0.14
18 -0.14
19 0.57
2 -0.68
20 -0.14
21 0.57
24 0.12
25 0.45
26 -0.15
27 -0.15
28 0.3
29 -0.15
3 -0.68
30 0.06
4 -0.68
41 0.4
42 0.4
43 0.4
44 0.15
45 0.15
49 0.15
5 -0.57
6 -0.57
7 -0.57
8 -0.66
9 -0.48

> <PUBCHEM_EFFECTIVE_ROTOR_COUNT>
2

> <PUBCHEM_PHARMACOPHORE_FEATURES>
17
1 1 acceptor
1 2 acceptor
1 2 donor
1 3 acceptor
1 3 donor
1 4 acceptor
1 4 donor
1 5 acceptor
1 6 acceptor
1 7 acceptor
3 14 22 23 hydrophobe
5 1 10 11 13 15 rings
5 8 10 11 12 14 rings
5 8 11 15 16 19 rings
5 9 13 18 21 24 rings
6 10 12 13 17 18 20 rings
6 18 20 24 26 27 29 rings

> <PUBCHEM_HEAVY_ATOM_COUNT>
30

> <PUBCHEM_ATOM_DEF_STEREO_COUNT>
6

> <PUBCHEM_ATOM_UDEF_STEREO_COUNT>
0

> <PUBCHEM_BOND_DEF_STEREO_COUNT>
0

> <PUBCHEM_BOND_UDEF_STEREO_COUNT>
0

> <PUBCHEM_ISOTOPIC_ATOM_COUNT>
0

> <PUBCHEM_COMPONENT_COUNT>
1

> <PUBCHEM_CACTVS_TAUTO_COUNT>
-1

> <PUBCHEM_CONFORMER_ID>
0851EDE500000001

> <PUBCHEM_MMFF94_ENERGY>
123.3002

> <PUBCHEM_FEATURE_SELFOVERLAP>
88.282

> <PUBCHEM_SHAPE_FINGERPRINT>
104564 63 18202010918813756101
10756046 5 18334289842767900574
10863032 1 18334009480293500509
11578080 2 17703493459245590513
11640471 11 18125454024701079408
12035759 4 18411138004705015380
12422481 6 17771093526218088051
12553582 1 18060134401005555423
12714826 92 17417808422409841679
12788726 201 18130512933735310561
13009979 54 18198618835669922850
13140716 1 18341050705307195168
13224815 77 18411985758714674392
13583140 156 17316779676359453041
13911987 19 17900837246900043412
14790565 3 18126575505282331609
15420108 30 16971667015285127472
16752209 62 17917704661117387965
16945 1 18190727825237086777
17349148 13 18260539035789740384
17492 89 18340209592114158350
1813 80 17417804114847924271
200 152 18339929315237293382
20600515 1 16844711162255011803
20691752 17 18268985552227085769
20739085 24 16540763997439005656
21197605 99 17037834547009084281
22112679 90 17846230985126517569
22182313 1 18056733616104875649
22393880 68 18409732833624995180
22907989 373 18060139795379022965
23419403 2 15456393971858890113
23559900 14 18200015241428288442
238 59 18114738364601597742
25147074 1 18339653239472375632
2748010 2 16897360417298734320
312423 11 18339092501369303750
404807 14 15871894928281865056
463206 1 18125996306923894894
469060 322 18116169924346229561
6086070 43 17845928650527572943
70251023 43 18130511923937934846
7164475 11 18342174423776813558
7471813 234 18340750594879109894
90525 40 18127986221306575044
9981440 41 18118966034777957592

> <PUBCHEM_SHAPE_MULTIPOLES>
566.34
7.29
3.41
1.81
3.01
1.01
0.23
-2.82
-3.57
-0.32
0.89
-1.03
0.23
-2.16

> <PUBCHEM_SHAPE_SELFOVERLAP>
1302.561

> <PUBCHEM_SHAPE_VOLUME>
293.5

> <PUBCHEM_COORDINATE_TYPE>
2
5
10

$$$$
