139591334
  -OEChem-03292013293D

 38 39  0     1  0  0  0  0  0999 V2000
   -1.6452   -0.7471   -0.4855 O   0  0  0  0  0  0  0  0  0  0  0  0
   -4.5064    1.2285    1.4263 O   0  0  0  0  0  0  0  0  0  0  0  0
    2.3390   -3.3120   -0.0723 O   0  0  0  0  0  0  0  0  0  0  0  0
   -0.4114   -3.1550   -0.3207 O   0  0  0  0  0  0  0  0  0  0  0  0
    0.4044    2.7727   -0.3843 O   0  0  0  0  0  0  0  0  0  0  0  0
    2.9534    1.9013    1.1399 O   0  0  0  0  0  0  0  0  0  0  0  0
    3.2764    2.0054   -1.1368 O   0  0  0  0  0  0  0  0  0  0  0  0
   -3.7689    0.3733   -0.6973 C   0  0  0  0  0  0  0  0  0  0  0  0
   -2.2820    0.4806   -0.5699 C   0  0  0  0  0  0  0  0  0  0  0  0
    0.4936    0.3942   -0.3220 C   0  0  0  0  0  0  0  0  0  0  0  0
   -0.2785   -0.7660   -0.3640 C   0  0  0  0  0  0  0  0  0  0  0  0
   -4.4283    0.0403    0.6408 C   0  0  2  0  0  0  0  0  0  0  0  0
    1.8825    0.3148   -0.1968 C   0  0  0  0  0  0  0  0  0  0  0  0
   -1.6501    1.6630   -0.5408 C   0  0  0  0  0  0  0  0  0  0  0  0
   -0.1805    1.6987   -0.4116 C   0  0  0  0  0  0  0  0  0  0  0  0
    0.3363   -2.0155   -0.2805 C   0  0  0  0  0  0  0  0  0  0  0  0
    1.7233   -2.0991   -0.1552 C   0  0  0  0  0  0  0  0  0  0  0  0
    2.4945   -0.9364   -0.1134 C   0  0  0  0  0  0  0  0  0  0  0  0
   -5.8392   -0.4962    0.4345 C   0  0  0  0  0  0  0  0  0  0  0  0
    2.7645    1.4748   -0.1449 C   0  0  0  0  0  0  0  0  0  0  0  0
    2.5188   -3.8590    1.2325 C   0  0  0  0  0  0  0  0  0  0  0  0
    3.8037    3.0385    1.3219 C   0  0  0  0  0  0  0  0  0  0  0  0
   -3.9889   -0.4079   -1.4362 H   0  0  0  0  0  0  0  0  0  0  0  0
   -4.1844    1.3080   -1.0959 H   0  0  0  0  0  0  0  0  0  0  0  0
   -3.8415   -0.6983    1.1994 H   0  0  0  0  0  0  0  0  0  0  0  0
   -2.1796    2.6064   -0.6071 H   0  0  0  0  0  0  0  0  0  0  0  0
    3.5754   -1.0146   -0.0163 H   0  0  0  0  0  0  0  0  0  0  0  0
   -6.4685    0.2421   -0.0748 H   0  0  0  0  0  0  0  0  0  0  0  0
   -6.3157   -0.7029    1.3990 H   0  0  0  0  0  0  0  0  0  0  0  0
   -5.8329   -1.4191   -0.1532 H   0  0  0  0  0  0  0  0  0  0  0  0
   -4.9165    0.9922    2.2758 H   0  0  0  0  0  0  0  0  0  0  0  0
    0.1874   -3.9210   -0.2949 H   0  0  0  0  0  0  0  0  0  0  0  0
    2.9835   -4.8434    1.1300 H   0  0  0  0  0  0  0  0  0  0  0  0
    1.5569   -3.9774    1.7412 H   0  0  0  0  0  0  0  0  0  0  0  0
    3.1804   -3.2198    1.8257 H   0  0  0  0  0  0  0  0  0  0  0  0
    4.8111    2.8185    0.9565 H   0  0  0  0  0  0  0  0  0  0  0  0
    3.3861    3.9077    0.8052 H   0  0  0  0  0  0  0  0  0  0  0  0
    3.8566    3.2565    2.3918 H   0  0  0  0  0  0  0  0  0  0  0  0
  1  9  1  0  0  0  0
  1 11  1  0  0  0  0
  2 12  1  0  0  0  0
  2 31  1  0  0  0  0
  3 17  1  0  0  0  0
  3 21  1  0  0  0  0
  4 16  1  0  0  0  0
  4 32  1  0  0  0  0
  5 15  2  0  0  0  0
  6 20  1  0  0  0  0
  6 22  1  0  0  0  0
  7 20  2  0  0  0  0
  8  9  1  0  0  0  0
  8 12  1  0  0  0  0
  8 23  1  0  0  0  0
  8 24  1  0  0  0  0
  9 14  2  0  0  0  0
 10 11  2  0  0  0  0
 10 13  1  0  0  0  0
 10 15  1  0  0  0  0
 11 16  1  0  0  0  0
 12 19  1  0  0  0  0
 12 25  1  0  0  0  0
 13 18  2  0  0  0  0
 13 20  1  0  0  0  0
 14 15  1  0  0  0  0
 14 26  1  0  0  0  0
 16 17  2  0  0  0  0
 17 18  1  0  0  0  0
 18 27  1  0  0  0  0
 19 28  1  0  0  0  0
 19 29  1  0  0  0  0
 19 30  1  0  0  0  0
 21 33  1  0  0  0  0
 21 34  1  0  0  0  0
 21 35  1  0  0  0  0
 22 36  1  0  0  0  0
 22 37  1  0  0  0  0
 22 38  1  0  0  0  0
M  END
> <PUBCHEM_COMPOUND_CID>
139591334

> <PUBCHEM_CONFORMER_RMSD>
0.8

> <PUBCHEM_CONFORMER_DIVERSEORDER>
1
16
12
11
4
18
14
19
10
7
17
15
5
13
3
2
8
6
9

> <PUBCHEM_MMFF94_PARTIAL_CHARGES>
25
1 -0.16
10 0.09
11 0.08
12 0.28
13 0.09
14 -0.14
15 0.47
16 0.08
17 0.08
18 -0.15
2 -0.68
20 0.63
21 0.28
22 0.28
26 0.15
27 0.15
3 -0.36
31 0.4
32 0.45
4 -0.53
5 -0.57
6 -0.43
7 -0.57
8 0.14
9 -0.06

> <PUBCHEM_EFFECTIVE_ROTOR_COUNT>
5

> <PUBCHEM_PHARMACOPHORE_FEATURES>
9
1 1 acceptor
1 2 acceptor
1 2 donor
1 3 acceptor
1 4 donor
1 5 acceptor
1 7 acceptor
6 1 9 10 11 14 15 rings
6 10 11 13 16 17 18 rings

> <PUBCHEM_HEAVY_ATOM_COUNT>
22

> <PUBCHEM_ATOM_DEF_STEREO_COUNT>
1

> <PUBCHEM_ATOM_UDEF_STEREO_COUNT>
0

> <PUBCHEM_BOND_DEF_STEREO_COUNT>
0

> <PUBCHEM_BOND_UDEF_STEREO_COUNT>
0

> <PUBCHEM_ISOTOPIC_ATOM_COUNT>
0

> <PUBCHEM_COMPONENT_COUNT>
1

> <PUBCHEM_CACTVS_TAUTO_COUNT>
-1

> <PUBCHEM_CONFORMER_ID>
0851FEA600000001

> <PUBCHEM_MMFF94_ENERGY>
71.4966

> <PUBCHEM_FEATURE_SELFOVERLAP>
45.702

> <PUBCHEM_SHAPE_FINGERPRINT>
10382601 240 18411981364446107408
10411042 1 18049722914717060431
10493431 412 18197213861256473273
10967382 1 18410008840559490638
1100329 8 18123752225298458292
12107183 9 17907590125559241409
12293681 25 17532398455158304675
12390115 104 17981897650556988648
12403259 226 18046343033147358319
12553582 1 18051693244054555527
12592029 89 18337113461832598225
12596602 18 17489041465154373131
12644460 14 18335706005244452594
12892183 10 18341059570958762721
13140716 1 18337945805299457314
13533116 47 18411706461655550667
13583140 156 16517342565689747117
13955234 65 18411136917993945859
14178342 30 18196362843493052018
14739800 52 17346303904317160289
14790565 3 18120107318546082453
14863182 85 18188502361914921741
15475509 84 17912093741881593841
16945 1 18195517108703467942
18785283 64 18334856117506030674
19591789 44 18120382217784638935
20028762 73 17766285653865270431
20510252 161 17765710609214416592
20645477 70 18261944160068057271
20739085 24 18336278846618612069
221490 88 18190462658103584175
22182313 1 18115292389623748917
22224240 67 18197772404700023665
2334 1 18410287034144231470
23419403 2 17680961043188043366
23557571 272 17118318798372349094
23559900 14 17896036547035802655
2748010 2 18262505979770281837
283562 15 17764574817566037142
3091708 16 9762959009269770634
31174 14 18339078177183691350
33824 294 18409731776799035775
3421961 26 18336266734910758811
350125 39 18338801113460510916
427121 178 18201435943178850592
458136 41 18408612478141025708
5104073 3 18339369565883873273
58807428 26 18266443477423239976
59554788 62 18115572859799262111
633830 44 17988081213414416028
6442390 28 18195532708035353210
7364860 26 18341323397640261614
81228 2 17546722016529500886

> <PUBCHEM_SHAPE_MULTIPOLES>
411.66
8.18
4.09
1.04
11.81
2.62
0.28
-2.15
2.93
-5.76
0.97
-0.12
-0.3
0.09

> <PUBCHEM_SHAPE_SELFOVERLAP>
879.805

> <PUBCHEM_SHAPE_VOLUME>
230.2

> <PUBCHEM_COORDINATE_TYPE>
2
5
10

$$$$
