REMARK  Name = 139589658
REMARK  5 active torsions:
REMARK  status: ('A' for Active; 'I' for Inactive)
REMARK    1  A    between atoms: C_9  and  O_23
REMARK    2  A    between atoms: C_12  and  O_25
REMARK    3  A    between atoms: C_16  and  C_29
REMARK    4  A    between atoms: C_19  and  O_27
REMARK    5  A    between atoms: C_29  and  O_30
REMARK                            x       y       z     vdW  Elec       q    Type
REMARK                         _______ _______ _______ _____ _____    ______ ____
ROOT
ATOM      1  O   UNL     1      -0.272  -0.222  -1.260  0.00  0.00    -0.450 OA
ATOM      2  O   UNL     1       3.346  -2.082   0.297  0.00  0.00    -0.417 OA
ATOM      3  O   UNL     1      -0.160   2.618  -0.789  0.00  0.00    -0.418 OA
ATOM      4  O   UNL     1       4.940  -0.772   1.343  0.00  0.00    -0.245 OA
ATOM      5  O   UNL     1      -2.256   3.259  -1.443  0.00  0.00    -0.244 OA
ATOM      6  C   UNL     1       1.839  -0.438  -0.201  0.00  0.00    +0.094 A 
ATOM      7  C   UNL     1       0.773   0.352  -0.596  0.00  0.00    +0.182 A 
ATOM      8  C   UNL     1       2.914   0.130   0.457  0.00  0.00    +0.114 A 
ATOM      9  C   UNL     1       2.058  -1.894  -0.341  0.00  0.00    +0.319 C 
ATOM     10  C   UNL     1       0.836   1.718  -0.334  0.00  0.00    +0.182 A 
ATOM     11  C   UNL     1       1.939   2.292   0.320  0.00  0.00    +0.050 A 
ATOM     12  C   UNL     1       2.997   1.483   0.734  0.00  0.00    +0.139 A 
ATOM     13  C   UNL     1      -1.470  -0.087  -0.606  0.00  0.00    +0.153 C 
ATOM     14  C   UNL     1      -2.087   1.150  -0.420  0.00  0.00    +0.106 C 
ATOM     15  C   UNL     1       3.878  -0.913   0.772  0.00  0.00    +0.346 C 
ATOM     16  C   UNL     1      -2.090  -1.260  -0.165  0.00  0.00    +0.076 C 
ATOM     17  C   UNL     1      -3.329   1.209   0.225  0.00  0.00    -0.010 C 
ATOM     18  C   UNL     1      -1.528   2.407  -0.948  0.00  0.00    +0.348 C 
ATOM     19  C   UNL     1      -3.320  -1.194   0.487  0.00  0.00    +0.140 C 
ATOM     20  C   UNL     1       1.984   3.765   0.573  0.00  0.00    +0.038 C 
ATOM     21  C   UNL     1      -3.937   0.040   0.684  0.00  0.00    +0.033 C 
ATOM     22  C   UNL     1      -4.044   2.497   0.488  0.00  0.00    +0.031 C 
ENDROOT
BRANCH   9  23
ATOM     23  O   UNL     1       2.095  -2.260  -1.709  0.00  0.00    -0.314 OA
ATOM     24  C   UNL     1       2.305  -3.658  -1.876  0.00  0.00    +0.178 C 
ENDBRANCH   9  23
BRANCH  12  25
ATOM     25  O   UNL     1       4.073   2.008   1.374  0.00  0.00    -0.506 OA
ATOM     26  H   UNL     1       4.775   1.450   1.646  0.00  0.00    +0.292 HD
ENDBRANCH  12  25
BRANCH  19  27
ATOM     27  O   UNL     1      -3.938  -2.325   0.930  0.00  0.00    -0.472 OA
ATOM     28  C   UNL     1      -5.194  -2.161   1.586  0.00  0.00    +0.252 C 
ENDBRANCH  19  27
BRANCH  16  29
ATOM     29  C   UNL     1      -1.455  -2.594  -0.401  0.00  0.00    +0.170 C 
BRANCH  29  30
ATOM     30  O   UNL     1      -0.898  -3.069   0.817  0.00  0.00    -0.377 OA
ATOM     31  H   UNL     1      -0.486  -3.934   0.668  0.00  0.00    +0.211 HD
ENDBRANCH  29  30
ENDBRANCH  16  29
TORSDOF 5
