REMARK  Name = 139589042
REMARK  8 active torsions:
REMARK  status: ('A' for Active; 'I' for Inactive)
REMARK    1  A    between atoms: C_4  and  C_13
REMARK    2  A    between atoms: C_6  and  C_10
REMARK    3  A    between atoms: C_7  and  S_17
REMARK    4  A    between atoms: C_10  and  O_11
REMARK    5  A    between atoms: C_13  and  O_15
REMARK    6  A    between atoms: S_17  and  C_18
REMARK    7  A    between atoms: C_18  and  C_19
REMARK    8  A    between atoms: C_19  and  N_21
REMARK                            x       y       z     vdW  Elec       q    Type
REMARK                         _______ _______ _______ _____ _____    ______ ____
ROOT
ATOM      1  O   UNL     1       3.785   0.002  -1.489  0.00  0.00    -0.275 OA
ATOM      2  N   UNL     1       2.289  -0.596   0.229  0.00  0.00    -0.272 N 
ATOM      3  C   UNL     1       1.807   0.479   1.123  0.00  0.00    +0.088 C 
ATOM      4  C   UNL     1       2.927   1.368   0.497  0.00  0.00    +0.122 C 
ATOM      5  C   UNL     1       0.315   0.506   0.775  0.00  0.00    +0.033 C 
ATOM      6  C   UNL     1       1.250  -1.443  -0.330  0.00  0.00    +0.184 C 
ATOM      7  C   UNL     1       0.010  -0.973   0.439  0.00  0.00    +0.078 C 
ATOM      8  C   UNL     1       3.166   0.181  -0.465  0.00  0.00    +0.230 C 
ENDROOT
BRANCH   6  10
ATOM      9  O   UNL     1       2.283  -3.199   0.960  0.00  0.00    -0.248 OA
ATOM     10  C   UNL     1       1.655  -2.847  -0.028  0.00  0.00    +0.333 C 
BRANCH  10  11
ATOM     11  O   UNL     1       1.234  -3.687  -1.004  0.00  0.00    -0.479 OA
ATOM     12  H   UNL     1       0.757  -3.352  -1.737  0.00  0.00    +0.295 HD
ENDBRANCH  10  11
ENDBRANCH   6  10
BRANCH   4  13
ATOM     13  C   UNL     1       2.531   2.678  -0.154  0.00  0.00    +0.121 C 
ATOM     14  C   UNL     1       3.756   3.418  -0.677  0.00  0.00    +0.032 C 
BRANCH  13  15
ATOM     15  O   UNL     1       1.867   3.507   0.795  0.00  0.00    -0.384 OA
ATOM     16  H   UNL     1       1.084   3.046   1.135  0.00  0.00    +0.210 HD
ENDBRANCH  13  15
ENDBRANCH   4  13
BRANCH   7  17
ATOM     17  S   UNL     1      -1.515  -1.155  -0.523  0.00  0.00    -0.137 S 
BRANCH  17  18
ATOM     18  C   UNL     1      -2.702  -1.023   0.833  0.00  0.00    +0.079 C 
BRANCH  18  19
ATOM     19  C   UNL     1      -4.138  -1.208   0.362  0.00  0.00    +0.101 C 
BRANCH  19  21
ATOM     20  O   UNL     1      -5.381   1.357   0.912  0.00  0.00    -0.275 OA
ATOM     21  N   UNL     1      -4.550  -0.214  -0.592  0.00  0.00    -0.303 N 
ATOM     22  C   UNL     1      -5.139   0.991  -0.235  0.00  0.00    +0.223 C 
ATOM     23  C   UNL     1      -5.448   1.857  -1.427  0.00  0.00    +0.095 C 
ATOM     24  H   UNL     1      -4.405  -0.397  -1.549  0.00  0.00    +0.149 HD
ENDBRANCH  19  21
ENDBRANCH  18  19
ENDBRANCH  17  18
ENDBRANCH   7  17
TORSDOF 8
