REMARK  Name = 139589595
REMARK  7 active torsions:
REMARK  status: ('A' for Active; 'I' for Inactive)
REMARK    1  A    between atoms: C_8  and  O_32
REMARK    2  A    between atoms: C_12  and  C_20
REMARK    3  A    between atoms: C_13  and  O_34
REMARK    4  A    between atoms: C_16  and  O_36
REMARK    5  A    between atoms: C_21  and  O_26
REMARK    6  A    between atoms: C_23  and  O_28
REMARK    7  A    between atoms: C_25  and  O_30
REMARK                            x       y       z     vdW  Elec       q    Type
REMARK                         _______ _______ _______ _____ _____    ______ ____
ROOT
ATOM      1  S   UNL     1       0.159  -0.327  -1.746  0.00  0.00    -0.107 S 
ATOM      2  O   UNL     1       1.712   1.081   1.045  0.00  0.00    -0.259 OA
ATOM      3  O   UNL     1       2.312  -3.042  -1.027  0.00  0.00    -0.272 OA
ATOM      4  O   UNL     1      -0.342  -0.035   2.366  0.00  0.00    -0.271 OA
ATOM      5  N   UNL     1       1.294  -0.223   0.707  0.00  0.00    -0.152 N 
ATOM      6  N   UNL     1       0.437  -2.676   0.312  0.00  0.00    -0.268 N 
ATOM      7  C   UNL     1       1.574  -0.739  -0.640  0.00  0.00    +0.196 C 
ATOM      8  C   UNL     1       3.342   1.115  -0.778  0.00  0.00    +0.149 C 
ATOM      9  C   UNL     1       2.940  -0.309  -1.192  0.00  0.00    +0.072 C 
ATOM     10  C   UNL     1       3.084   1.321   0.722  0.00  0.00    +0.200 C 
ATOM     11  C   UNL     1      -0.594  -1.676   0.605  0.00  0.00    +0.168 C 
ATOM     12  C   UNL     1      -1.170  -1.123  -0.724  0.00  0.00    +0.102 C 
ATOM     13  C   UNL     1       4.818   1.458  -1.100  0.00  0.00    +0.159 C 
ATOM     14  C   UNL     1       1.535  -2.275  -0.463  0.00  0.00    +0.254 C 
ATOM     15  C   UNL     1       0.138  -0.593   1.384  0.00  0.00    +0.268 C 
ATOM     16  C   UNL     1       4.026   0.502   1.625  0.00  0.00    +0.164 C 
ATOM     17  C   UNL     1       5.798   0.922  -0.094  0.00  0.00    +0.003 C 
ATOM     18  C   UNL     1       5.441   0.487   1.123  0.00  0.00    +0.003 C 
ATOM     19  C   UNL     1       0.162  -4.072   0.597  0.00  0.00    +0.115 C 
ENDROOT
BRANCH  12  20
ATOM     20  C   UNL     1      -2.381  -0.231  -0.530  0.00  0.00    +0.027 C 
ATOM     21  C   UNL     1      -3.665  -0.774  -0.472  0.00  0.00    +0.168 C 
ATOM     22  C   UNL     1      -2.201   1.147  -0.408  0.00  0.00    +0.003 C 
ATOM     23  C   UNL     1      -4.768   0.060  -0.293  0.00  0.00    +0.205 C 
ATOM     24  C   UNL     1      -3.304   1.981  -0.229  0.00  0.00    +0.040 C 
ATOM     25  C   UNL     1      -4.588   1.438  -0.172  0.00  0.00    +0.175 C 
BRANCH  21  26
ATOM     26  O   UNL     1      -3.845  -2.121  -0.590  0.00  0.00    -0.503 OA
ATOM     27  H   UNL     1      -3.105  -2.684  -0.711  0.00  0.00    +0.292 HD
ENDBRANCH  21  26
BRANCH  23  28
ATOM     28  O   UNL     1      -6.023  -0.469  -0.237  0.00  0.00    -0.465 OA
ATOM     29  C   UNL     1      -6.510  -0.845   1.049  0.00  0.00    +0.253 C 
ENDBRANCH  23  28
BRANCH  25  30
ATOM     30  O   UNL     1      -5.656   2.265   0.004  0.00  0.00    -0.468 OA
ATOM     31  C   UNL     1      -5.384   3.660   0.119  0.00  0.00    +0.253 C 
ENDBRANCH  25  30
ENDBRANCH  12  20
BRANCH   8  32
ATOM     32  O   UNL     1       2.518   2.045  -1.493  0.00  0.00    -0.381 OA
ATOM     33  H   UNL     1       1.584   1.855  -1.310  0.00  0.00    +0.210 HD
ENDBRANCH   8  32
BRANCH  13  34
ATOM     34  O   UNL     1       5.148   0.962  -2.398  0.00  0.00    -0.378 OA
ATOM     35  H   UNL     1       4.515   1.308  -3.047  0.00  0.00    +0.211 HD
ENDBRANCH  13  34
BRANCH  16  36
ATOM     36  O   UNL     1       3.994   1.085   2.929  0.00  0.00    -0.377 OA
ATOM     37  H   UNL     1       3.080   1.097   3.255  0.00  0.00    +0.211 HD
ENDBRANCH  16  36
TORSDOF 7
