139586007
  -OEChem-03292013293D

 44 45  0     1  0  0  0  0  0999 V2000
    1.2158    0.8109    0.3444 O   0  0  0  0  0  0  0  0  0  0  0  0
    0.1700   -1.2989   -1.7344 O   0  0  0  0  0  0  0  0  0  0  0  0
    4.0466   -2.3166    0.6139 O   0  0  0  0  0  0  0  0  0  0  0  0
    1.9322    0.8274   -1.8515 O   0  0  0  0  0  0  0  0  0  0  0  0
   -1.2070    1.6807    0.0390 O   0  0  0  0  0  0  0  0  0  0  0  0
   -3.8886    2.0953    0.5546 O   0  0  0  0  0  0  0  0  0  0  0  0
    1.9647   -1.4732    0.2528 N   0  0  0  0  0  0  0  0  0  0  0  0
    3.7785    2.7749   -1.1221 N   0  0  0  0  0  0  0  0  0  0  0  0
    0.8265   -0.5641    0.4351 C   0  0  2  0  0  0  0  0  0  0  0  0
    4.2491    0.9228    0.4335 C   0  0  0  0  0  0  0  0  0  0  0  0
    3.2033    1.9249   -0.0835 C   0  0  2  0  0  0  0  0  0  0  0  0
    3.6989   -0.1029    1.4379 C   0  0  0  0  0  0  0  0  0  0  0  0
   -0.1842   -0.8686   -0.6392 C   0  0  0  0  0  0  0  0  0  0  0  0
    0.1705   -0.7849    1.7958 C   0  0  0  0  0  0  0  0  0  0  0  0
    3.2455   -1.3865    0.7550 C   0  0  0  0  0  0  0  0  0  0  0  0
    2.0407    1.1725   -0.6840 C   0  0  0  0  0  0  0  0  0  0  0  0
   -1.6302   -0.6424   -0.3587 C   0  0  0  0  0  0  0  0  0  0  0  0
   -2.5320   -1.7045   -0.4257 C   0  0  0  0  0  0  0  0  0  0  0  0
   -2.0814    0.6358   -0.0295 C   0  0  0  0  0  0  0  0  0  0  0  0
   -3.8849   -1.4885   -0.1636 C   0  0  0  0  0  0  0  0  0  0  0  0
   -3.4342    0.8519    0.2328 C   0  0  0  0  0  0  0  0  0  0  0  0
   -2.0781   -3.0842   -0.7760 C   0  0  0  0  0  0  0  0  0  0  0  0
   -4.3359   -0.2103    0.1659 C   0  0  0  0  0  0  0  0  0  0  0  0
   -5.2859    2.2288    0.8076 C   0  0  0  0  0  0  0  0  0  0  0  0
    5.0491    1.4904    0.9268 H   0  0  0  0  0  0  0  0  0  0  0  0
    4.7136    0.3941   -0.4098 H   0  0  0  0  0  0  0  0  0  0  0  0
    2.8426    2.5649    0.7301 H   0  0  0  0  0  0  0  0  0  0  0  0
    2.9207    0.3182    2.0785 H   0  0  0  0  0  0  0  0  0  0  0  0
    4.5123   -0.3937    2.1160 H   0  0  0  0  0  0  0  0  0  0  0  0
    1.7514   -2.3526   -0.2095 H   0  0  0  0  0  0  0  0  0  0  0  0
   -0.5514   -0.0085    2.0648 H   0  0  0  0  0  0  0  0  0  0  0  0
   -0.3095   -1.7674    1.8715 H   0  0  0  0  0  0  0  0  0  0  0  0
    0.9249   -0.7490    2.5911 H   0  0  0  0  0  0  0  0  0  0  0  0
    4.5789    3.2812   -0.7454 H   0  0  0  0  0  0  0  0  0  0  0  0
    3.0998    3.4830   -1.4002 H   0  0  0  0  0  0  0  0  0  0  0  0
   -4.6002   -2.3054   -0.2132 H   0  0  0  0  0  0  0  0  0  0  0  0
   -1.8188   -3.1432   -1.8379 H   0  0  0  0  0  0  0  0  0  0  0  0
   -1.2138   -3.3796   -0.1719 H   0  0  0  0  0  0  0  0  0  0  0  0
   -2.8615   -3.8264   -0.5857 H   0  0  0  0  0  0  0  0  0  0  0  0
   -5.3995   -0.1173    0.3562 H   0  0  0  0  0  0  0  0  0  0  0  0
   -1.7025    2.4815    0.2837 H   0  0  0  0  0  0  0  0  0  0  0  0
   -5.4705    3.2810    1.0480 H   0  0  0  0  0  0  0  0  0  0  0  0
   -5.5958    1.6446    1.6808 H   0  0  0  0  0  0  0  0  0  0  0  0
   -5.8813    1.9974   -0.0822 H   0  0  0  0  0  0  0  0  0  0  0  0
  1  9  1  0  0  0  0
  1 16  1  0  0  0  0
  2 13  2  0  0  0  0
  3 15  2  0  0  0  0
  4 16  2  0  0  0  0
  5 19  1  0  0  0  0
  5 41  1  0  0  0  0
  6 21  1  0  0  0  0
  6 24  1  0  0  0  0
  7  9  1  0  0  0  0
  7 15  1  0  0  0  0
  7 30  1  0  0  0  0
  8 11  1  0  0  0  0
  8 34  1  0  0  0  0
  8 35  1  0  0  0  0
  9 13  1  0  0  0  0
  9 14  1  0  0  0  0
 10 11  1  0  0  0  0
 10 12  1  0  0  0  0
 10 25  1  0  0  0  0
 10 26  1  0  0  0  0
 11 16  1  0  0  0  0
 11 27  1  0  0  0  0
 12 15  1  0  0  0  0
 12 28  1  0  0  0  0
 12 29  1  0  0  0  0
 13 17  1  0  0  0  0
 14 31  1  0  0  0  0
 14 32  1  0  0  0  0
 14 33  1  0  0  0  0
 17 18  2  0  0  0  0
 17 19  1  0  0  0  0
 18 20  1  0  0  0  0
 18 22  1  0  0  0  0
 19 21  2  0  0  0  0
 20 23  2  0  0  0  0
 20 36  1  0  0  0  0
 21 23  1  0  0  0  0
 22 37  1  0  0  0  0
 22 38  1  0  0  0  0
 22 39  1  0  0  0  0
 23 40  1  0  0  0  0
 24 42  1  0  0  0  0
 24 43  1  0  0  0  0
 24 44  1  0  0  0  0
M  END
> <PUBCHEM_COMPOUND_CID>
139586007

> <PUBCHEM_CONFORMER_RMSD>
0.8

> <PUBCHEM_CONFORMER_DIVERSEORDER>
2
82
37
64
56
50
39
62
48
67
25
21
20
59
44
29
78
11
60
15
79
54
69
57
26
70
77
7
38
45
74
81
3
14
30
80
71
24
23
34
52
58
31
16
75
83
65
76
1
17
68
61
19
4
9
35
55
41
42
72
5
51
47
63
49
66
18
6
13
33
8
40
73
43
28
46
32
36
53
22
10
12
27

> <PUBCHEM_MMFF94_PARTIAL_CHARGES>
28
1 -0.43
11 0.33
12 0.06
13 0.42
15 0.57
16 0.66
17 0.09
18 -0.14
19 0.08
2 -0.57
20 -0.15
21 0.08
22 0.14
23 -0.15
24 0.28
3 -0.57
30 0.37
34 0.36
35 0.36
36 0.15
4 -0.57
40 0.15
41 0.45
5 -0.53
6 -0.36
7 -0.73
8 -0.99
9 0.64

> <PUBCHEM_EFFECTIVE_ROTOR_COUNT>
4.2

> <PUBCHEM_PHARMACOPHORE_FEATURES>
9
1 2 acceptor
1 3 acceptor
1 4 acceptor
1 5 donor
1 6 acceptor
1 7 donor
1 8 cation
1 8 donor
6 17 18 19 20 21 23 rings

> <PUBCHEM_HEAVY_ATOM_COUNT>
24

> <PUBCHEM_ATOM_DEF_STEREO_COUNT>
1

> <PUBCHEM_ATOM_UDEF_STEREO_COUNT>
1

> <PUBCHEM_BOND_DEF_STEREO_COUNT>
0

> <PUBCHEM_BOND_UDEF_STEREO_COUNT>
0

> <PUBCHEM_ISOTOPIC_ATOM_COUNT>
0

> <PUBCHEM_COMPONENT_COUNT>
1

> <PUBCHEM_CACTVS_TAUTO_COUNT>
-1

> <PUBCHEM_CONFORMER_ID>
0851E9D700000002

> <PUBCHEM_MMFF94_ENERGY>
94.6058

> <PUBCHEM_FEATURE_SELFOVERLAP>
45.677

> <PUBCHEM_SHAPE_FINGERPRINT>
10062212 137 18335973268000144994
10616163 171 18268428104063927726
10759866 29 18338803411188658972
10863032 1 18411697724689763371
12107183 9 18194396689043162922
12173636 292 18271799164086542215
12236239 1 18261106430332608364
12403814 3 18187078464904318085
12467345 10 18410852153362163746
12553582 1 17693930104876533055
12633257 1 18337951173607267193
12670546 56 18341321288326009486
12788726 201 18051693544575626367
13140716 1 18336552625224528595
13224815 77 18187364371638152179
13583140 156 17703212040261365306
13965767 371 18044945567386639013
14289901 80 18337949107654560938
14739800 52 18056182803797878096
14787075 74 17680709529935039163
14957384 54 17970900073547583693
15196674 1 18411979144211687993
15209289 33 17676769773266147603
15238133 3 17631456666055919761
15442244 35 18409724024377960746
15536298 74 18409727365862367538
15848702 151 18261383430296619218
16945 1 18191854648572519078
17492 89 18336263521938352010
17818456 19 18270961228561759848
1813 80 17530960229798866038
18186145 218 17458339736693068114
18222031 100 12974187206607571897
19422 9 18408600383502564043
20691752 17 17458061569025518702
20715895 44 18051128091300090097
21065198 48 18408882957869472691
21267235 1 18409452513393275274
21501502 16 18410570721029320079
21503847 285 18187366480525285992
23557571 272 17989208182851809528
23558518 356 18408603690775679099
23559900 14 17988373554942878158
23566358 27 18334575767885052926
23598288 3 18271802484043787559
335352 9 18268427927969840103
3633792 109 18042665296498350143
38570 142 17897474832931283340
4340502 62 17240485845120383155
4409770 3 16960961113947506230
474 4 17895191168496323720
5104073 3 18409162203774001387
633830 44 18113336414108732682
7064713 232 18342731884551306993
7097593 13 18336253549166312634
9981440 41 17685210973457386640
9999458 23 18042128665265475355

> <PUBCHEM_SHAPE_MULTIPOLES>
448.73
9.29
2.85
1.27
2.24
0.06
-0.07
-3.74
1.81
0.66
-0.37
-0.75
0.06
-1.97

> <PUBCHEM_SHAPE_SELFOVERLAP>
955.92

> <PUBCHEM_SHAPE_VOLUME>
245.6

> <PUBCHEM_COORDINATE_TYPE>
2
5
10

$$$$
