REMARK  Name = 139583797
REMARK  12 active torsions:
REMARK  status: ('A' for Active; 'I' for Inactive)
REMARK    1  A    between atoms: C_1  and  C_3
REMARK    2  A    between atoms: C_1  and  O_15
REMARK    3  A    between atoms: C_1  and  C_17
REMARK    4  A    between atoms: C_3  and  O_9
REMARK    5  A    between atoms: C_6  and  O_11
REMARK    6  A    between atoms: C_7  and  O_13
REMARK    7  A    between atoms: C_17  and  C_18
REMARK    8  A    between atoms: C_18  and  O_19
REMARK    9  A    between atoms: C_18  and  C_21
REMARK   10  A    between atoms: C_21  and  O_22
REMARK   11  A    between atoms: C_21  and  C_24
REMARK   12  A    between atoms: C_24  and  O_26
REMARK                            x       y       z     vdW  Elec       q    Type
REMARK                         _______ _______ _______ _____ _____    ______ ____
ROOT
ATOM      1  C   UNL     1      -0.137  -0.542   0.468  0.00  0.00    +0.140 C 
ENDROOT
BRANCH   1   3
ATOM      2  O   UNL     1      -2.656   0.808  -0.677  0.00  0.00    -0.329 OA
ATOM      3  C   UNL     1      -1.121  -1.097  -0.571  0.00  0.00    +0.140 C 
ATOM      4  C   UNL     1      -2.246  -1.919   0.096  0.00  0.00    +0.066 C 
ATOM      5  C   UNL     1      -1.752   0.007  -1.448  0.00  0.00    +0.145 C 
ATOM      6  C   UNL     1      -3.321  -1.048   0.747  0.00  0.00    +0.169 C 
ATOM      7  C   UNL     1      -3.776   0.055  -0.210  0.00  0.00    +0.263 C 
ATOM      8  C   UNL     1      -0.734   0.949  -2.087  0.00  0.00    +0.035 C 
BRANCH   3   9
ATOM      9  O   UNL     1      -0.384  -1.978  -1.426  0.00  0.00    -0.382 OA
ATOM     10  H   UNL     1       0.021  -2.681  -0.894  0.00  0.00    +0.210 HD
ENDBRANCH   3   9
BRANCH   6  11
ATOM     11  O   UNL     1      -2.810  -0.453   1.938  0.00  0.00    -0.379 OA
ATOM     12  H   UNL     1      -2.520  -1.149   2.548  0.00  0.00    +0.211 HD
ENDBRANCH   6  11
BRANCH   7  13
ATOM     13  O   UNL     1      -4.704   0.897   0.467  0.00  0.00    -0.326 OA
ATOM     14  C   UNL     1      -5.497   1.637  -0.450  0.00  0.00    +0.177 C 
ENDBRANCH   7  13
ENDBRANCH   1   3
BRANCH   1  15
ATOM     15  O   UNL     1      -0.135  -1.408   1.599  0.00  0.00    -0.382 OA
ATOM     16  H   UNL     1      -1.031  -1.464   1.964  0.00  0.00    +0.210 HD
ENDBRANCH   1  15
BRANCH   1  17
ATOM     17  C   UNL     1       1.281  -0.449  -0.117  0.00  0.00    +0.064 C 
BRANCH  17  18
ATOM     18  C   UNL     1       2.237   0.505   0.623  0.00  0.00    +0.147 C 
BRANCH  18  19
ATOM     19  O   UNL     1       1.649   1.808   0.698  0.00  0.00    -0.351 OA
ATOM     20  C   UNL     1       2.198   2.555   1.770  0.00  0.00    +0.174 C 
ENDBRANCH  18  19
BRANCH  18  21
ATOM     21  C   UNL     1       3.629   0.671  -0.007  0.00  0.00    +0.164 C 
BRANCH  21  22
ATOM     22  O   UNL     1       3.446   1.323  -1.273  0.00  0.00    -0.380 OA
ATOM     23  H   UNL     1       2.957   2.150  -1.143  0.00  0.00    +0.211 HD
ENDBRANCH  21  22
BRANCH  21  24
ATOM     24  C   UNL     1       4.405  -0.638  -0.228  0.00  0.00    +0.140 C 
ATOM     25  C   UNL     1       5.732  -0.460  -0.956  0.00  0.00    +0.034 C 
BRANCH  24  26
ATOM     26  O   UNL     1       4.694  -1.223   1.045  0.00  0.00    -0.382 OA
ATOM     27  H   UNL     1       3.868  -1.350   1.537  0.00  0.00    +0.210 HD
ENDBRANCH  24  26
ENDBRANCH  21  24
ENDBRANCH  18  21
ENDBRANCH  17  18
ENDBRANCH   1  17
TORSDOF 12
