139589008
  -OEChem-03292013293D

 62 63  0     1  0  0  0  0  0999 V2000
   -2.5837    0.1776   -1.4823 O   0  0  0  0  0  0  0  0  0  0  0  0
   -3.6966    1.4714    0.1219 O   0  0  0  0  0  0  0  0  0  0  0  0
   -3.6695   -1.8974    1.0202 O   0  0  0  0  0  0  0  0  0  0  0  0
    1.8213   -1.2790   -0.4277 O   0  0  0  0  0  0  0  0  0  0  0  0
   -1.7048   -3.6397    0.8634 O   0  0  0  0  0  0  0  0  0  0  0  0
    4.2633    1.3515    0.3662 O   0  0  0  0  0  0  0  0  0  0  0  0
    1.0572   -2.3479    1.4706 O   0  0  0  0  0  0  0  0  0  0  0  0
   -2.4468    0.8865   -0.2385 C   0  0  1  0  0  0  0  0  0  0  0  0
   -2.5736   -1.4785    0.2186 C   0  0  2  0  0  0  0  0  0  0  0  0
   -2.0238   -0.1717    0.7801 C   0  0  0  0  0  0  0  0  0  0  0  0
   -1.4123    2.0058   -0.4545 C   0  0  0  0  0  0  0  0  0  0  0  0
   -3.0735   -1.1346   -1.1796 C   0  0  0  0  0  0  0  0  0  0  0  0
   -0.8818    2.7155    0.8183 C   0  0  1  0  0  0  0  0  0  0  0  0
   -1.5264   -2.6056    0.2143 C   0  0  0  0  0  0  0  0  0  0  0  0
    0.3569    3.5975    0.4965 C   0  0  0  0  0  0  0  0  0  0  0  0
   -0.2365   -2.3999   -0.5853 C   0  0  1  0  0  0  0  0  0  0  0  0
   -1.9626    3.5933    1.4625 C   0  0  0  0  0  0  0  0  0  0  0  0
    1.6734    2.9408    0.0787 C   0  0  0  0  0  0  0  0  0  0  0  0
    3.1114    0.7878   -0.2629 C   0  0  1  0  0  0  0  0  0  0  0  0
    2.9411   -0.6720    0.2632 C   0  0  2  0  0  0  0  0  0  0  0  0
    1.8954    1.6111    0.1468 C   0  0  0  0  0  0  0  0  0  0  0  0
    0.9416   -2.0303    0.2949 C   0  0  0  0  0  0  0  0  0  0  0  0
   -4.3895    1.9576   -1.0182 C   0  0  0  0  0  0  0  0  0  0  0  0
    0.0982   -3.6566   -1.3804 C   0  0  0  0  0  0  0  0  0  0  0  0
    4.1553   -1.5754    0.0501 C   0  0  0  0  0  0  0  0  0  0  0  0
    2.6876    3.9448   -0.4077 C   0  0  0  0  0  0  0  0  0  0  0  0
    3.2854    0.8252   -1.7902 C   0  0  0  0  0  0  0  0  0  0  0  0
    3.8935   -2.9777    0.5610 C   0  0  0  0  0  0  0  0  0  0  0  0
   -2.4122    0.0603    1.7782 H   0  0  0  0  0  0  0  0  0  0  0  0
   -0.9351   -0.2108    0.8508 H   0  0  0  0  0  0  0  0  0  0  0  0
   -1.7914    2.7704   -1.1417 H   0  0  0  0  0  0  0  0  0  0  0  0
   -0.5717    1.5589   -0.9990 H   0  0  0  0  0  0  0  0  0  0  0  0
   -2.7170   -1.8197   -1.9546 H   0  0  0  0  0  0  0  0  0  0  0  0
   -4.1678   -1.1182   -1.2322 H   0  0  0  0  0  0  0  0  0  0  0  0
   -0.5865    1.9756    1.5704 H   0  0  0  0  0  0  0  0  0  0  0  0
    0.5844    4.2074    1.3817 H   0  0  0  0  0  0  0  0  0  0  0  0
    0.0654    4.3018   -0.2951 H   0  0  0  0  0  0  0  0  0  0  0  0
   -0.4057   -1.5775   -1.2891 H   0  0  0  0  0  0  0  0  0  0  0  0
   -2.3771    4.3072    0.7431 H   0  0  0  0  0  0  0  0  0  0  0  0
   -1.5532    4.1621    2.3044 H   0  0  0  0  0  0  0  0  0  0  0  0
   -2.7817    2.9884    1.8610 H   0  0  0  0  0  0  0  0  0  0  0  0
   -3.3499   -2.0112    1.9317 H   0  0  0  0  0  0  0  0  0  0  0  0
    2.7428   -0.6244    1.3437 H   0  0  0  0  0  0  0  0  0  0  0  0
    1.0850    1.0043    0.5394 H   0  0  0  0  0  0  0  0  0  0  0  0
   -5.2271    2.5618   -0.6553 H   0  0  0  0  0  0  0  0  0  0  0  0
   -4.8221    1.1384   -1.5999 H   0  0  0  0  0  0  0  0  0  0  0  0
   -3.7821    2.6000   -1.6596 H   0  0  0  0  0  0  0  0  0  0  0  0
   -0.7481   -3.9623   -2.0047 H   0  0  0  0  0  0  0  0  0  0  0  0
    0.3465   -4.4945   -0.7190 H   0  0  0  0  0  0  0  0  0  0  0  0
    0.9615   -3.4878   -2.0331 H   0  0  0  0  0  0  0  0  0  0  0  0
    5.0302   -1.1601    0.5621 H   0  0  0  0  0  0  0  0  0  0  0  0
    4.4005   -1.6537   -1.0144 H   0  0  0  0  0  0  0  0  0  0  0  0
    2.3236    4.4352   -1.3167 H   0  0  0  0  0  0  0  0  0  0  0  0
    3.6636    3.5143   -0.6362 H   0  0  0  0  0  0  0  0  0  0  0  0
    2.8502    4.7129    0.3562 H   0  0  0  0  0  0  0  0  0  0  0  0
    4.1934    0.2954   -2.0962 H   0  0  0  0  0  0  0  0  0  0  0  0
    3.4125    1.8477   -2.1604 H   0  0  0  0  0  0  0  0  0  0  0  0
    2.4304    0.3857   -2.3145 H   0  0  0  0  0  0  0  0  0  0  0  0
    4.1313    1.3165    1.3293 H   0  0  0  0  0  0  0  0  0  0  0  0
    3.5900   -2.9748    1.6121 H   0  0  0  0  0  0  0  0  0  0  0  0
    4.8150   -3.5670    0.4936 H   0  0  0  0  0  0  0  0  0  0  0  0
    3.1435   -3.5054   -0.0345 H   0  0  0  0  0  0  0  0  0  0  0  0
  1  8  1  0  0  0  0
  1 12  1  0  0  0  0
  2  8  1  0  0  0  0
  2 23  1  0  0  0  0
  3  9  1  0  0  0  0
  3 42  1  0  0  0  0
  4 20  1  0  0  0  0
  4 22  1  0  0  0  0
  5 14  2  0  0  0  0
  6 19  1  0  0  0  0
  6 59  1  0  0  0  0
  7 22  2  0  0  0  0
  8 10  1  0  0  0  0
  8 11  1  0  0  0  0
  9 10  1  0  0  0  0
  9 12  1  0  0  0  0
  9 14  1  0  0  0  0
 10 29  1  0  0  0  0
 10 30  1  0  0  0  0
 11 13  1  0  0  0  0
 11 31  1  0  0  0  0
 11 32  1  0  0  0  0
 12 33  1  0  0  0  0
 12 34  1  0  0  0  0
 13 15  1  0  0  0  0
 13 17  1  0  0  0  0
 13 35  1  0  0  0  0
 14 16  1  0  0  0  0
 15 18  1  0  0  0  0
 15 36  1  0  0  0  0
 15 37  1  0  0  0  0
 16 22  1  0  0  0  0
 16 24  1  0  0  0  0
 16 38  1  0  0  0  0
 17 39  1  0  0  0  0
 17 40  1  0  0  0  0
 17 41  1  0  0  0  0
 18 21  2  0  0  0  0
 18 26  1  0  0  0  0
 19 20  1  0  0  0  0
 19 21  1  0  0  0  0
 19 27  1  0  0  0  0
 20 25  1  0  0  0  0
 20 43  1  0  0  0  0
 21 44  1  0  0  0  0
 23 45  1  0  0  0  0
 23 46  1  0  0  0  0
 23 47  1  0  0  0  0
 24 48  1  0  0  0  0
 24 49  1  0  0  0  0
 24 50  1  0  0  0  0
 25 28  1  0  0  0  0
 25 51  1  0  0  0  0
 25 52  1  0  0  0  0
 26 53  1  0  0  0  0
 26 54  1  0  0  0  0
 26 55  1  0  0  0  0
 27 56  1  0  0  0  0
 27 57  1  0  0  0  0
 27 58  1  0  0  0  0
 28 60  1  0  0  0  0
 28 61  1  0  0  0  0
 28 62  1  0  0  0  0
M  END
> <PUBCHEM_COMPOUND_CID>
139589008

> <PUBCHEM_CONFORMER_RMSD>
0.8

> <PUBCHEM_CONFORMER_DIVERSEORDER>
1
8
6
2
4
5
3
7
9

> <PUBCHEM_MMFF94_PARTIAL_CHARGES>
23
1 -0.56
12 0.28
14 0.45
15 0.14
16 0.12
18 -0.28
19 0.42
2 -0.56
20 0.28
21 -0.29
22 0.66
23 0.28
26 0.14
3 -0.68
4 -0.43
42 0.4
44 0.15
5 -0.57
59 0.4
6 -0.68
7 -0.57
8 0.56
9 0.34

> <PUBCHEM_EFFECTIVE_ROTOR_COUNT>
4

> <PUBCHEM_PHARMACOPHORE_FEATURES>
11
1 1 acceptor
1 16 anion
1 2 acceptor
1 28 hydrophobe
1 3 acceptor
1 3 donor
1 5 acceptor
1 6 acceptor
1 6 donor
1 7 acceptor
5 1 8 9 10 12 rings

> <PUBCHEM_HEAVY_ATOM_COUNT>
28

> <PUBCHEM_ATOM_DEF_STEREO_COUNT>
6

> <PUBCHEM_ATOM_UDEF_STEREO_COUNT>
0

> <PUBCHEM_BOND_DEF_STEREO_COUNT>
1

> <PUBCHEM_BOND_UDEF_STEREO_COUNT>
0

> <PUBCHEM_ISOTOPIC_ATOM_COUNT>
0

> <PUBCHEM_COMPONENT_COUNT>
1

> <PUBCHEM_CACTVS_TAUTO_COUNT>
-1

> <PUBCHEM_CONFORMER_ID>
0851F59000000001

> <PUBCHEM_MMFF94_ENERGY>
80.5345

> <PUBCHEM_FEATURE_SELFOVERLAP>
55.875

> <PUBCHEM_SHAPE_FINGERPRINT>
10675989 125 18051396393222110165
1100329 8 18337388227780021153
11513181 2 18131067126292620374
12038231 1 17258499946506909944
12156800 1 13602361563402695552
12539773 59 17199093419300326809
12553582 1 18268441135179391476
12596599 1 17632305574467340389
12788726 201 18059863805081227041
13122387 1 16753249013178847220
13140716 1 18338519620987088746
14114207 22 16173321852905471145
14117953 113 17978784619199733372
14178342 30 18341328890814477352
14223421 5 18119248608432780678
14765038 42 17333681733942315584
14790565 3 18124600786788680705
14866123 147 17328296953745991514
14931854 50 18410289246110632580
192875 21 18269259193130629038
19591789 44 18338800130234324753
19930381 70 18050286174055274547
20764821 26 17834673073641103404
20775438 99 17120807439894559479
20905425 154 17835809968442613012
21796203 349 17690324475926529336
21857420 4 15901994346312197167
22113638 7 18339632331044155612
23559900 14 18411974780921145312
238 59 17551206894046379453
463206 1 18266457611770720761
474 4 18049156671040031519
484989 97 18334573547597944551
6438718 38 17627780929674188804

> <PUBCHEM_SHAPE_MULTIPOLES>
535.14
7.25
5.79
1.25
1.27
1.16
-0.2
0.22
-0.69
0.64
0.79
-0.3
-0.12
-0.56

> <PUBCHEM_SHAPE_SELFOVERLAP>
1091.118

> <PUBCHEM_SHAPE_VOLUME>
309.3

> <PUBCHEM_COORDINATE_TYPE>
2
5
10

$$$$
