REMARK  Name = 139590568
REMARK  7 active torsions:
REMARK  status: ('A' for Active; 'I' for Inactive)
REMARK    1  A    between atoms: C_1  and  C_4
REMARK    2  A    between atoms: C_1  and  C_15
REMARK    3  A    between atoms: C_8  and  O_11
REMARK    4  A    between atoms: C_9  and  O_13
REMARK    5  A    between atoms: C_16  and  O_24
REMARK    6  A    between atoms: C_17  and  O_26
REMARK    7  A    between atoms: C_18  and  C_22
REMARK                            x       y       z     vdW  Elec       q    Type
REMARK                         _______ _______ _______ _____ _____    ______ ____
ROOT
ATOM      1  C   UNL     1      -0.161  -0.591  -1.896  0.00  0.00    +0.062 C 
ENDROOT
BRANCH   1   4
ATOM      2  O   UNL     1       0.786  -2.107   0.227  0.00  0.00    -0.284 OA
ATOM      3  O   UNL     1       3.696   2.231  -0.778  0.00  0.00    -0.284 OA
ATOM      4  C   UNL     1       1.059  -0.166  -1.123  0.00  0.00    +0.024 C 
ATOM      5  C   UNL     1       1.785   0.941  -1.366  0.00  0.00    +0.020 C 
ATOM      6  C   UNL     1       1.447  -1.102  -0.025  0.00  0.00    +0.229 C 
ATOM      7  C   UNL     1       3.008   1.238  -0.559  0.00  0.00    +0.228 C 
ATOM      8  C   UNL     1       2.656  -0.792   0.769  0.00  0.00    +0.214 C 
ATOM      9  C   UNL     1       3.384   0.298   0.520  0.00  0.00    +0.210 C 
ATOM     10  C   UNL     1       1.468   1.975  -2.412  0.00  0.00    +0.034 C 
BRANCH   8  11
ATOM     11  O   UNL     1       3.009  -1.667   1.778  0.00  0.00    -0.465 OA
ATOM     12  C   UNL     1       2.399  -1.296   2.999  0.00  0.00    +0.253 C 
ENDBRANCH   8  11
BRANCH   9  13
ATOM     13  O   UNL     1       4.512   0.585   1.263  0.00  0.00    -0.501 OA
ATOM     14  H   UNL     1       5.013   1.354   1.076  0.00  0.00    +0.292 HD
ENDBRANCH   9  13
ENDBRANCH   1   4
BRANCH   1  15
ATOM     15  C   UNL     1      -1.391  -0.645  -1.038  0.00  0.00    +0.050 C 
ATOM     16  C   UNL     1      -1.827   0.498  -0.368  0.00  0.00    +0.136 C 
ATOM     17  C   UNL     1      -2.097  -1.841  -0.909  0.00  0.00    +0.133 C 
ATOM     18  C   UNL     1      -2.970   0.446   0.430  0.00  0.00    +0.068 C 
ATOM     19  C   UNL     1      -3.240  -1.894  -0.111  0.00  0.00    +0.037 C 
ATOM     20  C   UNL     1      -3.676  -0.751   0.559  0.00  0.00    +0.009 C 
BRANCH  18  22
ATOM     21  O   UNL     1      -2.656   2.509   1.529  0.00  0.00    -0.291 OA
ATOM     22  C   UNL     1      -3.444   1.626   1.139  0.00  0.00    +0.176 C 
ATOM     23  C   UNL     1      -4.931   1.805   1.422  0.00  0.00    +0.077 C 
ENDBRANCH  18  22
BRANCH  16  24
ATOM     24  O   UNL     1      -1.135   1.667  -0.495  0.00  0.00    -0.506 OA
ATOM     25  H   UNL     1      -0.367   1.702  -1.031  0.00  0.00    +0.292 HD
ENDBRANCH  16  24
BRANCH  17  26
ATOM     26  O   UNL     1      -1.685  -2.968  -1.555  0.00  0.00    -0.506 OA
ATOM     27  H   UNL     1      -0.920  -2.945  -2.094  0.00  0.00    +0.292 HD
ENDBRANCH  17  26
ENDBRANCH   1  15
TORSDOF 7
