139589590
  -OEChem-03292013293D

 39 42  0     1  0  0  0  0  0999 V2000
    2.9246   -1.4318    0.7383 O   0  0  0  0  0  0  0  0  0  0  0  0
    3.3515    1.3044   -0.4928 O   0  0  0  0  0  0  0  0  0  0  0  0
   -0.0002   -2.4292   -0.3151 O   0  0  0  0  0  0  0  0  0  0  0  0
   -0.3534    3.0621    0.1499 O   0  0  0  0  0  0  0  0  0  0  0  0
    2.1519    3.1124    0.1240 O   0  0  0  0  0  0  0  0  0  0  0  0
   -2.5157   -2.5120   -0.0402 O   0  0  0  0  0  0  0  0  0  0  0  0
   -4.9906   -1.4079    0.3371 O   0  0  0  0  0  0  0  0  0  0  0  0
   -2.8378    2.8018    0.4201 O   0  0  0  0  0  0  0  0  0  0  0  0
    3.3951   -0.0086   -1.0925 C   0  0  2  0  0  0  0  0  0  0  0  0
    2.3754   -0.9600   -0.5031 C   0  0  2  0  0  0  0  0  0  0  0  0
    4.6885   -0.6619   -0.6550 C   0  0  0  0  0  0  0  0  0  0  0  0
    4.3334   -1.1365    0.7504 C   0  0  2  0  0  0  0  0  0  0  0  0
    1.0555   -0.2996   -0.2878 C   0  0  0  0  0  0  0  0  0  0  0  0
    0.9711    1.0876   -0.1572 C   0  0  0  0  0  0  0  0  0  0  0  0
    5.1103   -2.3644    1.1852 C   0  0  0  0  0  0  0  0  0  0  0  0
   -0.1128   -1.0714   -0.2062 C   0  0  0  0  0  0  0  0  0  0  0  0
    2.1903    1.9251   -0.1731 C   0  0  0  0  0  0  0  0  0  0  0  0
   -0.2726    1.7033    0.0391 C   0  0  0  0  0  0  0  0  0  0  0  0
   -1.3564   -0.4596   -0.0119 C   0  0  0  0  0  0  0  0  0  0  0  0
   -1.4354    0.9269    0.1076 C   0  0  0  0  0  0  0  0  0  0  0  0
   -2.5737   -1.2923    0.0641 C   0  0  0  0  0  0  0  0  0  0  0  0
   -2.7392    1.5857    0.3124 C   0  0  0  0  0  0  0  0  0  0  0  0
   -3.8710   -0.6045    0.2705 C   0  0  0  0  0  0  0  0  0  0  0  0
   -3.9386    0.7260    0.3843 C   0  0  0  0  0  0  0  0  0  0  0  0
   -5.5502   -1.5958   -0.9479 C   0  0  0  0  0  0  0  0  0  0  0  0
    3.3183    0.1118   -2.1776 H   0  0  0  0  0  0  0  0  0  0  0  0
    2.2808   -1.8283   -1.1676 H   0  0  0  0  0  0  0  0  0  0  0  0
    4.9143   -1.5134   -1.3079 H   0  0  0  0  0  0  0  0  0  0  0  0
    5.5487    0.0142   -0.6457 H   0  0  0  0  0  0  0  0  0  0  0  0
    4.4868   -0.3286    1.4757 H   0  0  0  0  0  0  0  0  0  0  0  0
    4.9092   -3.2124    0.5214 H   0  0  0  0  0  0  0  0  0  0  0  0
    4.8015   -2.6741    2.1893 H   0  0  0  0  0  0  0  0  0  0  0  0
    6.1869   -2.1702    1.1932 H   0  0  0  0  0  0  0  0  0  0  0  0
   -0.8229   -2.8692   -0.0559 H   0  0  0  0  0  0  0  0  0  0  0  0
   -4.8911    1.2234    0.5362 H   0  0  0  0  0  0  0  0  0  0  0  0
   -1.2520    3.3721   -0.0377 H   0  0  0  0  0  0  0  0  0  0  0  0
   -5.8927   -0.6466   -1.3750 H   0  0  0  0  0  0  0  0  0  0  0  0
   -4.8406   -2.0789   -1.6287 H   0  0  0  0  0  0  0  0  0  0  0  0
   -6.4200   -2.2521   -0.8482 H   0  0  0  0  0  0  0  0  0  0  0  0
  1 10  1  0  0  0  0
  1 12  1  0  0  0  0
  2  9  1  0  0  0  0
  2 17  1  0  0  0  0
  3 16  1  0  0  0  0
  3 34  1  0  0  0  0
  4 18  1  0  0  0  0
  4 36  1  0  0  0  0
  5 17  2  0  0  0  0
  6 21  2  0  0  0  0
  7 23  1  0  0  0  0
  7 25  1  0  0  0  0
  8 22  2  0  0  0  0
  9 10  1  0  0  0  0
  9 11  1  0  0  0  0
  9 26  1  0  0  0  0
 10 13  1  0  0  0  0
 10 27  1  0  0  0  0
 11 12  1  0  0  0  0
 11 28  1  0  0  0  0
 11 29  1  0  0  0  0
 12 15  1  0  0  0  0
 12 30  1  0  0  0  0
 13 14  2  0  0  0  0
 13 16  1  0  0  0  0
 14 17  1  0  0  0  0
 14 18  1  0  0  0  0
 15 31  1  0  0  0  0
 15 32  1  0  0  0  0
 15 33  1  0  0  0  0
 16 19  2  0  0  0  0
 18 20  2  0  0  0  0
 19 20  1  0  0  0  0
 19 21  1  0  0  0  0
 20 22  1  0  0  0  0
 21 23  1  0  0  0  0
 22 24  1  0  0  0  0
 23 24  2  0  0  0  0
 24 35  1  0  0  0  0
 25 37  1  0  0  0  0
 25 38  1  0  0  0  0
 25 39  1  0  0  0  0
M  END
> <PUBCHEM_COMPOUND_CID>
139589590

> <PUBCHEM_CONFORMER_RMSD>
0.6

> <PUBCHEM_CONFORMER_DIVERSEORDER>
1
2

> <PUBCHEM_MMFF94_PARTIAL_CHARGES>
26
1 -0.56
10 0.42
12 0.28
13 -0.14
14 0.09
16 0.08
17 0.63
18 0.08
19 0.09
2 -0.43
20 0.09
21 0.47
22 0.47
23 0.09
24 -0.14
25 0.28
3 -0.53
34 0.45
35 0.15
36 0.45
4 -0.53
5 -0.57
6 -0.57
7 -0.36
8 -0.57
9 0.28

> <PUBCHEM_EFFECTIVE_ROTOR_COUNT>
1.8

> <PUBCHEM_PHARMACOPHORE_FEATURES>
11
1 1 acceptor
1 3 donor
1 4 donor
1 5 acceptor
1 6 acceptor
1 7 acceptor
1 8 acceptor
5 1 9 10 11 12 rings
6 13 14 16 18 19 20 rings
6 19 20 21 22 23 24 rings
6 2 9 10 13 14 17 rings

> <PUBCHEM_HEAVY_ATOM_COUNT>
25

> <PUBCHEM_ATOM_DEF_STEREO_COUNT>
3

> <PUBCHEM_ATOM_UDEF_STEREO_COUNT>
0

> <PUBCHEM_BOND_DEF_STEREO_COUNT>
0

> <PUBCHEM_BOND_UDEF_STEREO_COUNT>
0

> <PUBCHEM_ISOTOPIC_ATOM_COUNT>
0

> <PUBCHEM_COMPONENT_COUNT>
1

> <PUBCHEM_CACTVS_TAUTO_COUNT>
-1

> <PUBCHEM_CONFORMER_ID>
0851F7D600000001

> <PUBCHEM_MMFF94_ENERGY>
89.7946

> <PUBCHEM_FEATURE_SELFOVERLAP>
56.139

> <PUBCHEM_SHAPE_FINGERPRINT>
10062212 137 18336265643624912827
10319926 262 18126265469199870770
10616163 171 18411707551680743583
10693767 8 17986658459097131551
10759866 29 18115601460028885316
10967382 1 18196095658162912757
1100329 8 18339645512325635057
11578080 2 17677029292960963076
11607047 403 16192795479940278595
12107183 9 17758394076475275994
12166972 35 18040715913715948719
12236239 1 18041004986679754982
12403259 226 18409443682998822829
12403260 363 18411980265166497109
12553582 1 18411427176162627310
12633257 1 18269849639718224769
12788726 201 18340779181780187160
12839892 36 18269547248108714874
13140716 1 18412826854486385633
13583140 156 17024039150876810241
138480 1 15384161229313561337
13862211 1 18411979174382577679
14178342 30 18056767520149013808
14790565 3 17620205230219835513
15042514 8 18121778336096953378
15196674 1 18411704304965010101
15442244 35 18410294709398586032
15536298 74 18270966846463443568
16945 1 18196381324695356021
17349148 13 18273214200991206863
17492 89 18336829813297084867
17804303 29 18413112748984144705
17857418 61 18410008840654552819
1813 80 17385437709783829196
18222031 100 18272652359060343686
19591789 44 18411422808349653367
20028762 73 18131630123311996359
20691752 17 17821449062346646696
20905425 154 18055082205279137956
21267235 1 18339092548102306103
21792934 111 18412537722505632825
221490 88 18264499557644196306
2334 1 18340210803025358093
23366157 5 18187931750241549660
23402539 116 18342451518034744359
23557571 272 18059868216259890726
23559900 14 18340483460465943081
23622692 118 18411974758865566293
25147074 1 18339093643371856941
2748010 2 18412265072811424493
3004659 81 18259988167331493734
3286 77 18334856121326316028
335352 9 18411140195660537085
350125 39 18410859862754957529
3680242 22 18265062335951861537
4409770 3 17464805788757069348
474 4 17533228689611552684
5104073 3 18341621442621874033
59755656 215 18266178516749276236
76465 3 18335135367294036666
9709674 26 18341625805945091031
9981440 41 17469324094489637312

> <PUBCHEM_SHAPE_MULTIPOLES>
467.53
10.09
3.14
0.85
1.07
1.46
0.02
-6.06
-0.44
0.2
-0.35
-0.49
-0.24
-1.3

> <PUBCHEM_SHAPE_SELFOVERLAP>
1054.079

> <PUBCHEM_SHAPE_VOLUME>
244.6

> <PUBCHEM_COORDINATE_TYPE>
2
5
10

$$$$
