REMARK  Name = 139584552
REMARK  2 active torsions:
REMARK  status: ('A' for Active; 'I' for Inactive)
REMARK    1  A    between atoms: C_19  and  O_27
REMARK    2  A    between atoms: C_20  and  O_29
REMARK                            x       y       z     vdW  Elec       q    Type
REMARK                         _______ _______ _______ _____ _____    ______ ____
ROOT
ATOM      1  O   UNL     1      -0.117  -0.891  -1.965  0.00  0.00    -0.354 OA
ATOM      2  O   UNL     1       2.782   3.220   0.477  0.00  0.00    -0.343 OA
ATOM      3  O   UNL     1      -4.588   0.743  -0.766  0.00  0.00    -0.343 OA
ATOM      4  O   UNL     1       2.292  -2.560   0.198  0.00  0.00    -0.477 OA
ATOM      5  O   UNL     1       0.572   1.471   2.102  0.00  0.00    -0.293 OA
ATOM      6  O   UNL     1      -3.683  -1.596   1.398  0.00  0.00    -0.289 OA
ATOM      7  C   UNL     1       0.886   0.033   0.070  0.00  0.00    +0.106 C 
ATOM      8  C   UNL     1       0.309  -1.182   0.885  0.00  0.00    +0.059 C 
ATOM      9  C   UNL     1      -0.969  -1.732   0.170  0.00  0.00    +0.056 C 
ATOM     10  C   UNL     1      -0.116   0.293  -1.119  0.00  0.00    +0.146 C 
ATOM     11  C   UNL     1      -1.522   0.490  -0.563  0.00  0.00    +0.011 C 
ATOM     12  C   UNL     1      -1.947  -0.567   0.151  0.00  0.00    +0.014 C 
ATOM     13  C   UNL     1       2.308  -0.243  -0.481  0.00  0.00    +0.030 C 
ATOM     14  C   UNL     1       0.979   1.332   0.960  0.00  0.00    +0.186 C 
ATOM     15  C   UNL     1      -0.775  -2.014  -1.339  0.00  0.00    +0.120 C 
ATOM     16  C   UNL     1       1.649   2.434   0.232  0.00  0.00    +0.202 C 
ATOM     17  C   UNL     1       3.149   1.897   0.227  0.00  0.00    +0.181 C 
ATOM     18  C   UNL     1       1.343  -2.272   1.227  0.00  0.00    +0.167 C 
ATOM     19  C   UNL     1       3.131   0.984  -0.946  0.00  0.00    +0.162 C 
ATOM     20  C   UNL     1      -2.319   1.729  -0.840  0.00  0.00    +0.161 C 
ATOM     21  C   UNL     1      -3.694   1.734  -0.239  0.00  0.00    +0.181 C 
ATOM     22  C   UNL     1      -4.149   0.563   0.591  0.00  0.00    +0.206 C 
ATOM     23  C   UNL     1      -3.286  -0.623   0.771  0.00  0.00    +0.198 C 
ATOM     24  C   UNL     1       2.844  -1.470  -0.408  0.00  0.00    +0.166 C 
ATOM     25  C   UNL     1      -0.063  -3.304  -1.705  0.00  0.00    +0.032 C 
ATOM     26  C   UNL     1       2.110  -1.946   2.516  0.00  0.00    +0.047 C 
ENDROOT
BRANCH  19  27
ATOM     27  O   UNL     1       4.470   0.632  -1.280  0.00  0.00    -0.378 OA
ATOM     28  H   UNL     1       4.466   0.036  -2.045  0.00  0.00    +0.211 HD
ENDBRANCH  19  27
BRANCH  20  29
ATOM     29  O   UNL     1      -1.596   2.846  -0.326  0.00  0.00    -0.378 OA
ATOM     30  H   UNL     1      -0.704   2.856  -0.706  0.00  0.00    +0.211 HD
ENDBRANCH  20  29
TORSDOF 2
