REMARK  Name = 139587353
REMARK  8 active torsions:
REMARK  status: ('A' for Active; 'I' for Inactive)
REMARK    1  A    between atoms: C_6  and  O_33
REMARK    2  A    between atoms: C_9  and  S_31
REMARK    3  A    between atoms: C_10  and  O_35
REMARK    4  A    between atoms: C_11  and  O_37
REMARK    5  A    between atoms: C_18  and  C_19
REMARK    6  A    between atoms: C_20  and  O_25
REMARK    7  A    between atoms: C_22  and  O_27
REMARK    8  A    between atoms: C_24  and  O_29
REMARK                            x       y       z     vdW  Elec       q    Type
REMARK                         _______ _______ _______ _____ _____    ______ ____
ROOT
ATOM      1  O   UNL     1      -2.958  -0.630  -1.596  0.00  0.00    -0.259 OA
ATOM      2  O   UNL     1      -0.725   1.783   1.814  0.00  0.00    -0.272 OA
ATOM      3  O   UNL     1      -0.703  -1.855  -2.151  0.00  0.00    -0.266 OA
ATOM      4  N   UNL     1      -1.811  -0.351  -0.813  0.00  0.00    -0.149 N 
ATOM      5  N   UNL     1       0.494   0.302   0.506  0.00  0.00    -0.251 N 
ATOM      6  C   UNL     1      -4.414   0.572  -0.067  0.00  0.00    +0.149 C 
ATOM      7  C   UNL     1      -4.121  -0.766  -0.767  0.00  0.00    +0.200 C 
ATOM      8  C   UNL     1      -3.159   1.067   0.684  0.00  0.00    +0.072 C 
ATOM      9  C   UNL     1      -1.847   0.930  -0.128  0.00  0.00    +0.196 C 
ATOM     10  C   UNL     1      -5.669   0.439   0.832  0.00  0.00    +0.159 C 
ATOM     11  C   UNL     1      -3.996  -1.961   0.199  0.00  0.00    +0.164 C 
ATOM     12  C   UNL     1      -5.746  -0.848   1.598  0.00  0.00    +0.003 C 
ATOM     13  C   UNL     1      -0.670   1.005   0.854  0.00  0.00    +0.258 C 
ATOM     14  C   UNL     1      -4.995  -1.921   1.317  0.00  0.00    +0.003 C 
ATOM     15  C   UNL     1      -0.694  -0.997  -1.271  0.00  0.00    +0.286 C 
ATOM     16  C   UNL     1       0.558  -0.594  -0.560  0.00  0.00    +0.110 C 
ATOM     17  C   UNL     1       1.694   0.528   1.320  0.00  0.00    +0.120 C 
ATOM     18  C   UNL     1       1.687  -1.182  -0.994  0.00  0.00    +0.023 C 
ENDROOT
BRANCH  18  19
ATOM     19  C   UNL     1       3.033  -0.947  -0.456  0.00  0.00    +0.038 C 
ATOM     20  C   UNL     1       3.845   0.067  -0.962  0.00  0.00    +0.171 C 
ATOM     21  C   UNL     1       3.495  -1.760   0.579  0.00  0.00    +0.006 C 
ATOM     22  C   UNL     1       5.120   0.269  -0.433  0.00  0.00    +0.206 C 
ATOM     23  C   UNL     1       4.770  -1.558   1.108  0.00  0.00    +0.040 C 
ATOM     24  C   UNL     1       5.582  -0.544   0.602  0.00  0.00    +0.175 C 
BRANCH  20  25
ATOM     25  O   UNL     1       3.405   0.870  -1.975  0.00  0.00    -0.503 OA
ATOM     26  H   UNL     1       2.550   0.742  -2.336  0.00  0.00    +0.292 HD
ENDBRANCH  20  25
BRANCH  22  27
ATOM     27  O   UNL     1       5.916   1.260  -0.927  0.00  0.00    -0.465 OA
ATOM     28  C   UNL     1       5.811   2.541  -0.309  0.00  0.00    +0.253 C 
ENDBRANCH  22  27
BRANCH  24  29
ATOM     29  O   UNL     1       6.825  -0.357   1.127  0.00  0.00    -0.468 OA
ATOM     30  C   UNL     1       7.220  -1.232   2.183  0.00  0.00    +0.253 C 
ENDBRANCH  24  29
ENDBRANCH  18  19
BRANCH   9  31
ATOM     31  S   UNL     1      -1.622   2.320  -1.312  0.00  0.00    -0.112 S 
ATOM     32  C   UNL     1      -1.678   3.667  -0.113  0.00  0.00    +0.071 C 
ENDBRANCH   9  31
BRANCH   6  33
ATOM     33  O   UNL     1      -4.732   1.523  -1.093  0.00  0.00    -0.381 OA
ATOM     34  H   UNL     1      -3.967   1.635  -1.679  0.00  0.00    +0.210 HD
ENDBRANCH   6  33
BRANCH  10  35
ATOM     35  O   UNL     1      -5.732   1.516   1.766  0.00  0.00    -0.378 OA
ATOM     36  H   UNL     1      -5.683   2.360   1.291  0.00  0.00    +0.211 HD
ENDBRANCH  10  35
BRANCH  11  37
ATOM     37  O   UNL     1      -4.186  -3.155  -0.564  0.00  0.00    -0.377 OA
ATOM     38  H   UNL     1      -3.540  -3.182  -1.287  0.00  0.00    +0.211 HD
ENDBRANCH  11  37
TORSDOF 8
