139583759
  -OEChem-03292013293D

 45 50  0     1  0  0  0  0  0999 V2000
    0.2667   -0.7144   -3.2652 O   0  0  0  0  0  0  0  0  0  0  0  0
    3.4791   -2.1242   -0.2774 O   0  0  0  0  0  0  0  0  0  0  0  0
    0.2085   -4.1053    0.3319 O   0  0  0  0  0  0  0  0  0  0  0  0
   -2.7259   -1.3346    2.2531 O   0  0  0  0  0  0  0  0  0  0  0  0
   -1.0572   -0.9897    0.6678 N   0  0  0  0  0  0  0  0  0  0  0  0
    0.5925   -2.2246   -0.9989 N   0  0  0  0  0  0  0  0  0  0  0  0
    4.0403    0.1360   -0.0611 N   0  0  0  0  0  0  0  0  0  0  0  0
   -1.3940    0.4621   -1.1951 N   0  0  0  0  0  0  0  0  0  0  0  0
    1.7402   -0.4230    0.2439 C   0  0  2  0  0  0  0  0  0  0  0  0
    0.7611   -0.7637   -0.9285 C   0  0  2  0  0  0  0  0  0  0  0  0
    1.2279   -1.0841    1.5584 C   0  0  0  0  0  0  0  0  0  0  0  0
   -0.0563   -1.8768    1.2733 C   0  0  2  0  0  0  0  0  0  0  0  0
   -0.6584   -0.3592   -0.5190 C   0  0  0  0  0  0  0  0  0  0  0  0
    2.0123    1.0567    0.4302 C   0  0  0  0  0  0  0  0  0  0  0  0
    3.1741   -0.9591   -0.0680 C   0  0  0  0  0  0  0  0  0  0  0  0
    1.1627   -0.2079   -2.2939 C   0  0  0  0  0  0  0  0  0  0  0  0
    0.2258   -2.8917    0.1733 C   0  0  0  0  0  0  0  0  0  0  0  0
    3.3674    1.3142    0.2298 C   0  0  0  0  0  0  0  0  0  0  0  0
   -2.3145   -0.8000    1.2292 C   0  0  0  0  0  0  0  0  0  0  0  0
    1.1572    2.0956    0.7602 C   0  0  0  0  0  0  0  0  0  0  0  0
   -3.1759    0.1435    0.4774 C   0  0  0  0  0  0  0  0  0  0  0  0
   -2.6801    0.7336   -0.6955 C   0  0  0  0  0  0  0  0  0  0  0  0
    3.9145    2.5791    0.3283 C   0  0  0  0  0  0  0  0  0  0  0  0
    1.6848    3.3871    0.8656 C   0  0  0  0  0  0  0  0  0  0  0  0
    3.0521    3.6269    0.6488 C   0  0  0  0  0  0  0  0  0  0  0  0
   -4.4628    0.4395    0.9391 C   0  0  0  0  0  0  0  0  0  0  0  0
   -3.4974    1.6272   -1.3966 C   0  0  0  0  0  0  0  0  0  0  0  0
   -5.2631    1.3319    0.2272 C   0  0  0  0  0  0  0  0  0  0  0  0
   -4.7818    1.9250   -0.9382 C   0  0  0  0  0  0  0  0  0  0  0  0
    1.0124   -0.3304    2.3262 H   0  0  0  0  0  0  0  0  0  0  0  0
    1.9830   -1.7578    1.9825 H   0  0  0  0  0  0  0  0  0  0  0  0
   -0.4471   -2.3729    2.1657 H   0  0  0  0  0  0  0  0  0  0  0  0
    0.8616   -2.7473   -1.8270 H   0  0  0  0  0  0  0  0  0  0  0  0
    2.1700   -0.5298   -2.5761 H   0  0  0  0  0  0  0  0  0  0  0  0
    1.1218    0.8858   -2.3191 H   0  0  0  0  0  0  0  0  0  0  0  0
    5.0371    0.0877   -0.2359 H   0  0  0  0  0  0  0  0  0  0  0  0
    0.1022    1.9281    0.9433 H   0  0  0  0  0  0  0  0  0  0  0  0
    4.9715    2.7583    0.1673 H   0  0  0  0  0  0  0  0  0  0  0  0
    0.5385   -0.3503   -4.1248 H   0  0  0  0  0  0  0  0  0  0  0  0
    1.0299    4.2158    1.1216 H   0  0  0  0  0  0  0  0  0  0  0  0
    3.4399    4.6381    0.7373 H   0  0  0  0  0  0  0  0  0  0  0  0
   -4.8562   -0.0113    1.8458 H   0  0  0  0  0  0  0  0  0  0  0  0
   -3.1371    2.0984   -2.3081 H   0  0  0  0  0  0  0  0  0  0  0  0
   -6.2629    1.5654    0.5816 H   0  0  0  0  0  0  0  0  0  0  0  0
   -5.4068    2.6202   -1.4913 H   0  0  0  0  0  0  0  0  0  0  0  0
  1 16  1  0  0  0  0
  1 39  1  0  0  0  0
  2 15  2  0  0  0  0
  3 17  2  0  0  0  0
  4 19  2  0  0  0  0
  5 12  1  0  0  0  0
  5 13  1  0  0  0  0
  5 19  1  0  0  0  0
  6 10  1  0  0  0  0
  6 17  1  0  0  0  0
  6 33  1  0  0  0  0
  7 15  1  0  0  0  0
  7 18  1  0  0  0  0
  7 36  1  0  0  0  0
  8 13  2  0  0  0  0
  8 22  1  0  0  0  0
  9 10  1  0  0  0  0
  9 11  1  0  0  0  0
  9 14  1  0  0  0  0
  9 15  1  0  0  0  0
 10 13  1  0  0  0  0
 10 16  1  0  0  0  0
 11 12  1  0  0  0  0
 11 30  1  0  0  0  0
 11 31  1  0  0  0  0
 12 17  1  0  0  0  0
 12 32  1  0  0  0  0
 14 18  1  0  0  0  0
 14 20  2  0  0  0  0
 16 34  1  0  0  0  0
 16 35  1  0  0  0  0
 18 23  2  0  0  0  0
 19 21  1  0  0  0  0
 20 24  1  0  0  0  0
 20 37  1  0  0  0  0
 21 22  1  0  0  0  0
 21 26  2  0  0  0  0
 22 27  2  0  0  0  0
 23 25  1  0  0  0  0
 23 38  1  0  0  0  0
 24 25  2  0  0  0  0
 24 40  1  0  0  0  0
 25 41  1  0  0  0  0
 26 28  1  0  0  0  0
 26 42  1  0  0  0  0
 27 29  1  0  0  0  0
 27 43  1  0  0  0  0
 28 29  2  0  0  0  0
 28 44  1  0  0  0  0
 29 45  1  0  0  0  0
M  END
> <PUBCHEM_COMPOUND_CID>
139583759

> <PUBCHEM_CONFORMER_RMSD>
0.6

> <PUBCHEM_CONFORMER_DIVERSEORDER>
1

> <PUBCHEM_MMFF94_PARTIAL_CHARGES>
39
1 -0.68
10 0.36
12 0.36
13 0.45
14 -0.14
15 0.57
16 0.28
17 0.57
18 0.12
19 0.54
2 -0.57
20 -0.15
21 0.09
22 0.18
23 -0.15
24 -0.15
25 -0.15
26 -0.15
27 -0.15
28 -0.15
29 -0.15
3 -0.57
33 0.37
36 0.37
37 0.15
38 0.15
39 0.4
4 -0.57
40 0.15
41 0.15
42 0.15
43 0.15
44 0.15
45 0.15
5 -0.42
6 -0.73
7 -0.55
8 -0.63
9 0.2

> <PUBCHEM_EFFECTIVE_ROTOR_COUNT>
1.6

> <PUBCHEM_PHARMACOPHORE_FEATURES>
12
1 1 acceptor
1 1 donor
1 2 acceptor
1 3 acceptor
1 4 acceptor
1 6 donor
1 7 donor
5 7 9 14 15 18 rings
6 14 18 20 23 24 25 rings
6 21 22 26 27 28 29 rings
6 5 8 13 19 21 22 rings
8 5 6 9 10 11 12 13 17 rings

> <PUBCHEM_HEAVY_ATOM_COUNT>
29

> <PUBCHEM_ATOM_DEF_STEREO_COUNT>
3

> <PUBCHEM_ATOM_UDEF_STEREO_COUNT>
0

> <PUBCHEM_BOND_DEF_STEREO_COUNT>
0

> <PUBCHEM_BOND_UDEF_STEREO_COUNT>
0

> <PUBCHEM_ISOTOPIC_ATOM_COUNT>
0

> <PUBCHEM_COMPONENT_COUNT>
1

> <PUBCHEM_CACTVS_TAUTO_COUNT>
-1

> <PUBCHEM_CONFORMER_ID>
0851E10F00000001

> <PUBCHEM_MMFF94_ENERGY>
106.3188

> <PUBCHEM_FEATURE_SELFOVERLAP>
61.039

> <PUBCHEM_SHAPE_FINGERPRINT>
10165383 225 18040156201983193516
10366900 7 18188206490666933021
10863032 1 18340205296961550786
10948715 1 18339921631488066234
11578080 2 18116455771557215212
12403259 415 18186522077639929813
12633257 1 18114164329285007401
12788726 201 17622134172829992191
13134695 92 17977940186059474599
13140716 1 18334570256877165691
133893 2 16197381327916561046
13402501 40 18333730200235371561
13583140 156 18410582811467935323
14178342 30 17095525144933853259
14466204 15 18265321807990852584
14713325 29 17689429812552724504
14955137 171 18046045087472533378
16945 1 18119227498636904766
17974551 9 17313097540608860314
17980427 26 18264466478106996998
1813 80 16841654296512394214
21033648 29 18336824294358866800
21475661 188 18335695074400125584
21756936 100 18122337141423316972
21860390 5 18197204850573225285
22122407 14 18056777451047956609
22149856 69 17969527969689664641
23227448 37 18051693536153996712
23419403 2 16908400420533088230
23536364 44 17761215410516801230
23558518 356 18046055231894784554
23559900 14 17823145523373898759
238 59 18267558321878703117
463206 1 9583511032110382977
469060 322 16825023551681602896
474 4 18343015588795398689
495365 180 18338500968308190529
5081480 168 16984948273756087508
5265222 85 17897748667809507558
5895379 119 17341529636025290985
70251023 43 17483122544226516559
7808743 9 17898862511063350228
9999458 23 18337951199324609678

> <PUBCHEM_SHAPE_MULTIPOLES>
553.41
7.87
3.72
1.79
6.7
0.04
0.98
6.09
-0.6
-2.79
-0.85
0.61
-0.49
1.55

> <PUBCHEM_SHAPE_SELFOVERLAP>
1276.148

> <PUBCHEM_SHAPE_VOLUME>
279.5

> <PUBCHEM_COORDINATE_TYPE>
2
5
10

$$$$
