REMARK  Name = 139585736
REMARK  5 active torsions:
REMARK  status: ('A' for Active; 'I' for Inactive)
REMARK    1  A    between atoms: C_9  and  O_28
REMARK    2  A    between atoms: C_14  and  O_22
REMARK    3  A    between atoms: C_18  and  O_24
REMARK    4  A    between atoms: C_19  and  O_26
REMARK    5  A    between atoms: O_28  and  C_30
REMARK                            x       y       z     vdW  Elec       q    Type
REMARK                         _______ _______ _______ _____ _____    ______ ____
ROOT
ATOM      1  O   UNL     1      -3.993  -1.298  -0.345  0.00  0.00    -0.285 OA
ATOM      2  O   UNL     1      -2.346  -2.926  -0.920  0.00  0.00    -0.452 OA
ATOM      3  O   UNL     1       0.567   0.720  -0.813  0.00  0.00    -0.450 OA
ATOM      4  O   UNL     1       3.472  -1.427   1.108  0.00  0.00    -0.286 OA
ATOM      5  C   UNL     1      -2.021  -0.587  -1.528  0.00  0.00    +0.105 C 
ATOM      6  C   UNL     1      -3.034  -1.724  -1.333  0.00  0.00    +0.294 C 
ATOM      7  C   UNL     1      -2.705   0.601  -0.894  0.00  0.00    +0.087 C 
ATOM      8  C   UNL     1      -0.856  -1.163  -0.806  0.00  0.00    +0.053 C 
ATOM      9  C   UNL     1      -3.572  -0.033   0.180  0.00  0.00    +0.293 C 
ATOM     10  C   UNL     1      -1.109  -2.496  -0.516  0.00  0.00    +0.143 C 
ATOM     11  C   UNL     1       0.362  -0.590  -0.473  0.00  0.00    +0.150 A 
ATOM     12  C   UNL     1       1.309  -1.387   0.176  0.00  0.00    +0.107 A 
ATOM     13  C   UNL     1      -0.181  -3.302   0.116  0.00  0.00    +0.074 C 
ATOM     14  C   UNL     1       1.044  -2.736   0.471  0.00  0.00    +0.148 C 
ATOM     15  C   UNL     1       2.602  -0.785   0.538  0.00  0.00    +0.207 A 
ATOM     16  C   UNL     1       1.765   1.300  -0.477  0.00  0.00    +0.185 A 
ATOM     17  C   UNL     1       2.796   0.628   0.179  0.00  0.00    +0.110 A 
ATOM     18  C   UNL     1       1.927   2.642  -0.828  0.00  0.00    +0.173 C 
ATOM     19  C   UNL     1       3.989   1.287   0.488  0.00  0.00    +0.140 C 
ATOM     20  C   UNL     1       3.117   3.304  -0.522  0.00  0.00    +0.043 C 
ATOM     21  C   UNL     1       4.145   2.628   0.135  0.00  0.00    +0.040 C 
ENDROOT
BRANCH  14  22
ATOM     22  O   UNL     1       1.948  -3.540   1.099  0.00  0.00    -0.471 OA
ATOM     23  C   UNL     1       2.857  -4.262   0.271  0.00  0.00    +0.252 C 
ENDBRANCH  14  22
BRANCH  18  24
ATOM     24  O   UNL     1       0.935   3.322  -1.468  0.00  0.00    -0.468 OA
ATOM     25  C   UNL     1      -0.019   3.997  -0.650  0.00  0.00    +0.253 C 
ENDBRANCH  18  24
BRANCH  19  26
ATOM     26  O   UNL     1       5.025   0.677   1.127  0.00  0.00    -0.505 OA
ATOM     27  H   UNL     1       4.955  -0.223   1.379  0.00  0.00    +0.292 HD
ENDBRANCH  19  26
BRANCH   9  28
ATOM     28  O   UNL     1      -4.668   0.790   0.543  0.00  0.00    -0.424 OA
BRANCH  28  30
ATOM     29  O   UNL     1      -3.311   2.011   1.959  0.00  0.00    -0.250 OA
ATOM     30  C   UNL     1      -4.399   1.782   1.448  0.00  0.00    +0.319 C 
ATOM     31  C   UNL     1      -5.643   2.567   1.735  0.00  0.00    +0.121 C 
ENDBRANCH  28  30
ENDBRANCH   9  28
TORSDOF 5
