139589658
  -OEChem-03292013293D

 47 50  0     1  0  0  0  0  0999 V2000
   -0.2723   -0.2219   -1.2602 O   0  0  0  0  0  0  0  0  0  0  0  0
    3.3456   -2.0818    0.2970 O   0  0  0  0  0  0  0  0  0  0  0  0
   -0.1599    2.6184   -0.7891 O   0  0  0  0  0  0  0  0  0  0  0  0
    2.0947   -2.2599   -1.7089 O   0  0  0  0  0  0  0  0  0  0  0  0
    4.0728    2.0082    1.3744 O   0  0  0  0  0  0  0  0  0  0  0  0
   -3.9376   -2.3245    0.9299 O   0  0  0  0  0  0  0  0  0  0  0  0
    4.9404   -0.7722    1.3431 O   0  0  0  0  0  0  0  0  0  0  0  0
   -2.2564    3.2591   -1.4429 O   0  0  0  0  0  0  0  0  0  0  0  0
   -0.8981   -3.0690    0.8171 O   0  0  0  0  0  0  0  0  0  0  0  0
    1.8390   -0.4382   -0.2005 C   0  0  0  0  0  0  0  0  0  0  0  0
    0.7732    0.3516   -0.5956 C   0  0  0  0  0  0  0  0  0  0  0  0
    2.9137    0.1295    0.4570 C   0  0  0  0  0  0  0  0  0  0  0  0
    2.0585   -1.8944   -0.3412 C   0  0  2  0  0  0  0  0  0  0  0  0
    0.8358    1.7184   -0.3338 C   0  0  0  0  0  0  0  0  0  0  0  0
    1.9389    2.2917    0.3201 C   0  0  0  0  0  0  0  0  0  0  0  0
    2.9972    1.4833    0.7342 C   0  0  0  0  0  0  0  0  0  0  0  0
   -1.4697   -0.0870   -0.6056 C   0  0  0  0  0  0  0  0  0  0  0  0
   -2.0871    1.1498   -0.4198 C   0  0  0  0  0  0  0  0  0  0  0  0
    3.8776   -0.9126    0.7717 C   0  0  0  0  0  0  0  0  0  0  0  0
   -2.0896   -1.2601   -0.1650 C   0  0  0  0  0  0  0  0  0  0  0  0
   -3.3285    1.2094    0.2251 C   0  0  0  0  0  0  0  0  0  0  0  0
   -1.5276    2.4074   -0.9483 C   0  0  0  0  0  0  0  0  0  0  0  0
   -3.3197   -1.1940    0.4866 C   0  0  0  0  0  0  0  0  0  0  0  0
    1.9844    3.7647    0.5732 C   0  0  0  0  0  0  0  0  0  0  0  0
   -3.9373    0.0397    0.6837 C   0  0  0  0  0  0  0  0  0  0  0  0
   -1.4553   -2.5936   -0.4005 C   0  0  0  0  0  0  0  0  0  0  0  0
   -4.0441    2.4970    0.4885 C   0  0  0  0  0  0  0  0  0  0  0  0
    2.3048   -3.6575   -1.8758 C   0  0  0  0  0  0  0  0  0  0  0  0
   -5.1937   -2.1613    1.5856 C   0  0  0  0  0  0  0  0  0  0  0  0
    1.3271   -2.4731    0.2204 H   0  0  0  0  0  0  0  0  0  0  0  0
    1.0266    4.1190    0.9698 H   0  0  0  0  0  0  0  0  0  0  0  0
    2.7434    4.0452    1.3101 H   0  0  0  0  0  0  0  0  0  0  0  0
    2.2032    4.2975   -0.3579 H   0  0  0  0  0  0  0  0  0  0  0  0
   -4.8951    0.1471    1.1814 H   0  0  0  0  0  0  0  0  0  0  0  0
   -2.2063   -3.3136   -0.7465 H   0  0  0  0  0  0  0  0  0  0  0  0
   -0.6796   -2.5730   -1.1698 H   0  0  0  0  0  0  0  0  0  0  0  0
   -3.3622    3.2584    0.8819 H   0  0  0  0  0  0  0  0  0  0  0  0
   -4.5297    2.8616   -0.4221 H   0  0  0  0  0  0  0  0  0  0  0  0
   -4.8263    2.3780    1.2474 H   0  0  0  0  0  0  0  0  0  0  0  0
    4.7046    1.3000    1.5830 H   0  0  0  0  0  0  0  0  0  0  0  0
    3.2841   -3.9523   -1.4875 H   0  0  0  0  0  0  0  0  0  0  0  0
    1.5133   -4.2279   -1.3800 H   0  0  0  0  0  0  0  0  0  0  0  0
    2.2761   -3.8813   -2.9456 H   0  0  0  0  0  0  0  0  0  0  0  0
   -0.5486   -3.9596    0.6425 H   0  0  0  0  0  0  0  0  0  0  0  0
   -5.5370   -3.1604    1.8741 H   0  0  0  0  0  0  0  0  0  0  0  0
   -5.9521   -1.7499    0.9108 H   0  0  0  0  0  0  0  0  0  0  0  0
   -5.0956   -1.5823    2.5103 H   0  0  0  0  0  0  0  0  0  0  0  0
  1 11  1  0  0  0  0
  1 17  1  0  0  0  0
  2 13  1  0  0  0  0
  2 19  1  0  0  0  0
  3 14  1  0  0  0  0
  3 22  1  0  0  0  0
  4 13  1  0  0  0  0
  4 28  1  0  0  0  0
  5 16  1  0  0  0  0
  5 40  1  0  0  0  0
  6 23  1  0  0  0  0
  6 29  1  0  0  0  0
  7 19  2  0  0  0  0
  8 22  2  0  0  0  0
  9 26  1  0  0  0  0
  9 44  1  0  0  0  0
 10 11  1  0  0  0  0
 10 12  2  0  0  0  0
 10 13  1  0  0  0  0
 11 14  2  0  0  0  0
 12 16  1  0  0  0  0
 12 19  1  0  0  0  0
 13 30  1  0  0  0  0
 14 15  1  0  0  0  0
 15 16  2  0  0  0  0
 15 24  1  0  0  0  0
 17 18  2  0  0  0  0
 17 20  1  0  0  0  0
 18 21  1  0  0  0  0
 18 22  1  0  0  0  0
 20 23  2  0  0  0  0
 20 26  1  0  0  0  0
 21 25  2  0  0  0  0
 21 27  1  0  0  0  0
 23 25  1  0  0  0  0
 24 31  1  0  0  0  0
 24 32  1  0  0  0  0
 24 33  1  0  0  0  0
 25 34  1  0  0  0  0
 26 35  1  0  0  0  0
 26 36  1  0  0  0  0
 27 37  1  0  0  0  0
 27 38  1  0  0  0  0
 27 39  1  0  0  0  0
 28 41  1  0  0  0  0
 28 42  1  0  0  0  0
 28 43  1  0  0  0  0
 29 45  1  0  0  0  0
 29 46  1  0  0  0  0
 29 47  1  0  0  0  0
M  END
> <PUBCHEM_COMPOUND_CID>
139589658

> <PUBCHEM_CONFORMER_RMSD>
0.8

> <PUBCHEM_CONFORMER_DIVERSEORDER>
1
4
2
3

> <PUBCHEM_MMFF94_PARTIAL_CHARGES>
32
1 -0.17
10 -0.14
11 0.08
12 0.09
13 0.7
14 0.08
15 -0.14
16 0.08
17 0.08
18 0.09
19 0.63
2 -0.43
20 -0.14
21 -0.14
22 0.63
23 0.08
24 0.14
25 -0.15
26 0.42
27 0.14
28 0.28
29 0.28
3 -0.23
34 0.15
4 -0.56
40 0.45
44 0.4
5 -0.53
6 -0.36
7 -0.57
8 -0.57
9 -0.68

> <PUBCHEM_EFFECTIVE_ROTOR_COUNT>
3.8

> <PUBCHEM_PHARMACOPHORE_FEATURES>
12
1 1 acceptor
1 4 acceptor
1 5 donor
1 6 acceptor
1 7 acceptor
1 8 acceptor
1 9 acceptor
1 9 donor
5 2 10 12 13 19 rings
6 10 11 12 14 15 16 rings
6 17 18 20 21 23 25 rings
7 1 3 11 14 17 18 22 rings

> <PUBCHEM_HEAVY_ATOM_COUNT>
29

> <PUBCHEM_ATOM_DEF_STEREO_COUNT>
1

> <PUBCHEM_ATOM_UDEF_STEREO_COUNT>
0

> <PUBCHEM_BOND_DEF_STEREO_COUNT>
0

> <PUBCHEM_BOND_UDEF_STEREO_COUNT>
0

> <PUBCHEM_ISOTOPIC_ATOM_COUNT>
0

> <PUBCHEM_COMPONENT_COUNT>
1

> <PUBCHEM_CACTVS_TAUTO_COUNT>
-1

> <PUBCHEM_CONFORMER_ID>
0851F81A00000001

> <PUBCHEM_MMFF94_ENERGY>
124.0838

> <PUBCHEM_FEATURE_SELFOVERLAP>
61.019

> <PUBCHEM_SHAPE_FINGERPRINT>
10616163 171 18194683893606225800
10675989 125 16678913240103131684
1100329 8 15385564205749014439
12553582 1 18191310587795582127
12633257 1 18337663123088582120
13140716 1 18408885143897030601
13402501 40 18267300932888495750
14022347 108 17978801112264182414
14223421 5 18410572898588236725
14790565 3 18121783000548462196
14955137 171 18272655636837711108
15420108 30 17840310248007684950
1813 80 17022897999240224509
1979834 28 18052557731103805883
20600515 1 18118402843905116228
20739085 24 18119539979224995085
21033648 29 17631716184753449562
22182313 1 18128817443776537822
23559900 14 18123202207776097390
2748010 2 18266173933396270205
3493558 16 14326383880361765265
350125 39 18410296955561175225
5104073 3 18410004438355507192
6823239 73 18270412594246207806
7097593 13 18410006675964817840
9709674 26 18268706121681291895

> <PUBCHEM_SHAPE_MULTIPOLES>
543.98
8.39
4.56
1.34
2.35
0.27
0.17
-2.05
-4.44
-0.35
0.82
-0.23
-0.47
2.34

> <PUBCHEM_SHAPE_SELFOVERLAP>
1216.124

> <PUBCHEM_SHAPE_VOLUME>
289.7

> <PUBCHEM_COORDINATE_TYPE>
2
5
10

$$$$
