REMARK  Name = 139583753
REMARK  6 active torsions:
REMARK  status: ('A' for Active; 'I' for Inactive)
REMARK    1  A    between atoms: C_4  and  O_13
REMARK    2  A    between atoms: C_7  and  C_15
REMARK    3  A    between atoms: C_15  and  O_17
REMARK    4  A    between atoms: C_15  and  C_19
REMARK    5  A    between atoms: C_19  and  O_20
REMARK    6  A    between atoms: O_20  and  S_21
REMARK                            x       y       z     vdW  Elec       q    Type
REMARK                         _______ _______ _______ _____ _____    ______ ____
ROOT
ATOM      1  C   UNL     1       2.207  -0.871   0.721  0.00  0.00    +0.002 C 
ATOM      2  C   UNL     1       3.210  -0.110  -0.174  0.00  0.00    +0.025 C 
ATOM      3  C   UNL     1       2.680  -2.328   0.494  0.00  0.00    +0.000 C 
ATOM      4  C   UNL     1       3.001   1.400  -0.436  0.00  0.00    +0.088 C 
ATOM      5  C   UNL     1       0.716  -0.650   0.404  0.00  0.00    +0.002 C 
ATOM      6  C   UNL     1       3.333  -0.993  -1.433  0.00  0.00    +0.002 C 
ATOM      7  C   UNL     1       0.207   0.726   0.856  0.00  0.00    +0.027 C 
ATOM      8  C   UNL     1       2.932  -2.407  -1.011  0.00  0.00    +0.000 C 
ATOM      9  C   UNL     1       1.651   1.762  -1.077  0.00  0.00    +0.027 C 
ATOM     10  C   UNL     1       0.432   1.850  -0.161  0.00  0.00    +0.005 C 
ATOM     11  C   UNL     1       1.769  -3.436   0.999  0.00  0.00    +0.000 C 
ATOM     12  C   UNL     1       4.127   1.920  -1.351  0.00  0.00    +0.029 C 
ENDROOT
BRANCH   4  13
ATOM     13  O   UNL     1       3.159   2.126   0.788  0.00  0.00    -0.387 OA
ATOM     14  H   UNL     1       2.476   1.848   1.419  0.00  0.00    +0.210 HD
ENDBRANCH   4  13
BRANCH   7  15
ATOM     15  C   UNL     1      -1.289   0.654   1.197  0.00  0.00    +0.118 C 
ATOM     16  C   UNL     1      -1.777   2.010   1.704  0.00  0.00    +0.032 C 
BRANCH  15  17
ATOM     17  O   UNL     1      -1.452  -0.285   2.260  0.00  0.00    -0.384 OA
ATOM     18  H   UNL     1      -1.150  -1.159   1.968  0.00  0.00    +0.210 HD
ENDBRANCH  15  17
BRANCH  15  19
ATOM     19  C   UNL     1      -2.084   0.172  -0.020  0.00  0.00    +0.203 C 
BRANCH  19  20
ATOM     20  O   UNL     1      -3.474   0.130   0.286  0.00  0.00    -0.198 OA
BRANCH  20  21
ATOM     21  S   UNL     1      -4.539  -0.355  -0.854  0.00  0.00    +0.239 S 
ATOM     22  O   UNL     1      -5.991  -0.087  -0.159  0.00  0.00    -0.022 OA
ATOM     23  O   UNL     1      -4.419   0.555  -1.978  0.00  0.00    -0.116 OA
ATOM     24  O   UNL     1      -4.397  -1.785  -1.054  0.00  0.00    -0.116 OA
ENDBRANCH  20  21
ENDBRANCH  19  20
ENDBRANCH  15  19
ENDBRANCH   7  15
TORSDOF 6
