139584675
  -OEChem-03292013293D

 65 67  0     1  0  0  0  0  0999 V2000
   -0.6927   -4.4949    0.8834 Cl  0  0  0  0  0  0  0  0  0  0  0  0
   -4.4252   -1.4275   -0.9776 O   0  0  0  0  0  0  0  0  0  0  0  0
   -3.4634   -3.6889    0.2796 O   0  0  0  0  0  0  0  0  0  0  0  0
   -5.6398    0.4849   -0.5923 O   0  0  0  0  0  0  0  0  0  0  0  0
   -3.3212    2.8153   -0.4725 O   0  0  0  0  0  0  0  0  0  0  0  0
    3.4729    5.2888   -1.4820 O   0  0  0  0  0  0  0  0  0  0  0  0
    1.3351    4.5383   -1.3425 O   0  0  0  0  0  0  0  0  0  0  0  0
    1.3068    0.3340   -0.3548 N   0  0  0  0  0  0  0  0  0  0  0  0
   -3.0381   -1.7351   -1.0698 C   0  0  1  0  0  0  0  0  0  0  0  0
   -2.3672   -0.4930   -0.6115 C   0  0  0  0  0  0  0  0  0  0  0  0
   -0.9469   -0.6002   -0.3490 C   0  0  0  0  0  0  0  0  0  0  0  0
   -0.3726   -1.8865    0.1274 C   0  0  0  0  0  0  0  0  0  0  0  0
   -2.6422   -2.8659   -0.1208 C   0  0  0  0  0  0  0  0  0  0  0  0
   -3.2537    0.4749   -0.3750 C   0  0  0  0  0  0  0  0  0  0  0  0
   -2.7327   -2.1188   -2.5177 C   0  0  0  0  0  0  0  0  0  0  0  0
   -0.0722    0.3980   -0.5849 C   0  0  0  0  0  0  0  0  0  0  0  0
   -1.1898   -2.9553    0.2745 C   0  0  0  0  0  0  0  0  0  0  0  0
    1.8457   -0.8531    0.1992 C   0  0  0  0  0  0  0  0  0  0  0  0
    1.0617   -1.9292    0.4456 C   0  0  0  0  0  0  0  0  0  0  0  0
   -4.5760   -0.1067   -0.6627 C   0  0  0  0  0  0  0  0  0  0  0  0
    2.1410    1.4986   -0.6659 C   0  0  0  0  0  0  0  0  0  0  0  0
   -3.0303    1.8039    0.1766 C   0  0  0  0  0  0  0  0  0  0  0  0
    2.1849    2.4660    0.5168 C   0  0  0  0  0  0  0  0  0  0  0  0
    3.2544   -0.9503    0.5285 C   0  0  0  0  0  0  0  0  0  0  0  0
    5.4420   -2.1546    0.6531 C   0  0  2  0  0  0  0  0  0  0  0  0
    3.9742   -2.0507    0.3126 C   0  0  0  0  0  0  0  0  0  0  0  0
    2.9948    3.7380    0.2515 C   0  0  0  0  0  0  0  0  0  0  0  0
   -2.4390    1.8954    1.5587 C   0  0  0  0  0  0  0  0  0  0  0  0
    6.2964   -2.4562   -0.5920 C   0  0  0  0  0  0  0  0  0  0  0  0
    5.6423   -3.2478    1.7059 C   0  0  0  0  0  0  0  0  0  0  0  0
   -2.7768    0.8269    2.5548 C   0  0  0  0  0  0  0  0  0  0  0  0
   -1.6845    2.9818    1.8093 C   0  0  0  0  0  0  0  0  0  0  0  0
    6.2022   -1.3758   -1.6624 C   0  0  0  0  0  0  0  0  0  0  0  0
    2.4862    4.5352   -0.9294 C   0  0  0  0  0  0  0  0  0  0  0  0
   -0.9765    3.3105    3.0853 C   0  0  0  0  0  0  0  0  0  0  0  0
   -3.3192   -2.9979   -2.8104 H   0  0  0  0  0  0  0  0  0  0  0  0
   -1.6757   -2.3578   -2.6754 H   0  0  0  0  0  0  0  0  0  0  0  0
   -3.0110   -1.3139   -3.2081 H   0  0  0  0  0  0  0  0  0  0  0  0
   -0.3912    1.3572   -0.9800 H   0  0  0  0  0  0  0  0  0  0  0  0
    1.4608   -2.8319    0.8956 H   0  0  0  0  0  0  0  0  0  0  0  0
    3.1577    1.2001   -0.9493 H   0  0  0  0  0  0  0  0  0  0  0  0
    1.7401    1.9956   -1.5575 H   0  0  0  0  0  0  0  0  0  0  0  0
    2.5962    1.9659    1.4012 H   0  0  0  0  0  0  0  0  0  0  0  0
    1.1604    2.7540    0.7789 H   0  0  0  0  0  0  0  0  0  0  0  0
    3.7240   -0.0813    0.9787 H   0  0  0  0  0  0  0  0  0  0  0  0
    5.7926   -1.2083    1.0864 H   0  0  0  0  0  0  0  0  0  0  0  0
    3.5329   -2.9298   -0.1523 H   0  0  0  0  0  0  0  0  0  0  0  0
    4.0368    3.4562    0.0600 H   0  0  0  0  0  0  0  0  0  0  0  0
    2.9709    4.3880    1.1326 H   0  0  0  0  0  0  0  0  0  0  0  0
    6.0033   -3.4181   -1.0315 H   0  0  0  0  0  0  0  0  0  0  0  0
    7.3470   -2.5549   -0.2915 H   0  0  0  0  0  0  0  0  0  0  0  0
    5.3331   -4.2302    1.3308 H   0  0  0  0  0  0  0  0  0  0  0  0
    6.6960   -3.3157    1.9975 H   0  0  0  0  0  0  0  0  0  0  0  0
    5.0606   -3.0340    2.6097 H   0  0  0  0  0  0  0  0  0  0  0  0
   -3.8026    0.4699    2.4127 H   0  0  0  0  0  0  0  0  0  0  0  0
   -2.0957   -0.0237    2.4593 H   0  0  0  0  0  0  0  0  0  0  0  0
   -2.7247    1.1910    3.5850 H   0  0  0  0  0  0  0  0  0  0  0  0
   -1.5222    3.7133    1.0193 H   0  0  0  0  0  0  0  0  0  0  0  0
    6.8917   -1.6004   -2.4825 H   0  0  0  0  0  0  0  0  0  0  0  0
    5.1950   -1.3123   -2.0853 H   0  0  0  0  0  0  0  0  0  0  0  0
    6.4696   -0.3957   -1.2548 H   0  0  0  0  0  0  0  0  0  0  0  0
   -1.4447    4.1796    3.5570 H   0  0  0  0  0  0  0  0  0  0  0  0
    0.0674    3.5617    2.8726 H   0  0  0  0  0  0  0  0  0  0  0  0
   -0.9715    2.4862    3.8022 H   0  0  0  0  0  0  0  0  0  0  0  0
    3.1471    5.8165   -2.2420 H   0  0  0  0  0  0  0  0  0  0  0  0
  1 17  1  0  0  0  0
  2  9  1  0  0  0  0
  2 20  1  0  0  0  0
  3 13  2  0  0  0  0
  4 20  2  0  0  0  0
  5 22  2  0  0  0  0
  6 34  1  0  0  0  0
  6 65  1  0  0  0  0
  7 34  2  0  0  0  0
  8 16  1  0  0  0  0
  8 18  1  0  0  0  0
  8 21  1  0  0  0  0
  9 10  1  0  0  0  0
  9 13  1  0  0  0  0
  9 15  1  0  0  0  0
 10 11  1  0  0  0  0
 10 14  2  0  0  0  0
 11 12  1  0  0  0  0
 11 16  2  0  0  0  0
 12 17  2  0  0  0  0
 12 19  1  0  0  0  0
 13 17  1  0  0  0  0
 14 20  1  0  0  0  0
 14 22  1  0  0  0  0
 15 36  1  0  0  0  0
 15 37  1  0  0  0  0
 15 38  1  0  0  0  0
 16 39  1  0  0  0  0
 18 19  2  0  0  0  0
 18 24  1  0  0  0  0
 19 40  1  0  0  0  0
 21 23  1  0  0  0  0
 21 41  1  0  0  0  0
 21 42  1  0  0  0  0
 22 28  1  0  0  0  0
 23 27  1  0  0  0  0
 23 43  1  0  0  0  0
 23 44  1  0  0  0  0
 24 26  2  3  0  0  0
 24 45  1  0  0  0  0
 25 26  1  0  0  0  0
 25 29  1  0  0  0  0
 25 30  1  0  0  0  0
 25 46  1  0  0  0  0
 26 47  1  0  0  0  0
 27 34  1  0  0  0  0
 27 48  1  0  0  0  0
 27 49  1  0  0  0  0
 28 31  1  0  0  0  0
 28 32  2  3  0  0  0
 29 33  1  0  0  0  0
 29 50  1  0  0  0  0
 29 51  1  0  0  0  0
 30 52  1  0  0  0  0
 30 53  1  0  0  0  0
 30 54  1  0  0  0  0
 31 55  1  0  0  0  0
 31 56  1  0  0  0  0
 31 57  1  0  0  0  0
 32 35  1  0  0  0  0
 32 58  1  0  0  0  0
 33 59  1  0  0  0  0
 33 60  1  0  0  0  0
 33 61  1  0  0  0  0
 35 62  1  0  0  0  0
 35 63  1  0  0  0  0
 35 64  1  0  0  0  0
M  END
> <PUBCHEM_COMPOUND_CID>
139584675

> <PUBCHEM_CONFORMER_RMSD>
1

> <PUBCHEM_CONFORMER_DIVERSEORDER>
2
104
28
58
97
82
53
84
63
60
36
64
103
95
81
39
91
20
87
89
102
100
92
56
76
77
74
66
47
48
57
69
71
96
23
40
93
42
34
30
15
67
44
78
62
65
33
41
37
55
75
29
54
59
85
83
27
16
49
94
90
21
3
38
98
26
51
22
79
6
13
31
70
12
8
24
61
99
32
80
46
25
5
86
9
18
68
50
88
17
11
4
19
1
10
43
7
73
45
72
52
101
14
35

> <PUBCHEM_MMFF94_PARTIAL_CHARGES>
34
1 -0.14
10 -0.14
13 0.49
14 0.03
16 -0.05
17 0.15
18 0.1
19 -0.15
2 -0.43
20 0.71
21 0.37
22 0.54
24 -0.15
25 0.14
26 -0.29
27 0.06
28 -0.12
3 -0.57
31 0.14
32 -0.29
34 0.66
35 0.14
39 0.15
4 -0.57
40 0.15
45 0.15
47 0.15
5 -0.57
58 0.15
6 -0.65
65 0.5
7 -0.57
8 -0.57
9 0.48

> <PUBCHEM_EFFECTIVE_ROTOR_COUNT>
9.4

> <PUBCHEM_PHARMACOPHORE_FEATURES>
15
1 14 anion
1 3 acceptor
1 30 hydrophobe
1 31 hydrophobe
1 33 hydrophobe
1 35 hydrophobe
1 4 acceptor
1 5 acceptor
1 6 acceptor
1 7 acceptor
1 8 cation
3 6 7 34 anion
5 2 9 10 14 20 rings
6 8 11 12 16 18 19 rings
6 9 10 11 12 13 17 rings

> <PUBCHEM_HEAVY_ATOM_COUNT>
35

> <PUBCHEM_ATOM_DEF_STEREO_COUNT>
2

> <PUBCHEM_ATOM_UDEF_STEREO_COUNT>
0

> <PUBCHEM_BOND_DEF_STEREO_COUNT>
0

> <PUBCHEM_BOND_UDEF_STEREO_COUNT>
2

> <PUBCHEM_ISOTOPIC_ATOM_COUNT>
0

> <PUBCHEM_COMPONENT_COUNT>
1

> <PUBCHEM_CACTVS_TAUTO_COUNT>
-1

> <PUBCHEM_CONFORMER_ID>
0851E4A300000002

> <PUBCHEM_MMFF94_ENERGY>
86.6327

> <PUBCHEM_FEATURE_SELFOVERLAP>
76.312

> <PUBCHEM_SHAPE_FINGERPRINT>
10006869 2 18056222343392885891
10050765 1 18263923418316376607
10290309 65 17473546232119942700
1100329 8 18341048536691595425
11227688 84 17477203199135887782
12128747 34 17489292059305643928
12166972 35 18411693266661702177
12788726 201 18202572769165651771
13009979 54 18201722838367300624
13140716 1 18410013277862600555
13560911 43 18334852805569476113
13761468 95 17834958568865342438
13965767 371 16833208831566498497
140371 6 18343309132577677910
14068700 675 18271794692750968473
14114211 68 17902525005379872797
14117953 113 18124311606503387285
14394314 77 18191576459514854490
14790565 3 18120376445797122158
14955137 171 18119551872010569306
15420108 30 17480867420044425009
17627616 140 18336275642900446724
19319366 153 17691960883792366964
20775438 99 16687901189420279087
21796203 349 17975171718828314824
22311459 1 18337104571635911023
23559900 14 18342165713308817602
3493558 16 18339918333512618776
350125 39 18409165476866088799
460360 51 18334870445559206082
50677037 204 18341057320511892448
57527295 17 17698433670628611135
9981440 41 17686332475317360792

> <PUBCHEM_SHAPE_MULTIPOLES>
681.96
11.16
6.79
1.94
13.53
6.5
0.78
-6.86
-1.72
3.55
-0.19
-0.55
1.1
-3.33

> <PUBCHEM_SHAPE_SELFOVERLAP>
1436.96

> <PUBCHEM_SHAPE_VOLUME>
384.6

> <PUBCHEM_COORDINATE_TYPE>
2
5
10

$$$$
