139591647
  -OEChem-03292013293D

 54 57  0     1  0  0  0  0  0999 V2000
   -1.7090    1.9990   -0.9253 O   0  0  0  0  0  0  0  0  0  0  0  0
    2.7344    1.8614   -0.6460 O   0  0  0  0  0  0  0  0  0  0  0  0
   -4.5719    1.5717    0.1059 O   0  0  0  0  0  0  0  0  0  0  0  0
   -0.5582   -3.0368    1.2545 O   0  0  0  0  0  0  0  0  0  0  0  0
    2.0993   -2.5394    1.4890 O   0  0  0  0  0  0  0  0  0  0  0  0
    0.9183    3.3577    1.0707 O   0  0  0  0  0  0  0  0  0  0  0  0
    4.8640    1.3230   -0.1566 O   0  0  0  0  0  0  0  0  0  0  0  0
    4.1002   -2.7037   -0.1966 N   0  0  0  0  0  0  0  0  0  0  0  0
   -3.5228   -0.4959   -0.6485 C   0  0  2  0  0  0  0  0  0  0  0  0
   -2.5500   -1.3948    0.1581 C   0  0  1  0  0  0  0  0  0  0  0  0
   -2.8655    0.1000   -1.8932 C   0  0  0  0  0  0  0  0  0  0  0  0
   -0.5637   -0.1136   -0.7956 C   0  0  0  0  0  0  0  0  0  0  0  0
   -1.0664   -1.0999   -0.0252 C   0  0  0  0  0  0  0  0  0  0  0  0
    0.9526    0.1526   -0.9461 C   0  0  1  0  0  0  0  0  0  0  0  0
   -1.5127    0.7615   -1.6037 C   0  0  2  0  0  0  0  0  0  0  0  0
   -3.0092   -1.1950    1.6179 C   0  0  0  0  0  0  0  0  0  0  0  0
   -3.9115    0.5734    0.3684 C   0  0  0  0  0  0  0  0  0  0  0  0
   -3.3774    0.2760    1.7406 C   0  0  0  0  0  0  0  0  0  0  0  0
   -4.8018   -1.2535   -1.0329 C   0  0  0  0  0  0  0  0  0  0  0  0
    1.3169    1.5912   -0.4874 C   0  0  1  0  0  0  0  0  0  0  0  0
    1.8205   -0.7731   -0.0983 C   0  0  0  0  0  0  0  0  0  0  0  0
   -0.1391   -2.0377    0.6729 C   0  0  0  0  0  0  0  0  0  0  0  0
    1.3365   -0.0669   -2.4372 C   0  0  0  0  0  0  0  0  0  0  0  0
    1.3134   -1.7556    0.6666 C   0  0  0  0  0  0  0  0  0  0  0  0
    3.2485   -0.4412   -0.1348 C   0  0  0  0  0  0  0  0  0  0  0  0
    0.9474    1.9495    0.9583 C   0  0  0  0  0  0  0  0  0  0  0  0
    3.6959    0.9723   -0.2862 C   0  0  0  0  0  0  0  0  0  0  0  0
    4.2301   -1.3594   -0.1786 C   0  0  0  0  0  0  0  0  0  0  0  0
    0.5813    3.7772    2.3894 C   0  0  0  0  0  0  0  0  0  0  0  0
   -2.7016   -2.4442   -0.1295 H   0  0  0  0  0  0  0  0  0  0  0  0
   -3.5383    0.8375   -2.3498 H   0  0  0  0  0  0  0  0  0  0  0  0
   -2.7121   -0.6969   -2.6336 H   0  0  0  0  0  0  0  0  0  0  0  0
   -1.0753    1.0053   -2.5750 H   0  0  0  0  0  0  0  0  0  0  0  0
   -2.2639   -1.4734    2.3687 H   0  0  0  0  0  0  0  0  0  0  0  0
   -3.8972   -1.8118    1.8072 H   0  0  0  0  0  0  0  0  0  0  0  0
   -2.4989    0.8996    1.9270 H   0  0  0  0  0  0  0  0  0  0  0  0
   -4.1386    0.4406    2.5062 H   0  0  0  0  0  0  0  0  0  0  0  0
   -4.5754   -2.1011   -1.6890 H   0  0  0  0  0  0  0  0  0  0  0  0
   -5.5031   -0.5975   -1.5616 H   0  0  0  0  0  0  0  0  0  0  0  0
   -5.3274   -1.6402   -0.1528 H   0  0  0  0  0  0  0  0  0  0  0  0
    0.8352    2.3111   -1.1606 H   0  0  0  0  0  0  0  0  0  0  0  0
    0.9340    0.7203   -3.0830 H   0  0  0  0  0  0  0  0  0  0  0  0
    2.4179   -0.0637   -2.6117 H   0  0  0  0  0  0  0  0  0  0  0  0
    0.9583   -1.0293   -2.8042 H   0  0  0  0  0  0  0  0  0  0  0  0
    1.6842    1.5514    1.6655 H   0  0  0  0  0  0  0  0  0  0  0  0
   -0.0401    1.5623    1.2255 H   0  0  0  0  0  0  0  0  0  0  0  0
   -2.2789    2.5551   -1.4834 H   0  0  0  0  0  0  0  0  0  0  0  0
    1.5141   -3.1705    1.9422 H   0  0  0  0  0  0  0  0  0  0  0  0
    5.2768   -1.0811   -0.2404 H   0  0  0  0  0  0  0  0  0  0  0  0
    0.5762    4.8702    2.4109 H   0  0  0  0  0  0  0  0  0  0  0  0
    1.3239    3.4161    3.1074 H   0  0  0  0  0  0  0  0  0  0  0  0
   -0.4154    3.4170    2.6623 H   0  0  0  0  0  0  0  0  0  0  0  0
    4.9318   -3.2786   -0.2555 H   0  0  0  0  0  0  0  0  0  0  0  0
    3.1936   -3.1478   -0.2394 H   0  0  0  0  0  0  0  0  0  0  0  0
  1 15  1  0  0  0  0
  1 47  1  0  0  0  0
  2 20  1  0  0  0  0
  2 27  1  0  0  0  0
  3 17  2  0  0  0  0
  4 22  2  0  0  0  0
  5 24  1  0  0  0  0
  5 48  1  0  0  0  0
  6 26  1  0  0  0  0
  6 29  1  0  0  0  0
  7 27  2  0  0  0  0
  8 28  1  0  0  0  0
  8 53  1  0  0  0  0
  8 54  1  0  0  0  0
  9 10  1  0  0  0  0
  9 11  1  0  0  0  0
  9 17  1  0  0  0  0
  9 19  1  0  0  0  0
 10 13  1  0  0  0  0
 10 16  1  0  0  0  0
 10 30  1  0  0  0  0
 11 15  1  0  0  0  0
 11 31  1  0  0  0  0
 11 32  1  0  0  0  0
 12 13  2  0  0  0  0
 12 14  1  0  0  0  0
 12 15  1  0  0  0  0
 13 22  1  0  0  0  0
 14 20  1  0  0  0  0
 14 21  1  0  0  0  0
 14 23  1  0  0  0  0
 15 33  1  0  0  0  0
 16 18  1  0  0  0  0
 16 34  1  0  0  0  0
 16 35  1  0  0  0  0
 17 18  1  0  0  0  0
 18 36  1  0  0  0  0
 18 37  1  0  0  0  0
 19 38  1  0  0  0  0
 19 39  1  0  0  0  0
 19 40  1  0  0  0  0
 20 26  1  0  0  0  0
 20 41  1  0  0  0  0
 21 24  2  0  0  0  0
 21 25  1  0  0  0  0
 22 24  1  0  0  0  0
 23 42  1  0  0  0  0
 23 43  1  0  0  0  0
 23 44  1  0  0  0  0
 25 27  1  0  0  0  0
 25 28  2  0  0  0  0
 26 45  1  0  0  0  0
 26 46  1  0  0  0  0
 28 49  1  0  0  0  0
 29 50  1  0  0  0  0
 29 51  1  0  0  0  0
 29 52  1  0  0  0  0
M  END
> <PUBCHEM_COMPOUND_CID>
139591647

> <PUBCHEM_CONFORMER_RMSD>
0.8

> <PUBCHEM_CONFORMER_DIVERSEORDER>
1
4
3
2

> <PUBCHEM_MMFF94_PARTIAL_CHARGES>
30
1 -0.68
10 0.14
12 -0.28
13 -0.12
14 0.28
15 0.42
17 0.45
18 0.06
2 -0.43
20 0.28
21 -0.14
22 0.54
24 0.09
25 0.01
26 0.28
27 0.71
28 -0.05
29 0.28
3 -0.57
4 -0.57
47 0.4
48 0.45
49 0.15
5 -0.53
53 0.4
54 0.4
6 -0.56
7 -0.57
8 -0.9
9 0.06

> <PUBCHEM_EFFECTIVE_ROTOR_COUNT>
3.2

> <PUBCHEM_PHARMACOPHORE_FEATURES>
13
1 1 acceptor
1 1 donor
1 3 acceptor
1 4 acceptor
1 5 donor
1 6 acceptor
1 7 acceptor
1 8 cation
1 8 donor
5 9 10 16 17 18 rings
6 12 13 14 21 22 24 rings
6 2 14 20 21 25 27 rings
6 9 10 11 12 13 15 rings

> <PUBCHEM_HEAVY_ATOM_COUNT>
29

> <PUBCHEM_ATOM_DEF_STEREO_COUNT>
4

> <PUBCHEM_ATOM_UDEF_STEREO_COUNT>
1

> <PUBCHEM_BOND_DEF_STEREO_COUNT>
1

> <PUBCHEM_BOND_UDEF_STEREO_COUNT>
0

> <PUBCHEM_ISOTOPIC_ATOM_COUNT>
0

> <PUBCHEM_COMPONENT_COUNT>
1

> <PUBCHEM_CACTVS_TAUTO_COUNT>
-1

> <PUBCHEM_CONFORMER_ID>
0851FFDF00000001

> <PUBCHEM_MMFF94_ENERGY>
91.6453

> <PUBCHEM_FEATURE_SELFOVERLAP>
66.274

> <PUBCHEM_SHAPE_FINGERPRINT>
10165383 225 18115598174088876693
10366900 7 18261947552712594533
10863032 1 18339364179150981430
1100329 8 16818255469133426054
11112241 14 17700681029425240856
12403259 226 18409163346451676503
12596599 1 17988096516693692639
12633257 1 18337104687156422912
12788726 201 18057340413553482192
13134695 92 18201712977217347316
13140716 1 17679314215034686266
13224815 77 17822008726860829727
13583140 156 18198625630007426591
13965767 371 16767923228760184617
14223421 5 18040713623817904031
14787075 74 18410290345980871300
14866123 147 17187570438862909634
15209289 33 18334296426979398807
15238133 3 18194702370951639829
16945 1 18113335314813532006
17349148 13 17203607107831866383
19591789 44 18186523206678511826
20600515 1 18264227939897479420
20775438 99 17691367083316900839
21033648 29 18041543841202202725
23559900 14 17968366944558826725
238 59 18046872044406220855
2748010 2 17677043543018839990
3286 77 18341327890033505255
345986 75 18193264205236324786
350125 39 17968664800097660189
35225 105 16468635527750370249
392239 28 18339633448299921640
5104073 3 18187082849395748427
5895379 119 17202780188940760185
6086070 43 18200297854867101749
70251023 43 18198879527347205495
7226269 152 18412828019134705344
9981440 41 17050179266379598697

> <PUBCHEM_SHAPE_MULTIPOLES>
550.74
8
3.28
1.83
0.87
1.77
0.02
-1.19
0.74
-2
-2.24
0.76
0.47
0.02

> <PUBCHEM_SHAPE_SELFOVERLAP>
1207.931

> <PUBCHEM_SHAPE_VOLUME>
293.4

> <PUBCHEM_COORDINATE_TYPE>
2
5
10

$$$$
