139588167
  -OEChem-03292013293D

 43 47  0     1  0  0  0  0  0999 V2000
   -0.6969    0.7001    0.4924 O   0  0  0  0  0  0  0  0  0  0  0  0
    0.1662   -2.0681   -0.0688 O   0  0  0  0  0  0  0  0  0  0  0  0
   -5.3151   -0.1118    1.0366 O   0  0  0  0  0  0  0  0  0  0  0  0
   -2.5013    2.1604   -1.5977 O   0  0  0  0  0  0  0  0  0  0  0  0
   -1.3957   -2.6576    1.4767 O   0  0  0  0  0  0  0  0  0  0  0  0
    3.2878   -2.2499   -1.0811 O   0  0  0  0  0  0  0  0  0  0  0  0
    5.1798    1.4692    1.2098 O   0  0  0  0  0  0  0  0  0  0  0  0
    5.4544   -1.0074    0.0116 O   0  0  0  0  0  0  0  0  0  0  0  0
   -1.3206    0.1688   -0.6908 C   0  0  2  0  0  0  0  0  0  0  0  0
   -2.0322   -1.1794   -0.3065 C   0  0  2  0  0  0  0  0  0  0  0  0
   -0.3384   -0.2220   -1.7637 C   0  0  0  0  0  0  0  0  0  0  0  0
    0.6921   -1.1613   -1.1054 C   0  0  1  0  0  0  0  0  0  0  0  0
   -3.3092   -0.7129    0.2703 C   0  0  0  0  0  0  0  0  0  0  0  0
   -2.5041    1.1311   -0.9466 C   0  0  0  0  0  0  0  0  0  0  0  0
   -3.5941    0.5925   -0.1765 C   0  0  0  0  0  0  0  0  0  0  0  0
   -1.0851   -2.0118    0.4836 C   0  0  0  0  0  0  0  0  0  0  0  0
    1.8512   -0.4118   -0.4692 C   0  0  0  0  0  0  0  0  0  0  0  0
    0.3968    1.5807    0.2669 C   0  0  0  0  0  0  0  0  0  0  0  0
    1.7105    0.8378    0.1740 C   0  0  0  0  0  0  0  0  0  0  0  0
   -4.8247    0.9346    0.2915 C   0  0  0  0  0  0  0  0  0  0  0  0
   -4.3793   -1.1189    1.0115 C   0  0  0  0  0  0  0  0  0  0  0  0
    3.1197   -1.0221   -0.5024 C   0  0  0  0  0  0  0  0  0  0  0  0
    2.8507    1.4571    0.7181 C   0  0  0  0  0  0  0  0  0  0  0  0
   -5.6745    2.1258    0.1869 C   0  0  0  0  0  0  0  0  0  0  0  0
    4.2344   -0.4004    0.0582 C   0  0  0  0  0  0  0  0  0  0  0  0
    4.1008    0.8424    0.6637 C   0  0  0  0  0  0  0  0  0  0  0  0
    5.9269    2.3348    0.3568 C   0  0  0  0  0  0  0  0  0  0  0  0
   -2.2964   -1.7609   -1.2025 H   0  0  0  0  0  0  0  0  0  0  0  0
    0.1418    0.6368   -2.2462 H   0  0  0  0  0  0  0  0  0  0  0  0
   -0.8628   -0.7494   -2.5715 H   0  0  0  0  0  0  0  0  0  0  0  0
    1.0560   -1.7973   -1.9201 H   0  0  0  0  0  0  0  0  0  0  0  0
    0.4234    2.2437    1.1393 H   0  0  0  0  0  0  0  0  0  0  0  0
    0.2376    2.2178   -0.6106 H   0  0  0  0  0  0  0  0  0  0  0  0
   -4.6524   -2.0240    1.5332 H   0  0  0  0  0  0  0  0  0  0  0  0
    2.7610    2.4310    1.1961 H   0  0  0  0  0  0  0  0  0  0  0  0
   -6.6413    1.8707   -0.2578 H   0  0  0  0  0  0  0  0  0  0  0  0
   -5.2072    2.8934   -0.4375 H   0  0  0  0  0  0  0  0  0  0  0  0
   -5.8545    2.5575    1.1763 H   0  0  0  0  0  0  0  0  0  0  0  0
    2.4856   -2.7815   -0.9497 H   0  0  0  0  0  0  0  0  0  0  0  0
    6.0969   -0.4512    0.4848 H   0  0  0  0  0  0  0  0  0  0  0  0
    6.7747    2.7271    0.9250 H   0  0  0  0  0  0  0  0  0  0  0  0
    5.3066    3.1749    0.0287 H   0  0  0  0  0  0  0  0  0  0  0  0
    6.3098    1.7897   -0.5117 H   0  0  0  0  0  0  0  0  0  0  0  0
  1  9  1  0  0  0  0
  1 18  1  0  0  0  0
  2 12  1  0  0  0  0
  2 16  1  0  0  0  0
  3 20  1  0  0  0  0
  3 21  1  0  0  0  0
  4 14  2  0  0  0  0
  5 16  2  0  0  0  0
  6 22  1  0  0  0  0
  6 39  1  0  0  0  0
  7 26  1  0  0  0  0
  7 27  1  0  0  0  0
  8 25  1  0  0  0  0
  8 40  1  0  0  0  0
  9 10  1  0  0  0  0
  9 11  1  0  0  0  0
  9 14  1  0  0  0  0
 10 13  1  0  0  0  0
 10 16  1  0  0  0  0
 10 28  1  0  0  0  0
 11 12  1  0  0  0  0
 11 29  1  0  0  0  0
 11 30  1  0  0  0  0
 12 17  1  0  0  0  0
 12 31  1  0  0  0  0
 13 15  1  0  0  0  0
 13 21  2  0  0  0  0
 14 15  1  0  0  0  0
 15 20  2  0  0  0  0
 17 19  1  0  0  0  0
 17 22  2  0  0  0  0
 18 19  1  0  0  0  0
 18 32  1  0  0  0  0
 18 33  1  0  0  0  0
 19 23  2  0  0  0  0
 20 24  1  0  0  0  0
 21 34  1  0  0  0  0
 22 25  1  0  0  0  0
 23 26  1  0  0  0  0
 23 35  1  0  0  0  0
 24 36  1  0  0  0  0
 24 37  1  0  0  0  0
 24 38  1  0  0  0  0
 25 26  2  0  0  0  0
 27 41  1  0  0  0  0
 27 42  1  0  0  0  0
 27 43  1  0  0  0  0
M  END
> <PUBCHEM_COMPOUND_CID>
139588167

> <PUBCHEM_CONFORMER_RMSD>
0.6

> <PUBCHEM_CONFORMER_DIVERSEORDER>
1
2

> <PUBCHEM_MMFF94_PARTIAL_CHARGES>
30
1 -0.56
10 0.24
12 0.42
13 -0.18
14 0.6
15 -0.09
16 0.66
17 -0.14
18 0.42
19 -0.14
2 -0.43
20 -0.04
21 -0.01
22 0.08
23 -0.15
24 0.18
25 0.08
26 0.08
27 0.28
3 -0.28
34 0.15
35 0.15
39 0.45
4 -0.57
40 0.45
5 -0.57
6 -0.53
7 -0.36
8 -0.53
9 0.34

> <PUBCHEM_EFFECTIVE_ROTOR_COUNT>
1.8

> <PUBCHEM_PHARMACOPHORE_FEATURES>
12
1 1 acceptor
1 3 acceptor
1 4 acceptor
1 5 acceptor
1 6 donor
1 7 acceptor
1 8 donor
5 3 13 15 20 21 rings
5 9 10 13 14 15 rings
6 17 19 22 23 25 26 rings
6 2 9 10 11 12 16 rings
7 1 9 11 12 17 18 19 rings

> <PUBCHEM_HEAVY_ATOM_COUNT>
27

> <PUBCHEM_ATOM_DEF_STEREO_COUNT>
3

> <PUBCHEM_ATOM_UDEF_STEREO_COUNT>
0

> <PUBCHEM_BOND_DEF_STEREO_COUNT>
0

> <PUBCHEM_BOND_UDEF_STEREO_COUNT>
0

> <PUBCHEM_ISOTOPIC_ATOM_COUNT>
0

> <PUBCHEM_COMPONENT_COUNT>
1

> <PUBCHEM_CACTVS_TAUTO_COUNT>
-1

> <PUBCHEM_CONFORMER_ID>
0851F24700000001

> <PUBCHEM_MMFF94_ENERGY>
116.1433

> <PUBCHEM_FEATURE_SELFOVERLAP>
61.953

> <PUBCHEM_SHAPE_FINGERPRINT>
10 15 18261105327228010352
10319926 262 18260537914850911522
10906281 52 18201173108286448824
11045977 3 18411142419894348931
11112241 14 17344890022732200672
12035758 1 18334585680489860777
12166972 35 12607403325166640696
12236239 1 15841548552735294303
12403259 415 18335983069089335796
12633257 1 18187639275425916800
12788726 201 16702032954314395008
13140716 1 18046348805746687521
13402501 40 18411419518288809616
13583140 156 16733803372584028636
13675066 3 18410016533030670351
14341114 176 18408889537844045528
14787075 74 18341607152827887959
15196674 1 18342455967341157942
15238133 3 18335147509404446732
16945 1 17967811673796239119
1813 80 16660645171722503662
19784866 170 18341332305492065152
21033648 29 18335406946550715381
21033650 10 13542200384503518338
21279426 13 18195813964079332895
21637258 2 14418411148164855137
22122407 14 17274835666008016217
22182313 1 18335979757722187869
23379529 103 9726188055204418829
23559900 14 18263097551712882910
2838139 119 17632291246783858841
296302 2 17775850120535391207
335352 9 18272368647085861734
34934 24 18273209824677800118
350125 39 18342460310165140908
4340502 62 18334858298758755362
5104073 3 18337114479908594539
5265222 85 18188789326641130270
633830 44 18342170021371973359

> <PUBCHEM_SHAPE_MULTIPOLES>
508.69
11.97
2.45
1.2
3.75
0.2
0.21
-5.81
-3.3
0.39
-0.21
-0.34
0.11
1.63

> <PUBCHEM_SHAPE_SELFOVERLAP>
1156.103

> <PUBCHEM_SHAPE_VOLUME>
265.6

> <PUBCHEM_COORDINATE_TYPE>
2
5
10

$$$$
