139588335
  -OEChem-03292013293D

 46 46  0     1  0  0  0  0  0999 V2000
   -1.3244    1.1327   -0.1271 O   0  0  0  0  0  0  0  0  0  0  0  0
    2.2443   -0.1260   -0.3202 O   0  0  0  0  0  0  0  0  0  0  0  0
   -2.3767   -1.4646    0.4772 O   0  0  0  0  0  0  0  0  0  0  0  0
    1.0859    3.3958    1.4470 O   0  0  0  0  0  0  0  0  0  0  0  0
    1.5275   -2.8043   -0.9623 O   0  0  0  0  0  0  0  0  0  0  0  0
   -3.3533    2.1465   -0.5729 O   0  0  0  0  0  0  0  0  0  0  0  0
    4.1103    0.7428   -1.3631 O   0  0  0  0  0  0  0  0  0  0  0  0
   -1.0240   -2.6680   -0.9500 O   0  0  0  0  0  0  0  0  0  0  0  0
   -0.8866    2.2317    0.6995 C   0  0  2  0  0  0  0  0  0  0  0  0
    0.6505    2.3021    0.6386 C   0  0  1  0  0  0  0  0  0  0  0  0
   -3.3458   -1.1955   -0.5580 C   0  0  2  0  0  0  0  0  0  0  0  0
    2.9927   -1.2686    0.1641 C   0  0  2  0  0  0  0  0  0  0  0  0
   -2.8673   -0.0493   -1.4551 C   0  0  0  0  0  0  0  0  0  0  0  0
    2.0326   -2.4660    0.3217 C   0  0  1  0  0  0  0  0  0  0  0  0
   -1.3805    1.9840    2.1251 C   0  0  0  0  0  0  0  0  0  0  0  0
   -2.5676    1.2147   -0.6830 C   0  0  0  0  0  0  0  0  0  0  0  0
    1.1231    2.5469   -0.7695 C   0  0  0  0  0  0  0  0  0  0  0  0
   -4.6699   -0.8814    0.1299 C   0  0  0  0  0  0  0  0  0  0  0  0
    3.7072   -0.8884    1.4586 C   0  0  0  0  0  0  0  0  0  0  0  0
    0.9583   -2.2780    1.3652 C   0  0  0  0  0  0  0  0  0  0  0  0
    2.0662    1.9100   -1.4776 C   0  0  0  0  0  0  0  0  0  0  0  0
   -0.3759   -2.1579    1.3181 C   0  0  0  0  0  0  0  0  0  0  0  0
    2.9318    0.7993   -1.0368 C   0  0  0  0  0  0  0  0  0  0  0  0
   -1.2582   -2.1585    0.1308 C   0  0  0  0  0  0  0  0  0  0  0  0
   -1.3116    3.1784    0.3396 H   0  0  0  0  0  0  0  0  0  0  0  0
    1.0740    1.3894    1.0636 H   0  0  0  0  0  0  0  0  0  0  0  0
   -3.4862   -2.0986   -1.1653 H   0  0  0  0  0  0  0  0  0  0  0  0
    3.7407   -1.5433   -0.5917 H   0  0  0  0  0  0  0  0  0  0  0  0
   -3.6193    0.1851   -2.2175 H   0  0  0  0  0  0  0  0  0  0  0  0
   -1.9573   -0.3288   -1.9994 H   0  0  0  0  0  0  0  0  0  0  0  0
    2.6221   -3.3333    0.6467 H   0  0  0  0  0  0  0  0  0  0  0  0
   -0.9858    1.0392    2.5150 H   0  0  0  0  0  0  0  0  0  0  0  0
   -2.4721    1.8987    2.1472 H   0  0  0  0  0  0  0  0  0  0  0  0
   -1.0872    2.7928    2.8007 H   0  0  0  0  0  0  0  0  0  0  0  0
    0.6409    3.3872   -1.2704 H   0  0  0  0  0  0  0  0  0  0  0  0
   -4.5689   -0.0508    0.8364 H   0  0  0  0  0  0  0  0  0  0  0  0
   -5.0026   -1.7449    0.7165 H   0  0  0  0  0  0  0  0  0  0  0  0
   -5.4490   -0.6363   -0.5981 H   0  0  0  0  0  0  0  0  0  0  0  0
    3.0138   -0.4585    2.1890 H   0  0  0  0  0  0  0  0  0  0  0  0
    4.4625   -0.1187    1.2675 H   0  0  0  0  0  0  0  0  0  0  0  0
    4.2081   -1.7528    1.9046 H   0  0  0  0  0  0  0  0  0  0  0  0
    1.3693   -2.2377    2.3762 H   0  0  0  0  0  0  0  0  0  0  0  0
    2.3028    2.2922   -2.4683 H   0  0  0  0  0  0  0  0  0  0  0  0
   -0.8895   -2.0107    2.2676 H   0  0  0  0  0  0  0  0  0  0  0  0
    2.0587    3.3972    1.4407 H   0  0  0  0  0  0  0  0  0  0  0  0
    2.2843   -3.0143   -1.5356 H   0  0  0  0  0  0  0  0  0  0  0  0
  1  9  1  0  0  0  0
  1 16  1  0  0  0  0
  2 12  1  0  0  0  0
  2 23  1  0  0  0  0
  3 11  1  0  0  0  0
  3 24  1  0  0  0  0
  4 10  1  0  0  0  0
  4 45  1  0  0  0  0
  5 14  1  0  0  0  0
  5 46  1  0  0  0  0
  6 16  2  0  0  0  0
  7 23  2  0  0  0  0
  8 24  2  0  0  0  0
  9 10  1  0  0  0  0
  9 15  1  0  0  0  0
  9 25  1  0  0  0  0
 10 17  1  0  0  0  0
 10 26  1  0  0  0  0
 11 13  1  0  0  0  0
 11 18  1  0  0  0  0
 11 27  1  0  0  0  0
 12 14  1  0  0  0  0
 12 19  1  0  0  0  0
 12 28  1  0  0  0  0
 13 16  1  0  0  0  0
 13 29  1  0  0  0  0
 13 30  1  0  0  0  0
 14 20  1  0  0  0  0
 14 31  1  0  0  0  0
 15 32  1  0  0  0  0
 15 33  1  0  0  0  0
 15 34  1  0  0  0  0
 17 21  2  0  0  0  0
 17 35  1  0  0  0  0
 18 36  1  0  0  0  0
 18 37  1  0  0  0  0
 18 38  1  0  0  0  0
 19 39  1  0  0  0  0
 19 40  1  0  0  0  0
 19 41  1  0  0  0  0
 20 22  2  0  0  0  0
 20 42  1  0  0  0  0
 21 23  1  0  0  0  0
 21 43  1  0  0  0  0
 22 24  1  0  0  0  0
 22 44  1  0  0  0  0
M  END
> <PUBCHEM_COMPOUND_CID>
139588335

> <PUBCHEM_CONFORMER_RMSD>
0.6

> <PUBCHEM_CONFORMER_DIVERSEORDER>
2
13
16
7
5
15
11
4
6
8
9
1
14
10
12
3

> <PUBCHEM_MMFF94_PARTIAL_CHARGES>
27
1 -0.43
10 0.42
11 0.28
12 0.28
13 0.06
14 0.42
16 0.66
17 -0.29
2 -0.43
20 -0.29
21 -0.14
22 -0.14
23 0.71
24 0.71
3 -0.43
35 0.15
4 -0.68
42 0.15
43 0.15
44 0.15
45 0.4
46 0.4
5 -0.68
6 -0.57
7 -0.57
8 -0.57
9 0.28

> <PUBCHEM_EFFECTIVE_ROTOR_COUNT>
1.8

> <PUBCHEM_PHARMACOPHORE_FEATURES>
7
1 4 acceptor
1 4 donor
1 5 acceptor
1 5 donor
1 6 acceptor
1 7 acceptor
1 8 acceptor

> <PUBCHEM_HEAVY_ATOM_COUNT>
24

> <PUBCHEM_ATOM_DEF_STEREO_COUNT>
5

> <PUBCHEM_ATOM_UDEF_STEREO_COUNT>
0

> <PUBCHEM_BOND_DEF_STEREO_COUNT>
2

> <PUBCHEM_BOND_UDEF_STEREO_COUNT>
0

> <PUBCHEM_ISOTOPIC_ATOM_COUNT>
0

> <PUBCHEM_COMPONENT_COUNT>
1

> <PUBCHEM_CACTVS_TAUTO_COUNT>
-1

> <PUBCHEM_CONFORMER_ID>
0851F2EF00000002

> <PUBCHEM_MMFF94_ENERGY>
52.1573

> <PUBCHEM_FEATURE_SELFOVERLAP>
35.539

> <PUBCHEM_SHAPE_FINGERPRINT>
10759866 29 17822295751251583718
11370993 70 18042681887160332108
12156800 1 14824235581101973474
12553582 1 18342741818710390037
12596599 1 18053951645121827950
12788726 201 18058750047231299673
13140716 1 18122338249097221939
14114207 22 16168540068325453329
14251740 79 17831050135910204068
14251745 187 17833272304063751988
14787075 74 18041842934546555675
14931854 50 18408045129945791774
17093844 170 18046621493178541261
17492 54 18187085074194062716
18336668 15 18113888348019470776
20691752 17 17753875418798118679
20715895 44 17539388948161236421
20775438 99 17336153423318350639
20905425 154 18193837278190350319
23557571 272 18201991093176594498
238 59 18188211012850530177
27425 322 15864072096339785469
2803657 2 18337405889081304776
2818148 4 17763227632385695015
3524813 1 17543643379360243118
6287921 2 17840881671884088831

> <PUBCHEM_SHAPE_MULTIPOLES>
446.95
6.42
4.12
1.62
1.71
0.4
-0.38
-0.97
1.48
-0.74
-0.77
-0.41
0.54
-0.84

> <PUBCHEM_SHAPE_SELFOVERLAP>
897.952

> <PUBCHEM_SHAPE_VOLUME>
257.9

> <PUBCHEM_COORDINATE_TYPE>
2
5
10

$$$$
