REMARK  Name = 139589590
REMARK  3 active torsions:
REMARK  status: ('A' for Active; 'I' for Inactive)
REMARK    1  A    between atoms: C_13  and  O_22
REMARK    2  A    between atoms: C_15  and  O_24
REMARK    3  A    between atoms: C_20  and  O_26
REMARK                            x       y       z     vdW  Elec       q    Type
REMARK                         _______ _______ _______ _____ _____    ______ ____
ROOT
ATOM      1  O   UNL     1       2.925  -1.432   0.738  0.00  0.00    -0.350 OA
ATOM      2  O   UNL     1       3.352   1.304  -0.493  0.00  0.00    -0.446 OA
ATOM      3  O   UNL     1       2.152   3.112   0.124  0.00  0.00    -0.245 OA
ATOM      4  O   UNL     1      -2.516  -2.512  -0.040  0.00  0.00    -0.283 OA
ATOM      5  O   UNL     1      -2.838   2.802   0.420  0.00  0.00    -0.286 OA
ATOM      6  C   UNL     1       3.395  -0.009  -1.093  0.00  0.00    +0.203 C 
ATOM      7  C   UNL     1       2.375  -0.960  -0.503  0.00  0.00    +0.180 C 
ATOM      8  C   UNL     1       4.689  -0.662  -0.655  0.00  0.00    +0.076 C 
ATOM      9  C   UNL     1       4.333  -1.137   0.750  0.00  0.00    +0.119 C 
ATOM     10  C   UNL     1       1.056  -0.300  -0.288  0.00  0.00    +0.051 A 
ATOM     11  C   UNL     1       0.971   1.088  -0.157  0.00  0.00    +0.111 A 
ATOM     12  C   UNL     1       5.110  -2.364   1.185  0.00  0.00    +0.032 C 
ATOM     13  C   UNL     1      -0.113  -1.071  -0.206  0.00  0.00    +0.136 A 
ATOM     14  C   UNL     1       2.190   1.925  -0.173  0.00  0.00    +0.344 C 
ATOM     15  C   UNL     1      -0.273   1.703   0.039  0.00  0.00    +0.143 A 
ATOM     16  C   UNL     1      -1.356  -0.460  -0.012  0.00  0.00    +0.081 A 
ATOM     17  C   UNL     1      -1.435   0.927   0.108  0.00  0.00    +0.079 A 
ATOM     18  C   UNL     1      -2.574  -1.292   0.064  0.00  0.00    +0.232 C 
ATOM     19  C   UNL     1      -2.739   1.586   0.312  0.00  0.00    +0.202 C 
ATOM     20  C   UNL     1      -3.871  -0.605   0.271  0.00  0.00    +0.181 C 
ATOM     21  C   UNL     1      -3.939   0.726   0.384  0.00  0.00    +0.082 C 
ENDROOT
BRANCH  13  22
ATOM     22  O   UNL     1       0.000  -2.429  -0.315  0.00  0.00    -0.506 OA
ATOM     23  H   UNL     1       0.841  -2.821  -0.445  0.00  0.00    +0.292 HD
ENDBRANCH  13  22
BRANCH  15  24
ATOM     24  O   UNL     1      -0.353   3.062   0.150  0.00  0.00    -0.505 OA
ATOM     25  H   UNL     1       0.424   3.583   0.104  0.00  0.00    +0.292 HD
ENDBRANCH  15  24
BRANCH  20  26
ATOM     26  O   UNL     1      -4.991  -1.408   0.337  0.00  0.00    -0.468 OA
ATOM     27  C   UNL     1      -5.550  -1.596  -0.948  0.00  0.00    +0.253 C 
ENDBRANCH  20  26
TORSDOF 3
