REMARK  Name = 139586110
REMARK  3 active torsions:
REMARK  status: ('A' for Active; 'I' for Inactive)
REMARK    1  A    between atoms: C_9  and  O_24
REMARK    2  A    between atoms: C_12  and  O_26
REMARK    3  A    between atoms: C_18  and  O_28
REMARK                            x       y       z     vdW  Elec       q    Type
REMARK                         _______ _______ _______ _____ _____    ______ ____
ROOT
ATOM      1  O   UNL     1      -0.752  -0.398   1.352  0.00  0.00    -0.350 OA
ATOM      2  O   UNL     1      -0.834  -0.599  -2.214  0.00  0.00    -0.450 OA
ATOM      3  O   UNL     1       1.845   2.001  -1.594  0.00  0.00    -0.296 OA
ATOM      4  O   UNL     1       0.966  -1.877  -2.849  0.00  0.00    -0.245 OA
ATOM      5  C   UNL     1      -1.443  -0.365  -0.952  0.00  0.00    +0.167 C 
ATOM      6  C   UNL     1      -0.284  -0.135   0.027  0.00  0.00    +0.162 C 
ATOM      7  C   UNL     1      -2.141   0.990  -0.772  0.00  0.00    +0.096 C 
ATOM      8  C   UNL     1       0.105   1.371  -0.042  0.00  0.00    +0.117 C 
ATOM      9  C   UNL     1      -0.960   1.962  -0.970  0.00  0.00    +0.126 C 
ATOM     10  C   UNL     1      -2.194  -0.266   1.462  0.00  0.00    +0.142 C 
ATOM     11  C   UNL     1      -2.360  -1.564  -0.623  0.00  0.00    +0.046 C 
ATOM     12  C   UNL     1      -2.748   0.960   0.669  0.00  0.00    +0.143 C 
ATOM     13  C   UNL     1      -2.794  -1.534   0.844  0.00  0.00    +0.033 C 
ATOM     14  C   UNL     1       0.725  -1.065  -0.560  0.00  0.00    +0.111 C 
ATOM     15  C   UNL     1       1.554   1.614  -0.461  0.00  0.00    +0.155 C 
ATOM     16  C   UNL     1       0.337  -1.280  -1.994  0.00  0.00    +0.342 C 
ATOM     17  C   UNL     1      -2.357  -2.800   1.581  0.00  0.00    +0.003 C 
ATOM     18  C   UNL     1       1.884  -1.524  -0.060  0.00  0.00    +0.115 C 
ATOM     19  C   UNL     1       2.654   1.425   0.595  0.00  0.00    +0.058 C 
ATOM     20  C   UNL     1       2.518  -1.104   1.254  0.00  0.00    +0.057 C 
ATOM     21  C   UNL     1       2.362   0.375   1.689  0.00  0.00    +0.015 C 
ATOM     22  C   UNL     1       2.904   2.793   1.234  0.00  0.00    +0.008 C 
ATOM     23  C   UNL     1       2.086  -2.047   2.381  0.00  0.00    +0.008 C 
ENDROOT
BRANCH   9  24
ATOM     24  O   UNL     1      -1.266   3.301  -0.632  0.00  0.00    -0.384 OA
ATOM     25  H   UNL     1      -1.942   3.641  -1.239  0.00  0.00    +0.210 HD
ENDBRANCH   9  24
BRANCH  12  26
ATOM     26  O   UNL     1      -2.513   2.154   1.399  0.00  0.00    -0.382 OA
ATOM     27  H   UNL     1      -2.860   2.911   0.902  0.00  0.00    +0.210 HD
ENDBRANCH  12  26
BRANCH  18  28
ATOM     28  O   UNL     1       2.709  -2.389  -0.764  0.00  0.00    -0.510 OA
ATOM     29  H   UNL     1       2.436  -2.724  -1.595  0.00  0.00    +0.292 HD
ENDBRANCH  18  28
TORSDOF 3
