REMARK  Name = 139584361
REMARK  3 active torsions:
REMARK  status: ('A' for Active; 'I' for Inactive)
REMARK    1  A    between atoms: C_5  and  O_23
REMARK    2  A    between atoms: C_20  and  O_25
REMARK    3  A    between atoms: C_21  and  O_27
REMARK                            x       y       z     vdW  Elec       q    Type
REMARK                         _______ _______ _______ _____ _____    ______ ____
ROOT
ATOM      1 CL   UNL     1      -3.212   3.035  -0.392  0.00  0.00    -0.079 Cl
ATOM      2  O   UNL     1       1.732   1.428  -0.306  0.00  0.00    -0.450 OA
ATOM      3  O   UNL     1       0.290   1.668   1.479  0.00  0.00    -0.250 OA
ATOM      4  O   UNL     1      -0.041  -1.748  -1.581  0.00  0.00    -0.287 OA
ATOM      5  C   UNL     1       3.829   0.221  -0.326  0.00  0.00    +0.125 C 
ATOM      6  C   UNL     1       2.861   1.084   0.532  0.00  0.00    +0.193 C 
ATOM      7  C   UNL     1       3.115  -0.890  -1.146  0.00  0.00    +0.035 C 
ATOM      8  C   UNL     1       2.638  -2.158  -0.428  0.00  0.00    +0.028 C 
ATOM      9  C   UNL     1       4.973  -0.350   0.520  0.00  0.00    +0.033 C 
ATOM     10  C   UNL     1       3.475   2.385   1.053  0.00  0.00    +0.050 C 
ATOM     11  C   UNL     1       1.717  -1.999   0.745  0.00  0.00    -0.027 C 
ATOM     12  C   UNL     1       0.403  -1.706   0.793  0.00  0.00    +0.013 C 
ATOM     13  C   UNL     1      -0.549   1.563  -0.792  0.00  0.00    +0.137 C 
ATOM     14  C   UNL     1       0.511   1.572   0.280  0.00  0.00    +0.321 C 
ATOM     15  C   UNL     1      -1.739   0.702  -0.445  0.00  0.00    +0.008 C 
ATOM     16  C   UNL     1      -1.662  -0.697  -0.304  0.00  0.00    +0.070 C 
ATOM     17  C   UNL     1      -0.383  -1.417  -0.453  0.00  0.00    +0.194 C 
ATOM     18  C   UNL     1      -0.303  -1.658   2.123  0.00  0.00    +0.034 C 
ATOM     19  C   UNL     1      -2.993   1.311  -0.284  0.00  0.00    +0.088 C 
ATOM     20  C   UNL     1      -2.806  -1.464  -0.052  0.00  0.00    +0.139 C 
ATOM     21  C   UNL     1      -4.132   0.550  -0.010  0.00  0.00    +0.147 C 
ATOM     22  C   UNL     1      -4.039  -0.836   0.100  0.00  0.00    +0.074 C 
ENDROOT
BRANCH   5  23
ATOM     23  O   UNL     1       4.421   1.103  -1.299  0.00  0.00    -0.383 OA
ATOM     24  H   UNL     1       3.725   1.484  -1.856  0.00  0.00    +0.210 HD
ENDBRANCH   5  23
BRANCH  20  25
ATOM     25  O   UNL     1      -2.747  -2.823   0.040  0.00  0.00    -0.505 OA
ATOM     26  H   UNL     1      -1.926  -3.264  -0.060  0.00  0.00    +0.292 HD
ENDBRANCH  20  25
BRANCH  21  27
ATOM     27  O   UNL     1      -5.359   1.126   0.151  0.00  0.00    -0.505 OA
ATOM     28  H   UNL     1      -5.452   2.055   0.083  0.00  0.00    +0.292 HD
ENDBRANCH  21  27
TORSDOF 3
