REMARK  Name = 139585133
REMARK  2 active torsions:
REMARK  status: ('A' for Active; 'I' for Inactive)
REMARK    1  A    between atoms: C_11  and  C_31
REMARK    2  A    between atoms: C_12  and  O_34
REMARK                            x       y       z     vdW  Elec       q    Type
REMARK                         _______ _______ _______ _____ _____    ______ ____
ROOT
ATOM      1  S   UNL     1      -2.361  -2.105   2.380  0.00  0.00    -0.080 S 
ATOM      2  S   UNL     1      -3.633  -0.682   3.149  0.00  0.00    -0.082 S 
ATOM      3  O   UNL     1      -0.348   2.001  -0.590  0.00  0.00    -0.447 OA
ATOM      4  O   UNL     1       2.338  -1.463   2.565  0.00  0.00    -0.273 OA
ATOM      5  O   UNL     1       0.014   4.279  -0.388  0.00  0.00    -0.250 OA
ATOM      6  O   UNL     1       0.863  -3.777  -0.695  0.00  0.00    -0.273 OA
ATOM      7  O   UNL     1      -2.618  -0.694  -1.895  0.00  0.00    -0.275 OA
ATOM      8  N   UNL     1       1.820  -0.217   0.683  0.00  0.00    -0.302 N 
ATOM      9  N   UNL     1      -0.162  -1.848   0.057  0.00  0.00    -0.296 N 
ATOM     10  N   UNL     1      -0.396  -0.945  -2.534  0.00  0.00    -0.298 N 
ATOM     11  C   UNL     1       2.961   0.691   0.701  0.00  0.00    +0.099 C 
ATOM     12  C   UNL     1       2.563   2.032   0.054  0.00  0.00    +0.139 C 
ATOM     13  C   UNL     1       1.414   2.720   0.805  0.00  0.00    +0.140 C 
ATOM     14  C   UNL     1       0.252  -1.929   1.453  0.00  0.00    +0.160 C 
ATOM     15  C   UNL     1       1.604  -1.225   1.606  0.00  0.00    +0.241 C 
ATOM     16  C   UNL     1       0.295   3.116  -0.129  0.00  0.00    +0.320 C 
ATOM     17  C   UNL     1      -0.762  -1.232   2.365  0.00  0.00    +0.098 C 
ATOM     18  C   UNL     1      -1.521   2.189  -1.413  0.00  0.00    +0.200 C 
ATOM     19  C   UNL     1      -0.209  -2.384  -2.333  0.00  0.00    +0.149 C 
ATOM     20  C   UNL     1      -1.418   1.258  -2.632  0.00  0.00    +0.133 C 
ATOM     21  C   UNL     1       0.255  -2.730  -0.919  0.00  0.00    +0.241 C 
ATOM     22  C   UNL     1      -1.559  -0.225  -2.307  0.00  0.00    +0.227 C 
ATOM     23  C   UNL     1      -2.793   1.990  -0.624  0.00  0.00    +0.013 C 
ATOM     24  C   UNL     1      -1.407  -3.240  -2.726  0.00  0.00    +0.031 C 
ATOM     25  C   UNL     1      -2.885   1.660   0.675  0.00  0.00    -0.026 C 
ATOM     26  C   UNL     1      -4.191   1.442   1.383  0.00  0.00    +0.038 C 
ATOM     27  C   UNL     1      -4.485  -0.032   1.667  0.00  0.00    +0.073 C 
ATOM     28  H   UNL     1       1.156  -0.105  -0.036  0.00  0.00    +0.150 HD
ATOM     29  H   UNL     1      -0.774  -1.123  -0.203  0.00  0.00    +0.150 HD
ATOM     30  H   UNL     1       0.382  -0.439  -2.862  0.00  0.00    +0.150 HD
ENDROOT
BRANCH  11  31
ATOM     31  C   UNL     1       4.146   0.042  -0.017  0.00  0.00    +0.020 C 
ATOM     32  C   UNL     1       3.684  -0.641  -1.301  0.00  0.00    +0.002 C 
ATOM     33  C   UNL     1       4.846  -0.955   0.903  0.00  0.00    +0.002 C 
ENDBRANCH  11  31
BRANCH  12  34
ATOM     34  O   UNL     1       3.693   2.905   0.055  0.00  0.00    -0.382 OA
ATOM     35  H   UNL     1       4.428   2.483  -0.417  0.00  0.00    +0.210 HD
ENDBRANCH  12  34
TORSDOF 2
