REMARK  Name = 139589132
REMARK  2 active torsions:
REMARK  status: ('A' for Active; 'I' for Inactive)
REMARK    1  A    between atoms: C_19  and  O_27
REMARK    2  A    between atoms: C_20  and  O_29
REMARK                            x       y       z     vdW  Elec       q    Type
REMARK                         _______ _______ _______ _____ _____    ______ ____
ROOT
ATOM      1  S   UNL     1      -0.876  -2.789   1.139  0.00  0.00    -0.054 S 
ATOM      2  S   UNL     1       0.875  -3.029   0.064  0.00  0.00    -0.054 S 
ATOM      3  O   UNL     1      -0.011  -0.835  -2.570  0.00  0.00    -0.272 OA
ATOM      4  O   UNL     1       0.005   0.316   2.571  0.00  0.00    -0.272 OA
ATOM      5  O   UNL     1      -5.537  -0.057   1.075  0.00  0.00    -0.291 OA
ATOM      6  O   UNL     1       5.601  -0.654  -0.883  0.00  0.00    -0.291 OA
ATOM      7  N   UNL     1      -1.162  -0.674  -0.550  0.00  0.00    -0.263 N 
ATOM      8  N   UNL     1       1.155  -0.385   0.667  0.00  0.00    -0.263 N 
ATOM      9  C   UNL     1      -1.155  -0.995   0.883  0.00  0.00    +0.178 C 
ATOM     10  C   UNL     1       1.149  -1.298  -0.483  0.00  0.00    +0.178 C 
ATOM     11  C   UNL     1      -2.474  -0.247  -1.024  0.00  0.00    +0.115 C 
ATOM     12  C   UNL     1       2.466   0.227   0.897  0.00  0.00    +0.115 C 
ATOM     13  C   UNL     1      -3.409  -0.629   0.130  0.00  0.00    +0.086 C 
ATOM     14  C   UNL     1       3.397  -0.652   0.052  0.00  0.00    +0.086 C 
ATOM     15  C   UNL     1      -2.525  -0.525   1.378  0.00  0.00    +0.048 C 
ATOM     16  C   UNL     1       2.519  -1.090  -1.127  0.00  0.00    +0.048 C 
ATOM     17  C   UNL     1      -0.037  -0.879  -1.345  0.00  0.00    +0.253 C 
ATOM     18  C   UNL     1       0.031  -0.243   1.479  0.00  0.00    +0.253 C 
ATOM     19  C   UNL     1      -2.492   1.244  -1.392  0.00  0.00    +0.151 C 
ATOM     20  C   UNL     1       2.445   1.704   0.473  0.00  0.00    +0.151 C 
ATOM     21  C   UNL     1      -4.681   0.189   0.226  0.00  0.00    +0.174 C 
ATOM     22  C   UNL     1       4.682   0.007  -0.400  0.00  0.00    +0.174 C 
ATOM     23  C   UNL     1      -3.888   1.780  -1.452  0.00  0.00    +0.007 C 
ATOM     24  C   UNL     1       3.791   2.230   0.089  0.00  0.00    +0.007 C 
ATOM     25  C   UNL     1      -4.903   1.301  -0.727  0.00  0.00    +0.035 C 
ATOM     26  C   UNL     1       4.823   1.474  -0.293  0.00  0.00    +0.035 C 
ENDROOT
BRANCH  19  27
ATOM     27  O   UNL     1      -1.762   2.020  -0.443  0.00  0.00    -0.378 OA
ATOM     28  H   UNL     1      -0.852   1.690  -0.387  0.00  0.00    +0.211 HD
ENDBRANCH  19  27
BRANCH  20  29
ATOM     29  O   UNL     1       1.974   2.492   1.568  0.00  0.00    -0.378 OA
ATOM     30  H   UNL     1       1.099   2.175   1.842  0.00  0.00    +0.211 HD
ENDBRANCH  20  29
TORSDOF 2
