REMARK  Name = 139583961
REMARK  6 active torsions:
REMARK  status: ('A' for Active; 'I' for Inactive)
REMARK    1  A    between atoms: C_5  and  O_17
REMARK    2  A    between atoms: C_7  and  O_19
REMARK    3  A    between atoms: C_8  and  O_21
REMARK    4  A    between atoms: C_13  and  O_23
REMARK    5  A    between atoms: C_14  and  O_25
REMARK    6  A    between atoms: C_15  and  O_27
REMARK                            x       y       z     vdW  Elec       q    Type
REMARK                         _______ _______ _______ _____ _____    ______ ____
ROOT
ATOM      1  O   UNL     1      -0.803   2.627  -0.480  0.00  0.00    -0.291 OA
ATOM      2  C   UNL     1      -1.277  -0.965  -0.908  0.00  0.00    +0.041 C 
ATOM      3  C   UNL     1      -1.526   0.494  -1.313  0.00  0.00    +0.067 C 
ATOM      4  C   UNL     1      -1.683  -1.242   0.560  0.00  0.00    +0.033 C 
ATOM      5  C   UNL     1      -3.136  -0.824   0.855  0.00  0.00    +0.113 C 
ATOM      6  C   UNL     1      -2.968   0.913  -1.000  0.00  0.00    +0.039 C 
ATOM      7  C   UNL     1      -3.354   0.648   0.459  0.00  0.00    +0.135 C 
ATOM      8  C   UNL     1       0.177  -1.357  -1.225  0.00  0.00    +0.136 C 
ATOM      9  C   UNL     1      -0.517   1.448  -0.676  0.00  0.00    +0.176 C 
ATOM     10  C   UNL     1       1.179  -0.405  -0.618  0.00  0.00    +0.047 C 
ATOM     11  C   UNL     1       0.843   0.934  -0.365  0.00  0.00    +0.070 C 
ATOM     12  C   UNL     1      -3.467  -1.082   2.328  0.00  0.00    +0.032 C 
ATOM     13  C   UNL     1       2.492  -0.827  -0.351  0.00  0.00    +0.166 C 
ATOM     14  C   UNL     1       1.790   1.814   0.181  0.00  0.00    +0.139 C 
ATOM     15  C   UNL     1       3.433   0.050   0.190  0.00  0.00    +0.175 C 
ATOM     16  C   UNL     1       3.080   1.368   0.460  0.00  0.00    +0.077 C 
ENDROOT
BRANCH   5  17
ATOM     17  O   UNL     1      -3.996  -1.659   0.071  0.00  0.00    -0.384 OA
ATOM     18  H   UNL     1      -3.811  -1.519  -0.871  0.00  0.00    +0.210 HD
ENDBRANCH   5  17
BRANCH   7  19
ATOM     19  O   UNL     1      -4.722   1.021   0.617  0.00  0.00    -0.382 OA
ATOM     20  H   UNL     1      -4.996   0.865   1.534  0.00  0.00    +0.210 HD
ENDBRANCH   7  19
BRANCH   8  21
ATOM     21  O   UNL     1       0.377  -2.704  -0.800  0.00  0.00    -0.380 OA
ATOM     22  H   UNL     1      -0.288  -3.276  -1.214  0.00  0.00    +0.211 HD
ENDBRANCH   8  21
BRANCH  13  23
ATOM     23  O   UNL     1       2.905  -2.097  -0.643  0.00  0.00    -0.503 OA
ATOM     24  H   UNL     1       2.300  -2.714  -1.008  0.00  0.00    +0.292 HD
ENDBRANCH  13  23
BRANCH  14  25
ATOM     25  O   UNL     1       1.516   3.120   0.462  0.00  0.00    -0.505 OA
ATOM     26  H   UNL     1       0.662   3.467   0.292  0.00  0.00    +0.292 HD
ENDBRANCH  14  25
BRANCH  15  27
ATOM     27  O   UNL     1       4.704  -0.367   0.451  0.00  0.00    -0.468 OA
ATOM     28  C   UNL     1       4.955  -0.908   1.746  0.00  0.00    +0.253 C 
ENDBRANCH  15  27
TORSDOF 6
