139585975
  -OEChem-03292013293D

 38 39  0     1  0  0  0  0  0999 V2000
   -1.9687   -0.9704    0.8082 O   0  0  0  0  0  0  0  0  0  0  0  0
   -0.9696    0.7158   -0.5295 O   0  0  0  0  0  0  0  0  0  0  0  0
   -5.2219    1.4171   -0.1500 O   0  0  0  0  0  0  0  0  0  0  0  0
   -4.9966   -1.1931   -1.2826 O   0  0  0  0  0  0  0  0  0  0  0  0
   -3.5166    1.1208    2.0293 O   0  0  0  0  0  0  0  0  0  0  0  0
    7.9109   -0.6237    0.3882 N   0  0  0  0  0  0  0  0  0  0  0  0
   -3.9756    0.7455   -0.3199 C   0  0  2  0  0  0  0  0  0  0  0  0
   -4.1937   -0.7621   -0.1864 C   0  0  2  0  0  0  0  0  0  0  0  0
   -2.9683    1.2471    0.7162 C   0  0  2  0  0  0  0  0  0  0  0  0
   -2.8439   -1.4931   -0.1964 C   0  0  2  0  0  0  0  0  0  0  0  0
   -1.6816    0.4251    0.6683 C   0  0  1  0  0  0  0  0  0  0  0  0
   -3.0000   -2.9857    0.0811 C   0  0  0  0  0  0  0  0  0  0  0  0
    0.3959    0.6272   -0.4709 C   0  0  0  0  0  0  0  0  0  0  0  0
    1.0021   -0.5835   -0.1353 C   0  0  0  0  0  0  0  0  0  0  0  0
    1.1802    1.7471   -0.7474 C   0  0  0  0  0  0  0  0  0  0  0  0
    2.3928   -0.6742   -0.0764 C   0  0  0  0  0  0  0  0  0  0  0  0
    2.5708    1.6562   -0.6884 C   0  0  0  0  0  0  0  0  0  0  0  0
    3.1772    0.4456   -0.3531 C   0  0  0  0  0  0  0  0  0  0  0  0
    4.6271    0.3503   -0.2933 C   0  0  0  0  0  0  0  0  0  0  0  0
    5.3290   -0.6010    0.3630 C   0  0  0  0  0  0  0  0  0  0  0  0
    6.7506   -0.6111    0.3753 C   0  0  0  0  0  0  0  0  0  0  0  0
   -3.6240    0.9799   -1.3324 H   0  0  0  0  0  0  0  0  0  0  0  0
   -4.7505   -0.9780    0.7330 H   0  0  0  0  0  0  0  0  0  0  0  0
   -2.7684    2.3109    0.5437 H   0  0  0  0  0  0  0  0  0  0  0  0
   -2.3628   -1.3917   -1.1778 H   0  0  0  0  0  0  0  0  0  0  0  0
   -1.0685    0.6984    1.5378 H   0  0  0  0  0  0  0  0  0  0  0  0
   -3.4427   -3.1550    1.0689 H   0  0  0  0  0  0  0  0  0  0  0  0
   -2.0203   -3.4761    0.0876 H   0  0  0  0  0  0  0  0  0  0  0  0
   -3.6265   -3.4715   -0.6727 H   0  0  0  0  0  0  0  0  0  0  0  0
   -5.0532    2.3713   -0.2318 H   0  0  0  0  0  0  0  0  0  0  0  0
   -4.4982   -1.0336   -2.1022 H   0  0  0  0  0  0  0  0  0  0  0  0
   -2.8755    1.5014    2.6535 H   0  0  0  0  0  0  0  0  0  0  0  0
    0.4129   -1.4736    0.0620 H   0  0  0  0  0  0  0  0  0  0  0  0
    0.7129    2.6926   -1.0087 H   0  0  0  0  0  0  0  0  0  0  0  0
    2.8212   -1.6424    0.1655 H   0  0  0  0  0  0  0  0  0  0  0  0
    3.1655    2.5401   -0.9061 H   0  0  0  0  0  0  0  0  0  0  0  0
    5.1723    1.1312   -0.8215 H   0  0  0  0  0  0  0  0  0  0  0  0
    4.8413   -1.3877    0.9272 H   0  0  0  0  0  0  0  0  0  0  0  0
  1 10  1  0  0  0  0
  1 11  1  0  0  0  0
  2 11  1  0  0  0  0
  2 13  1  0  0  0  0
  3  7  1  0  0  0  0
  3 30  1  0  0  0  0
  4  8  1  0  0  0  0
  4 31  1  0  0  0  0
  5  9  1  0  0  0  0
  5 32  1  0  0  0  0
  6 21  3  0  0  0  0
  7  8  1  0  0  0  0
  7  9  1  0  0  0  0
  7 22  1  0  0  0  0
  8 10  1  0  0  0  0
  8 23  1  0  0  0  0
  9 11  1  0  0  0  0
  9 24  1  0  0  0  0
 10 12  1  0  0  0  0
 10 25  1  0  0  0  0
 11 26  1  0  0  0  0
 12 27  1  0  0  0  0
 12 28  1  0  0  0  0
 12 29  1  0  0  0  0
 13 14  2  0  0  0  0
 13 15  1  0  0  0  0
 14 16  1  0  0  0  0
 14 33  1  0  0  0  0
 15 17  2  0  0  0  0
 15 34  1  0  0  0  0
 16 18  2  0  0  0  0
 16 35  1  0  0  0  0
 17 18  1  0  0  0  0
 17 36  1  0  0  0  0
 18 19  1  0  0  0  0
 19 20  2  0  0  0  0
 19 37  1  0  0  0  0
 20 21  1  0  0  0  0
 20 38  1  0  0  0  0
M  END
> <PUBCHEM_COMPOUND_CID>
139585975

> <PUBCHEM_CONFORMER_RMSD>
0.6

> <PUBCHEM_CONFORMER_DIVERSEORDER>
1
325
410
408
384
14
305
89
355
79
4
326
322
429
51
409
434
427
91
276
406
121
433
465
258
201
240
352
461
56
139
86
417
477
286
88
441
467
20
377
464
270
375
403
137
318
76
448
444
335
357
386
367
342
3
256
206
184
280
195
397
344
472
345
279
415
299
190
411
457
432
267
314
468
451
49
337
238
118
333
271
196
363
268
45
440
442
234
359
292
75
111
473
404
26
399
391
353
330
331
277
398
455
283
152
204
150
170
102
262
338
151
298
127
306
422
339
85
142
239
257
385
39
396
105
360
2
162
327
437
436
376
456
346
53
165
147
60
471
261
347
466
247
380
400
275
470
64
291
106
349
211
141
469
95
307
343
413
395
435
288
175
251
87
61
156
412
78
73
431
393
114
394
120
362
182
18
438
336
324
213
116
13
112
425
365
388
155
374
241
309
167
300
25
476
57
67
364
294
93
407
35
371
289
126
319
130
266
70
474
378
358
101
233
302
134
260
99
439
83
446
50
379
208
246
332
214
148
47
290
366
478
389
460
154
186
259
168
109
447
110
9
323
46
273
68
418
387
140
41
452
369
63
225
308
207
449
354
242
351
245
197
381
252
138
36
107
115
310
424
304
382
373
6
199
340
274
96
176
100
315
104
149
136
191
416
194
117
82
43
383
296
320
445
390
163
187
475
328
420
312
22
189
92
317
205
5
183
419
180
123
71
19
443
236
200
459
55
80
303
421
153
227
458
77
405
313
198
171
361
463
27
263
129
32
226
179
69
181
135
450
350
272
169
74
329
7
94
146
243
221
177
72
282
235
17
97
316
98
462
133
426
158
209
217
202
193
132
255
212
237
10
414
341
59
218
311
401
192
285
423
321
188
16
232
219
23
428
348
334
210
248
244
185
287
128
203
124
40
38
372
250
33
54
172
215
230
356
269
166
224
216
44
430
12
284
160
125
253
229
37
143
254
131
34
249
220
281
122
301
222
108
21
368
264
402
119
265
297
157
11
144
278
90
48
454
58
145
84
159
293
228
161
24
113
370
453
52
65
8
15
30
173
174
164
28
231
31
29
103
62
178
66
42
223
392
295
81

> <PUBCHEM_MMFF94_PARTIAL_CHARGES>
29
1 -0.56
10 0.28
11 0.56
13 0.08
14 -0.15
15 -0.15
16 -0.15
17 -0.15
18 0.03
19 -0.18
2 -0.36
20 -0.09
21 0.49
3 -0.68
30 0.4
31 0.4
32 0.4
33 0.15
34 0.15
35 0.15
36 0.15
37 0.15
38 0.15
4 -0.68
5 -0.68
6 -0.56
7 0.28
8 0.28
9 0.28

> <PUBCHEM_EFFECTIVE_ROTOR_COUNT>
4.2

> <PUBCHEM_PHARMACOPHORE_FEATURES>
11
1 1 acceptor
1 2 acceptor
1 3 acceptor
1 3 donor
1 4 acceptor
1 4 donor
1 5 acceptor
1 5 donor
1 6 acceptor
6 1 7 8 9 10 11 rings
6 13 14 15 16 17 18 rings

> <PUBCHEM_HEAVY_ATOM_COUNT>
21

> <PUBCHEM_ATOM_DEF_STEREO_COUNT>
0

> <PUBCHEM_ATOM_UDEF_STEREO_COUNT>
5

> <PUBCHEM_BOND_DEF_STEREO_COUNT>
1

> <PUBCHEM_BOND_UDEF_STEREO_COUNT>
0

> <PUBCHEM_ISOTOPIC_ATOM_COUNT>
0

> <PUBCHEM_COMPONENT_COUNT>
1

> <PUBCHEM_CACTVS_TAUTO_COUNT>
-1

> <PUBCHEM_CONFORMER_ID>
0851E9B700000001

> <PUBCHEM_MMFF94_ENERGY>
63.6363

> <PUBCHEM_FEATURE_SELFOVERLAP>
55.876

> <PUBCHEM_SHAPE_FINGERPRINT>
10291535 26 15913058560482198505
11045977 3 18060411443939597912
11315181 36 18060419122866518600
12091667 2 17603586305533889124
12236239 1 18413387653019497876
12390115 104 8213876910738782263
12555020 224 18187920720586023063
12596602 18 18060135454005402570
12616971 3 18040446498785819716
13288520 33 18407758148773488606
13583140 156 16774075172516919862
13760787 5 17603595148971824164
13862211 1 18259982657315571186
15188451 53 18059567035704259118
15196674 1 18334860575529174636
15788980 27 17748830721915788460
17093844 174 18186796976567964752
17349148 13 18413106186437451997
17492 89 17973446799600680691
17857418 61 18334009485078908994
18186145 218 13984946285142270076
18222031 100 18040428907021891716
19141452 34 18335141981369605774
19489759 90 17917710188661280545
200 152 18343018925989970117
21033648 29 16056587717313357418
21267235 1 18261116309116332083
23198884 109 14056712435499893303
23402539 116 18409445877710799748
23522609 53 18044404706814291084
23559900 14 18343293795085693496
23622692 118 18339356495433578479
26918003 58 18272932722030687248
335352 9 18333730217045385053
4214541 1 18409730677166095333
5104073 3 18341058526775171712
542803 24 8718829782253257308
559249 180 18407757036662003271
59755656 520 16660365879253908625
633830 44 16588308340470618076
67856867 119 18339642364552391708
9709674 26 18271536355090577607
9971528 1 17967811699946117628

> <PUBCHEM_SHAPE_MULTIPOLES>
397.84
15.03
1.97
0.99
22.28
0.8
-0.26
3.73
-1.33
-2.08
0.12
-0.86
-0.2
-1.17

> <PUBCHEM_SHAPE_SELFOVERLAP>
832.08

> <PUBCHEM_SHAPE_VOLUME>
221.8

> <PUBCHEM_COORDINATE_TYPE>
2
5
10

$$$$
