REMARK  Name = 139591307
REMARK  16 active torsions:
REMARK  status: ('A' for Active; 'I' for Inactive)
REMARK    1  A    between atoms: C_1  and  C_4
REMARK    2  A    between atoms: C_1  and  C_19
REMARK    3  A    between atoms: C_2  and  C_8
REMARK    4  A    between atoms: C_4  and  O_5
REMARK    5  A    between atoms: C_8  and  C_9
REMARK    6  A    between atoms: C_10  and  O_15
REMARK    7  A    between atoms: C_12  and  O_17
REMARK    8  A    between atoms: C_19  and  C_20
REMARK    9  A    between atoms: C_20  and  C_22
REMARK   10  A    between atoms: C_21  and  C_24
REMARK   11  A    between atoms: C_24  and  C_25
REMARK   12  A    between atoms: C_25  and  C_26
REMARK   13  A    between atoms: C_27  and  C_28
REMARK   14  A    between atoms: C_27  and  C_31
REMARK   15  A    between atoms: C_28  and  O_29
REMARK   16  A    between atoms: C_31  and  O_32
REMARK                            x       y       z     vdW  Elec       q    Type
REMARK                         _______ _______ _______ _____ _____    ______ ____
ROOT
ATOM      1  C   UNL     1      -0.279  -2.314   0.805  0.00  0.00    +0.057 C 
ATOM      2  C   UNL     1       0.923  -1.749   1.010  0.00  0.00    +0.044 C 
ENDROOT
BRANCH   1   4
ATOM      3  O   UNL     1      -0.785  -1.632  -1.432  0.00  0.00    -0.245 OA
ATOM      4  C   UNL     1      -0.676  -2.536  -0.616  0.00  0.00    +0.337 C 
BRANCH   4   5
ATOM      5  O   UNL     1      -0.806  -3.869  -0.862  0.00  0.00    -0.442 OA
ATOM      6  C   UNL     1      -1.099  -4.222  -2.217  0.00  0.00    +0.256 C 
ENDBRANCH   4   5
ENDBRANCH   1   4
BRANCH   2   8
ATOM      7  O   UNL     1       1.978  -1.920  -1.130  0.00  0.00    -0.286 OA
ATOM      8  C   UNL     1       1.876  -1.334  -0.059  0.00  0.00    +0.199 C 
BRANCH   8   9
ATOM      9  C   UNL     1       2.783  -0.197   0.240  0.00  0.00    +0.076 C 
ATOM     10  C   UNL     1       4.045  -0.116  -0.347  0.00  0.00    +0.137 C 
ATOM     11  C   UNL     1       2.356   0.798   1.119  0.00  0.00    +0.043 C 
ATOM     12  C   UNL     1       3.193   1.875   1.412  0.00  0.00    +0.134 C 
ATOM     13  C   UNL     1       4.882   0.962  -0.054  0.00  0.00    +0.040 C 
ATOM     14  C   UNL     1       4.456   1.957   0.825  0.00  0.00    +0.040 C 
BRANCH  10  15
ATOM     15  O   UNL     1       4.480  -1.077  -1.209  0.00  0.00    -0.505 OA
ATOM     16  H   UNL     1       3.928  -1.806  -1.414  0.00  0.00    +0.292 HD
ENDBRANCH  10  15
BRANCH  12  17
ATOM     17  O   UNL     1       2.777   2.847   2.268  0.00  0.00    -0.506 OA
ATOM     18  H   UNL     1       1.929   2.793   2.663  0.00  0.00    +0.292 HD
ENDBRANCH  12  17
ENDBRANCH   8   9
ENDBRANCH   2   8
BRANCH   1  19
ATOM     19  C   UNL     1      -1.256  -2.826   1.834  0.00  0.00    +0.038 C 
BRANCH  19  20
ATOM     20  C   UNL     1      -2.653  -2.203   1.708  0.00  0.00    +0.030 C 
BRANCH  20  22
ATOM     21  C   UNL     1      -3.491   0.217   1.517  0.00  0.00    -0.048 C 
ATOM     22  C   UNL     1      -2.668  -0.729   2.011  0.00  0.00    -0.034 C 
ATOM     23  C   UNL     1      -4.606  -0.044   0.541  0.00  0.00    +0.026 C 
BRANCH  21  24
ATOM     24  C   UNL     1      -3.361   1.651   1.998  0.00  0.00    +0.026 C 
BRANCH  24  25
ATOM     25  C   UNL     1      -3.139   2.704   0.903  0.00  0.00    +0.030 C 
BRANCH  25  26
ATOM     26  C   UNL     1      -1.829   2.557   0.177  0.00  0.00    -0.029 C 
ATOM     27  C   UNL     1      -1.625   2.365  -1.142  0.00  0.00    +0.010 C 
BRANCH  27  28
ATOM     28  C   UNL     1      -0.212   2.242  -1.667  0.00  0.00    +0.161 C 
BRANCH  28  29
ATOM     29  O   UNL     1      -0.035   0.984  -2.303  0.00  0.00    -0.377 OA
ATOM     30  H   UNL     1       0.873   0.915  -2.636  0.00  0.00    +0.211 HD
ENDBRANCH  28  29
ENDBRANCH  27  28
BRANCH  27  31
ATOM     31  C   UNL     1      -2.714   2.294  -2.182  0.00  0.00    +0.161 C 
BRANCH  31  32
ATOM     32  O   UNL     1      -2.512   3.317  -3.150  0.00  0.00    -0.377 OA
ATOM     33  H   UNL     1      -3.213   3.271  -3.819  0.00  0.00    +0.211 HD
ENDBRANCH  31  32
ENDBRANCH  27  31
ENDBRANCH  25  26
ENDBRANCH  24  25
ENDBRANCH  21  24
ENDBRANCH  20  22
ENDBRANCH  19  20
ENDBRANCH   1  19
TORSDOF 16
