REMARK  Name = 139588564
REMARK  16 active torsions:
REMARK  status: ('A' for Active; 'I' for Inactive)
REMARK    1  A    between atoms: CA_1  and  C_11
REMARK    2  A    between atoms: CA_1  and  N_24
REMARK    3  A    between atoms: CA_1  and  CB_40
REMARK    4  A    between atoms: C_7  and  C_16
REMARK    5  A    between atoms: CA_8  and  CB_13
REMARK    6  A    between atoms: C_16  and  C_17
REMARK    7  A    between atoms: C_17  and  C_18
REMARK    8  A    between atoms: C_18  and  N_19
REMARK    9  A    between atoms: C_25  and  CA_27
REMARK   10  A    between atoms: CA_27  and  N_28
REMARK   11  A    between atoms: CA_27  and  CB_32
REMARK   12  A    between atoms: CB_32  and  CG_33
REMARK   13  A    between atoms: CG_33  and  CD_34
REMARK   14  A    between atoms: CD_34  and  CE_35
REMARK   15  A    between atoms: CE_35  and  NZ_36
REMARK   16  A    between atoms: CB_40  and  CG_41
REMARK                            x       y       z     vdW  Elec       q    Type
REMARK                         _______ _______ _______ _____ _____    ______ ____
ROOT
ATOM      1  CA  PHE A   2      -1.503   0.151  -0.774  0.00  0.00    +0.154 C 
ENDROOT
BRANCH   1  11
ATOM      2  O   VAL A   4      -1.085  -2.550   0.179  0.00  0.00    -0.273 OA
ATOM      3  O   UNK A   3       3.695  -0.439   1.366  0.00  0.00    -0.273 OA
ATOM      4  O   PHE A   2       0.398   0.401  -2.167  0.00  0.00    -0.273 OA
ATOM      5  N   UNK A   3       0.634  -1.039  -0.335  0.00  0.00    -0.220 N 
ATOM      6  N   VAL A   4       1.919  -1.795   1.900  0.00  0.00    -0.297 N 
ATOM      7  C   UNK A   3       2.105  -0.947  -0.369  0.00  0.00    +0.158 C 
ATOM      8  CA  VAL A   4       0.965  -2.766   1.406  0.00  0.00    +0.149 C 
ATOM      9  C   VAL A   4       0.035  -2.088   0.403  0.00  0.00    +0.250 C 
ATOM     10  C   UNK A   3       2.646  -0.995   1.046  0.00  0.00    +0.241 C 
ATOM     11  C   PHE A   2      -0.073  -0.135  -1.161  0.00  0.00    +0.250 C 
ATOM     12  H   VAL A   4       2.051  -1.704   2.872  0.00  0.00    +0.150 HD
BRANCH   8  13
ATOM     13  CB  VAL A   4       0.177  -3.379   2.558  0.00  0.00    +0.027 C 
ATOM     14  CG1 VAL A   4       1.114  -4.085   3.538  0.00  0.00    +0.002 C 
ATOM     15  CG2 VAL A   4      -0.644  -2.311   3.280  0.00  0.00    +0.002 C 
ENDBRANCH   8  13
BRANCH   7  16
ATOM     16  C   UNK A   3       2.745  -1.988  -1.280  0.00  0.00    +0.027 C 
BRANCH  16  17
ATOM     17  C   UNK A   3       4.098  -1.510  -1.805  0.00  0.00    -0.022 C 
BRANCH  17  18
ATOM     18  C   UNK A   3       4.750  -2.573  -2.689  0.00  0.00    -0.086 C 
BRANCH  18  19
ATOM     19  N   UNK A   3       6.029  -2.093  -3.198  0.00  0.00    +0.380 N 
ATOM     20  H   UNK A   3       6.452  -2.812  -3.786  0.00  0.00    -0.089 HD
ATOM     21  H   UNK A   3       6.650  -1.886  -2.416  0.00  0.00    -0.089 HD
ATOM     22  H   UNK A   3       5.881  -1.247  -3.749  0.00  0.00    -0.089 HD
ENDBRANCH  18  19
ENDBRANCH  17  18
ENDBRANCH  16  17
ENDBRANCH   7  16
ENDBRANCH   1  11
BRANCH   1  24
ATOM     23  O   LYS A   1      -0.833   1.349   1.770  0.00  0.00    -0.277 OA
ATOM     24  N   PHE A   2      -1.503   1.558  -0.443  0.00  0.00    -0.300 N 
ATOM     25  C   LYS A   1      -1.165   2.045   0.813  0.00  0.00    +0.202 C 
ATOM     26  H   PHE A   2      -1.755   2.203  -1.143  0.00  0.00    +0.150 HD
BRANCH  25  27
ATOM     27  CA  LYS A   1      -1.224   3.569   0.872  0.00  0.00    +0.013 C 
BRANCH  27  28
ATOM     28  N   LYS A   1      -2.228   3.934   1.870  0.00  0.00    +0.387 N 
ATOM     29  H1  LYS A   1      -3.133   3.548   1.598  0.00  0.00    -0.089 HD
ATOM     30  H2  LYS A   1      -2.296   4.950   1.928  0.00  0.00    -0.089 HD
ATOM     31  H3  LYS A   1      -1.957   3.558   2.778  0.00  0.00    -0.089 HD
ENDBRANCH  27  28
BRANCH  27  32
ATOM     32  CB  LYS A   1       0.167   4.120   1.220  0.00  0.00    -0.013 C 
BRANCH  32  33
ATOM     33  CG  LYS A   1       1.237   3.770   0.181  0.00  0.00    -0.004 C 
BRANCH  33  34
ATOM     34  CD  LYS A   1       2.592   4.377   0.555  0.00  0.00    -0.024 C 
BRANCH  34  35
ATOM     35  CE  LYS A   1       3.668   3.998  -0.461  0.00  0.00    -0.086 C 
BRANCH  35  36
ATOM     36  NZ  LYS A   1       4.952   4.569  -0.075  0.00  0.00    +0.380 N 
ATOM     37  HZ1 LYS A   1       5.660   4.309  -0.762  0.00  0.00    -0.089 HD
ATOM     38  HZ2 LYS A   1       5.221   4.213   0.842  0.00  0.00    -0.089 HD
ATOM     39  HZ3 LYS A   1       4.874   5.585  -0.036  0.00  0.00    -0.089 HD
ENDBRANCH  35  36
ENDBRANCH  34  35
ENDBRANCH  33  34
ENDBRANCH  32  33
ENDBRANCH  27  32
ENDBRANCH  25  27
ENDBRANCH   1  24
BRANCH   1  40
ATOM     40  CB  PHE A   2      -2.451  -0.188  -1.923  0.00  0.00    +0.055 C 
BRANCH  40  41
ATOM     41  CG  PHE A   2      -3.881  -0.347  -1.467  0.00  0.00    -0.020 C 
ATOM     42  CD1 PHE A   2      -4.351  -1.597  -1.067  0.00  0.00    -0.004 C 
ATOM     43  CD2 PHE A   2      -4.733   0.758  -1.446  0.00  0.00    -0.004 C 
ATOM     44  CE1 PHE A   2      -5.673  -1.744  -0.646  0.00  0.00    -0.000 C 
ATOM     45  CE2 PHE A   2      -6.054   0.612  -1.025  0.00  0.00    -0.000 C 
ATOM     46  CZ  PHE A   2      -6.525  -0.639  -0.625  0.00  0.00    -0.000 C 
ENDBRANCH  40  41
ENDBRANCH   1  40
TORSDOF 16
