REMARK  Name = 139590627
REMARK  5 active torsions:
REMARK  status: ('A' for Active; 'I' for Inactive)
REMARK    1  A    between atoms: C_10  and  C_28
REMARK    2  A    between atoms: C_11  and  O_24
REMARK    3  A    between atoms: O_24  and  C_26
REMARK    4  A    between atoms: C_28  and  C_30
REMARK    5  A    between atoms: C_30  and  O_31
REMARK                            x       y       z     vdW  Elec       q    Type
REMARK                         _______ _______ _______ _____ _____    ______ ____
ROOT
ATOM      1  O   UNL     1       2.946  -1.886  -0.357  0.00  0.00    -0.360 OA
ATOM      2  O   UNL     1      -1.853   1.774  -0.719  0.00  0.00    -0.482 OA
ATOM      3  O   UNL     1      -5.245  -0.449   0.164  0.00  0.00    -0.426 OA
ATOM      4  O   UNL     1      -3.999  -2.055   1.165  0.00  0.00    -0.245 OA
ATOM      5  C   UNL     1       1.097  -0.517   0.243  0.00  0.00    +0.035 C 
ATOM      6  C   UNL     1       2.013   0.247  -0.745  0.00  0.00    +0.068 C 
ATOM      7  C   UNL     1      -0.357  -0.077  -0.104  0.00  0.00    +0.044 C 
ATOM      8  C   UNL     1      -0.588   1.473  -0.059  0.00  0.00    +0.137 C 
ATOM      9  C   UNL     1       3.329  -0.543  -0.754  0.00  0.00    +0.096 C 
ATOM     10  C   UNL     1       1.500  -1.946  -0.199  0.00  0.00    +0.126 C 
ATOM     11  C   UNL     1       1.952   1.770  -0.662  0.00  0.00    +0.175 C 
ATOM     12  C   UNL     1       0.495   2.222  -0.893  0.00  0.00    +0.084 C 
ATOM     13  C   UNL     1       1.437  -0.349   1.739  0.00  0.00    +0.003 C 
ATOM     14  C   UNL     1      -1.493  -0.811   0.624  0.00  0.00    +0.040 C 
ATOM     15  C   UNL     1      -0.693   2.117   1.339  0.00  0.00    +0.044 C 
ATOM     16  C   UNL     1       3.904  -0.645  -2.175  0.00  0.00    +0.030 C 
ATOM     17  C   UNL     1       4.438  -0.049   0.172  0.00  0.00    +0.030 C 
ATOM     18  C   UNL     1      -2.821  -0.215   0.245  0.00  0.00    +0.088 C 
ATOM     19  C   UNL     1      -2.919   0.961  -0.396  0.00  0.00    +0.143 C 
ATOM     20  C   UNL     1      -4.050  -0.985   0.565  0.00  0.00    +0.344 C 
ATOM     21  C   UNL     1      -4.194   1.480  -0.801  0.00  0.00    +0.070 C 
ATOM     22  C   UNL     1      -5.303   0.786  -0.523  0.00  0.00    +0.130 C 
ATOM     23  C   UNL     1      -6.681   1.222  -0.892  0.00  0.00    +0.073 C 
ENDROOT
BRANCH  11  24
ATOM     24  O   UNL     1       2.418   2.298   0.566  0.00  0.00    -0.452 OA
BRANCH  24  26
ATOM     25  O   UNL     1       3.064   4.249  -0.488  0.00  0.00    -0.250 OA
ATOM     26  C   UNL     1       2.955   3.557   0.515  0.00  0.00    +0.317 C 
ATOM     27  C   UNL     1       3.404   3.983   1.880  0.00  0.00    +0.121 C 
ENDBRANCH  24  26
ENDBRANCH  11  24
BRANCH  10  28
ATOM     28  C   UNL     1       1.187  -3.110   0.731  0.00  0.00    +0.139 C 
BRANCH  28  30
ATOM     29  O   UNL     1       1.681  -4.615  -1.121  0.00  0.00    -0.250 OA
ATOM     30  C   UNL     1       1.340  -4.439   0.039  0.00  0.00    +0.316 C 
BRANCH  30  31
ATOM     31  O   UNL     1       1.039  -5.446   0.899  0.00  0.00    -0.480 OA
ATOM     32  H   UNL     1       0.782  -5.250   1.779  0.00  0.00    +0.295 HD
ENDBRANCH  30  31
ENDBRANCH  28  30
ENDBRANCH  10  28
TORSDOF 5
