REMARK  Name = 139586881
REMARK  9 active torsions:
REMARK  status: ('A' for Active; 'I' for Inactive)
REMARK    1  A    between atoms: C_2  and  C_16
REMARK    2  A    between atoms: C_3  and  C_11
REMARK    3  A    between atoms: C_7  and  C_28
REMARK    4  A    between atoms: C_11  and  C_14
REMARK    5  A    between atoms: C_16  and  C_21
REMARK    6  A    between atoms: C_28  and  C_29
REMARK    7  A    between atoms: C_29  and  C_30
REMARK    8  A    between atoms: C_29  and  O_35
REMARK    9  A    between atoms: C_30  and  O_33
REMARK                            x       y       z     vdW  Elec       q    Type
REMARK                         _______ _______ _______ _____ _____    ______ ____
ROOT
ATOM      1  N   UNK A   1      -1.363  -2.995   0.619  0.00  0.00    -0.356 N 
ATOM      2  C   UNK A   1      -1.394  -1.134  -0.591  0.00  0.00    -0.007 A 
ATOM      3  C   UNK A   1      -2.186  -2.068   0.036  0.00  0.00    +0.033 A 
ATOM      4  C   UNK A   1      -0.037  -1.505  -0.381  0.00  0.00    +0.012 A 
ATOM      5  C   UNK A   1      -0.045  -2.676   0.381  0.00  0.00    +0.056 A 
ATOM      6  C   UNK A   1       1.202  -0.957  -0.767  0.00  0.00    -0.003 C 
ATOM      7  C   UNK A   1       2.384  -1.598  -0.378  0.00  0.00    -0.020 C 
ATOM      8  C   UNK A   1       1.128  -3.328   0.777  0.00  0.00    +0.017 C 
ATOM      9  C   UNK A   1       2.345  -2.765   0.382  0.00  0.00    -0.003 C 
ATOM     10  H   UNK A   1      -1.670  -3.776   1.134  0.00  0.00    +0.166 HD
ENDROOT
BRANCH   3  11
ATOM     11  C   UNK A   1      -3.654  -2.179   0.143  0.00  0.00    +0.052 C 
ATOM     12  C   UNK A   1      -4.189  -3.383   1.008  0.00  0.00    +0.010 C 
ATOM     13  C   UNK A   1      -4.291  -2.415  -1.272  0.00  0.00    +0.010 C 
BRANCH  11  14
ATOM     14  C   UNK A   1      -4.271  -0.939   0.843  0.00  0.00    -0.021 C 
ATOM     15  C   UNK A   1      -5.171  -0.068   0.367  0.00  0.00    -0.005 C 
ENDBRANCH  11  14
ENDBRANCH   3  11
BRANCH   2  16
ATOM     16  C   UNK A   1      -1.880   0.067  -1.360  0.00  0.00    +0.056 C 
BRANCH  16  21
ATOM     17  O   UNK A   1      -2.215   2.547  -2.706  0.00  0.00    -0.273 OA
ATOM     18  O   ALA A   2      -1.681   2.756   2.557  0.00  0.00    -0.273 OA
ATOM     19  N   UNK A   1      -1.814   1.523   0.617  0.00  0.00    -0.297 N 
ATOM     20  N   ALA A   2      -1.792   3.759  -0.796  0.00  0.00    -0.297 N 
ATOM     21  C   UNK A   1      -1.371   1.368  -0.760  0.00  0.00    +0.153 C 
ATOM     22  C   UNK A   1      -1.877   2.583  -1.526  0.00  0.00    +0.241 C 
ATOM     23  CA  ALA A   2      -1.072   3.830   0.467  0.00  0.00    +0.149 C 
ATOM     24  C   ALA A   2      -1.587   2.689   1.333  0.00  0.00    +0.241 C 
ATOM     25  CB  ALA A   2      -1.264   5.182   1.136  0.00  0.00    +0.031 C 
ATOM     26  H   UNK A   1      -2.288   0.779   1.054  0.00  0.00    +0.150 HD
ATOM     27  H   ALA A   2      -2.231   4.569  -1.142  0.00  0.00    +0.150 HD
ENDBRANCH  16  21
ENDBRANCH   2  16
BRANCH   7  28
ATOM     28  C   UNK A   1       3.701  -1.023  -0.783  0.00  0.00    +0.058 C 
BRANCH  28  29
ATOM     29  C   UNK A   1       4.256  -0.017   0.249  0.00  0.00    +0.139 C 
BRANCH  29  30
ATOM     30  C   UNK A   1       5.762   0.317   0.105  0.00  0.00    +0.113 C 
ATOM     31  C   UNK A   1       6.154   0.716  -1.320  0.00  0.00    +0.032 C 
ATOM     32  C   UNK A   1       6.219   1.392   1.096  0.00  0.00    +0.032 C 
BRANCH  30  33
ATOM     33  O   UNK A   1       6.501  -0.876   0.410  0.00  0.00    -0.384 OA
ATOM     34  H   UNK A   1       6.238  -1.584  -0.199  0.00  0.00    +0.210 HD
ENDBRANCH  30  33
ENDBRANCH  29  30
BRANCH  29  35
ATOM     35  O   UNK A   1       3.503   1.195   0.112  0.00  0.00    -0.382 OA
ATOM     36  H   UNK A   1       2.557   1.000   0.200  0.00  0.00    +0.210 HD
ENDBRANCH  29  35
ENDBRANCH  28  29
ENDBRANCH   7  28
TORSDOF 9
