REMARK  Name = 139588954
REMARK  11 active torsions:
REMARK  status: ('A' for Active; 'I' for Inactive)
REMARK    1  A    between atoms: C_1  and  N_3
REMARK    2  A    between atoms: C_1  and  C_11
REMARK    3  A    between atoms: C_1  and  C_14
REMARK    4  A    between atoms: C_4  and  C_8
REMARK    5  A    between atoms: N_7  and  C_8
REMARK    6  A    between atoms: N_7  and  O_9
REMARK    7  A    between atoms: C_14  and  O_15
REMARK    8  A    between atoms: C_14  and  C_17
REMARK    9  A    between atoms: C_17  and  C_19
REMARK   10  A    between atoms: C_17  and  C_22
REMARK   11  A    between atoms: C_19  and  O_20
REMARK                            x       y       z     vdW  Elec       q    Type
REMARK                         _______ _______ _______ _____ _____    ______ ____
ROOT
ATOM      1  C   UNL     1      -0.926   1.489   0.173  0.00  0.00    +0.099 C 
ENDROOT
BRANCH   1   3
ATOM      2  O   UNL     1       1.310   1.090   2.053  0.00  0.00    -0.273 OA
ATOM      3  N   UNL     1       0.465   1.238  -0.132  0.00  0.00    -0.302 N 
ATOM      4  C   UNL     1       1.422   1.067   0.838  0.00  0.00    +0.244 C 
ATOM      5  H   UNL     1       0.738   1.186  -1.077  0.00  0.00    +0.149 HD
BRANCH   4   6
ATOM      6  C   UNL     1       2.772   0.836   0.261  0.00  0.00    +0.220 C 
BRANCH   6   8
ATOM      7  O   UNL     1       2.397  -1.360   0.244  0.00  0.00    -0.090 OA
ATOM      8  N   UNL     1       3.174  -0.378  -0.001  0.00  0.00    -0.009 NA
BRANCH   8   9
ATOM      9  O   UNL     1       4.498  -0.601  -0.521  0.00  0.00    -0.253 OA
ATOM     10  C   UNL     1       4.542  -1.754  -1.352  0.00  0.00    +0.203 C 
ENDBRANCH   8   9
ENDBRANCH   6   8
ENDBRANCH   4   6
ENDBRANCH   1   3
BRANCH   1  11
ATOM     11  C   UNL     1      -1.366   2.899  -0.316  0.00  0.00    +0.020 C 
ATOM     12  C   UNL     1      -1.421   2.956  -1.849  0.00  0.00    +0.002 C 
ATOM     13  C   UNL     1      -0.508   4.054   0.205  0.00  0.00    +0.002 C 
ENDBRANCH   1  11
BRANCH   1  14
ATOM     14  C   UNL     1      -1.830   0.345  -0.352  0.00  0.00    +0.139 C 
BRANCH  14  15
ATOM     15  O   UNL     1      -3.197   0.622  -0.046  0.00  0.00    -0.382 OA
ATOM     16  H   UNL     1      -3.422   1.516  -0.350  0.00  0.00    +0.210 HD
ENDBRANCH  14  15
BRANCH  14  17
ATOM     17  C   UNL     1      -1.477  -1.084   0.136  0.00  0.00    +0.127 C 
BRANCH  17  19
ATOM     18  O   UNL     1      -3.269  -2.337  -0.954  0.00  0.00    -0.250 OA
ATOM     19  C   UNL     1      -2.072  -2.163  -0.763  0.00  0.00    +0.316 C 
BRANCH  19  20
ATOM     20  O   UNL     1      -1.117  -2.930  -1.350  0.00  0.00    -0.480 OA
ATOM     21  H   UNL     1      -0.211  -2.764  -1.178  0.00  0.00    +0.295 HD
ENDBRANCH  19  20
ENDBRANCH  17  19
BRANCH  17  22
ATOM     22  C   UNL     1      -1.888  -1.302   1.606  0.00  0.00    +0.014 C 
ATOM     23  C   UNL     1      -1.510  -2.688   2.119  0.00  0.00    +0.001 C 
ENDBRANCH  17  22
ENDBRANCH  14  17
ENDBRANCH   1  14
TORSDOF 11
