REMARK  Name = 139586318
REMARK  3 active torsions:
REMARK  status: ('A' for Active; 'I' for Inactive)
REMARK    1  A    between atoms: C_6  and  O_33
REMARK    2  A    between atoms: C_21  and  O_35
REMARK    3  A    between atoms: C_23  and  O_37
REMARK                            x       y       z     vdW  Elec       q    Type
REMARK                         _______ _______ _______ _____ _____    ______ ____
ROOT
ATOM      1  O   UNL     1      -5.450  -2.324  -0.153  0.00  0.00    -0.274 OA
ATOM      2  O   UNL     1      -2.860  -3.184  -1.222  0.00  0.00    -0.291 OA
ATOM      3  O   UNL     1       3.774   2.228   1.141  0.00  0.00    -0.289 OA
ATOM      4  N   UNL     1      -4.707  -0.227   0.447  0.00  0.00    -0.275 N 
ATOM      5  C   UNL     1      -5.599   1.934   0.041  0.00  0.00    +0.049 C 
ATOM      6  C   UNL     1      -4.738   1.982   1.311  0.00  0.00    +0.134 C 
ATOM      7  C   UNL     1      -3.859   0.725   1.187  0.00  0.00    +0.124 C 
ATOM      8  C   UNL     1      -5.880   0.441  -0.111  0.00  0.00    +0.096 C 
ATOM      9  C   UNL     1      -6.869   2.768   0.084  0.00  0.00    +0.004 C 
ATOM     10  C   UNL     1      -2.558   1.044   0.489  0.00  0.00    -0.004 C 
ATOM     11  C   UNL     1      -4.595  -1.608   0.380  0.00  0.00    +0.234 C 
ATOM     12  C   UNL     1      -3.338  -2.249   0.943  0.00  0.00    +0.154 C 
ATOM     13  C   UNL     1      -2.143   0.642  -0.722  0.00  0.00    -0.003 C 
ATOM     14  C   UNL     1      -2.426  -2.800  -0.138  0.00  0.00    +0.182 C 
ATOM     15  C   UNL     1      -0.839   0.963  -1.257  0.00  0.00    -0.005 C 
ATOM     16  C   UNL     1      -0.371   2.188  -1.566  0.00  0.00    -0.022 C 
ATOM     17  C   UNL     1      -0.972  -2.860   0.186  0.00  0.00    +0.038 C 
ATOM     18  C   UNL     1      -1.164   3.465  -1.499  0.00  0.00    +0.031 C 
ATOM     19  C   UNL     1      -0.089  -3.177  -0.772  0.00  0.00    -0.001 C 
ATOM     20  C   UNL     1       0.992   2.361  -2.046  0.00  0.00    -0.004 C 
ATOM     21  C   UNL     1       6.277  -0.088   0.390  0.00  0.00    +0.149 C 
ATOM     22  C   UNL     1       1.356  -3.267  -0.590  0.00  0.00    -0.022 C 
ATOM     23  C   UNL     1       6.000   1.345   0.874  0.00  0.00    +0.199 C 
ATOM     24  C   UNL     1       5.572  -1.218   1.158  0.00  0.00    +0.058 C 
ATOM     25  C   UNL     1       2.077   2.031  -1.326  0.00  0.00    -0.000 C 
ATOM     26  C   UNL     1       2.045  -2.302   0.054  0.00  0.00    -0.005 C 
ATOM     27  C   UNL     1       4.677   1.913   0.371  0.00  0.00    +0.202 C 
ATOM     28  C   UNL     1       4.087  -1.270   0.945  0.00  0.00    -0.024 C 
ATOM     29  C   UNL     1       1.950  -4.491  -1.237  0.00  0.00    +0.031 C 
ATOM     30  C   UNL     1       3.428   2.218  -1.804  0.00  0.00    +0.003 C 
ATOM     31  C   UNL     1       3.478  -2.247   0.255  0.00  0.00    -0.005 C 
ATOM     32  C   UNL     1       4.567   2.135  -1.102  0.00  0.00    +0.040 C 
ENDROOT
BRANCH   6  33
ATOM     33  O   UNL     1      -5.528   1.860   2.491  0.00  0.00    -0.382 OA
ATOM     34  H   UNL     1      -6.090   2.645   2.586  0.00  0.00    +0.210 HD
ENDBRANCH   6  33
BRANCH  21  35
ATOM     35  O   UNL     1       7.689  -0.314   0.502  0.00  0.00    -0.381 OA
ATOM     36  H   UNL     1       8.167   0.383   0.026  0.00  0.00    +0.210 HD
ENDBRANCH  21  35
BRANCH  23  37
ATOM     37  O   UNL     1       6.018   1.385   2.293  0.00  0.00    -0.375 OA
ATOM     38  H   UNL     1       6.859   1.024   2.616  0.00  0.00    +0.211 HD
ENDBRANCH  23  37
TORSDOF 3
