REMARK  Name = 139591632
REMARK  9 active torsions:
REMARK  status: ('A' for Active; 'I' for Inactive)
REMARK    1  A    between atoms: C_5  and  C_32
REMARK    2  A    between atoms: C_6  and  O_30
REMARK    3  A    between atoms: C_10  and  N_15
REMARK    4  A    between atoms: C_16  and  C_18
REMARK    5  A    between atoms: C_19  and  O_28
REMARK    6  A    between atoms: C_21  and  N_25
REMARK    7  A    between atoms: C_32  and  C_33
REMARK    8  A    between atoms: C_33  and  C_34
REMARK    9  A    between atoms: C_34  and  C_35
REMARK                            x       y       z     vdW  Elec       q    Type
REMARK                         _______ _______ _______ _____ _____    ______ ____
ROOT
ATOM      1  O   UNL     1      -1.697   2.201  -0.405  0.00  0.00    -0.449 OA
ATOM      2  O   UNL     1      -2.109  -0.343   0.797  0.00  0.00    -0.450 OA
ATOM      3  O   UNL     1      -2.770  -0.596  -1.399  0.00  0.00    -0.250 OA
ATOM      4  O   UNL     1      -0.307   2.458   1.424  0.00  0.00    -0.248 OA
ATOM      5  C   UNL     1      -4.180   0.591   0.197  0.00  0.00    +0.129 C 
ATOM      6  C   UNL     1      -4.102   2.067  -0.280  0.00  0.00    +0.161 C 
ATOM      7  C   UNL     1      -2.841   2.826   0.206  0.00  0.00    +0.196 C 
ATOM      8  C   UNL     1      -2.970  -0.215  -0.254  0.00  0.00    +0.319 C 
ATOM      9  C   UNL     1      -0.714  -0.634   0.525  0.00  0.00    +0.198 C 
ATOM     10  C   UNL     1      -0.033   0.592  -0.133  0.00  0.00    +0.212 C 
ATOM     11  C   UNL     1      -2.844   4.294  -0.210  0.00  0.00    +0.050 C 
ATOM     12  C   UNL     1      -0.634   1.886   0.394  0.00  0.00    +0.339 C 
ATOM     13  C   UNL     1      -0.110  -1.022   1.874  0.00  0.00    +0.050 C 
ENDROOT
BRANCH  10  15
ATOM     14  O   UNL     1       1.952  -0.531  -1.877  0.00  0.00    -0.270 OA
ATOM     15  N   UNL     1       1.392   0.644   0.043  0.00  0.00    -0.290 N 
ATOM     16  C   UNL     1       2.281   0.069  -0.858  0.00  0.00    +0.249 C 
ATOM     17  H   UNL     1       1.754   1.105   0.834  0.00  0.00    +0.150 HD
BRANCH  16  18
ATOM     18  C   UNL     1       3.723   0.187  -0.519  0.00  0.00    +0.088 C 
ATOM     19  C   UNL     1       4.512  -0.948  -0.333  0.00  0.00    +0.151 C 
ATOM     20  C   UNL     1       4.286   1.456  -0.388  0.00  0.00    +0.008 C 
ATOM     21  C   UNL     1       5.863  -0.814  -0.015  0.00  0.00    +0.085 C 
ATOM     22  C   UNL     1       5.637   1.591  -0.070  0.00  0.00    +0.002 C 
ATOM     23  C   UNL     1       6.426   0.455   0.116  0.00  0.00    +0.018 C 
BRANCH  21  25
ATOM     24  O   UNL     1       8.807  -1.062   0.677  0.00  0.00    -0.265 OA
ATOM     25  N   UNL     1       6.668  -1.940   0.175  0.00  0.00    -0.274 N 
ATOM     26  C   UNL     1       8.021  -1.981   0.493  0.00  0.00    +0.304 C 
ATOM     27  H   UNL     1       6.222  -2.812   0.071  0.00  0.00    +0.155 HD
ENDBRANCH  21  25
BRANCH  19  28
ATOM     28  O   UNL     1       3.960  -2.190  -0.461  0.00  0.00    -0.504 OA
ATOM     29  H   UNL     1       3.052  -2.280  -0.674  0.00  0.00    +0.292 HD
ENDBRANCH  19  28
ENDBRANCH  16  18
ENDBRANCH  10  15
BRANCH   6  30
ATOM     30  O   UNL     1      -5.248   2.771   0.199  0.00  0.00    -0.380 OA
ATOM     31  H   UNL     1      -6.053   2.314  -0.092  0.00  0.00    +0.211 HD
ENDBRANCH   6  30
BRANCH   5  32
ATOM     32  C   UNL     1      -5.444  -0.118  -0.299  0.00  0.00    +0.014 C 
BRANCH  32  33
ATOM     33  C   UNL     1      -5.560  -1.516   0.299  0.00  0.00    +0.001 C 
BRANCH  33  34
ATOM     34  C   UNL     1      -6.807  -2.232  -0.223  0.00  0.00    +0.000 C 
BRANCH  34  35
ATOM     35  C   UNL     1      -6.950  -3.621   0.398  0.00  0.00    +0.000 C 
ATOM     36  C   UNL     1      -8.207  -4.324  -0.092  0.00  0.00    +0.000 C 
ENDBRANCH  34  35
ENDBRANCH  33  34
ENDBRANCH  32  33
ENDBRANCH   5  32
TORSDOF 9
