REMARK  Name = 139589826
REMARK  8 active torsions:
REMARK  status: ('A' for Active; 'I' for Inactive)
REMARK    1  A    between atoms: C_3  and  C_22
REMARK    2  A    between atoms: C_7  and  C_14
REMARK    3  A    between atoms: C_8  and  O_20
REMARK    4  A    between atoms: C_15  and  C_17
REMARK    5  A    between atoms: C_17  and  O_18
REMARK    6  A    between atoms: C_22  and  O_23
REMARK    7  A    between atoms: C_22  and  C_26
REMARK    8  A    between atoms: C_26  and  O_27
REMARK                            x       y       z     vdW  Elec       q    Type
REMARK                         _______ _______ _______ _____ _____    ______ ____
ROOT
ATOM      1  O   UNL     1      -0.569  -1.325  -0.928  0.00  0.00    -0.453 OA
ATOM      2  O   UNL     1      -0.204   2.063   1.288  0.00  0.00    -0.286 OA
ATOM      3  C   UNL     1       0.880   0.291   0.144  0.00  0.00    +0.090 A 
ATOM      4  C   UNL     1      -1.634   0.499   0.252  0.00  0.00    +0.107 A 
ATOM      5  C   UNL     1      -1.690  -0.663  -0.508  0.00  0.00    +0.151 A 
ATOM      6  C   UNL     1      -0.320   1.042   0.620  0.00  0.00    +0.203 A 
ATOM      7  C   UNL     1       0.678  -0.824  -0.587  0.00  0.00    +0.158 A 
ATOM      8  C   UNL     1      -2.812   1.135   0.655  0.00  0.00    +0.139 C 
ATOM      9  C   UNL     1      -2.924  -1.201  -0.873  0.00  0.00    +0.034 C 
ATOM     10  C   UNL     1      -4.102  -0.571  -0.474  0.00  0.00    -0.016 C 
ATOM     11  C   UNL     1      -4.046   0.596   0.289  0.00  0.00    +0.033 C 
ATOM     12  C   UNL     1      -5.423  -1.144  -0.862  0.00  0.00    +0.031 C 
ENDROOT
BRANCH   7  14
ATOM     13 CL   UNL     1       2.286  -1.227  -2.699  0.00  0.00    -0.079 Cl
ATOM     14  C   UNL     1       1.730  -1.657  -1.116  0.00  0.00    +0.098 C 
ATOM     15  C   UNL     1       2.224  -2.685  -0.408  0.00  0.00    +0.096 C 
BRANCH  15  17
ATOM     16  O   UNL     1       0.920  -2.576   1.632  0.00  0.00    -0.245 OA
ATOM     17  C   UNL     1       1.784  -3.094   0.948  0.00  0.00    +0.339 C 
BRANCH  17  18
ATOM     18  O   UNL     1       2.516  -4.170   1.326  0.00  0.00    -0.477 OA
ATOM     19  H   UNL     1       3.167  -4.519   0.750  0.00  0.00    +0.295 HD
ENDBRANCH  17  18
ENDBRANCH  15  17
ENDBRANCH   7  14
BRANCH   8  20
ATOM     20  O   UNL     1      -2.814   2.275   1.401  0.00  0.00    -0.505 OA
ATOM     21  H   UNL     1      -2.004   2.664   1.664  0.00  0.00    +0.292 HD
ENDBRANCH   8  20
BRANCH   3  22
ATOM     22  C   UNL     1       2.201   0.885   0.546  0.00  0.00    +0.239 C 
BRANCH  22  23
ATOM     23  O   UNL     1       2.262   0.904   1.956  0.00  0.00    -0.370 OA
ATOM     24  H   UNL     1       2.214  -0.004   2.294  0.00  0.00    +0.211 HD
ENDBRANCH  22  23
BRANCH  22  26
ATOM     25  O   UNL     1       2.380   3.293   0.716  0.00  0.00    -0.247 OA
ATOM     26  C   UNL     1       2.275   2.296   0.013  0.00  0.00    +0.349 C 
BRANCH  26  27
ATOM     27  O   UNL     1       2.184   2.286  -1.350  0.00  0.00    -0.443 OA
ATOM     28  C   UNL     1       2.218   3.570  -1.980  0.00  0.00    +0.256 C 
ENDBRANCH  26  27
ENDBRANCH  22  26
ENDBRANCH   3  22
TORSDOF 8
