REMARK  Name = 139589755
REMARK  8 active torsions:
REMARK  status: ('A' for Active; 'I' for Inactive)
REMARK    1  A    between atoms: C_4  and  O_19
REMARK    2  A    between atoms: C_5  and  O_13
REMARK    3  A    between atoms: C_12  and  C_15
REMARK    4  A    between atoms: C_16  and  C_18
REMARK    5  A    between atoms: O_19  and  C_21
REMARK    6  A    between atoms: C_21  and  C_22
REMARK    7  A    between atoms: C_24  and  O_29
REMARK    8  A    between atoms: C_28  and  O_31
REMARK                            x       y       z     vdW  Elec       q    Type
REMARK                         _______ _______ _______ _____ _____    ______ ____
ROOT
ATOM      1  O   UNL     1      -3.305   0.509   0.965  0.00  0.00    -0.475 OA
ATOM      2  O   UNL     1       0.374  -3.643  -1.910  0.00  0.00    -0.289 OA
ATOM      3  C   UNL     1      -1.190  -0.553   0.343  0.00  0.00    +0.109 C 
ATOM      4  C   UNL     1       0.033  -1.365   0.809  0.00  0.00    +0.208 C 
ATOM      5  C   UNL     1       0.040  -2.832   0.352  0.00  0.00    +0.180 C 
ATOM      6  C   UNL     1      -1.835  -1.072  -0.926  0.00  0.00    -0.009 C 
ATOM      7  C   UNL     1      -2.300  -0.432   1.390  0.00  0.00    +0.213 C 
ATOM      8  C   UNL     1      -0.246  -2.907  -1.145  0.00  0.00    +0.200 C 
ATOM      9  C   UNL     1      -1.378  -2.095  -1.660  0.00  0.00    +0.036 C 
ATOM     10  C   UNL     1      -0.971  -3.702   1.102  0.00  0.00    +0.041 C 
ATOM     11  C   UNL     1      -3.059  -0.372  -1.269  0.00  0.00    +0.033 C 
ATOM     12  C   UNL     1      -3.706   0.374  -0.354  0.00  0.00    +0.138 C 
ENDROOT
BRANCH   5  13
ATOM     13  O   UNL     1       1.328  -3.397   0.580  0.00  0.00    -0.376 OA
ATOM     14  H   UNL     1       1.998  -2.870   0.117  0.00  0.00    +0.211 HD
ENDBRANCH   5  13
BRANCH  12  15
ATOM     15  C   UNL     1      -4.906   1.102  -0.665  0.00  0.00    +0.040 C 
ATOM     16  C   UNL     1      -5.558   1.846   0.234  0.00  0.00    +0.049 C 
BRANCH  16  18
ATOM     17  O   UNL     1      -7.423   3.254   0.595  0.00  0.00    -0.283 OA
ATOM     18  C   UNL     1      -6.782   2.557  -0.183  0.00  0.00    +0.234 C 
ENDBRANCH  16  18
ENDBRANCH  12  15
BRANCH   4  19
ATOM     19  O   UNL     1       1.209  -0.722   0.286  0.00  0.00    -0.446 OA
BRANCH  19  21
ATOM     20  O   UNL     1       1.304   0.649   2.133  0.00  0.00    -0.245 OA
ATOM     21  C   UNL     1       1.735   0.267   1.056  0.00  0.00    +0.344 C 
BRANCH  21  22
ATOM     22  C   UNL     1       2.939   0.848   0.409  0.00  0.00    +0.105 C 
ATOM     23  C   UNL     1       4.175   0.803   1.053  0.00  0.00    -0.010 C 
ATOM     24  C   UNL     1       2.829   1.442  -0.849  0.00  0.00    +0.143 C 
ATOM     25  C   UNL     1       5.301   1.352   0.441  0.00  0.00    +0.033 C 
ATOM     26  C   UNL     1       3.955   1.991  -1.461  0.00  0.00    +0.073 C 
ATOM     27  C   UNL     1       4.322   0.173   2.400  0.00  0.00    +0.031 C 
ATOM     28  C   UNL     1       5.192   1.946  -0.816  0.00  0.00    +0.136 C 
BRANCH  24  29
ATOM     29  O   UNL     1       1.631   1.498  -1.496  0.00  0.00    -0.505 OA
ATOM     30  H   UNL     1       0.865   1.133  -1.097  0.00  0.00    +0.292 HD
ENDBRANCH  24  29
BRANCH  28  31
ATOM     31  O   UNL     1       6.291   2.481  -1.415  0.00  0.00    -0.505 OA
ATOM     32  H   UNL     1       7.121   2.451  -0.982  0.00  0.00    +0.292 HD
ENDBRANCH  28  31
ENDBRANCH  21  22
ENDBRANCH  19  21
ENDBRANCH   4  19
TORSDOF 8
