REMARK  Name = 139588885
REMARK  2 active torsions:
REMARK  status: ('A' for Active; 'I' for Inactive)
REMARK    1  A    between atoms: C_11  and  O_26
REMARK    2  A    between atoms: C_12  and  O_28
REMARK                            x       y       z     vdW  Elec       q    Type
REMARK                         _______ _______ _______ _____ _____    ______ ____
ROOT
ATOM      1  O   UNL     1      -2.326   0.570   1.238  0.00  0.00    -0.339 OA
ATOM      2  O   UNL     1      -1.065   2.683   0.093  0.00  0.00    -0.344 OA
ATOM      3  O   UNL     1       0.622   0.561   1.206  0.00  0.00    -0.444 OA
ATOM      4  O   UNL     1       0.363  -0.546  -0.995  0.00  0.00    -0.444 OA
ATOM      5  O   UNL     1      -0.366  -2.098   1.559  0.00  0.00    -0.289 OA
ATOM      6  C   UNL     1      -2.810   0.219  -0.073  0.00  0.00    +0.185 C 
ATOM      7  C   UNL     1      -1.473  -0.294   0.468  0.00  0.00    +0.247 C 
ATOM      8  C   UNL     1      -0.159   0.362   0.004  0.00  0.00    +0.329 C 
ATOM      9  C   UNL     1      -0.320   1.712  -0.660  0.00  0.00    +0.224 C 
ATOM     10  C   UNL     1      -1.644   2.220  -1.136  0.00  0.00    +0.179 C 
ATOM     11  C   UNL     1      -2.889   1.412  -1.000  0.00  0.00    +0.171 C 
ATOM     12  C   UNL     1      -4.009  -0.706  -0.031  0.00  0.00    +0.163 C 
ATOM     13  C   UNL     1      -1.406  -1.665   1.074  0.00  0.00    +0.207 C 
ATOM     14  C   UNL     1      -3.790  -2.046   0.599  0.00  0.00    +0.008 C 
ATOM     15  C   UNL     1      -2.631  -2.490   1.090  0.00  0.00    +0.038 C 
ATOM     16  C   UNL     1       1.974   0.495   1.039  0.00  0.00    +0.145 C 
ATOM     17  C   UNL     1       1.724  -0.590  -1.090  0.00  0.00    +0.145 C 
ATOM     18  C   UNL     1       2.542  -0.072  -0.095  0.00  0.00    +0.068 C 
ATOM     19  C   UNL     1       2.778   0.990   2.064  0.00  0.00    +0.037 C 
ATOM     20  C   UNL     1       2.274  -1.196  -2.218  0.00  0.00    +0.037 C 
ATOM     21  C   UNL     1       3.948  -0.143  -0.224  0.00  0.00    +0.006 C 
ATOM     22  C   UNL     1       4.166   0.935   1.944  0.00  0.00    +0.003 C 
ATOM     23  C   UNL     1       3.659  -1.265  -2.360  0.00  0.00    +0.003 C 
ATOM     24  C   UNL     1       4.750   0.374   0.806  0.00  0.00    +0.000 C 
ATOM     25  C   UNL     1       4.493  -0.740  -1.372  0.00  0.00    +0.000 C 
ENDROOT
BRANCH  11  26
ATOM     26  O   UNL     1      -3.934   2.286  -0.573  0.00  0.00    -0.379 OA
ATOM     27  H   UNL     1      -4.757   1.783  -0.477  0.00  0.00    +0.211 HD
ENDBRANCH  11  26
BRANCH  12  28
ATOM     28  O   UNL     1      -4.472  -0.970  -1.358  0.00  0.00    -0.377 OA
ATOM     29  H   UNL     1      -4.631  -0.131  -1.818  0.00  0.00    +0.211 HD
ENDBRANCH  12  28
TORSDOF 2
