REMARK  Name = 139583422
REMARK  3 active torsions:
REMARK  status: ('A' for Active; 'I' for Inactive)
REMARK    1  A    between atoms: C_19  and  O_27
REMARK    2  A    between atoms: C_21  and  O_29
REMARK    3  A    between atoms: C_22  and  O_31
REMARK                            x       y       z     vdW  Elec       q    Type
REMARK                         _______ _______ _______ _____ _____    ______ ____
ROOT
ATOM      1  S   UNL     1       0.686  -2.503   1.877  0.00  0.00    -0.054 S 
ATOM      2  S   UNL     1      -0.959  -1.590   2.724  0.00  0.00    -0.054 S 
ATOM      3  O   UNL     1       0.069   1.720   2.053  0.00  0.00    -0.272 OA
ATOM      4  O   UNL     1      -0.404  -2.206  -1.450  0.00  0.00    -0.272 OA
ATOM      5  O   UNL     1       5.440  -1.272  -0.357  0.00  0.00    -0.296 OA
ATOM      6  O   UNL     1      -5.301   1.384   1.033  0.00  0.00    -0.291 OA
ATOM      7  N   UNL     1       1.043  -0.011   0.828  0.00  0.00    -0.263 N 
ATOM      8  N   UNL     1      -1.364  -0.774   0.128  0.00  0.00    -0.263 N 
ATOM      9  C   UNL     1       0.925  -1.418   0.421  0.00  0.00    +0.178 C 
ATOM     10  C   UNL     1      -1.245  -0.255   1.504  0.00  0.00    +0.178 C 
ATOM     11  C   UNL     1       2.378   0.542   0.580  0.00  0.00    +0.113 C 
ATOM     12  C   UNL     1       3.221  -0.720   0.339  0.00  0.00    +0.081 C 
ATOM     13  C   UNL     1       2.236  -1.701  -0.312  0.00  0.00    +0.048 C 
ATOM     14  C   UNL     1      -2.691  -0.514  -0.408  0.00  0.00    +0.115 C 
ATOM     15  C   UNL     1      -2.580   0.463   1.772  0.00  0.00    +0.048 C 
ATOM     16  C   UNL     1      -3.070   0.758   0.357  0.00  0.00    +0.086 C 
ATOM     17  C   UNL     1      -0.005   0.636   1.484  0.00  0.00    +0.253 C 
ATOM     18  C   UNL     1      -0.329  -1.506  -0.447  0.00  0.00    +0.253 C 
ATOM     19  C   UNL     1       2.354   1.498  -0.624  0.00  0.00    +0.156 C 
ATOM     20  C   UNL     1       4.467  -0.528  -0.500  0.00  0.00    +0.155 C 
ATOM     21  C   UNL     1      -2.858  -0.262  -1.909  0.00  0.00    +0.151 C 
ATOM     22  C   UNL     1       3.759   1.780  -1.153  0.00  0.00    +0.146 C 
ATOM     23  C   UNL     1       4.441   0.501  -1.607  0.00  0.00    +0.096 C 
ATOM     24  C   UNL     1      -4.538   1.029   0.142  0.00  0.00    +0.174 C 
ATOM     25  C   UNL     1      -4.198   0.384  -2.195  0.00  0.00    +0.007 C 
ATOM     26  C   UNL     1      -5.003   0.933  -1.271  0.00  0.00    +0.035 C 
ENDROOT
BRANCH  19  27
ATOM     27  O   UNL     1       1.774   2.746  -0.251  0.00  0.00    -0.380 OA
ATOM     28  H   UNL     1       0.878   2.598   0.090  0.00  0.00    +0.211 HD
ENDBRANCH  19  27
BRANCH  21  29
ATOM     29  O   UNL     1      -2.811  -1.501  -2.614  0.00  0.00    -0.378 OA
ATOM     30  H   UNL     1      -1.960  -1.936  -2.447  0.00  0.00    +0.211 HD
ENDBRANCH  21  29
BRANCH  22  31
ATOM     31  O   UNL     1       4.564   2.387  -0.141  0.00  0.00    -0.381 OA
ATOM     32  H   UNL     1       4.141   3.207   0.160  0.00  0.00    +0.210 HD
ENDBRANCH  22  31
TORSDOF 3
