REMARK  Name = 139585570
REMARK  4 active torsions:
REMARK  status: ('A' for Active; 'I' for Inactive)
REMARK    1  A    between atoms: C_10  and  O_18
REMARK    2  A    between atoms: C_11  and  O_20
REMARK    3  A    between atoms: C_15  and  O_22
REMARK    4  A    between atoms: O_22  and  S_23
REMARK                            x       y       z     vdW  Elec       q    Type
REMARK                         _______ _______ _______ _____ _____    ______ ____
ROOT
ATOM      1  O   UNL     1      -0.287  -2.475  -0.430  0.00  0.00    -0.287 OA
ATOM      2  O   UNL     1      -1.643   2.660   0.161  0.00  0.00    -0.286 OA
ATOM      3  C   UNL     1      -2.011  -0.914  -0.103  0.00  0.00    +0.045 C 
ATOM      4  C   UNL     1      -2.366   0.428   0.052  0.00  0.00    +0.076 C 
ATOM      5  C   UNL     1       0.081   1.099  -0.163  0.00  0.00    +0.076 C 
ATOM      6  C   UNL     1       0.435  -0.243  -0.317  0.00  0.00    +0.048 C 
ATOM      7  C   UNL     1      -0.598  -1.298  -0.293  0.00  0.00    +0.196 C 
ATOM      8  C   UNL     1      -1.333   1.484   0.026  0.00  0.00    +0.202 C 
ATOM      9  C   UNL     1      -3.000  -1.904  -0.077  0.00  0.00    -0.001 C 
ATOM     10  C   UNL     1      -3.709   0.779   0.232  0.00  0.00    +0.136 C 
ATOM     11  C   UNL     1       1.070   2.090  -0.188  0.00  0.00    +0.140 C 
ATOM     12  C   UNL     1       1.779  -0.594  -0.497  0.00  0.00    +0.043 C 
ATOM     13  C   UNL     1      -4.338  -1.550   0.102  0.00  0.00    -0.019 C 
ATOM     14  C   UNL     1      -4.691  -0.211   0.256  0.00  0.00    +0.032 C 
ATOM     15  C   UNL     1       2.761   0.396  -0.520  0.00  0.00    +0.179 C 
ATOM     16  C   UNL     1       2.408   1.735  -0.366  0.00  0.00    +0.077 C 
ATOM     17  C   UNL     1      -5.391  -2.606   0.130  0.00  0.00    +0.031 C 
ENDROOT
BRANCH  10  18
ATOM     18  O   UNL     1      -4.125   2.069   0.388  0.00  0.00    -0.505 OA
ATOM     19  H   UNL     1      -3.500   2.767   0.378  0.00  0.00    +0.292 HD
ENDBRANCH  10  18
BRANCH  11  20
ATOM     20  O   UNL     1       0.796   3.417  -0.043  0.00  0.00    -0.505 OA
ATOM     21  H   UNL     1      -0.089   3.702   0.080  0.00  0.00    +0.292 HD
ENDBRANCH  11  20
BRANCH  15  22
ATOM     22  O   UNL     1       4.067   0.054  -0.694  0.00  0.00    -0.322 OA
BRANCH  22  23
ATOM     23  S   UNL     1       4.780  -0.946   0.400  0.00  0.00    +0.282 S 
ATOM     24  O   UNL     1       6.367  -0.578   0.288  0.00  0.00    -0.105 OA
ATOM     25  O   UNL     1       4.332  -0.585   1.732  0.00  0.00    -0.012 OA
ATOM     26  O   UNL     1       4.617  -2.307  -0.075  0.00  0.00    -0.105 OA
ENDBRANCH  22  23
ENDBRANCH  15  22
TORSDOF 4
