REMARK  Name = 139585303
REMARK  3 active torsions:
REMARK  status: ('A' for Active; 'I' for Inactive)
REMARK    1  A    between atoms: C_4  and  O_18
REMARK    2  A    between atoms: C_14  and  O_20
REMARK    3  A    between atoms: C_17  and  O_22
REMARK                            x       y       z     vdW  Elec       q    Type
REMARK                         _______ _______ _______ _____ _____    ______ ____
ROOT
ATOM      1  O   UNL     1      -1.912   1.411  -0.481  0.00  0.00    -0.452 OA
ATOM      2  O   UNL     1      -0.627  -0.824  -1.932  0.00  0.00    -0.291 OA
ATOM      3  O   UNL     1      -0.770   2.268   1.335  0.00  0.00    -0.250 OA
ATOM      4  C   UNL     1      -2.516  -1.433   0.267  0.00  0.00    +0.122 C 
ATOM      5  C   UNL     1      -2.933  -0.191   1.083  0.00  0.00    +0.073 C 
ATOM      6  C   UNL     1      -3.083   1.127   0.301  0.00  0.00    +0.171 C 
ATOM      7  C   UNL     1      -1.008  -1.721   0.285  0.00  0.00    +0.099 C 
ATOM      8  C   UNL     1      -0.228  -0.982  -0.784  0.00  0.00    +0.178 C 
ATOM      9  C   UNL     1       1.103  -0.464  -0.404  0.00  0.00    +0.065 C 
ATOM     10  C   UNL     1       1.380   0.916  -0.421  0.00  0.00    -0.002 C 
ATOM     11  C   UNL     1      -4.269   1.095  -0.657  0.00  0.00    +0.047 C 
ATOM     12  C   UNL     1       0.348   1.952  -0.785  0.00  0.00    +0.136 C 
ATOM     13  C   UNL     1      -0.827   1.927   0.161  0.00  0.00    +0.321 C 
ATOM     14  C   UNL     1       2.079  -1.394  -0.029  0.00  0.00    +0.139 C 
ATOM     15  C   UNL     1       2.671   1.334  -0.062  0.00  0.00    +0.033 C 
ATOM     16  C   UNL     1       3.352  -0.954   0.326  0.00  0.00    +0.073 C 
ATOM     17  C   UNL     1       3.648   0.407   0.308  0.00  0.00    +0.136 C 
ENDROOT
BRANCH   4  18
ATOM     18  O   UNL     1      -3.140  -2.576   0.867  0.00  0.00    -0.384 OA
ATOM     19  H   UNL     1      -4.102  -2.449   0.883  0.00  0.00    +0.210 HD
ENDBRANCH   4  18
BRANCH  14  20
ATOM     20  O   UNL     1       1.837  -2.735  -0.031  0.00  0.00    -0.505 OA
ATOM     21  H   UNL     1       0.990  -3.058  -0.266  0.00  0.00    +0.292 HD
ENDBRANCH  14  20
BRANCH  17  22
ATOM     22  O   UNL     1       4.893   0.837   0.654  0.00  0.00    -0.505 OA
ATOM     23  H   UNL     1       5.093   1.752   0.642  0.00  0.00    +0.292 HD
ENDBRANCH  17  22
TORSDOF 3
