139586395
  -OEChem-03292013293D

 57 61  0     1  0  0  0  0  0999 V2000
   -0.2449    0.5481    0.9910 O   0  0  0  0  0  0  0  0  0  0  0  0
   -4.7129    2.1927   -0.7570 O   0  0  0  0  0  0  0  0  0  0  0  0
    0.3266   -3.5022   -2.0145 O   0  0  0  0  0  0  0  0  0  0  0  0
    2.4726   -3.2598   -1.2253 O   0  0  0  0  0  0  0  0  0  0  0  0
    1.8199    1.0016   -1.6735 O   0  0  0  0  0  0  0  0  0  0  0  0
   -3.1223    0.5687   -0.1776 N   0  0  0  0  0  0  0  0  0  0  0  0
   -1.4252    1.1103   -1.5664 N   0  0  0  0  0  0  0  0  0  0  0  0
    1.9297   -0.7797   -0.1663 N   0  0  0  0  0  0  0  0  0  0  0  0
    3.5493   -0.7650    1.5892 N   0  0  0  0  0  0  0  0  0  0  0  0
   -1.9099    0.0261   -0.7257 C   0  0  1  0  0  0  0  0  0  0  0  0
   -1.1106   -0.4714    0.5008 C   0  0  2  0  0  0  0  0  0  0  0  0
   -2.6460    1.8229   -2.0417 C   0  0  0  0  0  0  0  0  0  0  0  0
   -2.2363   -0.6393    1.5078 C   0  0  0  0  0  0  0  0  0  0  0  0
   -0.3072   -1.7320    0.2168 C   0  0  0  0  0  0  0  0  0  0  0  0
   -3.3811    0.0544    1.0793 C   0  0  0  0  0  0  0  0  0  0  0  0
   -3.6727    1.5792   -0.9267 C   0  0  0  0  0  0  0  0  0  0  0  0
    0.8521   -1.5261   -0.7663 C   0  0  2  0  0  0  0  0  0  0  0  0
   -3.1423    1.2151   -3.3548 C   0  0  0  0  0  0  0  0  0  0  0  0
   -2.3654    3.3157   -2.2016 C   0  0  0  0  0  0  0  0  0  0  0  0
   -2.2190   -1.2518    2.7485 C   0  0  0  0  0  0  0  0  0  0  0  0
   -4.5054    0.1925    1.8677 C   0  0  0  0  0  0  0  0  0  0  0  0
   -3.3617   -1.1536    3.5490 C   0  0  0  0  0  0  0  0  0  0  0  0
   -4.4906   -0.4337    3.1152 C   0  0  0  0  0  0  0  0  0  0  0  0
    1.3234   -2.8504   -1.3525 C   0  0  0  0  0  0  0  0  0  0  0  0
    2.3266    0.4583   -0.6968 C   0  0  0  0  0  0  0  0  0  0  0  0
    2.5704   -1.3110    0.9461 C   0  0  0  0  0  0  0  0  0  0  0  0
    3.4472    1.1177    0.0128 C   0  0  0  0  0  0  0  0  0  0  0  0
    4.0109    0.4783    1.1252 C   0  0  0  0  0  0  0  0  0  0  0  0
    0.6846   -4.7607   -2.5946 C   0  0  0  0  0  0  0  0  0  0  0  0
    3.9303    2.3557   -0.4236 C   0  0  0  0  0  0  0  0  0  0  0  0
    5.0694    1.1009    1.7958 C   0  0  0  0  0  0  0  0  0  0  0  0
    4.9856    2.9624    0.2560 C   0  0  0  0  0  0  0  0  0  0  0  0
    5.5546    2.3365    1.3637 C   0  0  0  0  0  0  0  0  0  0  0  0
   -2.2093   -0.8236   -1.3561 H   0  0  0  0  0  0  0  0  0  0  0  0
   -0.8817    1.7457   -0.9814 H   0  0  0  0  0  0  0  0  0  0  0  0
   -0.9932   -2.5007   -0.1641 H   0  0  0  0  0  0  0  0  0  0  0  0
    0.0691   -2.1481    1.1586 H   0  0  0  0  0  0  0  0  0  0  0  0
    0.4898   -0.9691   -1.6380 H   0  0  0  0  0  0  0  0  0  0  0  0
   -3.4017    0.1558   -3.2460 H   0  0  0  0  0  0  0  0  0  0  0  0
   -3.2599    3.8502   -2.5416 H   0  0  0  0  0  0  0  0  0  0  0  0
   -2.0639    3.7706   -1.2506 H   0  0  0  0  0  0  0  0  0  0  0  0
   -1.5682    3.4959   -2.9313 H   0  0  0  0  0  0  0  0  0  0  0  0
   -4.0471    1.7271   -3.7025 H   0  0  0  0  0  0  0  0  0  0  0  0
   -2.3849    1.2980   -4.1422 H   0  0  0  0  0  0  0  0  0  0  0  0
    0.2203    0.2008    1.7713 H   0  0  0  0  0  0  0  0  0  0  0  0
   -1.3408   -1.7742    3.1113 H   0  0  0  0  0  0  0  0  0  0  0  0
   -5.3762    0.7468    1.5383 H   0  0  0  0  0  0  0  0  0  0  0  0
   -3.3730   -1.6243    4.5287 H   0  0  0  0  0  0  0  0  0  0  0  0
   -5.3599   -0.3623    3.7637 H   0  0  0  0  0  0  0  0  0  0  0  0
    2.1962   -2.2909    1.2769 H   0  0  0  0  0  0  0  0  0  0  0  0
   -0.1998   -5.1704   -3.0897 H   0  0  0  0  0  0  0  0  0  0  0  0
    1.0061   -5.4587   -1.8158 H   0  0  0  0  0  0  0  0  0  0  0  0
    1.4728   -4.6231   -3.3409 H   0  0  0  0  0  0  0  0  0  0  0  0
    3.5002    2.8596   -1.2846 H   0  0  0  0  0  0  0  0  0  0  0  0
    5.5241    0.6257    2.6617 H   0  0  0  0  0  0  0  0  0  0  0  0
    5.3649    3.9238   -0.0780 H   0  0  0  0  0  0  0  0  0  0  0  0
    6.3768    2.8106    1.8919 H   0  0  0  0  0  0  0  0  0  0  0  0
  1 11  1  0  0  0  0
  1 45  1  0  0  0  0
  2 16  2  0  0  0  0
  3 24  1  0  0  0  0
  3 29  1  0  0  0  0
  4 24  2  0  0  0  0
  5 25  2  0  0  0  0
  6 10  1  0  0  0  0
  6 15  1  0  0  0  0
  6 16  1  0  0  0  0
  7 10  1  0  0  0  0
  7 12  1  0  0  0  0
  7 35  1  0  0  0  0
  8 17  1  0  0  0  0
  8 25  1  0  0  0  0
  8 26  1  0  0  0  0
  9 26  2  0  0  0  0
  9 28  1  0  0  0  0
 10 11  1  0  0  0  0
 10 34  1  0  0  0  0
 11 13  1  0  0  0  0
 11 14  1  0  0  0  0
 12 16  1  0  0  0  0
 12 18  1  0  0  0  0
 12 19  1  0  0  0  0
 13 15  1  0  0  0  0
 13 20  2  0  0  0  0
 14 17  1  0  0  0  0
 14 36  1  0  0  0  0
 14 37  1  0  0  0  0
 15 21  2  0  0  0  0
 17 24  1  0  0  0  0
 17 38  1  0  0  0  0
 18 39  1  0  0  0  0
 18 43  1  0  0  0  0
 18 44  1  0  0  0  0
 19 40  1  0  0  0  0
 19 41  1  0  0  0  0
 19 42  1  0  0  0  0
 20 22  1  0  0  0  0
 20 46  1  0  0  0  0
 21 23  1  0  0  0  0
 21 47  1  0  0  0  0
 22 23  2  0  0  0  0
 22 48  1  0  0  0  0
 23 49  1  0  0  0  0
 25 27  1  0  0  0  0
 26 50  1  0  0  0  0
 27 28  1  0  0  0  0
 27 30  2  0  0  0  0
 28 31  2  0  0  0  0
 29 51  1  0  0  0  0
 29 52  1  0  0  0  0
 29 53  1  0  0  0  0
 30 32  1  0  0  0  0
 30 54  1  0  0  0  0
 31 33  1  0  0  0  0
 31 55  1  0  0  0  0
 32 33  2  0  0  0  0
 32 56  1  0  0  0  0
 33 57  1  0  0  0  0
M  END
> <PUBCHEM_COMPOUND_CID>
139586395

> <PUBCHEM_CONFORMER_RMSD>
0.8

> <PUBCHEM_CONFORMER_DIVERSEORDER>
1
32
34
24
43
20
30
7
26
35
42
4
19
14
13
28
12
23
25
17
31
21
45
3
11
9
22
8
15
10
39
41
29
5
44
37
27
2
40
38
33
18
36
16
6

> <PUBCHEM_MMFF94_PARTIAL_CHARGES>
41
1 -0.68
10 0.57
11 0.42
12 0.33
13 -0.14
15 0.12
16 0.57
17 0.36
2 -0.57
20 -0.15
21 -0.15
22 -0.15
23 -0.15
24 0.66
25 0.54
26 0.45
27 0.09
28 0.18
29 0.28
3 -0.43
30 -0.15
31 -0.15
32 -0.15
33 -0.15
35 0.36
4 -0.57
45 0.4
46 0.15
47 0.15
48 0.15
49 0.15
5 -0.57
50 0.06
54 0.15
55 0.15
56 0.15
57 0.15
6 -0.48
7 -0.9
8 -0.42
9 -0.63

> <PUBCHEM_EFFECTIVE_ROTOR_COUNT>
5.6

> <PUBCHEM_PHARMACOPHORE_FEATURES>
13
1 1 acceptor
1 1 donor
1 2 acceptor
1 4 acceptor
1 5 acceptor
1 7 cation
1 7 donor
3 12 18 19 hydrophobe
5 6 10 11 13 15 rings
5 6 7 10 12 16 rings
6 13 15 20 21 22 23 rings
6 27 28 30 31 32 33 rings
6 8 9 25 26 27 28 rings

> <PUBCHEM_HEAVY_ATOM_COUNT>
33

> <PUBCHEM_ATOM_DEF_STEREO_COUNT>
2

> <PUBCHEM_ATOM_UDEF_STEREO_COUNT>
1

> <PUBCHEM_BOND_DEF_STEREO_COUNT>
0

> <PUBCHEM_BOND_UDEF_STEREO_COUNT>
0

> <PUBCHEM_ISOTOPIC_ATOM_COUNT>
0

> <PUBCHEM_COMPONENT_COUNT>
1

> <PUBCHEM_CACTVS_TAUTO_COUNT>
-1

> <PUBCHEM_CONFORMER_ID>
0851EB5B00000001

> <PUBCHEM_MMFF94_ENERGY>
110.3763

> <PUBCHEM_FEATURE_SELFOVERLAP>
66.368

> <PUBCHEM_SHAPE_FINGERPRINT>
10165383 225 17910717346533147566
10319926 262 17530959164541371688
10369192 42 18196957649662500108
11582403 64 17536831599862407535
12128747 34 17460018596923703610
12160290 23 17699269269058733766
12342043 65 17973477354146101299
12422481 6 18188503469995469417
12633257 1 16443057314186771724
12892183 10 17313096497427574704
12930653 34 17530956995181928138
13009979 54 14996295724696819403
133893 2 17702101361639738798
13583140 156 17895462717956588000
13911987 19 18201716301253269056
14932701 244 16556763429052412157
15324884 4 17973197013636608571
15420108 30 17472457659778910701
15513586 35 17397826164866107576
17974551 9 17459169821001452632
17980427 26 17416992563481561294
19319366 153 17202785725053553330
20505436 4 16486709003888332059
20587220 17 14354168672456541367
20600515 1 17240493528595310069
21033648 29 18336250332631538296
21120745 212 16903004189441944446
21756936 100 17131282379865938634
22182313 1 18260838046484872374
23557571 272 17750256762779853743
23559900 14 17605009017292430623
244849 19 18190467047618449127
24941158 1 18056492650747933231
266924 78 17845376540101474831
376196 1 17827886604027080676
3886686 26 16444729555181429025
392239 28 16878511274684186504
469060 322 18266174131434446143
5081480 168 17914357709495208444
5104073 3 17386274485367320552
5252454 2 18198346354539274928
550186 7 17967816067832470180
57527293 21 18116165521899035467
59755656 520 17702960248077781106
6034566 193 18201438137643323137
633830 44 17274835653070157698
6371380 46 16664835243438493322
6523845 18 18199771257115499188
6677587 24 17184407289432116749
6691757 9 17702928349857204642
6823239 73 17679333842940231750
7288768 16 17417263154873831406
7399639 24 18409457985608787319
9862522 239 18264198270347339708
9981440 41 18267845264174896352

> <PUBCHEM_SHAPE_MULTIPOLES>
629.85
10.33
4.03
3.42
6.76
2.3
-0.19
-8
-7
1.44
4.33
-3.72
1.65
4.27

> <PUBCHEM_SHAPE_SELFOVERLAP>
1395.728

> <PUBCHEM_SHAPE_VOLUME>
337

> <PUBCHEM_COORDINATE_TYPE>
2
5
10

$$$$
