REMARK  Name = 139584746
REMARK  4 active torsions:
REMARK  status: ('A' for Active; 'I' for Inactive)
REMARK    1  A    between atoms: C_10  and  C_22
REMARK    2  A    between atoms: C_14  and  O_17
REMARK    3  A    between atoms: C_15  and  O_19
REMARK    4  A    between atoms: C_22  and  O_23
REMARK                            x       y       z     vdW  Elec       q    Type
REMARK                         _______ _______ _______ _____ _____    ______ ____
ROOT
ATOM      1  O   UNL     1       0.451  -0.979   0.013  0.00  0.00    -0.453 OA
ATOM      2  O   UNL     1       4.381   0.541  -0.036  0.00  0.00    -0.475 OA
ATOM      3  O   UNL     1       0.891   3.080  -0.019  0.00  0.00    -0.287 OA
ATOM      4  C   UNL     1       1.919   0.944  -0.013  0.00  0.00    +0.095 A 
ATOM      5  C   UNL     1      -0.571   1.227   0.008  0.00  0.00    +0.077 A 
ATOM      6  C   UNL     1       1.689  -0.375  -0.003  0.00  0.00    +0.151 A 
ATOM      7  C   UNL     1      -0.656  -0.166   0.018  0.00  0.00    +0.158 A 
ATOM      8  C   UNL     1       0.759   1.864  -0.009  0.00  0.00    +0.201 A 
ATOM      9  C   UNL     1       3.311   1.503  -0.030  0.00  0.00    +0.238 C 
ATOM     10  C   UNL     1      -1.904  -0.789   0.034  0.00  0.00    +0.147 C 
ATOM     11  C   UNL     1       2.809  -1.275  -0.007  0.00  0.00    +0.070 C 
ATOM     12  C   UNL     1      -1.732   2.004   0.014  0.00  0.00    +0.046 C 
ATOM     13  C   UNL     1       4.066  -0.802  -0.023  0.00  0.00    +0.120 C 
ATOM     14  C   UNL     1      -3.065  -0.016   0.039  0.00  0.00    +0.177 C 
ATOM     15  C   UNL     1      -2.979   1.377   0.030  0.00  0.00    +0.168 C 
ATOM     16  C   UNL     1       5.250  -1.716  -0.029  0.00  0.00    +0.072 C 
ENDROOT
BRANCH  14  17
ATOM     17  O   UNL     1      -4.292  -0.613   0.055  0.00  0.00    -0.503 OA
ATOM     18  H   UNL     1      -4.358  -1.548   0.061  0.00  0.00    +0.292 HD
ENDBRANCH  14  17
BRANCH  15  19
ATOM     19  O   UNL     1      -4.108   2.140   0.036  0.00  0.00    -0.503 OA
ATOM     20  H   UNL     1      -4.042   3.075   0.030  0.00  0.00    +0.292 HD
ENDBRANCH  15  19
BRANCH  10  22
ATOM     21  O   UNL     1      -1.541  -2.983   0.916  0.00  0.00    -0.245 OA
ATOM     22  C   UNL     1      -2.003  -2.245   0.044  0.00  0.00    +0.344 C 
BRANCH  22  23
ATOM     23  O   UNL     1      -2.676  -2.723  -1.036  0.00  0.00    -0.477 OA
ATOM     24  H   UNL     1      -3.013  -2.130  -1.679  0.00  0.00    +0.295 HD
ENDBRANCH  22  23
ENDBRANCH  10  22
TORSDOF 4
