REMARK  Name = 139586595
REMARK  9 active torsions:
REMARK  status: ('A' for Active; 'I' for Inactive)
REMARK    1  A    between atoms: C_6  and  C_20
REMARK    2  A    between atoms: C_7  and  O_17
REMARK    3  A    between atoms: C_7  and  C_23
REMARK    4  A    between atoms: C_16  and  C_29
REMARK    5  A    between atoms: C_20  and  O_21
REMARK    6  A    between atoms: C_23  and  C_25
REMARK    7  A    between atoms: C_25  and  O_27
REMARK    8  A    between atoms: C_30  and  C_31
REMARK    9  A    between atoms: C_31  and  C_33
REMARK                            x       y       z     vdW  Elec       q    Type
REMARK                         _______ _______ _______ _____ _____    ______ ____
ROOT
ATOM      1 CL   UNL     1      -0.713  -3.906  -1.635  0.00  0.00    -0.102 Cl
ATOM      2  O   UNL     1       3.202  -1.137   0.048  0.00  0.00    -0.331 OA
ATOM      3  O   UNL     1       2.079  -3.231  -1.171  0.00  0.00    -0.292 OA
ATOM      4  O   UNL     1      -2.632   0.427   0.839  0.00  0.00    -0.471 OA
ATOM      5  C   UNL     1       1.091  -0.172   0.478  0.00  0.00    +0.069 C 
ATOM      6  C   UNL     1       1.715   0.568  -0.701  0.00  0.00    +0.157 C 
ATOM      7  C   UNL     1       3.188   0.137  -0.630  0.00  0.00    +0.196 C 
ATOM      8  C   UNL     1       1.874  -1.476   0.466  0.00  0.00    +0.151 C 
ATOM      9  C   UNL     1      -0.397  -0.358   0.379  0.00  0.00    -0.000 C 
ATOM     10  C   UNL     1       1.331  -2.467  -0.560  0.00  0.00    +0.194 C 
ATOM     11  C   UNL     1       1.945  -2.159   1.828  0.00  0.00    +0.038 C 
ATOM     12  C   UNL     1      -0.954  -1.533  -0.306  0.00  0.00    -0.002 C 
ATOM     13  C   UNL     1      -0.149  -2.511  -0.774  0.00  0.00    +0.161 C 
ATOM     14  C   UNL     1      -1.257   0.524   0.917  0.00  0.00    +0.228 C 
ATOM     15  C   UNL     1      -2.413  -1.581  -0.459  0.00  0.00    +0.034 C 
ATOM     16  C   UNL     1      -3.172  -0.627   0.110  0.00  0.00    +0.138 C 
ENDROOT
BRANCH   7  17
ATOM     17  O   UNL     1       3.676   0.002  -1.963  0.00  0.00    -0.363 OA
ATOM     18  H   UNL     1       3.092  -0.589  -2.463  0.00  0.00    +0.213 HD
ENDBRANCH   7  17
BRANCH   6  20
ATOM     19  O   UNL     1       0.884   2.612   0.266  0.00  0.00    -0.250 OA
ATOM     20  C   UNL     1       1.514   2.052  -0.622  0.00  0.00    +0.322 C 
BRANCH  20  21
ATOM     21  O   UNL     1       2.135   2.654  -1.676  0.00  0.00    -0.444 OA
ATOM     22  C   UNL     1       2.023   4.080  -1.724  0.00  0.00    +0.256 C 
ENDBRANCH  20  21
ENDBRANCH   6  20
BRANCH   7  23
ATOM     23  C   UNL     1       4.108   1.070   0.158  0.00  0.00    +0.079 C 
ATOM     24  C   UNL     1       5.502   1.075  -0.484  0.00  0.00    +0.008 C 
BRANCH  23  25
ATOM     25  C   UNL     1       4.195   0.692   1.652  0.00  0.00    +0.115 C 
ATOM     26  C   UNL     1       5.196  -0.422   1.941  0.00  0.00    +0.032 C 
BRANCH  25  27
ATOM     27  O   UNL     1       4.599   1.846   2.391  0.00  0.00    -0.384 OA
ATOM     28  H   UNL     1       3.976   2.571   2.224  0.00  0.00    +0.210 HD
ENDBRANCH  25  27
ENDBRANCH  23  25
ENDBRANCH   7  23
BRANCH  16  29
ATOM     29  C   UNL     1      -4.606  -0.604   0.023  0.00  0.00    +0.032 C 
ATOM     30  C   UNL     1      -5.364   0.344   0.589  0.00  0.00    -0.023 C 
BRANCH  30  31
ATOM     31  C   UNL     1      -6.872   0.372   0.499  0.00  0.00    +0.022 C 
ATOM     32  C   UNL     1      -7.466   0.246   1.904  0.00  0.00    +0.005 C 
BRANCH  31  33
ATOM     33  C   UNL     1      -7.379   1.659  -0.177  0.00  0.00    +0.004 C 
ATOM     34  C   UNL     1      -6.882   1.824  -1.608  0.00  0.00    +0.000 C 
ENDBRANCH  31  33
ENDBRANCH  30  31
ENDBRANCH  16  29
TORSDOF 9
