REMARK  Name = 139586985
REMARK  5 active torsions:
REMARK  status: ('A' for Active; 'I' for Inactive)
REMARK    1  A    between atoms: C_5  and  C_20
REMARK    2  A    between atoms: C_7  and  N_28
REMARK    3  A    between atoms: C_14  and  O_22
REMARK    4  A    between atoms: C_18  and  O_24
REMARK    5  A    between atoms: C_20  and  O_26
REMARK                            x       y       z     vdW  Elec       q    Type
REMARK                         _______ _______ _______ _____ _____    ______ ____
ROOT
ATOM      1  O   UNL     1      -1.231  -0.817   0.126  0.00  0.00    -0.433 OA
ATOM      2  O   UNL     1      -3.274   2.686  -1.038  0.00  0.00    -0.275 OA
ATOM      3  O   UNL     1      -3.247  -1.758  -0.498  0.00  0.00    -0.252 OA
ATOM      4  N   UNL     1      -1.911   0.903  -1.413  0.00  0.00    -0.271 N 
ATOM      5  C   UNL     1      -0.911  -0.133  -1.102  0.00  0.00    +0.247 C 
ATOM      6  C   UNL     1      -0.779  -1.137  -2.251  0.00  0.00    +0.074 C 
ATOM      7  C   UNL     1      -2.942  -0.713   1.682  0.00  0.00    +0.036 C 
ATOM      8  C   UNL     1      -3.399   0.750   1.562  0.00  0.00    -0.001 C 
ATOM      9  C   UNL     1      -2.358   1.688   0.928  0.00  0.00    +0.084 C 
ATOM     10  C   UNL     1      -2.537   1.807  -0.580  0.00  0.00    +0.225 C 
ATOM     11  C   UNL     1      -2.521  -1.220   0.324  0.00  0.00    +0.298 C 
ATOM     12  H   UNL     1      -2.172   0.960  -2.360  0.00  0.00    +0.153 HD
ENDROOT
BRANCH   5  20
ATOM     13  O   UNL     1       2.989   1.709  -1.166  0.00  0.00    -0.289 OA
ATOM     14  C   UNL     1       1.694  -1.583  -0.365  0.00  0.00    +0.113 C 
ATOM     15  C   UNL     1       2.553  -1.855   0.882  0.00  0.00    +0.034 C 
ATOM     16  C   UNL     1       1.543  -0.097  -0.596  0.00  0.00    +0.073 C 
ATOM     17  C   UNL     1       3.887  -1.110   0.860  0.00  0.00    +0.040 C 
ATOM     18  C   UNL     1       3.696   0.396   0.711  0.00  0.00    +0.176 C 
ATOM     19  C   UNL     1       2.770   0.745  -0.436  0.00  0.00    +0.201 C 
ATOM     20  C   UNL     1       0.410   0.551  -0.905  0.00  0.00    +0.167 C 
ATOM     21  C   UNL     1       2.279  -2.248  -1.618  0.00  0.00    +0.034 C 
BRANCH  14  22
ATOM     22  O   UNL     1       0.411  -2.176  -0.132  0.00  0.00    -0.382 OA
ATOM     23  H   UNL     1       0.009  -1.778   0.656  0.00  0.00    +0.211 HD
ENDBRANCH  14  22
BRANCH  18  24
ATOM     24  O   UNL     1       3.120   0.924   1.895  0.00  0.00    -0.346 OA
ATOM     25  C   UNL     1       3.377   2.317   2.029  0.00  0.00    +0.175 C 
ENDBRANCH  18  24
BRANCH  20  26
ATOM     26  O   UNL     1       0.416   1.923  -1.062  0.00  0.00    -0.505 OA
ATOM     27  H   UNL     1       1.213   2.404  -0.951  0.00  0.00    +0.292 HD
ENDBRANCH  20  26
ENDBRANCH   5  20
BRANCH   7  28
ATOM     28  N   UNL     1      -4.036  -1.553   2.162  0.00  0.00    +0.389 N 
ATOM     29  H   UNL     1      -4.337  -1.228   3.080  0.00  0.00    -0.088 HD
ATOM     30  H   UNL     1      -3.718  -2.520   2.230  0.00  0.00    -0.088 HD
ATOM     31  H   UNL     1      -4.818  -1.499   1.509  0.00  0.00    -0.088 HD
ENDBRANCH   7  28
TORSDOF 5
