REMARK  Name = 139587257
REMARK  8 active torsions:
REMARK  status: ('A' for Active; 'I' for Inactive)
REMARK    1  A    between atoms: C_2  and  C_6
REMARK    2  A    between atoms: C_2  and  C_16
REMARK    3  A    between atoms: C_7  and  O_14
REMARK    4  A    between atoms: C_16  and  C_17
REMARK    5  A    between atoms: C_17  and  O_18
REMARK    6  A    between atoms: C_17  and  C_20
REMARK    7  A    between atoms: C_20  and  C_21
REMARK    8  A    between atoms: C_21  and  O_23
REMARK                            x       y       z     vdW  Elec       q    Type
REMARK                         _______ _______ _______ _____ _____    ______ ____
ROOT
ATOM      1  N   UNL     1       0.204   2.360   0.385  0.00  0.00    -0.302 NA
ATOM      2  C   UNL     1       0.218   1.193  -0.177  0.00  0.00    +0.059 C 
ATOM      3  H   UNL     1       0.997   2.941   0.332  0.00  0.00    +0.186 HD
ENDROOT
BRANCH   2   6
ATOM      4  O   UNL     1       0.003  -1.899  -0.187  0.00  0.00    -0.270 OA
ATOM      5  N   UNL     1      -2.318  -1.542  -0.037  0.00  0.00    -0.278 N 
ATOM      6  C   UNL     1      -0.960   0.309  -0.109  0.00  0.00    +0.101 C 
ATOM      7  C   UNL     1      -2.243   0.691  -0.025  0.00  0.00    +0.152 C 
ATOM      8  C   UNL     1      -3.127  -0.442   0.022  0.00  0.00    +0.077 C 
ATOM      9  C   UNL     1      -0.979  -1.181  -0.119  0.00  0.00    +0.254 C 
ATOM     10  C   UNL     1      -4.459  -0.500   0.106  0.00  0.00    -0.027 C 
ATOM     11  C   UNL     1      -5.310   0.738   0.168  0.00  0.00    +0.028 C 
ATOM     12  C   UNL     1      -5.201  -1.806   0.143  0.00  0.00    +0.028 C 
ATOM     13  H   UNL     1      -2.642  -2.471  -0.024  0.00  0.00    +0.155 HD
BRANCH   7  14
ATOM     14  O   UNL     1      -2.693   1.980   0.012  0.00  0.00    -0.504 OA
ATOM     15  H   UNL     1      -2.083   2.690  -0.021  0.00  0.00    +0.292 HD
ENDBRANCH   7  14
ENDBRANCH   2   6
BRANCH   2  16
ATOM     16  C   UNL     1       1.442   0.703  -0.928  0.00  0.00    +0.075 C 
BRANCH  16  17
ATOM     17  C   UNL     1       2.651   0.577   0.005  0.00  0.00    +0.119 C 
BRANCH  17  18
ATOM     18  O   UNL     1       3.209   1.870   0.229  0.00  0.00    -0.384 OA
ATOM     19  H   UNL     1       3.975   1.794   0.819  0.00  0.00    +0.210 HD
ENDBRANCH  17  18
BRANCH  17  20
ATOM     20  C   UNL     1       3.728  -0.313  -0.626  0.00  0.00    +0.059 C 
BRANCH  20  21
ATOM     21  C   UNL     1       5.020  -0.431   0.195  0.00  0.00    +0.113 C 
ATOM     22  C   UNL     1       6.110  -1.242  -0.494  0.00  0.00    +0.032 C 
BRANCH  21  23
ATOM     23  O   UNL     1       4.706  -1.063   1.437  0.00  0.00    -0.384 OA
ATOM     24  H   UNL     1       4.012  -0.559   1.890  0.00  0.00    +0.210 HD
ENDBRANCH  21  23
ENDBRANCH  20  21
ENDBRANCH  17  20
ENDBRANCH  16  17
ENDBRANCH   2  16
TORSDOF 8
