REMARK  Name = 139586395
REMARK  6 active torsions:
REMARK  status: ('A' for Active; 'I' for Inactive)
REMARK    1  A    between atoms: C_5  and  O_18
REMARK    2  A    between atoms: C_5  and  C_20
REMARK    3  A    between atoms: C_20  and  C_21
REMARK    4  A    between atoms: C_21  and  N_23
REMARK    5  A    between atoms: C_21  and  C_34
REMARK    6  A    between atoms: C_34  and  O_35
REMARK                            x       y       z     vdW  Elec       q    Type
REMARK                         _______ _______ _______ _____ _____    ______ ____
ROOT
ATOM      1  O   UNL     1      -4.713   2.193  -0.757  0.00  0.00    -0.277 OA
ATOM      2  N   UNL     1      -3.122   0.569  -0.178  0.00  0.00    -0.279 N 
ATOM      3  N   UNL     1      -1.425   1.110  -1.566  0.00  0.00    +0.406 N 
ATOM      4  C   UNL     1      -1.910   0.026  -0.726  0.00  0.00    +0.052 C 
ATOM      5  C   UNL     1      -1.111  -0.471   0.501  0.00  0.00    +0.109 C 
ATOM      6  C   UNL     1      -2.646   1.823  -2.042  0.00  0.00    +0.028 C 
ATOM      7  C   UNL     1      -2.236  -0.639   1.508  0.00  0.00    +0.015 C 
ATOM      8  C   UNL     1      -3.381   0.054   1.079  0.00  0.00    +0.050 C 
ATOM      9  C   UNL     1      -3.673   1.579  -0.927  0.00  0.00    +0.209 C 
ATOM     10  C   UNL     1      -3.142   1.215  -3.355  0.00  0.00    -0.012 C 
ATOM     11  C   UNL     1      -2.365   3.316  -2.202  0.00  0.00    -0.012 C 
ATOM     12  C   UNL     1      -2.219  -1.252   2.748  0.00  0.00    -0.001 C 
ATOM     13  C   UNL     1      -4.505   0.193   1.868  0.00  0.00    +0.015 C 
ATOM     14  C   UNL     1      -3.362  -1.154   3.549  0.00  0.00    -0.000 C 
ATOM     15  C   UNL     1      -4.491  -0.434   3.115  0.00  0.00    +0.001 C 
ATOM     16  H   UNL     1      -0.898   0.740  -2.357  0.00  0.00    -0.081 HD
ATOM     17  H   UNL     1      -0.798   1.733  -1.057  0.00  0.00    -0.081 HD
ENDROOT
BRANCH   5  18
ATOM     18  O   UNL     1      -0.245   0.548   0.991  0.00  0.00    -0.383 OA
ATOM     19  H   UNL     1      -0.760   1.350   1.171  0.00  0.00    +0.211 HD
ENDBRANCH   5  18
BRANCH   5  20
ATOM     20  C   UNL     1      -0.307  -1.732   0.217  0.00  0.00    +0.062 C 
BRANCH  20  21
ATOM     21  C   UNL     1       0.852  -1.526  -0.766  0.00  0.00    +0.179 C 
BRANCH  21  23
ATOM     22  O   UNL     1       1.820   1.002  -1.673  0.00  0.00    -0.270 OA
ATOM     23  N   UNL     1       1.930  -0.780  -0.166  0.00  0.00    -0.246 N 
ATOM     24  N   UNL     1       3.549  -0.765   1.589  0.00  0.00    -0.252 NA
ATOM     25  C   UNL     1       2.327   0.458  -0.697  0.00  0.00    +0.252 C 
ATOM     26  C   UNL     1       2.570  -1.311   0.946  0.00  0.00    +0.222 C 
ATOM     27  C   UNL     1       3.447   1.118   0.013  0.00  0.00    +0.067 C 
ATOM     28  C   UNL     1       4.011   0.478   1.125  0.00  0.00    +0.064 C 
ATOM     29  C   UNL     1       3.930   2.356  -0.424  0.00  0.00    +0.005 C 
ATOM     30  C   UNL     1       5.069   1.101   1.796  0.00  0.00    +0.072 C 
ATOM     31  C   UNL     1       4.986   2.962   0.256  0.00  0.00    -0.004 C 
ATOM     32  C   UNL     1       5.555   2.337   1.364  0.00  0.00    -0.020 C 
ENDBRANCH  21  23
BRANCH  21  34
ATOM     33  O   UNL     1       2.473  -3.260  -1.225  0.00  0.00    -0.248 OA
ATOM     34  C   UNL     1       1.323  -2.850  -1.353  0.00  0.00    +0.335 C 
BRANCH  34  35
ATOM     35  O   UNL     1       0.327  -3.502  -2.014  0.00  0.00    -0.443 OA
ATOM     36  C   UNL     1       0.685  -4.761  -2.595  0.00  0.00    +0.256 C 
ENDBRANCH  34  35
ENDBRANCH  21  34
ENDBRANCH  20  21
ENDBRANCH   5  20
TORSDOF 6
