139585566
  -OEChem-03292013293D

 71 75  0     1  0  0  0  0  0999 V2000
    4.4403   -0.2609   -1.0483 O   0  0  0  0  0  0  0  0  0  0  0  0
   -0.4689    2.5805   -1.0641 O   0  0  0  0  0  0  0  0  0  0  0  0
    1.3623    3.1185    0.8861 O   0  0  0  0  0  0  0  0  0  0  0  0
   -6.9697   -0.7543    0.1135 O   0  0  0  0  0  0  0  0  0  0  0  0
   -0.8008   -2.9686    0.4527 O   0  0  0  0  0  0  0  0  0  0  0  0
    6.1650    0.1806   -2.4946 O   0  0  0  0  0  0  0  0  0  0  0  0
    1.7257   -0.3426    0.3393 C   0  0  1  0  0  0  0  0  0  0  0  0
    0.7884    0.7280    0.9778 C   0  0  2  0  0  0  0  0  0  0  0  0
   -2.6233   -0.7644   -0.3432 C   0  0  1  0  0  0  0  0  0  0  0  0
    3.1106    0.0035    0.9460 C   0  0  2  0  0  0  0  0  0  0  0  0
   -3.4038    0.5780   -0.0386 C   0  0  2  0  0  0  0  0  0  0  0  0
   -0.5723    0.6209    0.3133 C   0  0  0  0  0  0  0  0  0  0  0  0
   -1.1572   -0.5990    0.1569 C   0  0  0  0  0  0  0  0  0  0  0  0
   -4.9582    0.5884   -0.2868 C   0  0  0  0  0  0  0  0  0  0  0  0
    1.1885   -1.7175    0.7137 C   0  0  0  0  0  0  0  0  0  0  0  0
   -2.6631    1.7601   -0.6699 C   0  0  0  0  0  0  0  0  0  0  0  0
    3.1800    1.5358    0.8199 C   0  0  0  0  0  0  0  0  0  0  0  0
   -1.2591    1.9084   -0.0818 C   0  0  2  0  0  0  0  0  0  0  0  0
    1.7174    1.9470    0.8628 C   0  0  0  0  0  0  0  0  0  0  0  0
    4.3215   -0.6830    0.3223 C   0  0  2  0  0  0  0  0  0  0  0  0
   -3.3940   -1.9070    0.3766 C   0  0  0  0  0  0  0  0  0  0  0  0
   -0.3099   -1.8396    0.4416 C   0  0  0  0  0  0  0  0  0  0  0  0
   -5.5824   -0.6400    0.4279 C   0  0  2  0  0  0  0  0  0  0  0  0
    1.7924   -0.2502   -1.2212 C   0  0  0  0  0  0  0  0  0  0  0  0
    0.5478    0.6078    2.5102 C   0  0  0  0  0  0  0  0  0  0  0  0
   -4.8897   -1.9479    0.0774 C   0  0  0  0  0  0  0  0  0  0  0  0
   -2.4971   -1.1128   -1.8437 C   0  0  0  0  0  0  0  0  0  0  0  0
    5.6251   -0.2293    0.9600 C   0  0  0  0  0  0  0  0  0  0  0  0
   -5.5807    1.8562    0.3662 C   0  0  0  0  0  0  0  0  0  0  0  0
   -5.3623    0.6416   -1.7750 C   0  0  0  0  0  0  0  0  0  0  0  0
    4.1494   -2.2035    0.3532 C   0  0  0  0  0  0  0  0  0  0  0  0
    6.6197   -0.3389   -0.1735 C   0  0  0  0  0  0  0  0  0  0  0  0
    5.7584   -0.0956   -1.3766 C   0  0  0  0  0  0  0  0  0  0  0  0
    3.1070   -0.2553    2.0139 H   0  0  0  0  0  0  0  0  0  0  0  0
   -3.3114    0.7204    1.0527 H   0  0  0  0  0  0  0  0  0  0  0  0
    1.3546   -1.9479    1.7718 H   0  0  0  0  0  0  0  0  0  0  0  0
    1.6404   -2.5138    0.1201 H   0  0  0  0  0  0  0  0  0  0  0  0
   -3.1868    2.7060   -0.4972 H   0  0  0  0  0  0  0  0  0  0  0  0
   -2.6165    1.6639   -1.7606 H   0  0  0  0  0  0  0  0  0  0  0  0
    3.6126    1.8917   -0.1185 H   0  0  0  0  0  0  0  0  0  0  0  0
    3.7007    1.9828    1.6714 H   0  0  0  0  0  0  0  0  0  0  0  0
   -1.3175    2.5510    0.8056 H   0  0  0  0  0  0  0  0  0  0  0  0
   -3.2517   -1.8202    1.4621 H   0  0  0  0  0  0  0  0  0  0  0  0
   -3.0093   -2.8884    0.0829 H   0  0  0  0  0  0  0  0  0  0  0  0
   -5.5154   -0.4944    1.5143 H   0  0  0  0  0  0  0  0  0  0  0  0
    2.3500   -1.0794   -1.6653 H   0  0  0  0  0  0  0  0  0  0  0  0
    0.8022   -0.3182   -1.6833 H   0  0  0  0  0  0  0  0  0  0  0  0
    2.2122    0.6969   -1.5739 H   0  0  0  0  0  0  0  0  0  0  0  0
    1.4717    0.6755    3.0943 H   0  0  0  0  0  0  0  0  0  0  0  0
    0.0484   -0.3238    2.7951 H   0  0  0  0  0  0  0  0  0  0  0  0
   -0.0904    1.4304    2.8592 H   0  0  0  0  0  0  0  0  0  0  0  0
   -5.0724   -2.2125   -0.9703 H   0  0  0  0  0  0  0  0  0  0  0  0
   -5.3469   -2.7630    0.6536 H   0  0  0  0  0  0  0  0  0  0  0  0
   -3.4549   -1.3221   -2.3172 H   0  0  0  0  0  0  0  0  0  0  0  0
   -1.8934   -2.0184   -1.9851 H   0  0  0  0  0  0  0  0  0  0  0  0
   -2.0062   -0.3210   -2.4183 H   0  0  0  0  0  0  0  0  0  0  0  0
    5.9118   -0.8247    1.8328 H   0  0  0  0  0  0  0  0  0  0  0  0
    5.5963    0.8166    1.2825 H   0  0  0  0  0  0  0  0  0  0  0  0
   -6.6762    1.8179    0.3508 H   0  0  0  0  0  0  0  0  0  0  0  0
   -5.2936    2.7724   -0.1591 H   0  0  0  0  0  0  0  0  0  0  0  0
   -5.2725    1.9562    1.4129 H   0  0  0  0  0  0  0  0  0  0  0  0
   -6.4324    0.8572   -1.8840 H   0  0  0  0  0  0  0  0  0  0  0  0
   -5.1929   -0.2996   -2.2968 H   0  0  0  0  0  0  0  0  0  0  0  0
   -4.8302    1.4315   -2.3137 H   0  0  0  0  0  0  0  0  0  0  0  0
    5.1202   -2.6978    0.2202 H   0  0  0  0  0  0  0  0  0  0  0  0
    3.5551   -2.5780   -0.4826 H   0  0  0  0  0  0  0  0  0  0  0  0
    3.7590   -2.5605    1.3109 H   0  0  0  0  0  0  0  0  0  0  0  0
    7.0597   -1.3375   -0.2406 H   0  0  0  0  0  0  0  0  0  0  0  0
    7.4022    0.4193   -0.0930 H   0  0  0  0  0  0  0  0  0  0  0  0
   -0.8819    3.4451   -1.2310 H   0  0  0  0  0  0  0  0  0  0  0  0
   -7.3240   -1.5094    0.6133 H   0  0  0  0  0  0  0  0  0  0  0  0
  1 20  1  0  0  0  0
  1 33  1  0  0  0  0
  2 18  1  0  0  0  0
  2 70  1  0  0  0  0
  3 19  2  0  0  0  0
  4 23  1  0  0  0  0
  4 71  1  0  0  0  0
  5 22  2  0  0  0  0
  6 33  2  0  0  0  0
  7  8  1  0  0  0  0
  7 10  1  0  0  0  0
  7 15  1  0  0  0  0
  7 24  1  0  0  0  0
  8 12  1  0  0  0  0
  8 19  1  0  0  0  0
  8 25  1  0  0  0  0
  9 11  1  0  0  0  0
  9 13  1  0  0  0  0
  9 21  1  0  0  0  0
  9 27  1  0  0  0  0
 10 17  1  0  0  0  0
 10 20  1  0  0  0  0
 10 34  1  0  0  0  0
 11 14  1  0  0  0  0
 11 16  1  0  0  0  0
 11 35  1  0  0  0  0
 12 13  2  0  0  0  0
 12 18  1  0  0  0  0
 13 22  1  0  0  0  0
 14 23  1  0  0  0  0
 14 29  1  0  0  0  0
 14 30  1  0  0  0  0
 15 22  1  0  0  0  0
 15 36  1  0  0  0  0
 15 37  1  0  0  0  0
 16 18  1  0  0  0  0
 16 38  1  0  0  0  0
 16 39  1  0  0  0  0
 17 19  1  0  0  0  0
 17 40  1  0  0  0  0
 17 41  1  0  0  0  0
 18 42  1  0  0  0  0
 20 28  1  0  0  0  0
 20 31  1  0  0  0  0
 21 26  1  0  0  0  0
 21 43  1  0  0  0  0
 21 44  1  0  0  0  0
 23 26  1  0  0  0  0
 23 45  1  0  0  0  0
 24 46  1  0  0  0  0
 24 47  1  0  0  0  0
 24 48  1  0  0  0  0
 25 49  1  0  0  0  0
 25 50  1  0  0  0  0
 25 51  1  0  0  0  0
 26 52  1  0  0  0  0
 26 53  1  0  0  0  0
 27 54  1  0  0  0  0
 27 55  1  0  0  0  0
 27 56  1  0  0  0  0
 28 32  1  0  0  0  0
 28 57  1  0  0  0  0
 28 58  1  0  0  0  0
 29 59  1  0  0  0  0
 29 60  1  0  0  0  0
 29 61  1  0  0  0  0
 30 62  1  0  0  0  0
 30 63  1  0  0  0  0
 30 64  1  0  0  0  0
 31 65  1  0  0  0  0
 31 66  1  0  0  0  0
 31 67  1  0  0  0  0
 32 33  1  0  0  0  0
 32 68  1  0  0  0  0
 32 69  1  0  0  0  0
M  END
> <PUBCHEM_COMPOUND_CID>
139585566

> <PUBCHEM_CONFORMER_RMSD>
0.8

> <PUBCHEM_CONFORMER_DIVERSEORDER>
2
1
3
5
4

> <PUBCHEM_MMFF94_PARTIAL_CHARGES>
21
1 -0.43
12 -0.28
13 -0.12
15 0.06
17 0.06
18 0.42
19 0.45
2 -0.68
20 0.28
22 0.49
23 0.28
3 -0.57
32 0.06
33 0.66
4 -0.68
5 -0.57
6 -0.57
70 0.4
71 0.4
8 0.2
9 0.14

> <PUBCHEM_EFFECTIVE_ROTOR_COUNT>
3.6

> <PUBCHEM_PHARMACOPHORE_FEATURES>
13
1 2 acceptor
1 2 donor
1 3 acceptor
1 4 acceptor
1 4 donor
1 5 acceptor
1 6 acceptor
3 14 29 30 hydrophobe
5 1 20 28 32 33 rings
5 7 8 10 17 19 rings
6 7 8 12 13 15 22 rings
6 9 11 12 13 16 18 rings
6 9 11 14 21 23 26 rings

> <PUBCHEM_HEAVY_ATOM_COUNT>
33

> <PUBCHEM_ATOM_DEF_STEREO_COUNT>
7

> <PUBCHEM_ATOM_UDEF_STEREO_COUNT>
1

> <PUBCHEM_BOND_DEF_STEREO_COUNT>
0

> <PUBCHEM_BOND_UDEF_STEREO_COUNT>
0

> <PUBCHEM_ISOTOPIC_ATOM_COUNT>
0

> <PUBCHEM_COMPONENT_COUNT>
1

> <PUBCHEM_CACTVS_TAUTO_COUNT>
-1

> <PUBCHEM_CONFORMER_ID>
0851E81E00000002

> <PUBCHEM_MMFF94_ENERGY>
132.5911

> <PUBCHEM_FEATURE_SELFOVERLAP>
66.071

> <PUBCHEM_SHAPE_FINGERPRINT>
10076449 9 18343311366577388984
10675989 125 16678644950633919181
10906281 52 18272104785432382512
11421498 54 16878213173878431912
11488393 25 17630052550710185463
11578080 2 17898299557115349436
11963148 33 18335693966293964275
12011746 2 18410852153013893389
12107698 1 18272086128310823943
12166972 35 17458346368132999701
12236239 1 17240201019235555958
12403259 415 18334847346903445205
12516196 113 16128369376908656002
12633257 1 16701737254569081053
12788726 201 18199469879086467088
13140716 1 18192985148125806482
13224815 77 18339347657086721657
13402501 40 18411979165364965907
13533116 47 13901913280790514734
13782708 43 17845930848802359423
14294032 229 18117283544989454876
14790565 3 18408324388819980377
14856354 85 18187372051609883551
14955137 171 17561085834080589504
15183329 4 18411136926551880849
15475509 8 17988095387006543304
15575132 122 17530963544996680549
15788980 27 16630524046358219009
1601671 61 18410570661100088803
16728300 4 12462190687775538572
17349148 13 15554451824838358243
18393751 57 15901467848220554569
18470217 77 14315076086118188528
18608769 82 18334859475833437435
18681886 176 18187078494689436145
19319366 153 17821721711376970610
20691752 17 18117533275740489283
21033648 29 17917414442283666873
21033650 10 17826254920940726884
21267235 1 18410577314595247987
21279426 13 18267300937326128303
21792961 116 18336274461958156322
221357 26 18413105065224121368
22182313 1 18192123045121125441
23522609 53 18117583780341005748
23559900 14 18342730866633501904
23569914 152 16264056541621841900
23569914 2 15723009242299275596
23569943 247 17272871809223932510
24771750 20 18047482393956831004
3004659 81 18188489069877948434
3178227 256 18409459085325949195
335352 9 18411978070121717311
340366 18 17917709166480098502
34797466 226 18130513002766036556
350125 39 18408884018853170825
3633792 109 14117242690104302381
4058900 60 17823696365851377403
4093350 32 16988841705334576408
437815 12 17846781810197786784
5104073 3 18339913896442059521
5265222 85 18267312104636821502
59755656 215 18413388713539102134
6823239 73 18410564119638433809

> <PUBCHEM_SHAPE_MULTIPOLES>
643.91
14.66
2.49
1.54
1.46
0.31
-0.38
-1.99
-4.01
-1.09
0.41
1.14
0.23
0.43

> <PUBCHEM_SHAPE_SELFOVERLAP>
1404.657

> <PUBCHEM_SHAPE_VOLUME>
346.4

> <PUBCHEM_COORDINATE_TYPE>
2
5
10

$$$$
