139583422
  -OEChem-03292013293D

 47 52  0     1  0  0  0  0  0999 V2000
    0.6865   -2.5033    1.8765 S   0  0  0  0  0  0  0  0  0  0  0  0
   -0.9585   -1.5904    2.7240 S   0  0  0  0  0  0  0  0  0  0  0  0
    1.7738    2.7464   -0.2508 O   0  0  0  0  0  0  0  0  0  0  0  0
    0.0687    1.7198    2.0525 O   0  0  0  0  0  0  0  0  0  0  0  0
   -0.4036   -2.2063   -1.4505 O   0  0  0  0  0  0  0  0  0  0  0  0
   -2.8108   -1.5009   -2.6139 O   0  0  0  0  0  0  0  0  0  0  0  0
    4.5637    2.3874   -0.1413 O   0  0  0  0  0  0  0  0  0  0  0  0
    5.4401   -1.2718   -0.3571 O   0  0  0  0  0  0  0  0  0  0  0  0
   -5.3010    1.3838    1.0332 O   0  0  0  0  0  0  0  0  0  0  0  0
    1.0427   -0.0111    0.8277 N   0  0  0  0  0  0  0  0  0  0  0  0
   -1.3643   -0.7736    0.1284 N   0  0  0  0  0  0  0  0  0  0  0  0
    0.9249   -1.4178    0.4206 C   0  0  1  0  0  0  0  0  0  0  0  0
   -1.2454   -0.2553    1.5042 C   0  0  1  0  0  0  0  0  0  0  0  0
    2.3776    0.5423    0.5798 C   0  0  1  0  0  0  0  0  0  0  0  0
    3.2210   -0.7198    0.3394 C   0  0  1  0  0  0  0  0  0  0  0  0
    2.2355   -1.7008   -0.3123 C   0  0  0  0  0  0  0  0  0  0  0  0
   -2.6906   -0.5139   -0.4085 C   0  0  1  0  0  0  0  0  0  0  0  0
   -2.5798    0.4626    1.7716 C   0  0  0  0  0  0  0  0  0  0  0  0
   -3.0703    0.7585    0.3574 C   0  0  2  0  0  0  0  0  0  0  0  0
   -0.0052    0.6358    1.4845 C   0  0  0  0  0  0  0  0  0  0  0  0
   -0.3287   -1.5063   -0.4471 C   0  0  0  0  0  0  0  0  0  0  0  0
    2.3538    1.4975   -0.6243 C   0  0  2  0  0  0  0  0  0  0  0  0
    4.4672   -0.5283   -0.5004 C   0  0  0  0  0  0  0  0  0  0  0  0
   -2.8583   -0.2618   -1.9092 C   0  0  2  0  0  0  0  0  0  0  0  0
    3.7589    1.7801   -1.1528 C   0  0  2  0  0  0  0  0  0  0  0  0
    4.4413    0.5014   -1.6073 C   0  0  0  0  0  0  0  0  0  0  0  0
   -4.5378    1.0287    0.1418 C   0  0  0  0  0  0  0  0  0  0  0  0
   -4.1983    0.3841   -2.1951 C   0  0  0  0  0  0  0  0  0  0  0  0
   -5.0030    0.9331   -1.2710 C   0  0  0  0  0  0  0  0  0  0  0  0
    2.6968    1.0801    1.4805 H   0  0  0  0  0  0  0  0  0  0  0  0
    3.5375   -1.1165    1.3138 H   0  0  0  0  0  0  0  0  0  0  0  0
    2.1443   -1.4848   -1.3848 H   0  0  0  0  0  0  0  0  0  0  0  0
    2.5732   -2.7402   -0.2333 H   0  0  0  0  0  0  0  0  0  0  0  0
   -3.3117   -1.3699   -0.1059 H   0  0  0  0  0  0  0  0  0  0  0  0
   -2.4747    1.3783    2.3622 H   0  0  0  0  0  0  0  0  0  0  0  0
   -3.3086   -0.1798    2.2824 H   0  0  0  0  0  0  0  0  0  0  0  0
   -2.5169    1.6302   -0.0237 H   0  0  0  0  0  0  0  0  0  0  0  0
    1.7335    1.0809   -1.4280 H   0  0  0  0  0  0  0  0  0  0  0  0
   -2.0524    0.3744   -2.2928 H   0  0  0  0  0  0  0  0  0  0  0  0
    3.7061    2.4937   -1.9831 H   0  0  0  0  0  0  0  0  0  0  0  0
    5.4778    0.7086   -1.8969 H   0  0  0  0  0  0  0  0  0  0  0  0
    3.9207    0.0641   -2.4657 H   0  0  0  0  0  0  0  0  0  0  0  0
   -4.5386    0.3757   -3.2280 H   0  0  0  0  0  0  0  0  0  0  0  0
   -5.9721    1.3451   -1.5239 H   0  0  0  0  0  0  0  0  0  0  0  0
    1.7379    3.3044   -1.0464 H   0  0  0  0  0  0  0  0  0  0  0  0
   -2.8479   -1.3025   -3.5654 H   0  0  0  0  0  0  0  0  0  0  0  0
    5.4328    2.5800   -0.5328 H   0  0  0  0  0  0  0  0  0  0  0  0
  1  2  1  0  0  0  0
  1 12  1  0  0  0  0
  2 13  1  0  0  0  0
  3 22  1  0  0  0  0
  3 45  1  0  0  0  0
  4 20  2  0  0  0  0
  5 21  2  0  0  0  0
  6 24  1  0  0  0  0
  6 46  1  0  0  0  0
  7 25  1  0  0  0  0
  7 47  1  0  0  0  0
  8 23  2  0  0  0  0
  9 27  2  0  0  0  0
 10 12  1  0  0  0  0
 10 14  1  0  0  0  0
 10 20  1  0  0  0  0
 11 13  1  0  0  0  0
 11 17  1  0  0  0  0
 11 21  1  0  0  0  0
 12 16  1  0  0  0  0
 12 21  1  0  0  0  0
 13 18  1  0  0  0  0
 13 20  1  0  0  0  0
 14 15  1  0  0  0  0
 14 22  1  0  0  0  0
 14 30  1  0  0  0  0
 15 16  1  0  0  0  0
 15 23  1  0  0  0  0
 15 31  1  0  0  0  0
 16 32  1  0  0  0  0
 16 33  1  0  0  0  0
 17 19  1  0  0  0  0
 17 24  1  0  0  0  0
 17 34  1  0  0  0  0
 18 19  1  0  0  0  0
 18 35  1  0  0  0  0
 18 36  1  0  0  0  0
 19 27  1  0  0  0  0
 19 37  1  0  0  0  0
 22 25  1  0  0  0  0
 22 38  1  0  0  0  0
 23 26  1  0  0  0  0
 24 28  1  0  0  0  0
 24 39  1  0  0  0  0
 25 26  1  0  0  0  0
 25 40  1  0  0  0  0
 26 41  1  0  0  0  0
 26 42  1  0  0  0  0
 27 29  1  0  0  0  0
 28 29  2  0  0  0  0
 28 43  1  0  0  0  0
 29 44  1  0  0  0  0
M  END
> <PUBCHEM_COMPOUND_CID>
139583422

> <PUBCHEM_CONFORMER_RMSD>
0.6

> <PUBCHEM_CONFORMER_DIVERSEORDER>
1
5
3
8
4
6
7
2

> <PUBCHEM_MMFF94_PARTIAL_CHARGES>
32
1 -0.23
10 -0.66
11 -0.66
12 0.59
13 0.59
14 0.3
15 0.06
17 0.3
19 0.06
2 -0.23
20 0.57
21 0.57
22 0.28
23 0.45
24 0.42
25 0.28
26 0.06
27 0.49
28 -0.29
29 -0.14
3 -0.68
4 -0.57
43 0.15
44 0.15
45 0.4
46 0.4
47 0.4
5 -0.57
6 -0.68
7 -0.68
8 -0.57
9 -0.57

> <PUBCHEM_EFFECTIVE_ROTOR_COUNT>
1.6

> <PUBCHEM_PHARMACOPHORE_FEATURES>
15
1 3 acceptor
1 3 donor
1 4 acceptor
1 5 acceptor
1 6 acceptor
1 6 donor
1 7 acceptor
1 7 donor
1 8 acceptor
1 9 acceptor
5 10 12 14 15 16 rings
5 11 13 17 18 19 rings
6 14 15 22 23 25 26 rings
6 17 19 24 27 28 29 rings
8 1 2 10 11 12 13 20 21 rings

> <PUBCHEM_HEAVY_ATOM_COUNT>
29

> <PUBCHEM_ATOM_DEF_STEREO_COUNT>
7

> <PUBCHEM_ATOM_UDEF_STEREO_COUNT>
2

> <PUBCHEM_BOND_DEF_STEREO_COUNT>
0

> <PUBCHEM_BOND_UDEF_STEREO_COUNT>
0

> <PUBCHEM_ISOTOPIC_ATOM_COUNT>
0

> <PUBCHEM_COMPONENT_COUNT>
1

> <PUBCHEM_CACTVS_TAUTO_COUNT>
-1

> <PUBCHEM_CONFORMER_ID>
0851DFBE00000001

> <PUBCHEM_MMFF94_ENERGY>
97.3301

> <PUBCHEM_FEATURE_SELFOVERLAP>
76.478

> <PUBCHEM_SHAPE_FINGERPRINT>
10165383 225 17168438072807562523
10319926 262 15140949635121788312
10863032 1 17967819383083096594
10948715 1 17240201027762447227
11578080 2 17241911928701980334
11725454 13 16660364766171570139
11796584 16 14979952541260037125
11828532 37 15697414742747068269
12035759 4 17846221020575654063
12236239 1 18131350774090057298
12363563 72 14045743759167186957
12403259 415 17385729083968923949
12633257 1 15140958508418655588
12730499 353 17749393629130475371
12788726 201 17488762098210682568
12969540 114 17967529086216952124
13544653 18 12247681577711221467
13583140 156 17822303382849702658
13782708 43 17240495684004651331
14713325 29 17247810962892844264
15163728 17 17458634384281572301
16752209 62 17132112416486972831
16945 1 18261103024455457819
17349148 13 17775011171963063094
1813 80 17689981354556789978
18186145 218 18113896074217276074
192875 21 18342463608415181392
19862831 5 18131914866383330198
20511986 3 17917416615225914084
20600515 1 16556747864423436291
20775438 99 15187904451237746111
21033648 144 18260831535425351412
21033648 29 17022900151029402301
21033650 10 16342882961447621482
21756936 100 14490478625217865132
21781051 124 17346025784701548215
22122407 14 18191032201481424537
22182313 1 17558255794283033827
23227448 37 17313958552786921973
23557571 272 16226345737178767225
23559900 14 18188214195907308498
238 59 18339073895064250489
25 1 18040997319440386842
2838139 119 18334573508152000165
3729539 64 17315075442296210834
427121 178 15357971201420066773
469060 322 11094735776928133464
474 4 18261109660348410131
633830 44 18334574641933324963
6442390 28 15430039846324555808
7399639 24 17178859527884645104
7808743 9 16516261750433886324
9981440 41 17407659071419688664

> <PUBCHEM_SHAPE_MULTIPOLES>
553.46
9.73
2.54
2.18
0.07
1.07
0.35
-6.53
0.57
0.72
-0.3
-1.05
-0.28
1.74

> <PUBCHEM_SHAPE_SELFOVERLAP>
1215.173

> <PUBCHEM_SHAPE_VOLUME>
301.2

> <PUBCHEM_COORDINATE_TYPE>
2
5
10

$$$$
