139591307
  -OEChem-03292013293D

 57 57  0     0  0  0  0  0  0999 V2000
   -0.8063   -3.8691   -0.8615 O   0  0  0  0  0  0  0  0  0  0  0  0
   -2.5122    3.3165   -3.1500 O   0  0  0  0  0  0  0  0  0  0  0  0
   -0.0351    0.9843   -2.3028 O   0  0  0  0  0  0  0  0  0  0  0  0
   -0.7853   -1.6321   -1.4323 O   0  0  0  0  0  0  0  0  0  0  0  0
    1.9777   -1.9204   -1.1296 O   0  0  0  0  0  0  0  0  0  0  0  0
    4.4796   -1.0775   -1.2092 O   0  0  0  0  0  0  0  0  0  0  0  0
    2.7772    2.8474    2.2685 O   0  0  0  0  0  0  0  0  0  0  0  0
   -3.3607    1.6508    1.9984 C   0  0  0  0  0  0  0  0  0  0  0  0
   -3.4914    0.2166    1.5166 C   0  0  0  0  0  0  0  0  0  0  0  0
   -2.6534   -2.2026    1.7085 C   0  0  0  0  0  0  0  0  0  0  0  0
   -3.1388    2.7039    0.9030 C   0  0  0  0  0  0  0  0  0  0  0  0
   -1.2565   -2.8257    1.8337 C   0  0  0  0  0  0  0  0  0  0  0  0
   -2.6679   -0.7294    2.0109 C   0  0  0  0  0  0  0  0  0  0  0  0
   -1.8294    2.5566    0.1772 C   0  0  0  0  0  0  0  0  0  0  0  0
   -4.6065   -0.0440    0.5414 C   0  0  0  0  0  0  0  0  0  0  0  0
   -0.2794   -2.3137    0.8051 C   0  0  0  0  0  0  0  0  0  0  0  0
   -1.6246    2.3650   -1.1420 C   0  0  0  0  0  0  0  0  0  0  0  0
    0.9232   -1.7487    1.0104 C   0  0  0  0  0  0  0  0  0  0  0  0
   -0.2122    2.2421   -1.6672 C   0  0  0  0  0  0  0  0  0  0  0  0
   -2.7140    2.2942   -2.1817 C   0  0  0  0  0  0  0  0  0  0  0  0
   -0.6764   -2.5363   -0.6163 C   0  0  0  0  0  0  0  0  0  0  0  0
    1.8760   -1.3338   -0.0595 C   0  0  0  0  0  0  0  0  0  0  0  0
    2.7826   -0.1974    0.2398 C   0  0  0  0  0  0  0  0  0  0  0  0
    4.0455   -0.1156   -0.3469 C   0  0  0  0  0  0  0  0  0  0  0  0
    2.3564    0.7980    1.1192 C   0  0  0  0  0  0  0  0  0  0  0  0
    3.1930    1.8750    1.4119 C   0  0  0  0  0  0  0  0  0  0  0  0
    4.8822    0.9615   -0.0542 C   0  0  0  0  0  0  0  0  0  0  0  0
    4.4560    1.9567    0.8253 C   0  0  0  0  0  0  0  0  0  0  0  0
   -1.0994   -4.2223   -2.2167 C   0  0  0  0  0  0  0  0  0  0  0  0
   -2.5531    1.7396    2.7374 H   0  0  0  0  0  0  0  0  0  0  0  0
   -4.2816    1.9075    2.5389 H   0  0  0  0  0  0  0  0  0  0  0  0
   -3.3065   -2.6985    2.4373 H   0  0  0  0  0  0  0  0  0  0  0  0
   -3.0670   -2.4099    0.7160 H   0  0  0  0  0  0  0  0  0  0  0  0
   -3.1338    3.6920    1.3813 H   0  0  0  0  0  0  0  0  0  0  0  0
   -3.9974    2.7142    0.2275 H   0  0  0  0  0  0  0  0  0  0  0  0
   -0.8619   -2.6459    2.8423 H   0  0  0  0  0  0  0  0  0  0  0  0
   -1.3439   -3.9149    1.7343 H   0  0  0  0  0  0  0  0  0  0  0  0
   -1.9344   -0.4156    2.7533 H   0  0  0  0  0  0  0  0  0  0  0  0
   -0.9558    2.6119    0.8264 H   0  0  0  0  0  0  0  0  0  0  0  0
   -5.5274    0.4442    0.8778 H   0  0  0  0  0  0  0  0  0  0  0  0
   -4.3499    0.3415   -0.4490 H   0  0  0  0  0  0  0  0  0  0  0  0
   -4.8350   -1.1081    0.4374 H   0  0  0  0  0  0  0  0  0  0  0  0
    1.2434   -1.5754    2.0349 H   0  0  0  0  0  0  0  0  0  0  0  0
    0.5306    2.3238   -0.8674 H   0  0  0  0  0  0  0  0  0  0  0  0
   -0.0047    3.0347   -2.3937 H   0  0  0  0  0  0  0  0  0  0  0  0
   -2.6840    1.3237   -2.6883 H   0  0  0  0  0  0  0  0  0  0  0  0
   -3.7177    2.4219   -1.7747 H   0  0  0  0  0  0  0  0  0  0  0  0
    1.3671    0.7696    1.5688 H   0  0  0  0  0  0  0  0  0  0  0  0
    5.8684    1.0383   -0.5041 H   0  0  0  0  0  0  0  0  0  0  0  0
   -3.2093    3.2164   -3.8206 H   0  0  0  0  0  0  0  0  0  0  0  0
    0.8864    0.9467   -2.6112 H   0  0  0  0  0  0  0  0  0  0  0  0
    5.1119    2.7935    1.0492 H   0  0  0  0  0  0  0  0  0  0  0  0
   -1.1752   -5.3112   -2.2758 H   0  0  0  0  0  0  0  0  0  0  0  0
   -0.2930   -3.8896   -2.8773 H   0  0  0  0  0  0  0  0  0  0  0  0
   -2.0549   -3.7860   -2.5230 H   0  0  0  0  0  0  0  0  0  0  0  0
    5.3752   -0.8509   -1.5133 H   0  0  0  0  0  0  0  0  0  0  0  0
    1.8800    2.6343    2.5776 H   0  0  0  0  0  0  0  0  0  0  0  0
  1 21  1  0  0  0  0
  1 29  1  0  0  0  0
  2 20  1  0  0  0  0
  2 50  1  0  0  0  0
  3 19  1  0  0  0  0
  3 51  1  0  0  0  0
  4 21  2  0  0  0  0
  5 22  2  0  0  0  0
  6 24  1  0  0  0  0
  6 56  1  0  0  0  0
  7 26  1  0  0  0  0
  7 57  1  0  0  0  0
  8  9  1  0  0  0  0
  8 11  1  0  0  0  0
  8 30  1  0  0  0  0
  8 31  1  0  0  0  0
  9 13  2  0  0  0  0
  9 15  1  0  0  0  0
 10 12  1  0  0  0  0
 10 13  1  0  0  0  0
 10 32  1  0  0  0  0
 10 33  1  0  0  0  0
 11 14  1  0  0  0  0
 11 34  1  0  0  0  0
 11 35  1  0  0  0  0
 12 16  1  0  0  0  0
 12 36  1  0  0  0  0
 12 37  1  0  0  0  0
 13 38  1  0  0  0  0
 14 17  2  0  0  0  0
 14 39  1  0  0  0  0
 15 40  1  0  0  0  0
 15 41  1  0  0  0  0
 15 42  1  0  0  0  0
 16 18  2  0  0  0  0
 16 21  1  0  0  0  0
 17 19  1  0  0  0  0
 17 20  1  0  0  0  0
 18 22  1  0  0  0  0
 18 43  1  0  0  0  0
 19 44  1  0  0  0  0
 19 45  1  0  0  0  0
 20 46  1  0  0  0  0
 20 47  1  0  0  0  0
 22 23  1  0  0  0  0
 23 24  2  0  0  0  0
 23 25  1  0  0  0  0
 24 27  1  0  0  0  0
 25 26  2  0  0  0  0
 25 48  1  0  0  0  0
 26 28  1  0  0  0  0
 27 28  2  0  0  0  0
 27 49  1  0  0  0  0
 28 52  1  0  0  0  0
 29 53  1  0  0  0  0
 29 54  1  0  0  0  0
 29 55  1  0  0  0  0
M  END
> <PUBCHEM_COMPOUND_CID>
139591307

> <PUBCHEM_CONFORMER_RMSD>
1

> <PUBCHEM_CONFORMER_DIVERSEORDER>
4
236
176
258
190
209
242
97
71
137
156
308
298
212
318
167
192
135
121
169
86
268
31
248
50
224
314
120
244
56
142
170
77
315
221
208
197
148
66
305
199
271
233
146
114
293
99
277
143
259
262
124
87
25
173
279
127
155
152
272
78
299
96
108
17
83
115
250
231
222
207
91
28
84
304
138
72
164
300
136
20
111
116
27
168
303
93
64
43
317
165
181
23
44
163
51
183
109
198
88
67
145
178
107
313
76
284
139
153
126
281
269
140
35
229
128
288
74
217
225
200
150
157
253
125
117
16
232
103
65
278
287
134
252
59
5
13
246
297
312
106
309
189
6
69
179
261
230
81
292
154
110
257
54
147
215
161
38
241
247
186
295
101
122
68
162
270
39
144
57
42
129
98
12
151
286
19
80
55
255
187
73
30
235
306
62
63
210
10
89
238
33
32
112
239
243
249
37
213
296
175
141
182
130
24
188
177
26
311
274
119
185
174
1
172
195
196
251
263
310
201
194
307
94
49
47
45
256
14
171
283
203
285
180
218
254
159
289
123
202
82
240
61
105
75
265
316
85
131
34
282
211
79
158
275
273
95
92
7
267
104
205
226
301
193
245
133
219
227
100
41
266
166
18
204
113
290
102
234
206
237
214
132
260
22
118
60
90
40
264
15
29
9
149
276
216
8
52
280
70
223
291
184
21
53
48
191
36
160
302
220
294
2
11
3
228
46
58

> <PUBCHEM_MMFF94_PARTIAL_CHARGES>
39
1 -0.43
10 0.14
11 0.14
12 0.14
13 -0.29
14 -0.29
15 0.14
16 -0.12
17 -0.28
18 -0.14
19 0.42
2 -0.68
20 0.42
21 0.71
22 0.47
23 0.09
24 0.08
25 -0.15
26 0.08
27 -0.15
28 -0.15
29 0.28
3 -0.68
38 0.15
39 0.15
4 -0.57
43 0.15
48 0.15
49 0.15
5 -0.57
50 0.4
51 0.4
52 0.15
56 0.45
57 0.45
6 -0.53
7 -0.53
8 0.14
9 -0.28

> <PUBCHEM_EFFECTIVE_ROTOR_COUNT>
12

> <PUBCHEM_PHARMACOPHORE_FEATURES>
12
1 15 hydrophobe
1 2 acceptor
1 2 donor
1 3 acceptor
1 3 donor
1 4 acceptor
1 5 acceptor
1 6 donor
1 7 donor
4 10 12 13 16 hydrophobe
4 8 9 11 14 hydrophobe
6 23 24 25 26 27 28 rings

> <PUBCHEM_HEAVY_ATOM_COUNT>
29

> <PUBCHEM_ATOM_DEF_STEREO_COUNT>
0

> <PUBCHEM_ATOM_UDEF_STEREO_COUNT>
0

> <PUBCHEM_BOND_DEF_STEREO_COUNT>
2

> <PUBCHEM_BOND_UDEF_STEREO_COUNT>
0

> <PUBCHEM_ISOTOPIC_ATOM_COUNT>
0

> <PUBCHEM_COMPONENT_COUNT>
1

> <PUBCHEM_CACTVS_TAUTO_COUNT>
-1

> <PUBCHEM_CONFORMER_ID>
0851FE8B00000004

> <PUBCHEM_MMFF94_ENERGY>
60.2247

> <PUBCHEM_FEATURE_SELFOVERLAP>
60.92

> <PUBCHEM_SHAPE_FINGERPRINT>
10006869 2 18187631467481496779
10165383 225 17973183750212888024
11513181 2 18055943062606386807
11578080 2 13029411444527197931
11595378 159 17822005454211671992
12633257 1 17831585275485809233
13383668 90 16551187888057918588
13402501 40 18410583863639873897
13642711 20 17699592258951554974
14114207 22 15607890606783641017
14279260 333 17482853177395414566
14840074 17 17605015730511099421
17974551 9 17170121334921001010
18603816 31 14691469226516718444
21795232 40 14888713266817818537
23227448 37 17845099656323412826
238 59 17978768152421564685
25265897 201 16911764943051059775
3187 122 18043819903349089691
35225 105 18190157101065935945
3524813 1 18411991251503034320
469060 322 17604699088367873959
4742675 86 17626645443648839816
81228 2 18189604124422019504
9925002 15 17624710341901956307

> <PUBCHEM_SHAPE_MULTIPOLES>
555.72
8.05
5.03
2.67
6.37
2.15
1.13
-4.42
-2.6
-3.06
2.19
-1.89
-0.86
2.17

> <PUBCHEM_SHAPE_SELFOVERLAP>
1132.452

> <PUBCHEM_SHAPE_VOLUME>
319.2

> <PUBCHEM_COORDINATE_TYPE>
2
5
10

$$$$
