139583501
  -OEChem-03292013293D

 39 41  0     1  0  0  0  0  0999 V2000
   -3.5837   -0.8303   -1.6398 O   0  0  0  0  0  0  0  0  0  0  0  0
   -4.8771    1.1208    0.0518 O   0  0  0  0  0  0  0  0  0  0  0  0
   -2.3893    2.3483    1.0249 O   0  0  0  0  0  0  0  0  0  0  0  0
    0.2396   -2.7612    0.2950 O   0  0  0  0  0  0  0  0  0  0  0  0
    0.0464    2.5396   -0.3138 O   0  0  0  0  0  0  0  0  0  0  0  0
    2.5874    2.7226   -0.3022 O   0  0  0  0  0  0  0  0  0  0  0  0
    5.0542   -1.3042    0.0810 O   0  0  0  0  0  0  0  0  0  0  0  0
   -3.6340   -0.9605   -0.2142 C   0  0  2  0  0  0  0  0  0  0  0  0
   -3.6876    0.4293    0.4357 C   0  0  1  0  0  0  0  0  0  0  0  0
   -2.3480   -1.6802    0.2314 C   0  0  0  0  0  0  0  0  0  0  0  0
   -2.4691    1.2901    0.0642 C   0  0  2  0  0  0  0  0  0  0  0  0
   -1.1091   -0.8132    0.1571 C   0  0  0  0  0  0  0  0  0  0  0  0
   -1.1624    0.5263    0.0533 C   0  0  0  0  0  0  0  0  0  0  0  0
   -4.8631   -1.8074    0.1286 C   0  0  0  0  0  0  0  0  0  0  0  0
    0.1915   -1.5411    0.1834 C   0  0  0  0  0  0  0  0  0  0  0  0
    0.0842    1.3292   -0.1196 C   0  0  0  0  0  0  0  0  0  0  0  0
    1.3793    0.6300   -0.0636 C   0  0  0  0  0  0  0  0  0  0  0  0
    1.4312   -0.7536    0.0827 C   0  0  0  0  0  0  0  0  0  0  0  0
    2.5669    1.3662   -0.1626 C   0  0  0  0  0  0  0  0  0  0  0  0
    2.6701   -1.4053    0.1310 C   0  0  0  0  0  0  0  0  0  0  0  0
    3.8510   -0.6693    0.0334 C   0  0  0  0  0  0  0  0  0  0  0  0
    3.7996    0.7147   -0.1131 C   0  0  0  0  0  0  0  0  0  0  0  0
    6.2217   -0.4908   -0.0246 C   0  0  0  0  0  0  0  0  0  0  0  0
   -3.7416    0.3162    1.5272 H   0  0  0  0  0  0  0  0  0  0  0  0
   -2.2035   -2.5656   -0.4014 H   0  0  0  0  0  0  0  0  0  0  0  0
   -2.4516   -2.0288    1.2672 H   0  0  0  0  0  0  0  0  0  0  0  0
   -2.6319    1.7557   -0.9161 H   0  0  0  0  0  0  0  0  0  0  0  0
   -5.7766   -1.3588   -0.2771 H   0  0  0  0  0  0  0  0  0  0  0  0
   -4.9826   -1.9236    1.2106 H   0  0  0  0  0  0  0  0  0  0  0  0
   -4.7868   -2.8053   -0.3185 H   0  0  0  0  0  0  0  0  0  0  0  0
   -3.5555   -1.7226   -2.0254 H   0  0  0  0  0  0  0  0  0  0  0  0
   -4.8600    1.9914    0.4849 H   0  0  0  0  0  0  0  0  0  0  0  0
   -1.7843    3.0239    0.6743 H   0  0  0  0  0  0  0  0  0  0  0  0
    2.7306   -2.4850    0.2444 H   0  0  0  0  0  0  0  0  0  0  0  0
    4.6832    1.3397   -0.1934 H   0  0  0  0  0  0  0  0  0  0  0  0
    1.6941    3.0899   -0.2284 H   0  0  0  0  0  0  0  0  0  0  0  0
    6.2732    0.0159   -0.9943 H   0  0  0  0  0  0  0  0  0  0  0  0
    6.3030    0.2080    0.8148 H   0  0  0  0  0  0  0  0  0  0  0  0
    7.0871   -1.1594    0.0321 H   0  0  0  0  0  0  0  0  0  0  0  0
  1  8  1  0  0  0  0
  1 31  1  0  0  0  0
  2  9  1  0  0  0  0
  2 32  1  0  0  0  0
  3 11  1  0  0  0  0
  3 33  1  0  0  0  0
  4 15  2  0  0  0  0
  5 16  2  0  0  0  0
  6 19  1  0  0  0  0
  6 36  1  0  0  0  0
  7 21  1  0  0  0  0
  7 23  1  0  0  0  0
  8  9  1  0  0  0  0
  8 10  1  0  0  0  0
  8 14  1  0  0  0  0
  9 11  1  0  0  0  0
  9 24  1  0  0  0  0
 10 12  1  0  0  0  0
 10 25  1  0  0  0  0
 10 26  1  0  0  0  0
 11 13  1  0  0  0  0
 11 27  1  0  0  0  0
 12 13  2  0  0  0  0
 12 15  1  0  0  0  0
 13 16  1  0  0  0  0
 14 28  1  0  0  0  0
 14 29  1  0  0  0  0
 14 30  1  0  0  0  0
 15 18  1  0  0  0  0
 16 17  1  0  0  0  0
 17 18  2  0  0  0  0
 17 19  1  0  0  0  0
 18 20  1  0  0  0  0
 19 22  2  0  0  0  0
 20 21  2  0  0  0  0
 20 34  1  0  0  0  0
 21 22  1  0  0  0  0
 22 35  1  0  0  0  0
 23 37  1  0  0  0  0
 23 38  1  0  0  0  0
 23 39  1  0  0  0  0
M  END
> <PUBCHEM_COMPOUND_CID>
139583501

> <PUBCHEM_CONFORMER_RMSD>
0.6

> <PUBCHEM_CONFORMER_DIVERSEORDER>
1
2

> <PUBCHEM_MMFF94_PARTIAL_CHARGES>
28
1 -0.68
10 0.14
11 0.42
12 -0.12
13 -0.12
15 0.47
16 0.47
17 0.09
18 0.09
19 0.08
2 -0.68
20 -0.15
21 0.08
22 -0.15
23 0.28
3 -0.68
31 0.4
32 0.4
33 0.4
34 0.15
35 0.15
36 0.45
4 -0.57
5 -0.57
6 -0.53
7 -0.36
8 0.28
9 0.28

> <PUBCHEM_EFFECTIVE_ROTOR_COUNT>
1.8

> <PUBCHEM_PHARMACOPHORE_FEATURES>
13
1 1 acceptor
1 1 donor
1 2 acceptor
1 2 donor
1 3 acceptor
1 3 donor
1 4 acceptor
1 5 acceptor
1 6 donor
1 7 acceptor
6 12 13 15 16 17 18 rings
6 17 18 19 20 21 22 rings
6 8 9 10 11 12 13 rings

> <PUBCHEM_HEAVY_ATOM_COUNT>
23

> <PUBCHEM_ATOM_DEF_STEREO_COUNT>
3

> <PUBCHEM_ATOM_UDEF_STEREO_COUNT>
0

> <PUBCHEM_BOND_DEF_STEREO_COUNT>
0

> <PUBCHEM_BOND_UDEF_STEREO_COUNT>
0

> <PUBCHEM_ISOTOPIC_ATOM_COUNT>
0

> <PUBCHEM_COMPONENT_COUNT>
1

> <PUBCHEM_CACTVS_TAUTO_COUNT>
-1

> <PUBCHEM_CONFORMER_ID>
0851E00D00000001

> <PUBCHEM_MMFF94_ENERGY>
72.6919

> <PUBCHEM_FEATURE_SELFOVERLAP>
66.023

> <PUBCHEM_SHAPE_FINGERPRINT>
10062212 137 18343016709892424727
10616163 171 18413109442123220359
10906281 52 18337691762494871062
10967382 1 18265616678627433737
11680986 33 18118126002834049282
12166972 35 17894914082860093591
12236239 1 18060138764850297519
12403259 226 18408879663519287101
12403260 363 18411418431783246984
12553582 1 18262227824955829730
12838862 33 18265315262075714041
13140716 1 18410581681743778728
13288520 33 18411983546284296862
13583140 156 16660636414431957929
13862211 1 18408037399638011626
14790565 3 18336274478984992652
15099037 51 18408323293919662086
15196674 1 18410012164800906401
15209289 33 18411419505425058578
15442244 35 18410577288218873528
15536298 74 18341612650591755160
16945 1 18192993707921481501
17349148 13 18408600379059910186
17492 89 18193276527334492202
1813 80 17458067036993757606
18186145 218 17749382693658449059
18681886 176 18341887524224863642
19591789 44 18409166640385747810
200 152 18272649060451425219
20028762 73 18272649103502254447
20775438 99 16618098702225648879
21236236 1 18340769247905881738
21267235 1 18410019861604191243
21709351 56 18409161108578452453
221490 88 18262807396501485674
2334 1 18409734001259889672
23402539 116 18341889688714352846
23557571 272 17560804311943751466
23559900 14 18342170107324573432
25147074 1 18339096954775863336
2748010 2 18336270131876221614
335352 9 18409730638685573661
34934 24 18265049129275572515
350125 39 18410014338154909792
4214541 1 18410575080573937393
5104073 3 18411421743050162713
59755656 215 18337954463362461671
6138700 20 18336830776155573546
9709674 26 18264492956216373202
9981440 41 17399233544044524136

> <PUBCHEM_SHAPE_MULTIPOLES>
432.24
10.28
2.58
0.75
4.94
0.65
-0.11
-2.51
-0.31
-0.38
0.16
-0.45
0.01
-0.53

> <PUBCHEM_SHAPE_SELFOVERLAP>
953.719

> <PUBCHEM_SHAPE_VOLUME>
230.6

> <PUBCHEM_COORDINATE_TYPE>
2
5
10

$$$$
