REMARK  Name = 139587822
REMARK  10 active torsions:
REMARK  status: ('A' for Active; 'I' for Inactive)
REMARK    1  A    between atoms: C_6  and  O_21
REMARK    2  A    between atoms: C_7  and  O_23
REMARK    3  A    between atoms: C_12  and  C_30
REMARK    4  A    between atoms: C_13  and  O_25
REMARK    5  A    between atoms: C_20  and  O_27
REMARK    6  A    between atoms: C_20  and  C_36
REMARK    7  A    between atoms: C_30  and  C_31
REMARK    8  A    between atoms: C_31  and  C_32
REMARK    9  A    between atoms: C_32  and  C_33
REMARK   10  A    between atoms: C_37  and  C_38
REMARK                            x       y       z     vdW  Elec       q    Type
REMARK                         _______ _______ _______ _____ _____    ______ ____
ROOT
ATOM      1  O   UNL     1      -1.502  -3.091  -1.172  0.00  0.00    -0.332 OA
ATOM      2  O   UNL     1      -1.957  -2.825   1.164  0.00  0.00    -0.332 OA
ATOM      3  O   UNL     1       1.782   0.009   1.722  0.00  0.00    -0.291 OA
ATOM      4  C   UNL     1      -2.436  -1.620   0.513  0.00  0.00    +0.146 C 
ATOM      5  C   UNL     1      -0.223  -2.908  -0.515  0.00  0.00    +0.146 C 
ATOM      6  C   UNL     1      -2.141  -1.799  -1.023  0.00  0.00    +0.214 C 
ATOM      7  C   UNL     1      -0.517  -2.728   1.028  0.00  0.00    +0.214 C 
ATOM      8  C   UNL     1      -1.034  -0.847  -1.589  0.00  0.00    +0.105 C 
ATOM      9  C   UNL     1      -0.254  -1.301   1.592  0.00  0.00    +0.111 C 
ATOM     10  C   UNL     1      -1.560  -0.533   1.189  0.00  0.00    +0.069 C 
ATOM     11  C   UNL     1       0.284  -1.631  -1.218  0.00  0.00    +0.069 C 
ATOM     12  C   UNL     1      -1.385   0.686   0.327  0.00  0.00    +0.045 C 
ATOM     13  C   UNL     1      -1.135   0.549  -0.987  0.00  0.00    +0.114 C 
ATOM     14  C   UNL     1       1.331  -0.926  -0.410  0.00  0.00    +0.049 C 
ATOM     15  C   UNL     1       1.038  -0.688   1.032  0.00  0.00    +0.176 C 
ATOM     16  C   UNL     1      -3.913  -1.450   0.865  0.00  0.00    +0.035 C 
ATOM     17  C   UNL     1       0.651  -4.118  -0.852  0.00  0.00    +0.035 C 
ATOM     18  C   UNL     1      -1.142  -0.811  -3.140  0.00  0.00    +0.013 C 
ATOM     19  C   UNL     1      -0.154  -1.321   3.136  0.00  0.00    +0.013 C 
ATOM     20  C   UNL     1       2.507  -0.523  -0.909  0.00  0.00    +0.132 C 
ENDROOT
BRANCH   6  21
ATOM     21  O   UNL     1      -3.317  -1.728  -1.816  0.00  0.00    -0.362 OA
ATOM     22  H   UNL     1      -3.990  -2.323  -1.451  0.00  0.00    +0.213 HD
ENDBRANCH   6  21
BRANCH   7  23
ATOM     23  O   UNL     1       0.129  -3.704   1.830  0.00  0.00    -0.362 OA
ATOM     24  H   UNL     1      -0.044  -4.587   1.467  0.00  0.00    +0.213 HD
ENDBRANCH   7  23
BRANCH  13  25
ATOM     25  O   UNL     1      -0.902   1.650  -1.787  0.00  0.00    -0.510 OA
ATOM     26  H   UNL     1      -0.729   1.538  -2.701  0.00  0.00    +0.292 HD
ENDBRANCH  13  25
BRANCH  20  27
ATOM     27  O   UNL     1       2.838  -0.714  -2.237  0.00  0.00    -0.506 OA
ATOM     28  H   UNL     1       2.233  -1.136  -2.814  0.00  0.00    +0.292 HD
ENDBRANCH  20  27
BRANCH  12  30
ATOM     29  O   UNL     1      -0.484   2.773   0.892  0.00  0.00    -0.292 OA
ATOM     30  C   UNL     1      -1.452   2.011   0.950  0.00  0.00    +0.172 C 
BRANCH  30  31
ATOM     31  C   UNL     1      -2.766   2.392   1.620  0.00  0.00    +0.074 C 
BRANCH  31  32
ATOM     32  C   UNL     1      -3.091   3.883   1.530  0.00  0.00    +0.034 C 
BRANCH  32  33
ATOM     33  C   UNL     1      -3.148   4.370   0.109  0.00  0.00    -0.030 C 
ATOM     34  C   UNL     1      -2.306   5.278  -0.403  0.00  0.00    -0.030 C 
ATOM     35  C   UNL     1      -2.358   5.756  -1.816  0.00  0.00    +0.030 C 
ENDBRANCH  32  33
ENDBRANCH  31  32
ENDBRANCH  30  31
ENDBRANCH  12  30
BRANCH  20  36
ATOM     36  C   UNL     1       3.511   0.138  -0.097  0.00  0.00    +0.036 C 
ATOM     37  C   UNL     1       4.708   0.567  -0.532  0.00  0.00    +0.003 C 
BRANCH  37  38
ATOM     38  C   UNL     1       5.669   1.222   0.328  0.00  0.00    -0.004 C 
ATOM     39  C   UNL     1       6.864   1.652  -0.101  0.00  0.00    -0.026 C 
ATOM     40  C   UNL     1       7.865   2.329   0.777  0.00  0.00    +0.031 C 
ENDBRANCH  37  38
ENDBRANCH  20  36
TORSDOF 10
