REMARK  Name = 139587079
REMARK  12 active torsions:
REMARK  status: ('A' for Active; 'I' for Inactive)
REMARK    1  A    between atoms: N_1  and  C_6
REMARK    2  A    between atoms: N_1  and  C_22
REMARK    3  A    between atoms: C_2  and  O_8
REMARK    4  A    between atoms: C_2  and  C_19
REMARK    5  A    between atoms: C_5  and  N_12
REMARK    6  A    between atoms: C_7  and  O_10
REMARK    7  A    between atoms: N_12  and  C_14
REMARK    8  A    between atoms: C_14  and  C_16
REMARK    9  A    between atoms: C_16  and  O_17
REMARK   10  A    between atoms: C_19  and  O_20
REMARK   11  A    between atoms: C_22  and  C_24
REMARK   12  A    between atoms: C_24  and  O_25
REMARK                            x       y       z     vdW  Elec       q    Type
REMARK                         _______ _______ _______ _____ _____    ______ ____
ROOT
ATOM      1  C   UNL     1      -0.195   1.986  -0.051  0.00  0.00    +0.122 C 
ATOM      2  C   UNL     1       1.158   1.310  -0.315  0.00  0.00    +0.053 C 
ATOM      3  C   UNL     1      -1.335   1.169  -0.651  0.00  0.00    +0.075 C 
ATOM      4  C   UNL     1       1.168  -0.186  -0.075  0.00  0.00    +0.115 C 
ATOM      5  C   UNL     1      -1.293  -0.262  -0.153  0.00  0.00    +0.077 C 
ATOM      6  C   UNL     1       0.039  -0.916   0.014  0.00  0.00    +0.141 C 
ENDROOT
BRANCH   1   7
ATOM      7  O   UNL     1      -0.410   2.082   1.361  0.00  0.00    -0.384 OA
ATOM      8  H   UNL     1      -0.410   1.193   1.750  0.00  0.00    +0.210 HD
ENDBRANCH   1   7
BRANCH   6   9
ATOM      9  O   UNL     1       0.097  -2.279   0.228  0.00  0.00    -0.473 OA
ATOM     10  C   UNL     1       0.146  -2.978  -1.001  0.00  0.00    +0.252 C 
ENDBRANCH   6   9
BRANCH   4  11
ATOM     11  N   UNL     1       2.418  -0.738   0.041  0.00  0.00    -0.283 NA
ATOM     12  H   UNL     1       2.490  -1.712   0.171  0.00  0.00    +0.124 HD
BRANCH  11  13
ATOM     13  C   UNL     1       3.627   0.035  -0.017  0.00  0.00    +0.180 C 
BRANCH  13  15
ATOM     14  O   UNL     1       4.785  -2.081   0.313  0.00  0.00    -0.249 OA
ATOM     15  C   UNL     1       4.815  -0.870   0.152  0.00  0.00    +0.330 C 
BRANCH  15  16
ATOM     16  O   UNL     1       5.962  -0.145   0.101  0.00  0.00    -0.479 OA
ATOM     17  H   UNL     1       5.924   0.783  -0.025  0.00  0.00    +0.295 HD
ENDBRANCH  15  16
ENDBRANCH  13  15
ENDBRANCH  11  13
ENDBRANCH   4  11
BRANCH   5  18
ATOM     18  N   UNL     1      -2.424  -0.842   0.086  0.00  0.00    -0.227 NA
BRANCH  18  19
ATOM     19  C   UNL     1      -3.587   0.004  -0.127  0.00  0.00    +0.221 C 
BRANCH  19  21
ATOM     20  O   UNL     1      -4.838  -1.974   0.541  0.00  0.00    -0.248 OA
ATOM     21  C   UNL     1      -4.814  -0.810   0.169  0.00  0.00    +0.336 C 
BRANCH  21  22
ATOM     22  O   UNL     1      -5.928  -0.062  -0.037  0.00  0.00    -0.479 OA
ATOM     23  H   UNL     1      -5.849   0.827  -0.323  0.00  0.00    +0.295 HD
ENDBRANCH  21  22
ENDBRANCH  19  21
ENDBRANCH  18  19
ENDBRANCH   5  18
BRANCH   1  24
ATOM     24  C   UNL     1      -0.204   3.410  -0.612  0.00  0.00    +0.164 C 
BRANCH  24  25
ATOM     25  O   UNL     1       0.815   4.149   0.032  0.00  0.00    -0.380 OA
ATOM     26  H   UNL     1       0.823   5.056  -0.312  0.00  0.00    +0.211 HD
ENDBRANCH  24  25
ENDBRANCH   1  24
TORSDOF 12
