REMARK  Name = 139584484
REMARK  5 active torsions:
REMARK  status: ('A' for Active; 'I' for Inactive)
REMARK    1  A    between atoms: C_4  and  O_21
REMARK    2  A    between atoms: C_6  and  O_23
REMARK    3  A    between atoms: C_14  and  O_25
REMARK    4  A    between atoms: C_17  and  O_27
REMARK    5  A    between atoms: C_18  and  C_29
REMARK                            x       y       z     vdW  Elec       q    Type
REMARK                         _______ _______ _______ _____ _____    ______ ____
ROOT
ATOM      1  O   UNL     1      -1.238  -1.086   1.782  0.00  0.00    -0.327 OA
ATOM      2  O   UNL     1       0.614  -2.860  -0.219  0.00  0.00    -0.286 OA
ATOM      3  C   UNL     1      -1.014   0.828   0.377  0.00  0.00    +0.072 C 
ATOM      4  C   UNL     1      -1.843  -0.270  -0.354  0.00  0.00    +0.147 C 
ATOM      5  C   UNL     1      -3.429  -0.106  -0.317  0.00  0.00    +0.028 C 
ATOM      6  C   UNL     1      -1.274  -1.484   0.396  0.00  0.00    +0.264 C 
ATOM      7  C   UNL     1      -1.577   2.240   0.147  0.00  0.00    +0.009 C 
ATOM      8  C   UNL     1       0.514   0.694   0.036  0.00  0.00    -0.013 C 
ATOM      9  C   UNL     1      -1.117   0.355   1.838  0.00  0.00    +0.151 C 
ATOM     10  C   UNL     1      -3.798   1.369  -0.620  0.00  0.00    +0.002 C 
ATOM     11  C   UNL     1      -3.089   2.357   0.295  0.00  0.00    +0.001 C 
ATOM     12  C   UNL     1       1.072  -0.531  -0.117  0.00  0.00    +0.039 C 
ATOM     13  C   UNL     1       0.180  -1.729  -0.006  0.00  0.00    +0.224 C 
ATOM     14  C   UNL     1       1.406   1.932   0.045  0.00  0.00    +0.129 C 
ATOM     15  C   UNL     1      -4.109  -0.959  -1.427  0.00  0.00    +0.003 C 
ATOM     16  C   UNL     1      -4.124  -0.520   1.004  0.00  0.00    +0.003 C 
ATOM     17  C   UNL     1       2.548  -0.785  -0.293  0.00  0.00    +0.139 C 
ATOM     18  C   UNL     1       3.416   0.345   0.323  0.00  0.00    +0.050 C 
ATOM     19  C   UNL     1       2.904   1.687  -0.221  0.00  0.00    +0.040 C 
ATOM     20  C   UNL     1       3.339   0.310   1.865  0.00  0.00    +0.007 C 
ENDROOT
BRANCH   4  21
ATOM     21  O   UNL     1      -1.460  -0.274  -1.736  0.00  0.00    -0.381 OA
ATOM     22  H   UNL     1      -1.835   0.504  -2.178  0.00  0.00    +0.210 HD
ENDBRANCH   4  21
BRANCH   6  23
ATOM     23  O   UNL     1      -2.018  -2.662   0.187  0.00  0.00    -0.356 OA
ATOM     24  H   UNL     1      -2.942  -2.510   0.441  0.00  0.00    +0.213 HD
ENDBRANCH   6  23
BRANCH  14  25
ATOM     25  O   UNL     1       0.978   2.861  -0.950  0.00  0.00    -0.380 OA
ATOM     26  H   UNL     1       0.034   3.052  -0.829  0.00  0.00    +0.211 HD
ENDBRANCH  14  25
BRANCH  17  27
ATOM     27  O   UNL     1       2.789  -0.898  -1.699  0.00  0.00    -0.380 OA
ATOM     28  H   UNL     1       2.239  -1.608  -2.065  0.00  0.00    +0.211 HD
ENDBRANCH  17  27
BRANCH  18  29
ATOM     29  C   UNL     1       4.870   0.184  -0.057  0.00  0.00    -0.024 C 
ATOM     30  C   UNL     1       5.461  -0.996  -0.276  0.00  0.00    -0.005 C 
ENDBRANCH  18  29
TORSDOF 5
