139587010
  -OEChem-03292013293D

 37 39  0     1  0  0  0  0  0999 V2000
   -4.1462   -0.4818    0.0205 O   0  0  0  0  0  0  0  0  0  0  0  0
   -0.9428    1.3377   -0.1961 O   0  0  0  0  0  0  0  0  0  0  0  0
   -3.5093    1.6208    0.7750 O   0  0  0  0  0  0  0  0  0  0  0  0
    0.4423   -2.4828    0.1257 O   0  0  0  0  0  0  0  0  0  0  0  0
    4.5223    0.5878    0.0802 O   0  0  0  0  0  0  0  0  0  0  0  0
    3.4497    3.1165   -0.1345 O   0  0  0  0  0  0  0  0  0  0  0  0
    3.2226   -2.2300   -1.0453 O   0  0  0  0  0  0  0  0  0  0  0  0
    3.2133   -2.2525    1.2276 O   0  0  0  0  0  0  0  0  0  0  0  0
   -3.2784    0.6351   -0.2396 C   0  0  1  0  0  0  0  0  0  0  0  0
   -1.8101    0.2566   -0.1665 C   0  0  0  0  0  0  0  0  0  0  0  0
   -1.4210   -1.0264   -0.0686 C   0  0  0  0  0  0  0  0  0  0  0  0
   -2.4068   -2.1532   -0.0639 C   0  0  0  0  0  0  0  0  0  0  0  0
   -3.7497   -1.6941   -0.6158 C   0  0  0  0  0  0  0  0  0  0  0  0
    0.0251   -1.3370    0.0221 C   0  0  0  0  0  0  0  0  0  0  0  0
    0.9393   -0.1846   -0.0173 C   0  0  0  0  0  0  0  0  0  0  0  0
   -3.6230    1.2476   -1.6022 C   0  0  0  0  0  0  0  0  0  0  0  0
    0.4046    1.0971   -0.1255 C   0  0  0  0  0  0  0  0  0  0  0  0
    2.3228   -0.3680    0.0527 C   0  0  0  0  0  0  0  0  0  0  0  0
    1.2513    2.2055   -0.1648 C   0  0  0  0  0  0  0  0  0  0  0  0
    3.1674    0.7421    0.0130 C   0  0  0  0  0  0  0  0  0  0  0  0
    2.6330    2.0265   -0.0955 C   0  0  0  0  0  0  0  0  0  0  0  0
   -3.6565    1.0194    2.0506 C   0  0  0  0  0  0  0  0  0  0  0  0
    2.9501   -1.6823    0.1681 C   0  0  0  0  0  0  0  0  0  0  0  0
   -2.0469   -3.0002   -0.6580 H   0  0  0  0  0  0  0  0  0  0  0  0
   -2.5297   -2.4957    0.9707 H   0  0  0  0  0  0  0  0  0  0  0  0
   -3.7179   -1.5607   -1.7029 H   0  0  0  0  0  0  0  0  0  0  0  0
   -4.5141   -2.4492   -0.4053 H   0  0  0  0  0  0  0  0  0  0  0  0
   -4.6949    1.4715   -1.6530 H   0  0  0  0  0  0  0  0  0  0  0  0
   -3.3933    0.5712   -2.4315 H   0  0  0  0  0  0  0  0  0  0  0  0
   -3.0904    2.1916   -1.7634 H   0  0  0  0  0  0  0  0  0  0  0  0
    0.8293    3.2040   -0.2490 H   0  0  0  0  0  0  0  0  0  0  0  0
   -4.6192    0.5060    2.1382 H   0  0  0  0  0  0  0  0  0  0  0  0
   -2.8333    0.3420    2.2974 H   0  0  0  0  0  0  0  0  0  0  0  0
   -3.6542    1.8219    2.7948 H   0  0  0  0  0  0  0  0  0  0  0  0
    4.9357    1.4676    0.0382 H   0  0  0  0  0  0  0  0  0  0  0  0
    2.9050    3.9186   -0.2109 H   0  0  0  0  0  0  0  0  0  0  0  0
    3.6429   -3.1125   -0.9619 H   0  0  0  0  0  0  0  0  0  0  0  0
  1  9  1  0  0  0  0
  1 13  1  0  0  0  0
  2 10  1  0  0  0  0
  2 17  1  0  0  0  0
  3  9  1  0  0  0  0
  3 22  1  0  0  0  0
  4 14  2  0  0  0  0
  5 20  1  0  0  0  0
  5 35  1  0  0  0  0
  6 21  1  0  0  0  0
  6 36  1  0  0  0  0
  7 23  1  0  0  0  0
  7 37  1  0  0  0  0
  8 23  2  0  0  0  0
  9 10  1  0  0  0  0
  9 16  1  0  0  0  0
 10 11  2  0  0  0  0
 11 12  1  0  0  0  0
 11 14  1  0  0  0  0
 12 13  1  0  0  0  0
 12 24  1  0  0  0  0
 12 25  1  0  0  0  0
 13 26  1  0  0  0  0
 13 27  1  0  0  0  0
 14 15  1  0  0  0  0
 15 17  2  0  0  0  0
 15 18  1  0  0  0  0
 16 28  1  0  0  0  0
 16 29  1  0  0  0  0
 16 30  1  0  0  0  0
 17 19  1  0  0  0  0
 18 20  2  0  0  0  0
 18 23  1  0  0  0  0
 19 21  2  0  0  0  0
 19 31  1  0  0  0  0
 20 21  1  0  0  0  0
 22 32  1  0  0  0  0
 22 33  1  0  0  0  0
 22 34  1  0  0  0  0
M  END
> <PUBCHEM_COMPOUND_CID>
139587010

> <PUBCHEM_CONFORMER_RMSD>
0.6

> <PUBCHEM_CONFORMER_DIVERSEORDER>
1

> <PUBCHEM_MMFF94_PARTIAL_CHARGES>
26
1 -0.56
10 -0.06
11 -0.12
12 0.14
13 0.28
14 0.47
15 0.09
17 0.08
18 0.09
19 -0.15
2 -0.16
20 0.08
21 0.08
22 0.28
23 0.63
3 -0.56
31 0.15
35 0.45
36 0.45
37 0.5
4 -0.57
5 -0.53
6 -0.53
7 -0.65
8 -0.57
9 0.7

> <PUBCHEM_EFFECTIVE_ROTOR_COUNT>
2.8

> <PUBCHEM_PHARMACOPHORE_FEATURES>
12
1 1 acceptor
1 2 acceptor
1 3 acceptor
1 4 acceptor
1 5 donor
1 6 donor
1 7 acceptor
1 8 acceptor
3 7 8 23 anion
6 1 9 10 11 12 13 rings
6 15 17 18 19 20 21 rings
6 2 10 11 14 15 17 rings

> <PUBCHEM_HEAVY_ATOM_COUNT>
23

> <PUBCHEM_ATOM_DEF_STEREO_COUNT>
1

> <PUBCHEM_ATOM_UDEF_STEREO_COUNT>
0

> <PUBCHEM_BOND_DEF_STEREO_COUNT>
0

> <PUBCHEM_BOND_UDEF_STEREO_COUNT>
0

> <PUBCHEM_ISOTOPIC_ATOM_COUNT>
0

> <PUBCHEM_COMPONENT_COUNT>
1

> <PUBCHEM_CACTVS_TAUTO_COUNT>
-1

> <PUBCHEM_CONFORMER_ID>
0851EDC200000001

> <PUBCHEM_MMFF94_ENERGY>
71.8281

> <PUBCHEM_FEATURE_SELFOVERLAP>
61.065

> <PUBCHEM_SHAPE_FINGERPRINT>
10411042 1 17473258774153971111
10608611 8 18335413599554770621
10616163 171 18341613788447209727
10967382 1 18409727404305985724
11132069 177 18337382751691586946
11578080 2 17169246188558681694
12390115 104 17907314491427400816
12553582 1 18122066407821898090
12633257 1 18267303127601187075
12644460 14 18260551113058324888
13140716 1 18409451366747536939
13224815 77 18411982468352935583
13583140 156 17531245024389644857
138480 1 18337668599541233710
14223421 5 18263644120470918199
14790565 3 18051431573414736892
15196674 1 18410008819068985575
15442244 35 18411699846445877138
15475509 8 17268378040459132100
15536298 74 18342175570364373854
16945 1 18266457594600952927
17492 89 18341612641897222239
18186145 218 18411985728027300628
18219364 16 18333732395021279357
19591789 44 18265614479931232342
200 152 18201990063280534359
20510252 161 17981609578388691985
20645477 70 18337101285389070759
20691752 17 17894631452473973638
20739085 24 18120961428648097928
21267235 1 18338524135008513030
21501502 16 18412825810951328431
221490 88 18335987548893368330
23184049 59 18337398132069694313
2334 1 18337951302340410479
23366157 5 18040995172357385870
23463225 33 18409445877679027614
23557571 272 14261630634283262737
23559900 14 18342453717131800758
238 59 17685167800376977829
2748010 2 18336265725181864247
312423 11 18341059587716580143
335352 9 18193834851670660143
34934 24 18409720760292278628
350125 39 18337956791683011661
474 4 18410293622671529649
5104073 3 18409730651638989355
633830 44 18130233670286754277
7364860 26 18413108394419829284
84936 182 18129943506728795824
9709674 26 18409731806590026526
9981440 41 17976532042397699496

> <PUBCHEM_SHAPE_MULTIPOLES>
426.37
8.1
2.96
1.05
0.77
0.16
0.26
-0.91
0.22
-1.84
-0.05
1.03
-0.19
-0.54

> <PUBCHEM_SHAPE_SELFOVERLAP>
944.478

> <PUBCHEM_SHAPE_VOLUME>
228.1

> <PUBCHEM_COORDINATE_TYPE>
2
5
10

$$$$
