REMARK  Name = 139588167
REMARK  3 active torsions:
REMARK  status: ('A' for Active; 'I' for Inactive)
REMARK    1  A    between atoms: C_19  and  O_24
REMARK    2  A    between atoms: C_22  and  O_28
REMARK    3  A    between atoms: C_23  and  O_26
REMARK                            x       y       z     vdW  Elec       q    Type
REMARK                         _______ _______ _______ _____ _____    ______ ____
ROOT
ATOM      1  O   UNL     1      -0.697   0.700   0.492  0.00  0.00    -0.345 OA
ATOM      2  O   UNL     1       0.166  -2.068  -0.069  0.00  0.00    -0.447 OA
ATOM      3  O   UNL     1      -5.315  -0.112   1.037  0.00  0.00    -0.455 OA
ATOM      4  O   UNL     1      -2.501   2.160  -1.598  0.00  0.00    -0.289 OA
ATOM      5  O   UNL     1      -1.396  -2.658   1.477  0.00  0.00    -0.250 OA
ATOM      6  C   UNL     1      -1.321   0.169  -0.691  0.00  0.00    +0.165 C 
ATOM      7  C   UNL     1      -2.032  -1.179  -0.306  0.00  0.00    +0.156 C 
ATOM      8  C   UNL     1      -0.338  -0.222  -1.764  0.00  0.00    +0.084 C 
ATOM      9  C   UNL     1       0.692  -1.161  -1.105  0.00  0.00    +0.197 C 
ATOM     10  C   UNL     1      -3.309  -0.713   0.270  0.00  0.00    +0.034 C 
ATOM     11  C   UNL     1      -2.504   1.131  -0.947  0.00  0.00    +0.201 C 
ATOM     12  C   UNL     1      -3.594   0.593  -0.176  0.00  0.00    +0.067 C 
ATOM     13  C   UNL     1      -1.085  -2.012   0.484  0.00  0.00    +0.324 C 
ATOM     14  C   UNL     1       1.851  -0.412  -0.469  0.00  0.00    +0.053 C 
ATOM     15  C   UNL     1       0.397   1.581   0.267  0.00  0.00    +0.169 C 
ATOM     16  C   UNL     1       1.710   0.838   0.174  0.00  0.00    +0.013 C 
ATOM     17  C   UNL     1      -4.825   0.935   0.291  0.00  0.00    +0.126 C 
ATOM     18  C   UNL     1      -4.379  -1.119   1.012  0.00  0.00    +0.175 C 
ATOM     19  C   UNL     1       3.120  -1.022  -0.502  0.00  0.00    +0.170 C 
ATOM     20  C   UNL     1       2.851   1.457   0.718  0.00  0.00    +0.038 C 
ATOM     21  C   UNL     1      -5.675   2.126   0.187  0.00  0.00    +0.073 C 
ATOM     22  C   UNL     1       4.234  -0.400   0.058  0.00  0.00    +0.202 C 
ATOM     23  C   UNL     1       4.101   0.842   0.664  0.00  0.00    +0.175 C 
ENDROOT
BRANCH  19  24
ATOM     24  O   UNL     1       3.288  -2.250  -1.081  0.00  0.00    -0.503 OA
ATOM     25  H   UNL     1       2.556  -2.691  -1.466  0.00  0.00    +0.292 HD
ENDBRANCH  19  24
BRANCH  23  26
ATOM     26  O   UNL     1       5.180   1.469   1.210  0.00  0.00    -0.468 OA
ATOM     27  C   UNL     1       5.927   2.335   0.357  0.00  0.00    +0.253 C 
ENDBRANCH  23  26
BRANCH  22  28
ATOM     28  O   UNL     1       5.454  -1.007   0.012  0.00  0.00    -0.501 OA
ATOM     29  H   UNL     1       5.545  -1.846  -0.397  0.00  0.00    +0.292 HD
ENDBRANCH  22  28
TORSDOF 3
