REMARK  Name = 139588387
REMARK  11 active torsions:
REMARK  status: ('A' for Active; 'I' for Inactive)
REMARK    1  A    between atoms: C_3  and  O_8
REMARK    2  A    between atoms: CA_4  and  C_25
REMARK    3  A    between atoms: C_5  and  O_10
REMARK    4  A    between atoms: C_5  and  C_13
REMARK    5  A    between atoms: C_13  and  C_14
REMARK    6  A    between atoms: C_15  and  C_16
REMARK    7  A    between atoms: C_17  and  C_18
REMARK    8  A    between atoms: C_19  and  C_20
REMARK    9  A    between atoms: C_20  and  C_21
REMARK   10  A    between atoms: C_21  and  C_22
REMARK   11  A    between atoms: C_25  and  O_26
REMARK                            x       y       z     vdW  Elec       q    Type
REMARK                         _______ _______ _______ _____ _____    ______ ____
ROOT
ATOM      1  O   UNL     1      -5.194   2.005  -0.401  0.00  0.00    -0.272 OA
ATOM      2  N   UNL     1      -5.742  -0.121   0.401  0.00  0.00    -0.299 N 
ATOM      3  C   UNL     1      -3.613  -1.058   0.526  0.00  0.00    +0.171 C 
ATOM      4  CA  UNL     1      -5.105  -1.407   0.574  0.00  0.00    +0.131 C 
ATOM      5  C   UNL     1      -3.543   0.212  -0.337  0.00  0.00    +0.238 C 
ATOM      6  C   UNL     1      -4.900   0.851  -0.128  0.00  0.00    +0.256 C 
ATOM      7  H   UNL     1      -6.682   0.050   0.636  0.00  0.00    +0.150 HD
ENDROOT
BRANCH   3   8
ATOM      8  O   UNL     1      -3.167  -0.798   1.858  0.00  0.00    -0.379 OA
ATOM      9  H   UNL     1      -3.220  -1.612   2.382  0.00  0.00    +0.211 HD
ENDBRANCH   3   8
BRANCH   5  10
ATOM     10  O   UNL     1      -3.447  -0.135  -1.705  0.00  0.00    -0.370 OA
ATOM     11  H   UNL     1      -4.198  -0.698  -1.949  0.00  0.00    +0.211 HD
ENDBRANCH   5  10
BRANCH   5  13
ATOM     12  O   UNL     1      -2.519   2.216   0.429  0.00  0.00    -0.288 OA
ATOM     13  C   UNL     1      -2.368   1.077  -0.006  0.00  0.00    +0.208 C 
BRANCH  13  14
ATOM     14  C   UNL     1      -1.020   0.473  -0.202  0.00  0.00    +0.040 C 
ATOM     15  C   UNL     1       0.087   1.177   0.070  0.00  0.00    +0.003 C 
BRANCH  15  16
ATOM     16  C   UNL     1       1.418   0.637  -0.106  0.00  0.00    +0.000 C 
ATOM     17  C   UNL     1       2.531   1.336   0.164  0.00  0.00    -0.000 C 
BRANCH  17  18
ATOM     18  C   UNL     1       3.863   0.796  -0.015  0.00  0.00    -0.005 C 
ATOM     19  C   UNL     1       4.976   1.495   0.255  0.00  0.00    -0.026 C 
BRANCH  19  20
ATOM     20  C   UNL     1       6.405   1.039   0.108  0.00  0.00    +0.031 C 
BRANCH  20  21
ATOM     21  C   UNL     1       6.678  -0.361  -0.457  0.00  0.00    +0.030 C 
BRANCH  21  22
ATOM     22  C   UNL     1       8.141  -0.707  -0.487  0.00  0.00    -0.030 C 
ATOM     23  C   UNL     1       8.758  -1.685   0.193  0.00  0.00    -0.030 C 
ATOM     24  C   UNL     1      10.210  -2.033   0.168  0.00  0.00    +0.030 C 
ENDBRANCH  21  22
ENDBRANCH  20  21
ENDBRANCH  19  20
ENDBRANCH  17  18
ENDBRANCH  15  16
ENDBRANCH  13  14
ENDBRANCH   5  13
BRANCH   4  25
ATOM     25  C   UNL     1      -5.532  -2.374  -0.522  0.00  0.00    +0.159 C 
BRANCH  25  26
ATOM     26  O   UNL     1      -6.917  -2.636  -0.381  0.00  0.00    -0.380 OA
ATOM     27  H   UNL     1      -7.201  -3.252  -1.074  0.00  0.00    +0.211 HD
ENDBRANCH  25  26
ENDBRANCH   4  25
TORSDOF 11
