139583558
  -OEChem-03292013293D

 63 65  0     1  0  0  0  0  0999 V2000
   -0.9924   -3.6977   -1.7492 Cl  0  0  0  0  0  0  0  0  0  0  0  0
    3.4332   -2.4494    0.6296 O   0  0  0  0  0  0  0  0  0  0  0  0
    1.8773   -3.9210   -1.1119 O   0  0  0  0  0  0  0  0  0  0  0  0
    5.1676   -0.9426    0.6825 O   0  0  0  0  0  0  0  0  0  0  0  0
    2.5636    2.0374    1.2086 O   0  0  0  0  0  0  0  0  0  0  0  0
    2.7165    3.7948   -1.1179 O   0  0  0  0  0  0  0  0  0  0  0  0
   -0.4157    3.5713    0.1830 O   0  0  0  0  0  0  0  0  0  0  0  0
   -1.5057    1.0038    0.7966 N   0  0  0  0  0  0  0  0  0  0  0  0
    2.0156   -2.3526    0.7157 C   0  0  1  0  0  0  0  0  0  0  0  0
    1.7527   -0.8943    0.6296 C   0  0  0  0  0  0  0  0  0  0  0  0
    0.3709   -0.5107    0.4270 C   0  0  0  0  0  0  0  0  0  0  0  0
    2.8911   -0.2000    0.6016 C   0  0  0  0  0  0  0  0  0  0  0  0
    1.3264   -3.0293   -0.4688 C   0  0  0  0  0  0  0  0  0  0  0  0
   -0.5460   -1.4023   -0.3317 C   0  0  0  0  0  0  0  0  0  0  0  0
    1.5752   -2.9957    2.0308 C   0  0  0  0  0  0  0  0  0  0  0  0
   -0.0775   -2.5853   -0.7934 C   0  0  0  0  0  0  0  0  0  0  0  0
    3.9752   -1.1955    0.6569 C   0  0  0  0  0  0  0  0  0  0  0  0
    3.9157    1.7009   -0.7802 C   0  0  1  0  0  0  0  0  0  0  0  0
   -0.1753    0.6009    0.9593 C   0  0  0  0  0  0  0  0  0  0  0  0
    3.0836    1.2323    0.4232 C   0  0  0  0  0  0  0  0  0  0  0  0
   -1.9207   -0.9406   -0.5708 C   0  0  0  0  0  0  0  0  0  0  0  0
   -2.3576    0.2135   -0.0134 C   0  0  0  0  0  0  0  0  0  0  0  0
    3.1250    2.5899   -1.7598 C   0  0  1  0  0  0  0  0  0  0  0  0
   -1.9659    2.2370    1.4421 C   0  0  0  0  0  0  0  0  0  0  0  0
    5.1599    2.4170   -0.2534 C   0  0  0  0  0  0  0  0  0  0  0  0
   -3.7238    0.6205   -0.2787 C   0  0  0  0  0  0  0  0  0  0  0  0
    1.9052    1.8896   -2.3488 C   0  0  0  0  0  0  0  0  0  0  0  0
   -6.1657    0.1820   -0.5882 C   0  0  2  0  0  0  0  0  0  0  0  0
   -1.7937    3.4139    0.4970 C   0  0  0  0  0  0  0  0  0  0  0  0
   -4.7415   -0.2389   -0.3136 C   0  0  0  0  0  0  0  0  0  0  0  0
   -7.1010   -0.1726    0.5826 C   0  0  0  0  0  0  0  0  0  0  0  0
   -6.6544   -0.4900   -1.8739 C   0  0  0  0  0  0  0  0  0  0  0  0
   -6.7179    0.5139    1.8879 C   0  0  0  0  0  0  0  0  0  0  0  0
    1.8687   -4.0520    2.0551 H   0  0  0  0  0  0  0  0  0  0  0  0
    0.4913   -2.9491    2.1796 H   0  0  0  0  0  0  0  0  0  0  0  0
    2.0620   -2.5168    2.8885 H   0  0  0  0  0  0  0  0  0  0  0  0
    4.2504    0.8152   -1.3355 H   0  0  0  0  0  0  0  0  0  0  0  0
    0.3820    1.2717    1.5983 H   0  0  0  0  0  0  0  0  0  0  0  0
   -2.5576   -1.5372   -1.2151 H   0  0  0  0  0  0  0  0  0  0  0  0
    3.7911    2.8753   -2.5831 H   0  0  0  0  0  0  0  0  0  0  0  0
   -1.3863    2.4157    2.3573 H   0  0  0  0  0  0  0  0  0  0  0  0
   -3.0106    2.1533    1.7636 H   0  0  0  0  0  0  0  0  0  0  0  0
    5.8109    2.7234   -1.0787 H   0  0  0  0  0  0  0  0  0  0  0  0
    4.9001    3.3098    0.3257 H   0  0  0  0  0  0  0  0  0  0  0  0
    5.7387    1.7615    0.4059 H   0  0  0  0  0  0  0  0  0  0  0  0
   -3.9108    1.6730   -0.4617 H   0  0  0  0  0  0  0  0  0  0  0  0
    1.1359    1.7222   -1.5900 H   0  0  0  0  0  0  0  0  0  0  0  0
    1.4433    2.5198   -3.1168 H   0  0  0  0  0  0  0  0  0  0  0  0
    2.1740    0.9320   -2.8043 H   0  0  0  0  0  0  0  0  0  0  0  0
   -6.2108    1.2681   -0.7438 H   0  0  0  0  0  0  0  0  0  0  0  0
   -2.1440    4.3336    0.9761 H   0  0  0  0  0  0  0  0  0  0  0  0
   -2.3403    3.2798   -0.4401 H   0  0  0  0  0  0  0  0  0  0  0  0
   -4.5907   -1.2982   -0.1164 H   0  0  0  0  0  0  0  0  0  0  0  0
   -7.1159   -1.2581    0.7433 H   0  0  0  0  0  0  0  0  0  0  0  0
   -8.1263    0.1211    0.3251 H   0  0  0  0  0  0  0  0  0  0  0  0
    2.2414    4.3318   -1.7748 H   0  0  0  0  0  0  0  0  0  0  0  0
   -6.6584   -1.5821   -1.7816 H   0  0  0  0  0  0  0  0  0  0  0  0
   -7.6738   -0.1694   -2.1148 H   0  0  0  0  0  0  0  0  0  0  0  0
   -6.0139   -0.2260   -2.7230 H   0  0  0  0  0  0  0  0  0  0  0  0
   -6.6741    1.6003    1.7613 H   0  0  0  0  0  0  0  0  0  0  0  0
   -5.7474    0.1684    2.2569 H   0  0  0  0  0  0  0  0  0  0  0  0
   -7.4627    0.2932    2.6594 H   0  0  0  0  0  0  0  0  0  0  0  0
   -0.3442    4.3331   -0.4170 H   0  0  0  0  0  0  0  0  0  0  0  0
  1 16  1  0  0  0  0
  2  9  1  0  0  0  0
  2 17  1  0  0  0  0
  3 13  2  0  0  0  0
  4 17  2  0  0  0  0
  5 20  2  0  0  0  0
  6 23  1  0  0  0  0
  6 56  1  0  0  0  0
  7 29  1  0  0  0  0
  7 63  1  0  0  0  0
  8 19  1  0  0  0  0
  8 22  1  0  0  0  0
  8 24  1  0  0  0  0
  9 10  1  0  0  0  0
  9 13  1  0  0  0  0
  9 15  1  0  0  0  0
 10 11  1  0  0  0  0
 10 12  2  0  0  0  0
 11 14  1  0  0  0  0
 11 19  2  0  0  0  0
 12 17  1  0  0  0  0
 12 20  1  0  0  0  0
 13 16  1  0  0  0  0
 14 16  2  0  0  0  0
 14 21  1  0  0  0  0
 15 34  1  0  0  0  0
 15 35  1  0  0  0  0
 15 36  1  0  0  0  0
 18 20  1  0  0  0  0
 18 23  1  0  0  0  0
 18 25  1  0  0  0  0
 18 37  1  0  0  0  0
 19 38  1  0  0  0  0
 21 22  2  0  0  0  0
 21 39  1  0  0  0  0
 22 26  1  0  0  0  0
 23 27  1  0  0  0  0
 23 40  1  0  0  0  0
 24 29  1  0  0  0  0
 24 41  1  0  0  0  0
 24 42  1  0  0  0  0
 25 43  1  0  0  0  0
 25 44  1  0  0  0  0
 25 45  1  0  0  0  0
 26 30  2  3  0  0  0
 26 46  1  0  0  0  0
 27 47  1  0  0  0  0
 27 48  1  0  0  0  0
 27 49  1  0  0  0  0
 28 30  1  0  0  0  0
 28 31  1  0  0  0  0
 28 32  1  0  0  0  0
 28 50  1  0  0  0  0
 29 51  1  0  0  0  0
 29 52  1  0  0  0  0
 30 53  1  0  0  0  0
 31 33  1  0  0  0  0
 31 54  1  0  0  0  0
 31 55  1  0  0  0  0
 32 57  1  0  0  0  0
 32 58  1  0  0  0  0
 32 59  1  0  0  0  0
 33 60  1  0  0  0  0
 33 61  1  0  0  0  0
 33 62  1  0  0  0  0
M  END
> <PUBCHEM_COMPOUND_CID>
139583558

> <PUBCHEM_CONFORMER_RMSD>
1

> <PUBCHEM_CONFORMER_DIVERSEORDER>
1
17
16
29
42
3
40
2
30
39
18
41
10
7
11
28
33
22
19
20
35
14
36
43
8
24
25
26
31
12
37
6
38
21
15
13
5
23
32
9
34
4
27

> <PUBCHEM_MMFF94_PARTIAL_CHARGES>
31
1 -0.14
10 -0.14
12 0.03
13 0.49
16 0.15
17 0.71
18 0.06
19 -0.05
2 -0.43
20 0.49
21 -0.15
22 0.1
23 0.28
24 0.37
26 -0.15
28 0.14
29 0.28
3 -0.57
30 -0.29
38 0.15
39 0.15
4 -0.57
46 0.15
5 -0.57
53 0.15
56 0.4
6 -0.68
63 0.4
7 -0.68
8 -0.57
9 0.48

> <PUBCHEM_EFFECTIVE_ROTOR_COUNT>
8.4

> <PUBCHEM_PHARMACOPHORE_FEATURES>
15
1 12 anion
1 25 hydrophobe
1 3 acceptor
1 32 hydrophobe
1 33 hydrophobe
1 4 acceptor
1 5 acceptor
1 6 acceptor
1 6 donor
1 7 acceptor
1 7 donor
1 8 cation
5 2 9 10 12 17 rings
6 8 11 14 19 21 22 rings
6 9 10 11 13 14 16 rings

> <PUBCHEM_HEAVY_ATOM_COUNT>
33

> <PUBCHEM_ATOM_DEF_STEREO_COUNT>
4

> <PUBCHEM_ATOM_UDEF_STEREO_COUNT>
0

> <PUBCHEM_BOND_DEF_STEREO_COUNT>
0

> <PUBCHEM_BOND_UDEF_STEREO_COUNT>
1

> <PUBCHEM_ISOTOPIC_ATOM_COUNT>
0

> <PUBCHEM_COMPONENT_COUNT>
1

> <PUBCHEM_CACTVS_TAUTO_COUNT>
-1

> <PUBCHEM_CONFORMER_ID>
0851E04600000001

> <PUBCHEM_MMFF94_ENERGY>
84.37

> <PUBCHEM_FEATURE_SELFOVERLAP>
76.254

> <PUBCHEM_SHAPE_FINGERPRINT>
10090160 65 18334571361031894075
10673678 19 17895764031551243597
10675989 125 18266740362516800953
10906281 52 18272101483093428251
11578080 2 15214458640216108149
12107698 1 18187641349757782616
12788726 201 17917720101768073129
13140716 1 18267568264828564594
13583140 156 17677317317599333991
13836976 161 18412820279012716054
14705955 166 13985200233657653396
14790565 3 18272932769496828249
15297060 5 18130511945586812330
17492 89 18053941749823522763
17844677 252 18114463354273269589
18681886 176 18271514309081404570
19319366 153 18334849554247902691
21716022 299 15480727229618787030
22149856 69 18343028800863738659
23522609 53 18058469693853074249
23558518 356 18051700940994106953
23559900 14 18113897156723342123
350125 39 18271239417872554328
397830 11 17386015026597787763
4340502 62 17821446855060621483
463206 1 18339917229362852623
474 4 18186800305351917258

> <PUBCHEM_SHAPE_MULTIPOLES>
640.8
12.6
4.72
1.73
22.78
0.54
-0.34
-3.61
0.15
-4.72
-1.1
0.46
0.04
-2.55

> <PUBCHEM_SHAPE_SELFOVERLAP>
1350.775

> <PUBCHEM_SHAPE_VOLUME>
362.3

> <PUBCHEM_COORDINATE_TYPE>
2
5
10

$$$$
