REMARK  Name = 139588938
REMARK  5 active torsions:
REMARK  status: ('A' for Active; 'I' for Inactive)
REMARK    1  A    between atoms: C_3  and  C_9
REMARK    2  A    between atoms: C_5  and  C_18
REMARK    3  A    between atoms: C_8  and  C_15
REMARK    4  A    between atoms: C_15  and  O_16
REMARK    5  A    between atoms: C_19  and  O_24
REMARK                            x       y       z     vdW  Elec       q    Type
REMARK                         _______ _______ _______ _____ _____    ______ ____
ROOT
ATOM      1  S   UNL     1       1.929  -2.680   0.387  0.00  0.00    -0.093 S 
ATOM      2  N   UNL     1       0.668  -0.516  -0.306  0.00  0.00    -0.266 NA
ATOM      3  C   UNL     1      -0.334  -1.603  -0.263  0.00  0.00    +0.106 C 
ATOM      4  C   UNL     1       0.152  -2.700   0.674  0.00  0.00    +0.087 C 
ATOM      5  C   UNL     1       1.848  -0.985  -0.048  0.00  0.00    +0.104 C 
ENDROOT
BRANCH   3   9
ATOM      6  S   UNL     1      -1.367   0.106   1.599  0.00  0.00    -0.162 S 
ATOM      7  N   UNL     1      -2.317  -0.246  -0.871  0.00  0.00    +0.404 N 
ATOM      8  C   UNL     1      -3.106   0.857  -0.283  0.00  0.00    +0.061 C 
ATOM      9  C   UNL     1      -1.668  -1.021   0.196  0.00  0.00    +0.017 C 
ATOM     10  C   UNL     1      -2.236   1.486   0.816  0.00  0.00    +0.047 C 
ATOM     11  C   UNL     1      -3.450   1.927  -1.328  0.00  0.00    -0.009 C 
ATOM     12  C   UNL     1      -3.023  -1.086  -1.834  0.00  0.00    -0.098 C 
ATOM     13  H   UNL     1      -1.602   0.197  -1.448  0.00  0.00    -0.077 HD
BRANCH   8  15
ATOM     14  O   UNL     1      -4.564  -0.775   0.770  0.00  0.00    -0.252 OA
ATOM     15  C   UNL     1      -4.394   0.349   0.321  0.00  0.00    +0.296 C 
BRANCH  15  16
ATOM     16  O   UNL     1      -5.347   1.312   0.297  0.00  0.00    -0.482 OA
ATOM     17  H   UNL     1      -5.152   2.155  -0.063  0.00  0.00    +0.295 HD
ENDBRANCH  15  16
ENDBRANCH   8  15
ENDBRANCH   3   9
BRANCH   5  18
ATOM     18  C   UNL     1       3.069  -0.145  -0.078  0.00  0.00    +0.057 C 
ATOM     19  C   UNL     1       3.011   1.215   0.225  0.00  0.00    +0.136 C 
ATOM     20  C   UNL     1       4.288  -0.732  -0.417  0.00  0.00    +0.005 C 
ATOM     21  C   UNL     1       4.171   1.988   0.189  0.00  0.00    +0.037 C 
ATOM     22  C   UNL     1       5.449   0.041  -0.453  0.00  0.00    +0.000 C 
ATOM     23  C   UNL     1       5.390   1.401  -0.150  0.00  0.00    +0.003 C 
BRANCH  19  24
ATOM     24  O   UNL     1       1.829   1.808   0.556  0.00  0.00    -0.505 OA
ATOM     25  H   UNL     1       1.042   1.300   0.584  0.00  0.00    +0.292 HD
ENDBRANCH  19  24
ENDBRANCH   5  18
TORSDOF 5
