139588885
  -OEChem-03292013293D

 41 47  0     1  0  0  0  0  0999 V2000
   -2.3265    0.5703    1.2384 O   0  0  0  0  0  0  0  0  0  0  0  0
   -1.0653    2.6830    0.0929 O   0  0  0  0  0  0  0  0  0  0  0  0
    0.6221    0.5613    1.2063 O   0  0  0  0  0  0  0  0  0  0  0  0
    0.3634   -0.5465   -0.9945 O   0  0  0  0  0  0  0  0  0  0  0  0
   -3.9337    2.2862   -0.5729 O   0  0  0  0  0  0  0  0  0  0  0  0
   -4.4718   -0.9697   -1.3582 O   0  0  0  0  0  0  0  0  0  0  0  0
   -0.3657   -2.0977    1.5589 O   0  0  0  0  0  0  0  0  0  0  0  0
   -2.8101    0.2187   -0.0733 C   0  0  2  0  0  0  0  0  0  0  0  0
   -1.4729   -0.2938    0.4678 C   0  0  1  0  0  0  0  0  0  0  0  0
   -0.1585    0.3622    0.0045 C   0  0  0  0  0  0  0  0  0  0  0  0
   -0.3202    1.7116   -0.6604 C   0  0  1  0  0  0  0  0  0  0  0  0
   -1.6439    2.2203   -1.1363 C   0  0  1  0  0  0  0  0  0  0  0  0
   -2.8885    1.4120   -1.0005 C   0  0  2  0  0  0  0  0  0  0  0  0
   -4.0089   -0.7059   -0.0313 C   0  0  2  0  0  0  0  0  0  0  0  0
   -1.4059   -1.6651    1.0738 C   0  0  0  0  0  0  0  0  0  0  0  0
   -3.7904   -2.0459    0.5988 C   0  0  0  0  0  0  0  0  0  0  0  0
   -2.6312   -2.4897    1.0903 C   0  0  0  0  0  0  0  0  0  0  0  0
    1.9742    0.4952    1.0389 C   0  0  0  0  0  0  0  0  0  0  0  0
    1.7235   -0.5900   -1.0897 C   0  0  0  0  0  0  0  0  0  0  0  0
    2.5425   -0.0716   -0.0946 C   0  0  0  0  0  0  0  0  0  0  0  0
    2.7784    0.9901    2.0643 C   0  0  0  0  0  0  0  0  0  0  0  0
    2.2742   -1.1957   -2.2178 C   0  0  0  0  0  0  0  0  0  0  0  0
    3.9477   -0.1433   -0.2235 C   0  0  0  0  0  0  0  0  0  0  0  0
    4.1657    0.9348    1.9438 C   0  0  0  0  0  0  0  0  0  0  0  0
    3.6588   -1.2648   -2.3604 C   0  0  0  0  0  0  0  0  0  0  0  0
    4.7497    0.3737    0.8064 C   0  0  0  0  0  0  0  0  0  0  0  0
    4.4932   -0.7396   -1.3716 C   0  0  0  0  0  0  0  0  0  0  0  0
    0.5729    2.0672   -1.1583 H   0  0  0  0  0  0  0  0  0  0  0  0
   -1.6683    2.9124   -1.9677 H   0  0  0  0  0  0  0  0  0  0  0  0
   -3.1533    1.0540   -2.0018 H   0  0  0  0  0  0  0  0  0  0  0  0
   -4.8194   -0.1936    0.5007 H   0  0  0  0  0  0  0  0  0  0  0  0
   -4.6536   -2.7055    0.6584 H   0  0  0  0  0  0  0  0  0  0  0  0
   -2.5602   -3.4778    1.5320 H   0  0  0  0  0  0  0  0  0  0  0  0
   -4.0429    2.9708   -1.2551 H   0  0  0  0  0  0  0  0  0  0  0  0
   -5.3376   -1.4081   -1.2906 H   0  0  0  0  0  0  0  0  0  0  0  0
    2.3325    1.4242    2.9548 H   0  0  0  0  0  0  0  0  0  0  0  0
    1.6325   -1.6085   -2.9913 H   0  0  0  0  0  0  0  0  0  0  0  0
    4.7948    1.3255    2.7385 H   0  0  0  0  0  0  0  0  0  0  0  0
    4.0905   -1.7305   -3.2417 H   0  0  0  0  0  0  0  0  0  0  0  0
    5.5711   -0.8085   -1.5006 H   0  0  0  0  0  0  0  0  0  0  0  0
    5.8344    0.3352    0.7357 H   0  0  0  0  0  0  0  0  0  0  0  0
  1  8  1  0  0  0  0
  1  9  1  0  0  0  0
  2 11  1  0  0  0  0
  2 12  1  0  0  0  0
  3 10  1  0  0  0  0
  3 18  1  0  0  0  0
  4 10  1  0  0  0  0
  4 19  1  0  0  0  0
  5 13  1  0  0  0  0
  5 34  1  0  0  0  0
  6 14  1  0  0  0  0
  6 35  1  0  0  0  0
  7 15  2  0  0  0  0
  8  9  1  0  0  0  0
  8 13  1  0  0  0  0
  8 14  1  0  0  0  0
  9 10  1  0  0  0  0
  9 15  1  0  0  0  0
 10 11  1  0  0  0  0
 11 12  1  0  0  0  0
 11 28  1  0  0  0  0
 12 13  1  0  0  0  0
 12 29  1  0  0  0  0
 13 30  1  0  0  0  0
 14 16  1  0  0  0  0
 14 31  1  0  0  0  0
 15 17  1  0  0  0  0
 16 17  2  0  0  0  0
 16 32  1  0  0  0  0
 17 33  1  0  0  0  0
 18 20  1  0  0  0  0
 18 21  2  0  0  0  0
 19 20  1  0  0  0  0
 19 22  2  0  0  0  0
 20 23  2  0  0  0  0
 21 24  1  0  0  0  0
 21 36  1  0  0  0  0
 22 25  1  0  0  0  0
 22 37  1  0  0  0  0
 23 26  1  0  0  0  0
 23 27  1  0  0  0  0
 24 26  2  0  0  0  0
 24 38  1  0  0  0  0
 25 27  2  0  0  0  0
 25 39  1  0  0  0  0
 26 41  1  0  0  0  0
 27 40  1  0  0  0  0
M  END
> <PUBCHEM_COMPOUND_CID>
139588885

> <PUBCHEM_CONFORMER_RMSD>
0.6

> <PUBCHEM_CONFORMER_DIVERSEORDER>
1
5
3
4
2

> <PUBCHEM_MMFF94_PARTIAL_CHARGES>
37
1 -0.3
10 0.75
11 -0.05
12 -0.05
13 0.47
14 0.51
15 0.56
16 -0.29
17 -0.14
18 0.08
19 0.08
2 -0.3
21 -0.15
22 -0.15
24 -0.15
25 -0.15
26 -0.15
27 -0.15
28 0.1
29 0.1
3 -0.36
32 0.15
33 0.15
34 0.4
35 0.4
36 0.15
37 0.15
38 0.15
39 0.15
4 -0.36
40 0.15
41 0.15
5 -0.68
6 -0.68
7 -0.57
8 -0.04
9 0.05

> <PUBCHEM_EFFECTIVE_ROTOR_COUNT>
1.2

> <PUBCHEM_PHARMACOPHORE_FEATURES>
14
1 1 acceptor
1 2 acceptor
1 3 acceptor
1 4 acceptor
1 5 acceptor
1 5 donor
1 6 acceptor
1 6 donor
1 7 acceptor
6 18 20 21 23 24 26 rings
6 19 20 22 23 25 27 rings
6 3 4 10 18 19 20 rings
7 1 8 9 14 15 16 17 rings
8 1 2 8 9 10 11 12 13 rings

> <PUBCHEM_HEAVY_ATOM_COUNT>
27

> <PUBCHEM_ATOM_DEF_STEREO_COUNT>
2

> <PUBCHEM_ATOM_UDEF_STEREO_COUNT>
4

> <PUBCHEM_BOND_DEF_STEREO_COUNT>
0

> <PUBCHEM_BOND_UDEF_STEREO_COUNT>
0

> <PUBCHEM_ISOTOPIC_ATOM_COUNT>
0

> <PUBCHEM_COMPONENT_COUNT>
1

> <PUBCHEM_CACTVS_TAUTO_COUNT>
-1

> <PUBCHEM_CONFORMER_ID>
0851F51500000001

> <PUBCHEM_MMFF94_ENERGY>
79.0136

> <PUBCHEM_FEATURE_SELFOVERLAP>
71.213

> <PUBCHEM_SHAPE_FINGERPRINT>
10366900 7 18343029886957752934
11370993 144 17632028467772985027
11578080 2 17987536873580551528
11582403 64 16902358432366569568
11640471 11 16515698731692442166
11796584 16 18263370183900829518
12236239 1 16660358190771811890
12553582 1 18041572424372762947
12714826 92 17895490205768283891
12788726 201 17241344576048508227
13140716 1 17970629817193794531
13224815 77 18202566176754842756
13544653 18 17917437561412177419
13583140 156 18341314636033688866
13782708 43 18272940410349695494
13911987 19 17345181406462687864
13947920 75 17676499328435060630
14081887 123 18336540543027909272
14294032 229 17677891228763002157
15961568 22 18116714208957695780
16752209 62 17967250888400527939
16945 1 18186805772639673585
17349148 13 17385721400330746082
17357779 13 18341333378933293591
18219364 16 17632571682636452792
19862831 5 16950569908246299342
19930381 70 17130693062602093049
20511986 3 16660913491588880844
20600515 1 18260543458973461581
20645477 70 17561362877226128382
21033648 29 17988349434401216968
21133410 230 12590896108038696247
22112679 90 17095525084767302852
22121540 332 17544790853284232825
22182313 1 18272652350427879767
23402539 116 18261666017331950781
23557571 272 18411420609136805532
23559900 14 18336831879866762230
3380486 145 17844245340152065723
474 4 15265910334610034538
57527293 21 18197776807289207682
57527295 17 17771348565228064406
602551 16 18261110781561825170
6034566 193 13192916426175836766
77492 1 16660364779304358880
81228 2 18335717013229801369
9709674 26 18342459244253394940

> <PUBCHEM_SHAPE_MULTIPOLES>
514.56
8.83
2.32
2
2.22
0.33
-0.16
-1.36
-0.57
-2.26
-0.06
1.82
-0.39
2.61

> <PUBCHEM_SHAPE_SELFOVERLAP>
1192.887

> <PUBCHEM_SHAPE_VOLUME>
256.3

> <PUBCHEM_COORDINATE_TYPE>
2
5
10

$$$$
