REMARK  Name = 139587655
REMARK  6 active torsions:
REMARK  status: ('A' for Active; 'I' for Inactive)
REMARK    1  A    between atoms: CA_15  and  CB_29
REMARK    2  A    between atoms: CA_16  and  CB_23
REMARK    3  A    between atoms: CB_23  and  CG_24
REMARK    4  A    between atoms: CG_24  and  CD_26
REMARK    5  A    between atoms: CD_26  and  OE1_27
REMARK    6  A    between atoms: CB_29  and  OG_30
REMARK                            x       y       z     vdW  Elec       q    Type
REMARK                         _______ _______ _______ _____ _____    ______ ____
ROOT
ATOM      1  O   PRO A   1      -0.002  -0.911  -1.668  0.00  0.00    -0.273 OA
ATOM      2  O   SER A   4      -4.141  -1.145  -0.487  0.00  0.00    -0.273 OA
ATOM      3  O   GLU A   2       1.359   2.545   1.250  0.00  0.00    -0.273 OA
ATOM      4  O   GLY A   3      -2.797   3.299  -1.774  0.00  0.00    -0.273 OA
ATOM      5  N   PRO A   1      -2.011  -1.913  -0.071  0.00  0.00    -0.272 N 
ATOM      6  N   GLU A   2       1.224  -0.338   0.222  0.00  0.00    -0.297 N 
ATOM      7  N   SER A   4      -3.007   1.404  -0.519  0.00  0.00    -0.295 N 
ATOM      8  N   GLY A   3      -0.042   2.202  -0.570  0.00  0.00    -0.295 N 
ATOM      9  CA  PRO A   1      -0.656  -1.834   0.478  0.00  0.00    +0.152 C 
ATOM     10  CB  PRO A   1      -0.171  -3.281   0.529  0.00  0.00    +0.031 C 
ATOM     11  CG  PRO A   1      -0.936  -3.948  -0.609  0.00  0.00    +0.024 C 
ATOM     12  CD  PRO A   1      -2.287  -3.254  -0.571  0.00  0.00    +0.094 C 
ATOM     13  C   PRO A   1       0.209  -0.998  -0.460  0.00  0.00    +0.241 C 
ATOM     14  C   SER A   4      -3.002  -0.940  -0.053  0.00  0.00    +0.246 C 
ATOM     15  CA  SER A   4      -2.635   0.433   0.514  0.00  0.00    +0.178 C 
ATOM     16  CA  GLU A   2       1.922   0.810  -0.345  0.00  0.00    +0.149 C 
ATOM     17  C   GLU A   2       1.098   1.976   0.192  0.00  0.00    +0.241 C 
ATOM     18  C   GLY A   3      -2.386   2.590  -0.851  0.00  0.00    +0.243 C 
ATOM     19  CA  GLY A   3      -1.150   2.991  -0.078  0.00  0.00    +0.176 C 
ATOM     20  H   GLU A   2       1.480  -0.656   1.118  0.00  0.00    +0.150 HD
ATOM     21  H   SER A   4      -3.808   1.180  -1.046  0.00  0.00    +0.150 HD
ATOM     22  H   GLY A   3      -0.097   1.813  -1.472  0.00  0.00    +0.150 HD
ENDROOT
BRANCH  16  23
ATOM     23  CB  GLU A   2       3.367   0.857   0.119  0.00  0.00    +0.041 C 
BRANCH  23  24
ATOM     24  CG  GLU A   2       4.189  -0.313  -0.402  0.00  0.00    +0.112 C 
BRANCH  24  26
ATOM     25  OE2 GLU A   2       6.037   0.582   0.867  0.00  0.00    -0.250 OA
ATOM     26  CD  GLU A   2       5.619  -0.253   0.075  0.00  0.00    +0.314 C 
BRANCH  26  27
ATOM     27  OE1 GLU A   2       6.391  -1.239  -0.444  0.00  0.00    -0.480 OA
ATOM     28  HE1 GLU A   2       6.022  -1.854  -1.047  0.00  0.00    +0.295 HD
ENDBRANCH  26  27
ENDBRANCH  24  26
ENDBRANCH  23  24
ENDBRANCH  16  23
BRANCH  15  29
ATOM     29  CB  SER A   4      -3.415   0.685   1.798  0.00  0.00    +0.166 C 
BRANCH  29  30
ATOM     30  OG  SER A   4      -2.777  -0.008   2.855  0.00  0.00    -0.380 OA
ATOM     31  H   SER A   4      -3.263   0.143   3.681  0.00  0.00    +0.211 HD
ENDBRANCH  29  30
ENDBRANCH  15  29
TORSDOF 6
