REMARK  Name = 139586641
REMARK  3 active torsions:
REMARK  status: ('A' for Active; 'I' for Inactive)
REMARK    1  A    between atoms: C_11  and  C_33
REMARK    2  A    between atoms: C_12  and  O_31
REMARK    3  A    between atoms: C_33  and  C_35
REMARK                            x       y       z     vdW  Elec       q    Type
REMARK                         _______ _______ _______ _____ _____    ______ ____
ROOT
ATOM      1  S   UNL     1      -1.251  -3.818   0.480  0.00  0.00    -0.080 S 
ATOM      2  S   UNL     1      -1.348  -3.651   2.526  0.00  0.00    -0.082 S 
ATOM      3  O   UNL     1      -0.116   2.054   0.773  0.00  0.00    -0.447 OA
ATOM      4  O   UNL     1       1.965  -1.590  -2.618  0.00  0.00    -0.273 OA
ATOM      5  O   UNL     1       0.515   4.277   0.666  0.00  0.00    -0.250 OA
ATOM      6  O   UNL     1      -2.611  -2.303  -2.339  0.00  0.00    -0.273 OA
ATOM      7  O   UNL     1      -2.155   2.657  -1.763  0.00  0.00    -0.275 OA
ATOM      8  N   UNL     1       1.704  -0.358  -0.670  0.00  0.00    -0.302 N 
ATOM      9  N   UNL     1      -1.027  -1.039  -1.226  0.00  0.00    -0.296 N 
ATOM     10  N   UNL     1      -2.974   0.817  -0.608  0.00  0.00    -0.298 N 
ATOM     11  C   UNL     1       2.937   0.422  -0.749  0.00  0.00    +0.099 C 
ATOM     12  C   UNL     1       2.752   1.763  -0.011  0.00  0.00    +0.139 C 
ATOM     13  C   UNL     1       1.665   2.627  -0.664  0.00  0.00    +0.140 C 
ATOM     14  C   UNL     1       1.325  -1.305  -1.607  0.00  0.00    +0.241 C 
ATOM     15  C   UNL     1       0.036  -2.041  -1.250  0.00  0.00    +0.160 C 
ATOM     16  C   UNL     1       0.646   3.104   0.342  0.00  0.00    +0.320 C 
ATOM     17  C   UNL     1       0.193  -2.784   0.082  0.00  0.00    +0.098 C 
ATOM     18  C   UNL     1      -1.290   2.374   1.546  0.00  0.00    +0.200 C 
ATOM     19  C   UNL     1      -3.202  -0.039  -1.764  0.00  0.00    +0.149 C 
ATOM     20  C   UNL     1      -2.286  -1.264  -1.762  0.00  0.00    +0.241 C 
ATOM     21  C   UNL     1      -2.415   2.851   0.612  0.00  0.00    +0.133 C 
ATOM     22  C   UNL     1      -2.490   2.110  -0.713  0.00  0.00    +0.227 C 
ATOM     23  C   UNL     1      -1.738   1.225   2.415  0.00  0.00    +0.013 C 
ATOM     24  C   UNL     1      -4.670  -0.444  -1.823  0.00  0.00    +0.031 C 
ATOM     25  C   UNL     1      -1.191   0.004   2.522  0.00  0.00    -0.026 C 
ATOM     26  C   UNL     1      -1.720  -1.038   3.471  0.00  0.00    +0.038 C 
ATOM     27  C   UNL     1      -2.433  -2.201   2.774  0.00  0.00    +0.073 C 
ATOM     28  H   UNL     1       1.106  -0.201   0.096  0.00  0.00    +0.150 HD
ATOM     29  H   UNL     1      -0.841  -0.166  -0.811  0.00  0.00    +0.150 HD
ATOM     30  H   UNL     1      -3.172   0.461   0.288  0.00  0.00    +0.150 HD
ENDROOT
BRANCH  12  31
ATOM     31  O   UNL     1       3.965   2.516  -0.036  0.00  0.00    -0.382 OA
ATOM     32  H   UNL     1       4.676   1.996   0.371  0.00  0.00    +0.210 HD
ENDBRANCH  12  31
BRANCH  11  33
ATOM     33  C   UNL     1       4.094  -0.401  -0.178  0.00  0.00    +0.020 C 
ATOM     34  C   UNL     1       4.591  -1.391  -1.232  0.00  0.00    +0.002 C 
BRANCH  33  35
ATOM     35  C   UNL     1       3.698  -1.156   1.102  0.00  0.00    +0.002 C 
ATOM     36  C   UNL     1       4.830  -1.977   1.701  0.00  0.00    +0.000 C 
ENDBRANCH  33  35
ENDBRANCH  11  33
TORSDOF 3
