REMARK  Name = 139588013
REMARK  5 active torsions:
REMARK  status: ('A' for Active; 'I' for Inactive)
REMARK    1  A    between atoms: C_7  and  O_22
REMARK    2  A    between atoms: C_10  and  O_24
REMARK    3  A    between atoms: C_18  and  O_26
REMARK    4  A    between atoms: C_19  and  O_30
REMARK    5  A    between atoms: C_20  and  O_28
REMARK                            x       y       z     vdW  Elec       q    Type
REMARK                         _______ _______ _______ _____ _____    ______ ____
ROOT
ATOM      1  O   UNL     1       0.096   2.317  -0.124  0.00  0.00    -0.449 OA
ATOM      2  O   UNL     1      -5.026  -1.295   0.293  0.00  0.00    -0.291 OA
ATOM      3  O   UNL     1       0.444   2.052   2.158  0.00  0.00    -0.245 OA
ATOM      4  C   UNL     1      -2.266   1.808  -1.684  0.00  0.00    +0.007 C 
ATOM      5  C   UNL     1      -3.018   0.973  -0.643  0.00  0.00    +0.037 C 
ATOM      6  C   UNL     1      -1.877   3.209  -1.195  0.00  0.00    +0.044 C 
ATOM      7  C   UNL     1      -3.357  -0.413  -1.189  0.00  0.00    +0.170 C 
ATOM      8  C   UNL     1      -1.003   3.230   0.068  0.00  0.00    +0.169 C 
ATOM      9  C   UNL     1      -3.851  -1.327  -0.078  0.00  0.00    +0.204 C 
ATOM     10  C   UNL     1      -2.841  -2.292   0.540  0.00  0.00    +0.174 C 
ATOM     11  C   UNL     1      -0.459   4.632   0.322  0.00  0.00    +0.047 C 
ATOM     12  C   UNL     1      -2.066  -1.678   1.710  0.00  0.00    +0.063 C 
ATOM     13  C   UNL     1       1.682   0.836   0.542  0.00  0.00    +0.112 C 
ATOM     14  C   UNL     1       1.346  -0.490   0.217  0.00  0.00    +0.046 C 
ATOM     15  C   UNL     1      -0.694  -1.106   1.463  0.00  0.00    -0.023 C 
ATOM     16  C   UNL     1       0.672   1.801   0.989  0.00  0.00    +0.344 C 
ATOM     17  C   UNL     1      -0.012  -1.048   0.309  0.00  0.00    -0.001 C 
ATOM     18  C   UNL     1       2.366  -1.334  -0.245  0.00  0.00    +0.173 C 
ATOM     19  C   UNL     1       2.998   1.298   0.443  0.00  0.00    +0.143 C 
ATOM     20  C   UNL     1       3.682  -0.875  -0.352  0.00  0.00    +0.175 C 
ATOM     21  C   UNL     1       3.997   0.438  -0.004  0.00  0.00    +0.077 C 
ENDROOT
BRANCH   7  22
ATOM     22  O   UNL     1      -4.400  -0.287  -2.146  0.00  0.00    -0.377 OA
ATOM     23  H   UNL     1      -4.108   0.293  -2.866  0.00  0.00    +0.211 HD
ENDBRANCH   7  22
BRANCH  10  24
ATOM     24  O   UNL     1      -3.628  -3.374   1.045  0.00  0.00    -0.377 OA
ATOM     25  H   UNL     1      -4.128  -3.776   0.318  0.00  0.00    +0.211 HD
ENDBRANCH  10  24
BRANCH  18  26
ATOM     26  O   UNL     1       2.094  -2.628  -0.599  0.00  0.00    -0.468 OA
ATOM     27  C   UNL     1       2.197  -3.609   0.428  0.00  0.00    +0.253 C 
ENDBRANCH  18  26
BRANCH  20  28
ATOM     28  O   UNL     1       4.670  -1.701  -0.797  0.00  0.00    -0.468 OA
ATOM     29  C   UNL     1       4.912  -1.722  -2.203  0.00  0.00    +0.253 C 
ENDBRANCH  20  28
BRANCH  19  30
ATOM     30  O   UNL     1       3.341   2.585   0.731  0.00  0.00    -0.505 OA
ATOM     31  H   UNL     1       2.691   3.187   1.034  0.00  0.00    +0.292 HD
ENDBRANCH  19  30
TORSDOF 5
