139586110
  -OEChem-03292013293D

 50 54  0     1  0  0  0  0  0999 V2000
   -0.7518   -0.3979    1.3517 O   0  0  0  0  0  0  0  0  0  0  0  0
   -0.8344   -0.5988   -2.2138 O   0  0  0  0  0  0  0  0  0  0  0  0
   -1.2664    3.3009   -0.6316 O   0  0  0  0  0  0  0  0  0  0  0  0
   -2.5129    2.1540    1.3994 O   0  0  0  0  0  0  0  0  0  0  0  0
    1.8445    2.0007   -1.5943 O   0  0  0  0  0  0  0  0  0  0  0  0
    0.9664   -1.8775   -2.8495 O   0  0  0  0  0  0  0  0  0  0  0  0
    2.7087   -2.3887   -0.7643 O   0  0  0  0  0  0  0  0  0  0  0  0
   -1.4432   -0.3651   -0.9521 C   0  0  1  0  0  0  0  0  0  0  0  0
   -0.2836   -0.1353    0.0272 C   0  0  1  0  0  0  0  0  0  0  0  0
   -2.1412    0.9903   -0.7724 C   0  0  2  0  0  0  0  0  0  0  0  0
    0.1053    1.3707   -0.0415 C   0  0  2  0  0  0  0  0  0  0  0  0
   -0.9600    1.9623   -0.9697 C   0  0  2  0  0  0  0  0  0  0  0  0
   -2.1936   -0.2655    1.4623 C   0  0  1  0  0  0  0  0  0  0  0  0
   -2.3600   -1.5642   -0.6231 C   0  0  0  0  0  0  0  0  0  0  0  0
   -2.7484    0.9598    0.6693 C   0  0  1  0  0  0  0  0  0  0  0  0
   -2.7943   -1.5337    0.8442 C   0  0  1  0  0  0  0  0  0  0  0  0
    0.7249   -1.0649   -0.5599 C   0  0  0  0  0  0  0  0  0  0  0  0
    1.5535    1.6140   -0.4605 C   0  0  0  0  0  0  0  0  0  0  0  0
    0.3371   -1.2805   -1.9945 C   0  0  0  0  0  0  0  0  0  0  0  0
   -2.3565   -2.7999    1.5812 C   0  0  0  0  0  0  0  0  0  0  0  0
    1.8836   -1.5237   -0.0605 C   0  0  0  0  0  0  0  0  0  0  0  0
    2.6535    1.4250    0.5953 C   0  0  2  0  0  0  0  0  0  0  0  0
    2.5178   -1.1039    1.2537 C   0  0  1  0  0  0  0  0  0  0  0  0
    2.3618    0.3754    1.6890 C   0  0  0  0  0  0  0  0  0  0  0  0
    2.9037    2.7934    1.2338 C   0  0  0  0  0  0  0  0  0  0  0  0
    2.0856   -2.0469    2.3807 C   0  0  0  0  0  0  0  0  0  0  0  0
   -2.9179    1.1836   -1.5196 H   0  0  0  0  0  0  0  0  0  0  0  0
    0.0055    1.8552    0.9389 H   0  0  0  0  0  0  0  0  0  0  0  0
   -0.6329    1.9592   -2.0160 H   0  0  0  0  0  0  0  0  0  0  0  0
   -2.4352   -0.1900    2.5277 H   0  0  0  0  0  0  0  0  0  0  0  0
   -1.8716   -2.5141   -0.8745 H   0  0  0  0  0  0  0  0  0  0  0  0
   -3.2438   -1.5226   -1.2735 H   0  0  0  0  0  0  0  0  0  0  0  0
   -3.8381    0.8649    0.5827 H   0  0  0  0  0  0  0  0  0  0  0  0
   -3.8895   -1.4846    0.8963 H   0  0  0  0  0  0  0  0  0  0  0  0
   -1.2736   -2.9526    1.5283 H   0  0  0  0  0  0  0  0  0  0  0  0
   -2.8392   -3.6818    1.1466 H   0  0  0  0  0  0  0  0  0  0  0  0
   -2.6405   -2.7489    2.6374 H   0  0  0  0  0  0  0  0  0  0  0  0
    3.5628    1.1231    0.0596 H   0  0  0  0  0  0  0  0  0  0  0  0
   -2.0316    3.5686   -1.1685 H   0  0  0  0  0  0  0  0  0  0  0  0
   -2.9317    2.0549    2.2712 H   0  0  0  0  0  0  0  0  0  0  0  0
    3.6025   -1.2450    1.1303 H   0  0  0  0  0  0  0  0  0  0  0  0
    1.3857    0.5460    2.1512 H   0  0  0  0  0  0  0  0  0  0  0  0
    3.0797    0.5329    2.5073 H   0  0  0  0  0  0  0  0  0  0  0  0
    2.0305    3.1334    1.8014 H   0  0  0  0  0  0  0  0  0  0  0  0
    3.1156    3.5505    0.4707 H   0  0  0  0  0  0  0  0  0  0  0  0
    3.7603    2.7565    1.9148 H   0  0  0  0  0  0  0  0  0  0  0  0
    1.0172   -1.9547    2.5995 H   0  0  0  0  0  0  0  0  0  0  0  0
    2.6356   -1.8257    3.3019 H   0  0  0  0  0  0  0  0  0  0  0  0
    2.2856   -3.0921    2.1195 H   0  0  0  0  0  0  0  0  0  0  0  0
    2.2588   -2.6678   -1.5781 H   0  0  0  0  0  0  0  0  0  0  0  0
  1  9  1  0  0  0  0
  1 13  1  0  0  0  0
  2  8  1  0  0  0  0
  2 19  1  0  0  0  0
  3 12  1  0  0  0  0
  3 39  1  0  0  0  0
  4 15  1  0  0  0  0
  4 40  1  0  0  0  0
  5 18  2  0  0  0  0
  6 19  2  0  0  0  0
  7 21  1  0  0  0  0
  7 50  1  0  0  0  0
  8  9  1  0  0  0  0
  8 10  1  0  0  0  0
  8 14  1  0  0  0  0
  9 11  1  0  0  0  0
  9 17  1  0  0  0  0
 10 12  1  0  0  0  0
 10 15  1  0  0  0  0
 10 27  1  0  0  0  0
 11 12  1  0  0  0  0
 11 18  1  0  0  0  0
 11 28  1  0  0  0  0
 12 29  1  0  0  0  0
 13 15  1  0  0  0  0
 13 16  1  0  0  0  0
 13 30  1  0  0  0  0
 14 16  1  0  0  0  0
 14 31  1  0  0  0  0
 14 32  1  0  0  0  0
 15 33  1  0  0  0  0
 16 20  1  0  0  0  0
 16 34  1  0  0  0  0
 17 19  1  0  0  0  0
 17 21  2  3  0  0  0
 18 22  1  0  0  0  0
 20 35  1  0  0  0  0
 20 36  1  0  0  0  0
 20 37  1  0  0  0  0
 21 23  1  0  0  0  0
 22 24  1  0  0  0  0
 22 25  1  0  0  0  0
 22 38  1  0  0  0  0
 23 24  1  0  0  0  0
 23 26  1  0  0  0  0
 23 41  1  0  0  0  0
 24 42  1  0  0  0  0
 24 43  1  0  0  0  0
 25 44  1  0  0  0  0
 25 45  1  0  0  0  0
 25 46  1  0  0  0  0
 26 47  1  0  0  0  0
 26 48  1  0  0  0  0
 26 49  1  0  0  0  0
M  END
> <PUBCHEM_COMPOUND_CID>
139586110

> <PUBCHEM_CONFORMER_RMSD>
0.6

> <PUBCHEM_CONFORMER_DIVERSEORDER>
1

> <PUBCHEM_MMFF94_PARTIAL_CHARGES>
22
1 -0.56
11 0.06
12 0.28
13 0.28
15 0.28
17 -0.12
18 0.45
19 0.71
2 -0.43
21 -0.06
22 0.06
23 0.14
3 -0.68
39 0.4
4 -0.68
40 0.4
5 -0.57
50 0.45
6 -0.57
7 -0.53
8 0.28
9 0.42

> <PUBCHEM_EFFECTIVE_ROTOR_COUNT>
1.8

> <PUBCHEM_PHARMACOPHORE_FEATURES>
10
1 1 acceptor
1 3 acceptor
1 3 donor
1 4 acceptor
1 4 donor
1 5 acceptor
1 6 acceptor
1 7 donor
10 1 8 9 10 11 12 13 14 15 16 rings
5 2 8 9 17 19 rings

> <PUBCHEM_HEAVY_ATOM_COUNT>
26

> <PUBCHEM_ATOM_DEF_STEREO_COUNT>
8

> <PUBCHEM_ATOM_UDEF_STEREO_COUNT>
2

> <PUBCHEM_BOND_DEF_STEREO_COUNT>
0

> <PUBCHEM_BOND_UDEF_STEREO_COUNT>
1

> <PUBCHEM_ISOTOPIC_ATOM_COUNT>
0

> <PUBCHEM_COMPONENT_COUNT>
1

> <PUBCHEM_CACTVS_TAUTO_COUNT>
-1

> <PUBCHEM_CONFORMER_ID>
0851EA3E00000001

> <PUBCHEM_MMFF94_ENERGY>
107.4917

> <PUBCHEM_FEATURE_SELFOVERLAP>
51.007

> <PUBCHEM_SHAPE_FINGERPRINT>
10165383 225 16556244442489467906
10863032 1 18338812177005712281
10948715 1 13612587902156806259
11578080 2 17240480282182855804
11640471 11 18056454361499559240
12423570 1 17843099447272401405
12633257 1 18265612082933189603
12716301 132 17686635549457729697
128993 33 17274830219598944592
13140716 1 18335700525008387027
14142880 1 18126833013982555081
14223421 5 18335977657625455258
144361 1 17839703085544419245
14787075 74 17183345560636494555
15881359 60 17912054214843088155
16945 1 17981021055930789325
18981168 100 16773806891252221377
20511035 2 18340197497338020596
20600515 1 17834137254937809126
20691752 17 17677636266033164489
20905425 154 18337684082402418212
21330990 113 13795047639281421173
21421861 104 17610370459965940115
23419403 2 16836848240776429581
23559900 14 18334303062688202863
2748010 2 18340225041258318743
35225 105 16891435673455118122
3797600 57 17903927995132854882
5845 1 17167855391874428141
70251023 43 18342451543430722855

> <PUBCHEM_SHAPE_MULTIPOLES>
493.98
4.46
3.26
2.23
0.53
0.69
-0.73
-0.06
2.12
0.54
0.38
0.24
-1.05
0.27

> <PUBCHEM_SHAPE_SELFOVERLAP>
1104.696

> <PUBCHEM_SHAPE_VOLUME>
263.2

> <PUBCHEM_COORDINATE_TYPE>
2
5
10

$$$$
