REMARK  Name = 139589079
REMARK  11 active torsions:
REMARK  status: ('A' for Active; 'I' for Inactive)
REMARK    1  A    between atoms: C_4  and  C_29
REMARK    2  A    between atoms: C_7  and  C_17
REMARK    3  A    between atoms: C_9  and  O_27
REMARK    4  A    between atoms: N_16  and  C_22
REMARK    5  A    between atoms: C_23  and  O_25
REMARK    6  A    between atoms: C_29  and  O_30
REMARK    7  A    between atoms: O_30  and  C_32
REMARK    8  A    between atoms: C_32  and  C_33
REMARK    9  A    between atoms: C_33  and  N_34
REMARK   10  A    between atoms: C_33  and  C_38
REMARK   11  A    between atoms: C_38  and  O_39
REMARK                            x       y       z     vdW  Elec       q    Type
REMARK                         _______ _______ _______ _____ _____    ______ ____
ROOT
ATOM      1  N   UNL     1       1.213  -0.410   0.761  0.00  0.00    -0.397 NA
ATOM      2  N   UNL     1      -1.397   0.408   1.080  0.00  0.00    -0.401 NA
ATOM      3  C   UNL     1      -1.102  -0.899   0.996  0.00  0.00    +0.163 C 
ATOM      4  C   UNL     1      -2.110  -1.858   1.069  0.00  0.00    +0.054 C 
ATOM      5  C   UNL     1       0.224  -1.314   0.833  0.00  0.00    +0.194 C 
ATOM      6  C   UNL     1       0.918   0.897   0.845  0.00  0.00    +0.147 C 
ATOM      7  C   UNL     1       1.926   1.856   0.773  0.00  0.00    +0.153 C 
ATOM      8  C   UNL     1      -0.408   1.312   1.007  0.00  0.00    +0.139 C 
ATOM      9  C   UNL     1       0.504  -2.676   0.748  0.00  0.00    +0.171 C 
ATOM     10  C   UNL     1      -1.824  -3.219   0.983  0.00  0.00    +0.005 C 
ATOM     11  C   UNL     1      -0.509  -3.630   0.821  0.00  0.00    +0.040 C 
ATOM     12  C   UNL     1       1.639   3.217   0.859  0.00  0.00    -0.014 C 
ATOM     13  C   UNL     1      -0.689   2.674   1.092  0.00  0.00    +0.087 C 
ATOM     14  C   UNL     1       0.325   3.628   1.019  0.00  0.00    -0.022 C 
ENDROOT
BRANCH   7  17
ATOM     15  O   UNL     1       4.166   1.783   1.453  0.00  0.00    -0.274 OA
ATOM     16  N   UNL     1       3.628   0.728  -0.549  0.00  0.00    -0.278 N 
ATOM     17  C   UNL     1       3.319   1.458   0.604  0.00  0.00    +0.237 C 
ATOM     18  H   UNL     1       2.893   0.514  -1.168  0.00  0.00    +0.155 HD
BRANCH  16  22
ATOM     19  O   UNL     1       4.706   0.384  -3.247  0.00  0.00    -0.285 OA
ATOM     20  C   UNL     1       7.132  -0.497  -0.783  0.00  0.00    +0.041 C 
ATOM     21  C   UNL     1       6.791  -0.360  -2.267  0.00  0.00    +0.047 C 
ATOM     22  C   UNL     1       4.881   0.293  -0.875  0.00  0.00    +0.124 C 
ATOM     23  C   UNL     1       5.886  -0.069  -0.080  0.00  0.00    +0.150 C 
ATOM     24  C   UNL     1       5.370   0.138  -2.252  0.00  0.00    +0.212 C 
BRANCH  23  25
ATOM     25  O   UNL     1       5.844  -0.070   1.288  0.00  0.00    -0.504 OA
ATOM     26  H   UNL     1       6.595  -0.339   1.779  0.00  0.00    +0.292 HD
ENDBRANCH  23  25
ENDBRANCH  16  22
ENDBRANCH   7  17
BRANCH   9  27
ATOM     27  O   UNL     1       1.792  -3.103   0.587  0.00  0.00    -0.469 OA
ATOM     28  C   UNL     1       2.258  -3.255  -0.750  0.00  0.00    +0.253 C 
ENDBRANCH   9  27
BRANCH   4  29
ATOM     29  C   UNL     1      -3.538  -1.444   1.243  0.00  0.00    +0.238 C 
BRANCH  29  30
ATOM     30  O   UNL     1      -3.923  -0.623   0.150  0.00  0.00    -0.445 OA
BRANCH  30  32
ATOM     31  O   UNL     1      -6.036  -0.407   1.045  0.00  0.00    -0.252 OA
ATOM     32  C   UNL     1      -5.216  -0.162   0.170  0.00  0.00    +0.300 C 
BRANCH  32  33
ATOM     33  C   UNL     1      -5.467   0.707  -1.051  0.00  0.00    +0.073 C 
BRANCH  33  34
ATOM     34  N   UNL     1      -6.522   0.066  -1.836  0.00  0.00    +0.394 N 
ATOM     35  C   UNL     1      -6.108  -1.273  -2.252  0.00  0.00    -0.100 C 
ATOM     36  C   UNL     1      -6.859   0.882  -3.002  0.00  0.00    -0.100 C 
ATOM     37  H   UNL     1      -7.353  -0.020  -1.250  0.00  0.00    -0.079 HD
ENDBRANCH  33  34
BRANCH  33  38
ATOM     38  C   UNL     1      -5.913   2.105  -0.630  0.00  0.00    +0.127 C 
BRANCH  38  39
ATOM     39  O   UNL     1      -4.901   2.735   0.148  0.00  0.00    -0.384 OA
ATOM     40  H   UNL     1      -5.197   3.621   0.409  0.00  0.00    +0.210 HD
ENDBRANCH  38  39
ENDBRANCH  33  38
ENDBRANCH  32  33
ENDBRANCH  30  32
ENDBRANCH  29  30
ENDBRANCH   4  29
TORSDOF 11
