REMARK  Name = 139586347
REMARK  8 active torsions:
REMARK  status: ('A' for Active; 'I' for Inactive)
REMARK    1  A    between atoms: C_3  and  O_16
REMARK    2  A    between atoms: C_4  and  O_20
REMARK    3  A    between atoms: C_10  and  C_13
REMARK    4  A    between atoms: O_16  and  C_18
REMARK    5  A    between atoms: O_20  and  C_22
REMARK    6  A    between atoms: C_22  and  C_23
REMARK    7  A    between atoms: C_25  and  O_30
REMARK    8  A    between atoms: C_29  and  O_32
REMARK                            x       y       z     vdW  Elec       q    Type
REMARK                         _______ _______ _______ _____ _____    ______ ____
ROOT
ATOM      1  O   UNL     1       3.171  -2.198   1.487  0.00  0.00    -0.347 OA
ATOM      2  O   UNL     1       1.698   1.527   2.796  0.00  0.00    -0.288 OA
ATOM      3  C   UNL     1       1.069   2.292   0.593  0.00  0.00    +0.226 C 
ATOM      4  C   UNL     1       0.406   1.563  -0.583  0.00  0.00    +0.216 C 
ATOM      5  C   UNL     1       1.350   0.553  -1.240  0.00  0.00    +0.070 C 
ATOM      6  C   UNL     1       2.106  -0.286  -0.244  0.00  0.00    -0.036 C 
ATOM      7  C   UNL     1       2.223   0.013   1.062  0.00  0.00    +0.038 C 
ATOM      8  C   UNL     1       1.647   1.287   1.590  0.00  0.00    +0.210 C 
ATOM      9  C   UNL     1       2.750  -1.538  -0.791  0.00  0.00    +0.056 C 
ATOM     10  C   UNL     1       3.768  -2.128   0.190  0.00  0.00    +0.141 C 
ATOM     11  C   UNL     1       2.928  -0.895   2.032  0.00  0.00    +0.171 C 
ATOM     12  C   UNL     1       0.110   3.265   1.282  0.00  0.00    +0.056 C 
ENDROOT
BRANCH  10  13
ATOM     13  C   UNL     1       4.174  -3.506  -0.217  0.00  0.00    -0.001 C 
ATOM     14  C   UNL     1       5.440  -3.867  -0.468  0.00  0.00    -0.028 C 
ATOM     15  C   UNL     1       5.846  -5.245  -0.874  0.00  0.00    +0.030 C 
ENDBRANCH  10  13
BRANCH   3  16
ATOM     16  O   UNL     1       2.184   3.029   0.095  0.00  0.00    -0.445 OA
BRANCH  16  18
ATOM     17  O   UNL     1       0.778   4.276  -1.247  0.00  0.00    -0.250 OA
ATOM     18  C   UNL     1       1.891   3.995  -0.824  0.00  0.00    +0.318 C 
ATOM     19  C   UNL     1       3.151   4.682  -1.255  0.00  0.00    +0.121 C 
ENDBRANCH  16  18
ENDBRANCH   3  16
BRANCH   4  20
ATOM     20  O   UNL     1      -0.769   0.870  -0.164  0.00  0.00    -0.445 OA
BRANCH  20  22
ATOM     21  O   UNL     1      -1.693   1.133  -2.256  0.00  0.00    -0.245 OA
ATOM     22  C   UNL     1      -1.740   0.727  -1.105  0.00  0.00    +0.344 C 
BRANCH  22  23
ATOM     23  C   UNL     1      -2.904  -0.006  -0.546  0.00  0.00    +0.105 C 
ATOM     24  C   UNL     1      -3.312  -1.214  -1.113  0.00  0.00    -0.010 C 
ATOM     25  C   UNL     1      -3.591   0.517   0.548  0.00  0.00    +0.143 C 
ATOM     26  C   UNL     1      -4.407  -1.897  -0.586  0.00  0.00    +0.033 C 
ATOM     27  C   UNL     1      -4.686  -0.166   1.076  0.00  0.00    +0.074 C 
ATOM     28  C   UNL     1      -2.595  -1.798  -2.287  0.00  0.00    +0.031 C 
ATOM     29  C   UNL     1      -5.094  -1.373   0.509  0.00  0.00    +0.141 C 
BRANCH  25  30
ATOM     30  O   UNL     1      -3.210   1.696   1.118  0.00  0.00    -0.505 OA
ATOM     31  H   UNL     1      -2.476   2.166   0.774  0.00  0.00    +0.292 HD
ENDBRANCH  25  30
BRANCH  29  32
ATOM     32  O   UNL     1      -6.163  -2.040   1.025  0.00  0.00    -0.471 OA
ATOM     33  C   UNL     1      -6.526  -3.269   0.397  0.00  0.00    +0.252 C 
ENDBRANCH  29  32
ENDBRANCH  22  23
ENDBRANCH  20  22
ENDBRANCH   4  20
TORSDOF 8
