139587871
  -OEChem-03292013293D

 56 58  0     1  0  0  0  0  0999 V2000
   -0.9555   -0.5959    0.3942 O   0  0  0  0  0  0  0  0  0  0  0  0
    3.1459   -2.2283   -0.1336 O   0  0  0  0  0  0  0  0  0  0  0  0
    0.8988   -3.6465   -0.3404 O   0  0  0  0  0  0  0  0  0  0  0  0
   -0.2634   -0.3860   -2.5812 O   0  0  0  0  0  0  0  0  0  0  0  0
   -1.6305   -3.3360   -1.6512 O   0  0  0  0  0  0  0  0  0  0  0  0
    1.7832   -0.5923    2.1412 O   0  0  0  0  0  0  0  0  0  0  0  0
   -2.1593    0.3875    2.5422 O   0  0  0  0  0  0  0  0  0  0  0  0
   -4.3992    1.9774    1.8113 O   0  0  0  0  0  0  0  0  0  0  0  0
    1.6456   -0.8696   -1.3142 N   0  0  0  0  0  0  0  0  0  0  0  0
   -0.4111   -1.6024   -0.4694 C   0  0  2  0  0  0  0  0  0  0  0  0
    0.7259   -2.3566    0.2388 C   0  0  2  0  0  0  0  0  0  0  0  0
    1.9486   -1.4885   -0.0555 C   0  0  1  0  0  0  0  0  0  0  0  0
    0.2831   -0.8811   -1.6075 C   0  0  0  0  0  0  0  0  0  0  0  0
   -1.6096   -2.4227   -0.8411 C   0  0  0  0  0  0  0  0  0  0  0  0
   -2.3010   -0.9127    0.5675 C   0  0  0  0  0  0  0  0  0  0  0  0
   -2.7849   -1.9580   -0.1059 C   0  0  0  0  0  0  0  0  0  0  0  0
    2.1415   -0.4180    0.9788 C   0  0  0  0  0  0  0  0  0  0  0  0
   -3.0431   -0.0144    1.4951 C   0  0  2  0  0  0  0  0  0  0  0  0
   -4.1208   -2.5811   -0.1987 C   0  0  0  0  0  0  0  0  0  0  0  0
    2.7781    0.8690    0.5794 C   0  0  0  0  0  0  0  0  0  0  0  0
   -3.6542    1.2424    0.8410 C   0  0  2  0  0  0  0  0  0  0  0  0
    3.4804   -2.8359    1.1120 C   0  0  0  0  0  0  0  0  0  0  0  0
    2.0791    2.0671    0.7256 C   0  0  0  0  0  0  0  0  0  0  0  0
    4.0718    0.8754    0.0580 C   0  0  0  0  0  0  0  0  0  0  0  0
   -2.6354    2.1719    0.2372 C   0  0  0  0  0  0  0  0  0  0  0  0
    2.6739    3.2717    0.3504 C   0  0  0  0  0  0  0  0  0  0  0  0
    4.6667    2.0800   -0.3171 C   0  0  0  0  0  0  0  0  0  0  0  0
   -2.6339    2.5355   -1.0541 C   0  0  0  0  0  0  0  0  0  0  0  0
    3.9678    3.2782   -0.1709 C   0  0  0  0  0  0  0  0  0  0  0  0
   -1.6195    3.4599   -1.6595 C   0  0  0  0  0  0  0  0  0  0  0  0
   -2.0689    4.9101   -1.5724 C   0  0  0  0  0  0  0  0  0  0  0  0
    0.5269   -2.4925    1.3072 H   0  0  0  0  0  0  0  0  0  0  0  0
    2.3372   -0.4274   -1.9117 H   0  0  0  0  0  0  0  0  0  0  0  0
   -3.8507   -0.5663    1.9915 H   0  0  0  0  0  0  0  0  0  0  0  0
    0.1367   -4.1907   -0.0790 H   0  0  0  0  0  0  0  0  0  0  0  0
   -4.4695   -2.5860   -1.2362 H   0  0  0  0  0  0  0  0  0  0  0  0
   -4.8629   -2.0437    0.3989 H   0  0  0  0  0  0  0  0  0  0  0  0
   -4.0857   -3.6152    0.1580 H   0  0  0  0  0  0  0  0  0  0  0  0
   -4.3714    0.9169    0.0766 H   0  0  0  0  0  0  0  0  0  0  0  0
    4.2794   -3.5573    0.9134 H   0  0  0  0  0  0  0  0  0  0  0  0
    2.6537   -3.3860    1.5681 H   0  0  0  0  0  0  0  0  0  0  0  0
    3.8882   -2.1018    1.8130 H   0  0  0  0  0  0  0  0  0  0  0  0
   -1.8148   -0.4169    2.9672 H   0  0  0  0  0  0  0  0  0  0  0  0
    1.0689    2.0731    1.1269 H   0  0  0  0  0  0  0  0  0  0  0  0
    4.6369   -0.0450   -0.0555 H   0  0  0  0  0  0  0  0  0  0  0  0
   -1.8679    2.5680    0.8982 H   0  0  0  0  0  0  0  0  0  0  0  0
   -4.8209    2.7270    1.3569 H   0  0  0  0  0  0  0  0  0  0  0  0
    2.1287    4.2044    0.4627 H   0  0  0  0  0  0  0  0  0  0  0  0
    5.6748    2.0854   -0.7213 H   0  0  0  0  0  0  0  0  0  0  0  0
   -3.4071    2.1578   -1.7183 H   0  0  0  0  0  0  0  0  0  0  0  0
    4.4308    4.2162   -0.4629 H   0  0  0  0  0  0  0  0  0  0  0  0
   -1.4586    3.1783   -2.7063 H   0  0  0  0  0  0  0  0  0  0  0  0
   -0.6528    3.3476   -1.1540 H   0  0  0  0  0  0  0  0  0  0  0  0
   -2.1951    5.2262   -0.5313 H   0  0  0  0  0  0  0  0  0  0  0  0
   -1.3229    5.5643   -2.0349 H   0  0  0  0  0  0  0  0  0  0  0  0
   -3.0206    5.0617   -2.0929 H   0  0  0  0  0  0  0  0  0  0  0  0
  1 10  1  0  0  0  0
  1 15  1  0  0  0  0
  2 12  1  0  0  0  0
  2 22  1  0  0  0  0
  3 11  1  0  0  0  0
  3 35  1  0  0  0  0
  4 13  2  0  0  0  0
  5 14  2  0  0  0  0
  6 17  2  0  0  0  0
  7 18  1  0  0  0  0
  7 43  1  0  0  0  0
  8 21  1  0  0  0  0
  8 47  1  0  0  0  0
  9 12  1  0  0  0  0
  9 13  1  0  0  0  0
  9 33  1  0  0  0  0
 10 11  1  0  0  0  0
 10 13  1  0  0  0  0
 10 14  1  0  0  0  0
 11 12  1  0  0  0  0
 11 32  1  0  0  0  0
 12 17  1  0  0  0  0
 14 16  1  0  0  0  0
 15 16  2  0  0  0  0
 15 18  1  0  0  0  0
 16 19  1  0  0  0  0
 17 20  1  0  0  0  0
 18 21  1  0  0  0  0
 18 34  1  0  0  0  0
 19 36  1  0  0  0  0
 19 37  1  0  0  0  0
 19 38  1  0  0  0  0
 20 23  2  0  0  0  0
 20 24  1  0  0  0  0
 21 25  1  0  0  0  0
 21 39  1  0  0  0  0
 22 40  1  0  0  0  0
 22 41  1  0  0  0  0
 22 42  1  0  0  0  0
 23 26  1  0  0  0  0
 23 44  1  0  0  0  0
 24 27  2  0  0  0  0
 24 45  1  0  0  0  0
 25 28  2  3  0  0  0
 25 46  1  0  0  0  0
 26 29  2  0  0  0  0
 26 48  1  0  0  0  0
 27 29  1  0  0  0  0
 27 49  1  0  0  0  0
 28 30  1  0  0  0  0
 28 50  1  0  0  0  0
 29 51  1  0  0  0  0
 30 31  1  0  0  0  0
 30 52  1  0  0  0  0
 30 53  1  0  0  0  0
 31 54  1  0  0  0  0
 31 55  1  0  0  0  0
 31 56  1  0  0  0  0
M  END
> <PUBCHEM_COMPOUND_CID>
139587871

> <PUBCHEM_CONFORMER_RMSD>
1

> <PUBCHEM_CONFORMER_DIVERSEORDER>
1
27
90
47
104
43
67
95
64
68
58
50
46
19
85
92
60
75
89
98
11
8
87
69
38
17
20
24
16
41
78
32
99
39
33
2
49
91
73
59
77
56
51
84
5
9
25
100
28
29
35
13
74
97
42
62
30
66
36
80
72
96
4
7
34
65
12
71
79
40
82
54
45
6
61
57
23
103
15
55
31
93
52
10
86
14
48
76
94
44
81
22
21
63
101
3
88
83
70
53
37
26
102
18

> <PUBCHEM_MMFF94_PARTIAL_CHARGES>
41
1 -0.36
10 0.4
11 0.28
12 0.64
13 0.57
14 0.49
15 -0.06
16 -0.12
17 0.42
18 0.42
19 0.14
2 -0.56
20 0.09
21 0.42
22 0.28
23 -0.15
24 -0.15
25 -0.29
26 -0.15
27 -0.15
28 -0.29
29 -0.15
3 -0.68
30 0.14
33 0.37
35 0.4
4 -0.57
43 0.4
44 0.15
45 0.15
46 0.15
47 0.4
48 0.15
49 0.15
5 -0.57
50 0.15
51 0.15
6 -0.57
7 -0.68
8 -0.68
9 -0.73

> <PUBCHEM_EFFECTIVE_ROTOR_COUNT>
7.8

> <PUBCHEM_PHARMACOPHORE_FEATURES>
16
1 1 acceptor
1 2 acceptor
1 3 acceptor
1 3 donor
1 31 hydrophobe
1 4 acceptor
1 5 acceptor
1 6 acceptor
1 7 acceptor
1 7 donor
1 8 acceptor
1 8 donor
1 9 donor
5 1 10 14 15 16 rings
5 9 10 11 12 13 rings
6 20 23 24 26 27 29 rings

> <PUBCHEM_HEAVY_ATOM_COUNT>
31

> <PUBCHEM_ATOM_DEF_STEREO_COUNT>
5

> <PUBCHEM_ATOM_UDEF_STEREO_COUNT>
0

> <PUBCHEM_BOND_DEF_STEREO_COUNT>
0

> <PUBCHEM_BOND_UDEF_STEREO_COUNT>
1

> <PUBCHEM_ISOTOPIC_ATOM_COUNT>
0

> <PUBCHEM_COMPONENT_COUNT>
1

> <PUBCHEM_CACTVS_TAUTO_COUNT>
-1

> <PUBCHEM_CONFORMER_ID>
0851F11F00000001

> <PUBCHEM_MMFF94_ENERGY>
80.7887

> <PUBCHEM_FEATURE_SELFOVERLAP>
81.248

> <PUBCHEM_SHAPE_FINGERPRINT>
10670039 82 18265905842260749596
10871710 139 18122065561665829173
11513181 2 17703803547758286983
11578080 2 17968079924489186911
12100795 323 18335417928866669373
12293681 4 16535949214735567365
12633257 1 18268432330458940179
12788726 201 17987512792005066211
13140716 1 18339092509959115171
13583140 156 18042976376357558715
13642711 20 12008553157900325688
13965767 371 18195555651993326185
14251751 93 18058171798662080072
14466204 15 17975401435212189266
14787075 74 17764020659643084555
14840074 17 18122355828835993473
14957384 54 18044365037582981337
15219462 58 17313101925690997091
17921350 177 17900533480573489904
17974551 9 16519068558638138601
19315092 285 17026523110610095403
20691752 17 18264790898166261906
20764821 26 18051419461253735721
21033648 29 17833258727824883153
22907989 373 17916859252919482381
23559900 14 17345206505703049646
238 59 17977638958533574597
350125 39 18342738554640831290
35225 105 17845647195944926845
392239 28 17905337568871599491
469060 322 18120086440698824985
5081480 168 17558009259419008540
5252454 2 18342182188851448864

> <PUBCHEM_SHAPE_MULTIPOLES>
586.03
7.71
5.56
1.81
2.64
3.68
0.06
3.11
2.01
-0.97
-2.17
-1.16
0.33
-0.53

> <PUBCHEM_SHAPE_SELFOVERLAP>
1259.981

> <PUBCHEM_SHAPE_VOLUME>
323.5

> <PUBCHEM_COORDINATE_TYPE>
2
5
10

$$$$
