REMARK  Name = 139583905
REMARK  6 active torsions:
REMARK  status: ('A' for Active; 'I' for Inactive)
REMARK    1  A    between atoms: C_5  and  O_18
REMARK    2  A    between atoms: C_5  and  C_20
REMARK    3  A    between atoms: C_20  and  C_21
REMARK    4  A    between atoms: C_21  and  N_23
REMARK    5  A    between atoms: C_21  and  C_34
REMARK    6  A    between atoms: C_34  and  O_35
REMARK                            x       y       z     vdW  Elec       q    Type
REMARK                         _______ _______ _______ _____ _____    ______ ____
ROOT
ATOM      1  O   UNL     1      -4.694   2.165   0.605  0.00  0.00    -0.277 OA
ATOM      2  N   UNL     1      -3.116   0.514   0.068  0.00  0.00    -0.279 N 
ATOM      3  N   UNL     1      -1.418   1.779  -0.719  0.00  0.00    +0.406 N 
ATOM      4  C   UNL     1      -1.909   0.410  -0.705  0.00  0.00    +0.052 C 
ATOM      5  C   UNL     1      -1.111  -0.734  -0.038  0.00  0.00    +0.109 C 
ATOM      6  C   UNL     1      -2.634   2.640  -0.656  0.00  0.00    +0.028 C 
ATOM      7  C   UNL     1      -2.235  -1.473   0.668  0.00  0.00    +0.015 C 
ATOM      8  C   UNL     1      -3.375  -0.656   0.757  0.00  0.00    +0.050 C 
ATOM      9  C   UNL     1      -3.660   1.775   0.090  0.00  0.00    +0.209 C 
ATOM     10  C   UNL     1      -3.139   2.956  -2.064  0.00  0.00    -0.012 C 
ATOM     11  C   UNL     1      -2.342   3.922   0.121  0.00  0.00    -0.012 C 
ATOM     12  C   UNL     1      -2.220  -2.713   1.283  0.00  0.00    -0.001 C 
ATOM     13  C   UNL     1      -4.496  -1.019   1.476  0.00  0.00    +0.015 C 
ATOM     14  C   UNL     1      -3.359  -3.115   1.987  0.00  0.00    -0.000 C 
ATOM     15  C   UNL     1      -4.483  -2.274   2.087  0.00  0.00    +0.001 C 
ATOM     16  H   UNL     1      -0.896   1.962  -1.576  0.00  0.00    -0.081 HD
ATOM     17  H   UNL     1      -0.785   1.962   0.059  0.00  0.00    -0.081 HD
ENDROOT
BRANCH   5  18
ATOM     18  O   UNL     1      -0.235  -0.225   0.964  0.00  0.00    -0.383 OA
ATOM     19  H   UNL     1      -0.743   0.305   1.598  0.00  0.00    +0.211 HD
ENDBRANCH   5  18
BRANCH   5  20
ATOM     20  C   UNL     1      -0.319  -1.567  -1.035  0.00  0.00    +0.062 C 
BRANCH  20  21
ATOM     21  C   UNL     1       0.847  -0.827  -1.702  0.00  0.00    +0.178 C 
BRANCH  21  23
ATOM     22  O   UNL     1       1.841   1.725  -0.897  0.00  0.00    -0.274 OA
ATOM     23  N   UNL     1       1.931  -0.606  -0.779  0.00  0.00    -0.250 N 
ATOM     24  N   UNL     1       3.550  -1.673   0.617  0.00  0.00    -0.252 NA
ATOM     25  C   UNL     1       2.342   0.696  -0.452  0.00  0.00    +0.237 C 
ATOM     26  C   UNL     1       2.566  -1.709  -0.220  0.00  0.00    +0.222 C 
ATOM     27  C   UNL     1       3.469   0.781   0.505  0.00  0.00    +0.138 C 
ATOM     28  C   UNL     1       4.025  -0.407   0.999  0.00  0.00    +0.068 C 
ATOM     29  C   UNL     1       3.965   2.025   0.906  0.00  0.00    -0.011 C 
ATOM     30  C   UNL     1       5.090  -0.328   1.903  0.00  0.00    +0.015 C 
ATOM     31  C   UNL     1       5.026   2.087   1.808  0.00  0.00    -0.004 C 
ATOM     32  C   UNL     1       5.588   0.912   2.306  0.00  0.00    +0.001 C 
ENDBRANCH  21  23
BRANCH  21  34
ATOM     33  O   UNL     1       0.574  -2.198  -3.681  0.00  0.00    -0.248 OA
ATOM     34  C   UNL     1       1.309  -1.525  -2.969  0.00  0.00    +0.332 C 
BRANCH  34  35
ATOM     35  O   UNL     1       2.624  -1.340  -3.234  0.00  0.00    -0.479 OA
ATOM     36  H   UNL     1       3.148  -0.816  -2.660  0.00  0.00    +0.295 HD
ENDBRANCH  34  35
ENDBRANCH  21  34
ENDBRANCH  20  21
ENDBRANCH   5  20
TORSDOF 6
