REMARK  Name = 139585641
REMARK  4 active torsions:
REMARK  status: ('A' for Active; 'I' for Inactive)
REMARK    1  A    between atoms: C_13  and  O_23
REMARK    2  A    between atoms: C_14  and  O_25
REMARK    3  A    between atoms: C_19  and  O_27
REMARK    4  A    between atoms: C_20  and  O_29
REMARK                            x       y       z     vdW  Elec       q    Type
REMARK                         _______ _______ _______ _____ _____    ______ ____
ROOT
ATOM      1  O   UNL     1       2.371  -3.128   0.079  0.00  0.00    -0.346 OA
ATOM      2  O   UNL     1      -2.371   3.128   0.078  0.00  0.00    -0.346 OA
ATOM      3  C   UNL     1      -0.835   1.239  -0.393  0.00  0.00    +0.007 A 
ATOM      4  C   UNL     1       0.835  -1.239  -0.393  0.00  0.00    +0.007 A 
ATOM      5  C   UNL     1      -1.493   2.137   0.629  0.00  0.00    +0.167 C 
ATOM      6  C   UNL     1       1.493  -2.137   0.629  0.00  0.00    +0.167 C 
ATOM      7  C   UNL     1      -2.989   2.041   0.774  0.00  0.00    +0.178 C 
ATOM      8  C   UNL     1       2.989  -2.041   0.775  0.00  0.00    +0.178 C 
ATOM      9  C   UNL     1       1.458   0.142  -0.255  0.00  0.00    -0.001 A 
ATOM     10  C   UNL     1      -1.458  -0.142  -0.255  0.00  0.00    -0.001 A 
ATOM     11  C   UNL     1       0.673   1.305  -0.291  0.00  0.00    -0.002 A 
ATOM     12  C   UNL     1      -0.673  -1.305  -0.291  0.00  0.00    -0.002 A 
ATOM     13  C   UNL     1       3.701  -1.037  -0.085  0.00  0.00    +0.165 C 
ATOM     14  C   UNL     1      -3.701   1.037  -0.085  0.00  0.00    +0.165 C 
ATOM     15  C   UNL     1      -2.874  -0.238  -0.149  0.00  0.00    +0.040 C 
ATOM     16  C   UNL     1       2.874   0.238  -0.149  0.00  0.00    +0.040 C 
ATOM     17  C   UNL     1      -1.316  -2.556  -0.293  0.00  0.00    +0.003 C 
ATOM     18  C   UNL     1       1.316   2.555  -0.293  0.00  0.00    +0.003 C 
ATOM     19  C   UNL     1      -3.480  -1.501  -0.147  0.00  0.00    +0.132 C 
ATOM     20  C   UNL     1       3.480   1.501  -0.147  0.00  0.00    +0.132 C 
ATOM     21  C   UNL     1       2.704   2.652  -0.222  0.00  0.00    +0.036 C 
ATOM     22  C   UNL     1      -2.704  -2.652  -0.222  0.00  0.00    +0.036 C 
ENDROOT
BRANCH  13  23
ATOM     23  O   UNL     1       4.995  -0.798   0.462  0.00  0.00    -0.377 OA
ATOM     24  H   UNL     1       5.494  -1.630   0.488  0.00  0.00    +0.211 HD
ENDBRANCH  13  23
BRANCH  14  25
ATOM     25  O   UNL     1      -4.995   0.799   0.462  0.00  0.00    -0.377 OA
ATOM     26  H   UNL     1      -5.493   1.630   0.488  0.00  0.00    +0.211 HD
ENDBRANCH  14  25
BRANCH  19  27
ATOM     27  O   UNL     1      -4.833  -1.664  -0.108  0.00  0.00    -0.506 OA
ATOM     28  H   UNL     1      -5.394  -0.915  -0.058  0.00  0.00    +0.292 HD
ENDBRANCH  19  27
BRANCH  20  29
ATOM     29  O   UNL     1       4.833   1.664  -0.108  0.00  0.00    -0.506 OA
ATOM     30  H   UNL     1       5.394   0.915  -0.058  0.00  0.00    +0.292 HD
ENDBRANCH  20  29
TORSDOF 4
