139590568
  -OEChem-03292013293D

 40 41  0     0  0  0  0  0  0999 V2000
    3.0092   -1.6667    1.7784 O   0  0  0  0  0  0  0  0  0  0  0  0
   -1.1347    1.6674   -0.4947 O   0  0  0  0  0  0  0  0  0  0  0  0
   -1.6855   -2.9678   -1.5552 O   0  0  0  0  0  0  0  0  0  0  0  0
    0.7858   -2.1065    0.2271 O   0  0  0  0  0  0  0  0  0  0  0  0
    4.5124    0.5847    1.2628 O   0  0  0  0  0  0  0  0  0  0  0  0
    3.6963    2.2312   -0.7783 O   0  0  0  0  0  0  0  0  0  0  0  0
   -2.6556    2.5090    1.5293 O   0  0  0  0  0  0  0  0  0  0  0  0
   -0.1606   -0.5905   -1.8964 C   0  0  0  0  0  0  0  0  0  0  0  0
    1.0591   -0.1663   -1.1235 C   0  0  0  0  0  0  0  0  0  0  0  0
   -1.3905   -0.6450   -1.0375 C   0  0  0  0  0  0  0  0  0  0  0  0
    1.7853    0.9406   -1.3662 C   0  0  0  0  0  0  0  0  0  0  0  0
    1.4471   -1.1022   -0.0249 C   0  0  0  0  0  0  0  0  0  0  0  0
   -1.8267    0.4983   -0.3679 C   0  0  0  0  0  0  0  0  0  0  0  0
   -2.0968   -1.8410   -0.9090 C   0  0  0  0  0  0  0  0  0  0  0  0
    3.0077    1.2375   -0.5594 C   0  0  0  0  0  0  0  0  0  0  0  0
    2.6563   -0.7921    0.7694 C   0  0  0  0  0  0  0  0  0  0  0  0
   -2.9695    0.4455    0.4304 C   0  0  0  0  0  0  0  0  0  0  0  0
    3.3837    0.2982    0.5200 C   0  0  0  0  0  0  0  0  0  0  0  0
    1.4676    1.9747   -2.4124 C   0  0  0  0  0  0  0  0  0  0  0  0
   -3.2396   -1.8938   -0.1107 C   0  0  0  0  0  0  0  0  0  0  0  0
   -3.6757   -0.7506    0.5591 C   0  0  0  0  0  0  0  0  0  0  0  0
   -3.4437    1.6261    1.1393 C   0  0  0  0  0  0  0  0  0  0  0  0
   -4.9306    1.8050    1.4216 C   0  0  0  0  0  0  0  0  0  0  0  0
    2.3991   -1.2957    2.9986 C   0  0  0  0  0  0  0  0  0  0  0  0
    0.0619   -1.5649   -2.3497 H   0  0  0  0  0  0  0  0  0  0  0  0
   -0.3807    0.0508   -2.7542 H   0  0  0  0  0  0  0  0  0  0  0  0
    1.4721    2.9766   -1.9681 H   0  0  0  0  0  0  0  0  0  0  0  0
    0.4900    1.8576   -2.8814 H   0  0  0  0  0  0  0  0  0  0  0  0
    2.2223    1.9483   -3.2056 H   0  0  0  0  0  0  0  0  0  0  0  0
   -3.7975   -2.8197    0.0011 H   0  0  0  0  0  0  0  0  0  0  0  0
   -4.5606   -0.8268    1.1848 H   0  0  0  0  0  0  0  0  0  0  0  0
   -1.6041    2.3975   -0.0621 H   0  0  0  0  0  0  0  0  0  0  0  0
   -2.2968   -3.6949   -1.3463 H   0  0  0  0  0  0  0  0  0  0  0  0
   -5.1812    1.3385    2.3774 H   0  0  0  0  0  0  0  0  0  0  0  0
   -5.5338    1.3756    0.6171 H   0  0  0  0  0  0  0  0  0  0  0  0
   -5.1583    2.8744    1.4667 H   0  0  0  0  0  0  0  0  0  0  0  0
    4.8851    1.4148    0.9186 H   0  0  0  0  0  0  0  0  0  0  0  0
    1.3063   -1.3072    2.9201 H   0  0  0  0  0  0  0  0  0  0  0  0
    2.7396   -0.3100    3.3343 H   0  0  0  0  0  0  0  0  0  0  0  0
    2.6881   -2.0268    3.7597 H   0  0  0  0  0  0  0  0  0  0  0  0
  1 16  1  0  0  0  0
  1 24  1  0  0  0  0
  2 13  1  0  0  0  0
  2 32  1  0  0  0  0
  3 14  1  0  0  0  0
  3 33  1  0  0  0  0
  4 12  2  0  0  0  0
  5 18  1  0  0  0  0
  5 37  1  0  0  0  0
  6 15  2  0  0  0  0
  7 22  2  0  0  0  0
  8  9  1  0  0  0  0
  8 10  1  0  0  0  0
  8 25  1  0  0  0  0
  8 26  1  0  0  0  0
  9 11  2  0  0  0  0
  9 12  1  0  0  0  0
 10 13  1  0  0  0  0
 10 14  2  0  0  0  0
 11 15  1  0  0  0  0
 11 19  1  0  0  0  0
 12 16  1  0  0  0  0
 13 17  2  0  0  0  0
 14 20  1  0  0  0  0
 15 18  1  0  0  0  0
 16 18  2  0  0  0  0
 17 21  1  0  0  0  0
 17 22  1  0  0  0  0
 19 27  1  0  0  0  0
 19 28  1  0  0  0  0
 19 29  1  0  0  0  0
 20 21  2  0  0  0  0
 20 30  1  0  0  0  0
 21 31  1  0  0  0  0
 22 23  1  0  0  0  0
 23 34  1  0  0  0  0
 23 35  1  0  0  0  0
 23 36  1  0  0  0  0
 24 38  1  0  0  0  0
 24 39  1  0  0  0  0
 24 40  1  0  0  0  0
M  END
> <PUBCHEM_COMPOUND_CID>
139590568

> <PUBCHEM_CONFORMER_RMSD>
0.8

> <PUBCHEM_CONFORMER_DIVERSEORDER>
1
20
29
17
18
9
14
31
23
26
4
32
13
8
33
28
30
27
2
10
12
21
5
24
25
16
3
22
11
6
15
19
7

> <PUBCHEM_MMFF94_PARTIAL_CHARGES>
29
1 -0.36
10 -0.14
11 -0.12
12 0.54
13 0.08
14 0.08
15 0.54
16 0.09
17 0.09
18 0.09
19 0.14
2 -0.53
20 -0.15
21 -0.15
22 0.42
23 0.06
24 0.28
3 -0.53
30 0.15
31 0.15
32 0.45
33 0.45
37 0.45
4 -0.57
5 -0.53
6 -0.57
7 -0.57
8 0.28
9 -0.12

> <PUBCHEM_EFFECTIVE_ROTOR_COUNT>
4

> <PUBCHEM_PHARMACOPHORE_FEATURES>
9
1 1 acceptor
1 2 donor
1 3 donor
1 4 acceptor
1 5 donor
1 6 acceptor
1 7 acceptor
6 10 13 14 17 20 21 rings
6 9 11 12 15 16 18 rings

> <PUBCHEM_HEAVY_ATOM_COUNT>
24

> <PUBCHEM_ATOM_DEF_STEREO_COUNT>
0

> <PUBCHEM_ATOM_UDEF_STEREO_COUNT>
0

> <PUBCHEM_BOND_DEF_STEREO_COUNT>
0

> <PUBCHEM_BOND_UDEF_STEREO_COUNT>
0

> <PUBCHEM_ISOTOPIC_ATOM_COUNT>
0

> <PUBCHEM_COMPONENT_COUNT>
1

> <PUBCHEM_CACTVS_TAUTO_COUNT>
-1

> <PUBCHEM_CONFORMER_ID>
0851FBA800000001

> <PUBCHEM_MMFF94_ENERGY>
69.8479

> <PUBCHEM_FEATURE_SELFOVERLAP>
45.678

> <PUBCHEM_SHAPE_FINGERPRINT>
10165383 225 16342323417239820007
10382601 240 18040718065452280932
10498660 4 17275393079590466553
11221954 11 16414041232067110584
11578080 2 17903600259264560925
11640471 11 18335714882794134325
11725454 13 16486962952129459701
12156800 1 15874179068629648145
12173636 292 18059859433209843925
12202030 40 14924227071118142882
12363563 72 13262404388050005209
12553582 1 17458625562703758058
12633257 1 18264482897471356155
12788726 201 18196380444918507495
13140716 1 18197514943280902439
13583140 156 17749403593655490385
13726171 33 17701560586476308640
13764800 53 17632584837920846249
13782708 43 16271104754747813359
13965767 371 18264498282108104853
14341114 328 18334581277758206224
14739800 52 17841140367172400912
14787075 74 17108775565671223231
15422964 175 16009314197290940064
18981168 100 17060071314943879603
19862831 5 10159694694460710295
20510252 161 17845392041012491779
20511986 3 18262224621274561373
20715895 44 17903921055236876721
20739085 24 17894919533601016012
21427221 339 18336266747558050008
21756936 100 17465700018254599196
22907989 373 12889946031200652312
23419403 2 14738644116119267390
23557571 272 17275105072094878135
23559900 14 17844268262402899149
238918 7 16817693618903422109
25 1 14045750356463846206
3737641 26 17607516931002804706
3797600 57 18193573365345254747
38570 142 17971222393753106716
392239 28 17687473772280838112
427121 178 17702952413725039497
474 4 17823708648920118044
7064713 232 18342173349660605641
7097593 13 18262233313882069754
7808743 9 17989210373164227184
90316 7 18334013857044841541

> <PUBCHEM_SHAPE_MULTIPOLES>
452.82
7.84
2.7
2.22
1.81
0.08
0.59
-2.59
4.44
0.68
-0.18
-0.81
0.19
-3.1

> <PUBCHEM_SHAPE_SELFOVERLAP>
980.296

> <PUBCHEM_SHAPE_VOLUME>
246.7

> <PUBCHEM_COORDINATE_TYPE>
2
5
10

$$$$
