REMARK  Name = 139583915
REMARK  7 active torsions:
REMARK  status: ('A' for Active; 'I' for Inactive)
REMARK    1  A    between atoms: C_3  and  O_16
REMARK    2  A    between atoms: C_4  and  O_18
REMARK    3  A    between atoms: C_10  and  C_13
REMARK    4  A    between atoms: O_18  and  C_20
REMARK    5  A    between atoms: C_20  and  C_21
REMARK    6  A    between atoms: C_23  and  O_28
REMARK    7  A    between atoms: C_27  and  O_30
REMARK                            x       y       z     vdW  Elec       q    Type
REMARK                         _______ _______ _______ _____ _____    ______ ____
ROOT
ATOM      1  O   UNL     1       3.583  -1.040   1.548  0.00  0.00    -0.347 OA
ATOM      2  O   UNL     1       1.687   2.671   2.170  0.00  0.00    -0.289 OA
ATOM      3  C   UNL     1       0.932   2.908  -0.112  0.00  0.00    +0.180 C 
ATOM      4  C   UNL     1       0.344   1.890  -1.097  0.00  0.00    +0.204 C 
ATOM      5  C   UNL     1       1.394   0.888  -1.584  0.00  0.00    +0.069 C 
ATOM      6  C   UNL     1       2.264   0.355  -0.476  0.00  0.00    -0.037 C 
ATOM      7  C   UNL     1       2.365   0.917   0.742  0.00  0.00    +0.037 C 
ATOM      8  C   UNL     1       3.047  -0.895  -0.796  0.00  0.00    +0.056 C 
ATOM      9  C   UNL     1       1.646   2.194   1.036  0.00  0.00    +0.198 C 
ATOM     10  C   UNL     1       4.145  -1.158   0.239  0.00  0.00    +0.141 C 
ATOM     11  C   UNL     1       3.191   0.307   1.840  0.00  0.00    +0.171 C 
ATOM     12  C   UNL     1      -0.127   3.879   0.414  0.00  0.00    +0.041 C 
ENDROOT
BRANCH  10  13
ATOM     13  C   UNL     1       4.710  -2.531   0.090  0.00  0.00    -0.001 C 
ATOM     14  C   UNL     1       6.007  -2.784  -0.137  0.00  0.00    -0.028 C 
ATOM     15  C   UNL     1       6.572  -4.158  -0.285  0.00  0.00    +0.030 C 
ENDBRANCH  10  13
BRANCH   3  16
ATOM     16  O   UNL     1       1.941   3.658  -0.787  0.00  0.00    -0.376 OA
ATOM     17  H   UNL     1       2.620   3.054  -1.127  0.00  0.00    +0.211 HD
ENDBRANCH   3  16
BRANCH   4  18
ATOM     18  O   UNL     1      -0.730   1.161  -0.505  0.00  0.00    -0.446 OA
BRANCH  18  20
ATOM     19  O   UNL     1      -1.714   0.897  -2.569  0.00  0.00    -0.245 OA
ATOM     20  C   UNL     1      -1.691   0.723  -1.361  0.00  0.00    +0.344 C 
BRANCH  20  21
ATOM     21  C   UNL     1      -2.747  -0.018  -0.624  0.00  0.00    +0.105 C 
ATOM     22  C   UNL     1      -3.014  -1.352  -0.930  0.00  0.00    -0.010 C 
ATOM     23  C   UNL     1      -3.475   0.627   0.375  0.00  0.00    +0.143 C 
ATOM     24  C   UNL     1      -4.008  -2.042  -0.237  0.00  0.00    +0.033 C 
ATOM     25  C   UNL     1      -4.470  -0.062   1.069  0.00  0.00    +0.074 C 
ATOM     26  C   UNL     1      -2.250  -2.068  -1.996  0.00  0.00    +0.031 C 
ATOM     27  C   UNL     1      -4.736  -1.397   0.763  0.00  0.00    +0.141 C 
BRANCH  23  28
ATOM     28  O   UNL     1      -3.232   1.931   0.690  0.00  0.00    -0.505 OA
ATOM     29  H   UNL     1      -2.567   2.407   0.233  0.00  0.00    +0.292 HD
ENDBRANCH  23  28
BRANCH  27  30
ATOM     30  O   UNL     1      -5.706  -2.069   1.440  0.00  0.00    -0.471 OA
ATOM     31  C   UNL     1      -5.926  -3.431   1.077  0.00  0.00    +0.252 C 
ENDBRANCH  27  30
ENDBRANCH  20  21
ENDBRANCH  18  20
ENDBRANCH   4  18
TORSDOF 7
