REMARK  Name = 139589040
REMARK  8 active torsions:
REMARK  status: ('A' for Active; 'I' for Inactive)
REMARK    1  A    between atoms: C_3  and  O_29
REMARK    2  A    between atoms: C_7  and  C_27
REMARK    3  A    between atoms: C_9  and  O_21
REMARK    4  A    between atoms: C_11  and  O_23
REMARK    5  A    between atoms: C_17  and  O_25
REMARK    6  A    between atoms: O_29  and  C_33
REMARK    7  A    between atoms: C_31  and  N_37
REMARK    8  A    between atoms: C_34  and  O_41
REMARK                            x       y       z     vdW  Elec       q    Type
REMARK                         _______ _______ _______ _____ _____    ______ ____
ROOT
ATOM      1  O   UNL     1      -2.270  -2.359   0.811  0.00  0.00    -0.286 OA
ATOM      2  O   UNL     1      -4.233   2.295  -0.931  0.00  0.00    -0.286 OA
ATOM      3  C   UNL     1       1.788   0.816   0.989  0.00  0.00    +0.147 C 
ATOM      4  C   UNL     1       2.407   2.148   1.442  0.00  0.00    +0.056 C 
ATOM      5  C   UNL     1       0.327   0.932   0.635  0.00  0.00    +0.042 A 
ATOM      6  C   UNL     1      -0.189   2.155   0.174  0.00  0.00    +0.034 A 
ATOM      7  C   UNL     1       1.887   3.346   0.682  0.00  0.00    -0.041 C 
ATOM      8  C   UNL     1       0.681   3.332   0.087  0.00  0.00    -0.006 C 
ATOM      9  C   UNL     1      -0.508  -0.192   0.705  0.00  0.00    +0.135 A 
ATOM     10  C   UNL     1      -1.853  -0.098   0.327  0.00  0.00    +0.078 A 
ATOM     11  C   UNL     1      -1.533   2.241  -0.211  0.00  0.00    +0.137 A 
ATOM     12  C   UNL     1      -2.365   1.117  -0.130  0.00  0.00    +0.079 A 
ATOM     13  C   UNL     1      -2.719  -1.292   0.411  0.00  0.00    +0.202 C 
ATOM     14  C   UNL     1      -3.782   1.228  -0.534  0.00  0.00    +0.199 C 
ATOM     15  C   UNL     1      -4.135  -1.181   0.006  0.00  0.00    +0.076 C 
ATOM     16  C   UNL     1      -4.648   0.035  -0.450  0.00  0.00    +0.045 C 
ATOM     17  C   UNL     1      -4.966  -2.306   0.080  0.00  0.00    +0.137 C 
ATOM     18  C   UNL     1      -5.992   0.127  -0.831  0.00  0.00    +0.003 C 
ATOM     19  C   UNL     1      -6.305  -2.209  -0.300  0.00  0.00    +0.037 C 
ATOM     20  C   UNL     1      -6.817  -0.996  -0.755  0.00  0.00    +0.003 C 
ENDROOT
BRANCH   9  21
ATOM     21  O   UNL     1       0.032  -1.371   1.134  0.00  0.00    -0.506 OA
ATOM     22  H   UNL     1       0.935  -1.410   1.381  0.00  0.00    +0.292 HD
ENDBRANCH   9  21
BRANCH  11  23
ATOM     23  O   UNL     1      -2.015   3.441  -0.655  0.00  0.00    -0.505 OA
ATOM     24  H   UNL     1      -1.448   4.185  -0.704  0.00  0.00    +0.292 HD
ENDBRANCH  11  23
BRANCH  17  25
ATOM     25  O   UNL     1      -4.533  -3.523   0.516  0.00  0.00    -0.505 OA
ATOM     26  H   UNL     1      -3.642  -3.636   0.782  0.00  0.00    +0.292 HD
ENDBRANCH  17  25
BRANCH   7  27
ATOM     27  C   UNL     1       2.769   4.558   0.658  0.00  0.00    +0.022 C 
ATOM     28  C   UNL     1       3.693   4.554  -0.544  0.00  0.00    +0.005 C 
ENDBRANCH   7  27
BRANCH   3  29
ATOM     29  O   UNL     1       2.474   0.343  -0.171  0.00  0.00    -0.328 OA
BRANCH  29  33
ATOM     30  O   UNL     1       3.251  -1.812   0.315  0.00  0.00    -0.331 OA
ATOM     31  C   UNL     1       5.881  -1.139  -0.626  0.00  0.00    -0.031 C 
ATOM     32  C   UNL     1       4.660  -0.264  -0.915  0.00  0.00    +0.042 C 
ATOM     33  C   UNL     1       3.612  -0.437   0.184  0.00  0.00    +0.233 C 
ATOM     34  C   UNL     1       5.451  -2.595  -0.388  0.00  0.00    +0.118 C 
ATOM     35  C   UNL     1       4.357  -2.644   0.691  0.00  0.00    +0.142 C 
ATOM     36  C   UNL     1       3.815  -4.052   0.906  0.00  0.00    +0.035 C 
BRANCH  31  37
ATOM     37  N   UNL     1       6.845  -1.044  -1.720  0.00  0.00    +0.384 N 
ATOM     38  H   UNL     1       7.111  -0.068  -1.854  0.00  0.00    -0.089 HD
ATOM     39  H   UNL     1       6.423  -1.402  -2.576  0.00  0.00    -0.089 HD
ATOM     40  H   UNL     1       7.673  -1.594  -1.492  0.00  0.00    -0.089 HD
ENDBRANCH  31  37
BRANCH  34  41
ATOM     41  O   UNL     1       4.931  -3.158  -1.593  0.00  0.00    -0.384 OA
ATOM     42  H   UNL     1       5.613  -3.132  -2.283  0.00  0.00    +0.210 HD
ENDBRANCH  34  41
ENDBRANCH  29  33
ENDBRANCH   3  29
TORSDOF 8
