REMARK  Name = 139583558
REMARK  10 active torsions:
REMARK  status: ('A' for Active; 'I' for Inactive)
REMARK    1  A    between atoms: N_5  and  C_32
REMARK    2  A    between atoms: C_9  and  C_19
REMARK    3  A    between atoms: C_17  and  C_26
REMARK    4  A    between atoms: C_19  and  C_20
REMARK    5  A    between atoms: C_20  and  C_22
REMARK    6  A    between atoms: C_22  and  O_24
REMARK    7  A    between atoms: C_27  and  C_28
REMARK    8  A    between atoms: C_28  and  C_30
REMARK    9  A    between atoms: C_32  and  C_33
REMARK   10  A    between atoms: C_33  and  O_34
REMARK                            x       y       z     vdW  Elec       q    Type
REMARK                         _______ _______ _______ _____ _____    ______ ____
ROOT
ATOM      1 CL   UNL     1      -0.992  -3.698  -1.749  0.00  0.00    -0.102 Cl
ATOM      2  O   UNL     1       3.433  -2.449   0.630  0.00  0.00    -0.441 OA
ATOM      3  O   UNL     1       1.877  -3.921  -1.112  0.00  0.00    -0.290 OA
ATOM      4  O   UNL     1       5.168  -0.943   0.682  0.00  0.00    -0.245 OA
ATOM      5  N   UNL     1      -1.506   1.004   0.797  0.00  0.00    -0.301 N 
ATOM      6  C   UNL     1       2.016  -2.353   0.716  0.00  0.00    +0.207 C 
ATOM      7  C   UNL     1       1.753  -0.894   0.630  0.00  0.00    +0.027 C 
ATOM      8  C   UNL     1       0.371  -0.511   0.427  0.00  0.00    -0.005 C 
ATOM      9  C   UNL     1       2.891  -0.200   0.602  0.00  0.00    +0.110 C 
ATOM     10  C   UNL     1       1.326  -3.029  -0.469  0.00  0.00    +0.209 C 
ATOM     11  C   UNL     1      -0.546  -1.402  -0.332  0.00  0.00    -0.002 C 
ATOM     12  C   UNL     1       1.575  -2.996   2.031  0.00  0.00    +0.056 C 
ATOM     13  C   UNL     1      -0.077  -2.585  -0.793  0.00  0.00    +0.163 C 
ATOM     14  C   UNL     1       3.975  -1.196   0.657  0.00  0.00    +0.344 C 
ATOM     15  C   UNL     1      -0.175   0.601   0.959  0.00  0.00    +0.117 C 
ATOM     16  C   UNL     1      -1.921  -0.941  -0.571  0.00  0.00    +0.012 C 
ATOM     17  C   UNL     1      -2.358   0.213  -0.013  0.00  0.00    +0.048 C 
ENDROOT
BRANCH   9  19
ATOM     18  O   UNL     1       2.564   2.037   1.209  0.00  0.00    -0.291 OA
ATOM     19  C   UNL     1       3.084   1.232   0.423  0.00  0.00    +0.181 C 
BRANCH  19  20
ATOM     20  C   UNL     1       3.916   1.701  -0.780  0.00  0.00    +0.089 C 
ATOM     21  C   UNL     1       5.160   2.417  -0.253  0.00  0.00    +0.011 C 
BRANCH  20  22
ATOM     22  C   UNL     1       3.125   2.590  -1.760  0.00  0.00    +0.118 C 
ATOM     23  C   UNL     1       1.905   1.890  -2.349  0.00  0.00    +0.032 C 
BRANCH  22  24
ATOM     24  O   UNL     1       2.716   3.795  -1.118  0.00  0.00    -0.384 OA
ATOM     25  H   UNL     1       3.492   4.241  -0.743  0.00  0.00    +0.210 HD
ENDBRANCH  22  24
ENDBRANCH  20  22
ENDBRANCH  19  20
ENDBRANCH   9  19
BRANCH  17  26
ATOM     26  C   UNL     1      -3.724   0.621  -0.279  0.00  0.00    +0.010 C 
ATOM     27  C   UNL     1      -4.742  -0.239  -0.314  0.00  0.00    -0.025 C 
BRANCH  27  28
ATOM     28  C   UNL     1      -6.166   0.182  -0.588  0.00  0.00    +0.022 C 
ATOM     29  C   UNL     1      -6.654  -0.490  -1.874  0.00  0.00    +0.005 C 
BRANCH  28  30
ATOM     30  C   UNL     1      -7.101  -0.173   0.583  0.00  0.00    +0.004 C 
ATOM     31  C   UNL     1      -6.718   0.514   1.888  0.00  0.00    +0.000 C 
ENDBRANCH  28  30
ENDBRANCH  27  28
ENDBRANCH  17  26
BRANCH   5  32
ATOM     32  C   UNL     1      -1.966   2.237   1.442  0.00  0.00    +0.123 C 
BRANCH  32  33
ATOM     33  C   UNL     1      -1.794   3.414   0.497  0.00  0.00    +0.159 C 
BRANCH  33  34
ATOM     34  O   UNL     1      -0.416   3.571   0.183  0.00  0.00    -0.380 OA
ATOM     35  H   UNL     1      -0.305   4.323  -0.420  0.00  0.00    +0.211 HD
ENDBRANCH  33  34
ENDBRANCH  32  33
ENDBRANCH   5  32
TORSDOF 10
