REMARK  Name = 139587045
REMARK  4 active torsions:
REMARK  status: ('A' for Active; 'I' for Inactive)
REMARK    1  A    between atoms: C_7  and  O_28
REMARK    2  A    between atoms: C_11  and  O_30
REMARK    3  A    between atoms: C_12  and  C_26
REMARK    4  A    between atoms: C_12  and  O_32
REMARK                            x       y       z     vdW  Elec       q    Type
REMARK                         _______ _______ _______ _____ _____    ______ ____
ROOT
ATOM      1  O   UNL     1       0.153  -0.918  -0.744  0.00  0.00    -0.320 OA
ATOM      2  O   UNL     1      -3.028   1.646  -1.384  0.00  0.00    -0.272 OA
ATOM      3  O   UNL     1       1.294  -2.654   1.511  0.00  0.00    -0.272 OA
ATOM      4  N   UNL     1      -1.831   1.049   0.563  0.00  0.00    -0.258 N 
ATOM      5  N   UNL     1       3.123  -1.747   0.316  0.00  0.00    -0.255 N 
ATOM      6  C   UNL     1       0.303   0.332   1.263  0.00  0.00    +0.087 C 
ATOM      7  C   UNL     1      -1.137  -0.124   1.039  0.00  0.00    +0.205 C 
ATOM      8  C   UNL     1       0.291   1.893   0.927  0.00  0.00    +0.028 C 
ATOM      9  C   UNL     1       1.083  -0.524   0.276  0.00  0.00    +0.187 C 
ATOM     10  C   UNL     1      -1.212   2.287   1.052  0.00  0.00    +0.063 C 
ATOM     11  C   UNL     1      -1.131  -1.102  -0.122  0.00  0.00    +0.262 C 
ATOM     12  C   UNL     1      -2.315  -0.643  -0.996  0.00  0.00    +0.259 C 
ATOM     13  C   UNL     1       0.910   2.271  -0.456  0.00  0.00    +0.028 C 
ATOM     14  C   UNL     1       2.225   0.226  -0.312  0.00  0.00    +0.020 C 
ATOM     15  C   UNL     1      -2.465   0.834  -0.663  0.00  0.00    +0.263 C 
ATOM     16  C   UNL     1       2.196   1.549  -0.689  0.00  0.00    -0.022 C 
ATOM     17  C   UNL     1       1.802  -1.788   0.814  0.00  0.00    +0.258 C 
ATOM     18  C   UNL     1      -1.613   3.560   0.294  0.00  0.00    +0.020 C 
ATOM     19  C   UNL     1      -1.582   2.510   2.535  0.00  0.00    +0.020 C 
ATOM     20  C   UNL     1       3.381  -0.533  -0.334  0.00  0.00    +0.052 C 
ATOM     21  C   UNL     1       3.358   2.088  -1.235  0.00  0.00    -0.004 C 
ATOM     22  C   UNL     1       4.550  -0.021  -0.859  0.00  0.00    +0.015 C 
ATOM     23  C   UNL     1       4.135  -2.751   0.543  0.00  0.00    +0.120 C 
ATOM     24  C   UNL     1       4.524   1.300  -1.329  0.00  0.00    +0.001 C 
ENDROOT
BRANCH  12  26
ATOM     25  O   UNL     1      -3.794  -1.920   0.382  0.00  0.00    -0.293 OA
ATOM     26  C   UNL     1      -3.581  -1.406  -0.715  0.00  0.00    +0.188 C 
ATOM     27  C   UNL     1      -4.573  -1.510  -1.841  0.00  0.00    +0.076 C 
ENDBRANCH  12  26
BRANCH   7  28
ATOM     28  O   UNL     1      -1.758  -0.623   2.203  0.00  0.00    -0.366 OA
ATOM     29  H   UNL     1      -1.725   0.050   2.900  0.00  0.00    +0.212 HD
ENDBRANCH   7  28
BRANCH  11  30
ATOM     30  O   UNL     1      -1.280  -2.443   0.324  0.00  0.00    -0.358 OA
ATOM     31  H   UNL     1      -0.515  -2.689   0.868  0.00  0.00    +0.213 HD
ENDBRANCH  11  30
BRANCH  12  32
ATOM     32  O   UNL     1      -2.028  -0.835  -2.362  0.00  0.00    -0.369 OA
ATOM     33  H   UNL     1      -1.215  -0.359  -2.591  0.00  0.00    +0.212 HD
ENDBRANCH  12  32
TORSDOF 4
