139585736
  -OEChem-03292013293D

 48 52  0     1  0  0  0  0  0999 V2000
   -3.9930   -1.2978   -0.3450 O   0  0  0  0  0  0  0  0  0  0  0  0
   -2.3464   -2.9265   -0.9200 O   0  0  0  0  0  0  0  0  0  0  0  0
   -4.6680    0.7904    0.5428 O   0  0  0  0  0  0  0  0  0  0  0  0
    0.5671    0.7203   -0.8128 O   0  0  0  0  0  0  0  0  0  0  0  0
    1.9483   -3.5397    1.0993 O   0  0  0  0  0  0  0  0  0  0  0  0
    3.4721   -1.4270    1.1079 O   0  0  0  0  0  0  0  0  0  0  0  0
    0.9347    3.3217   -1.4682 O   0  0  0  0  0  0  0  0  0  0  0  0
    5.0251    0.6767    1.1272 O   0  0  0  0  0  0  0  0  0  0  0  0
   -3.3113    2.0110    1.9593 O   0  0  0  0  0  0  0  0  0  0  0  0
   -2.0213   -0.5870   -1.5283 C   0  0  1  0  0  0  0  0  0  0  0  0
   -3.0342   -1.7240   -1.3329 C   0  0  2  0  0  0  0  0  0  0  0  0
   -2.7046    0.6006   -0.8936 C   0  0  0  0  0  0  0  0  0  0  0  0
   -0.8561   -1.1626   -0.8063 C   0  0  0  0  0  0  0  0  0  0  0  0
   -3.5722   -0.0327    0.1803 C   0  0  2  0  0  0  0  0  0  0  0  0
   -1.1095   -2.4958   -0.5162 C   0  0  0  0  0  0  0  0  0  0  0  0
    0.3617   -0.5901   -0.4732 C   0  0  0  0  0  0  0  0  0  0  0  0
    1.3089   -1.3870    0.1757 C   0  0  0  0  0  0  0  0  0  0  0  0
   -0.1811   -3.3018    0.1159 C   0  0  0  0  0  0  0  0  0  0  0  0
    1.0438   -2.7360    0.4712 C   0  0  0  0  0  0  0  0  0  0  0  0
    2.6021   -0.7851    0.5378 C   0  0  0  0  0  0  0  0  0  0  0  0
    1.7648    1.3002   -0.4767 C   0  0  0  0  0  0  0  0  0  0  0  0
    2.7957    0.6283    0.1794 C   0  0  0  0  0  0  0  0  0  0  0  0
   -4.3991    1.7820    1.4479 C   0  0  0  0  0  0  0  0  0  0  0  0
    1.9274    2.6418   -0.8279 C   0  0  0  0  0  0  0  0  0  0  0  0
    3.9887    1.2872    0.4878 C   0  0  0  0  0  0  0  0  0  0  0  0
    3.1168    3.3040   -0.5218 C   0  0  0  0  0  0  0  0  0  0  0  0
    4.1452    2.6278    0.1348 C   0  0  0  0  0  0  0  0  0  0  0  0
   -5.6432    2.5667    1.7352 C   0  0  0  0  0  0  0  0  0  0  0  0
    2.8568   -4.2620    0.2710 C   0  0  0  0  0  0  0  0  0  0  0  0
   -0.0191    3.9965   -0.6505 C   0  0  0  0  0  0  0  0  0  0  0  0
   -1.7632   -0.4321   -2.5809 H   0  0  0  0  0  0  0  0  0  0  0  0
   -3.5858   -1.9377   -2.2550 H   0  0  0  0  0  0  0  0  0  0  0  0
   -2.0297    1.3602   -0.4910 H   0  0  0  0  0  0  0  0  0  0  0  0
   -3.3452    1.0969   -1.6336 H   0  0  0  0  0  0  0  0  0  0  0  0
   -2.9742   -0.2663    1.0713 H   0  0  0  0  0  0  0  0  0  0  0  0
   -0.4028   -4.3418    0.3319 H   0  0  0  0  0  0  0  0  0  0  0  0
    3.2495    4.3480   -0.7926 H   0  0  0  0  0  0  0  0  0  0  0  0
    5.0674    3.1536    0.3682 H   0  0  0  0  0  0  0  0  0  0  0  0
   -6.0080    3.0314    0.8158 H   0  0  0  0  0  0  0  0  0  0  0  0
   -5.4160    3.3554    2.4581 H   0  0  0  0  0  0  0  0  0  0  0  0
   -6.4045    1.9100    2.1635 H   0  0  0  0  0  0  0  0  0  0  0  0
    3.6477   -4.6717    0.9051 H   0  0  0  0  0  0  0  0  0  0  0  0
    3.3130   -3.6159   -0.4860 H   0  0  0  0  0  0  0  0  0  0  0  0
    2.3354   -5.0913   -0.2172 H   0  0  0  0  0  0  0  0  0  0  0  0
    4.8055   -0.2466    1.3245 H   0  0  0  0  0  0  0  0  0  0  0  0
   -0.4812    3.3067    0.0627 H   0  0  0  0  0  0  0  0  0  0  0  0
    0.4588    4.8230   -0.1153 H   0  0  0  0  0  0  0  0  0  0  0  0
   -0.7996    4.4037   -1.2989 H   0  0  0  0  0  0  0  0  0  0  0  0
  1 11  1  0  0  0  0
  1 14  1  0  0  0  0
  2 11  1  0  0  0  0
  2 15  1  0  0  0  0
  3 14  1  0  0  0  0
  3 23  1  0  0  0  0
  4 16  1  0  0  0  0
  4 21  1  0  0  0  0
  5 19  1  0  0  0  0
  5 29  1  0  0  0  0
  6 20  2  0  0  0  0
  7 24  1  0  0  0  0
  7 30  1  0  0  0  0
  8 25  1  0  0  0  0
  8 45  1  0  0  0  0
  9 23  2  0  0  0  0
 10 11  1  0  0  0  0
 10 12  1  0  0  0  0
 10 13  1  0  0  0  0
 10 31  1  0  0  0  0
 11 32  1  0  0  0  0
 12 14  1  0  0  0  0
 12 33  1  0  0  0  0
 12 34  1  0  0  0  0
 13 15  1  0  0  0  0
 13 16  2  0  0  0  0
 14 35  1  0  0  0  0
 15 18  2  0  0  0  0
 16 17  1  0  0  0  0
 17 19  2  0  0  0  0
 17 20  1  0  0  0  0
 18 19  1  0  0  0  0
 18 36  1  0  0  0  0
 20 22  1  0  0  0  0
 21 22  1  0  0  0  0
 21 24  2  0  0  0  0
 22 25  2  0  0  0  0
 23 28  1  0  0  0  0
 24 26  1  0  0  0  0
 25 27  1  0  0  0  0
 26 27  2  0  0  0  0
 26 37  1  0  0  0  0
 27 38  1  0  0  0  0
 28 39  1  0  0  0  0
 28 40  1  0  0  0  0
 28 41  1  0  0  0  0
 29 42  1  0  0  0  0
 29 43  1  0  0  0  0
 29 44  1  0  0  0  0
 30 46  1  0  0  0  0
 30 47  1  0  0  0  0
 30 48  1  0  0  0  0
M  END
> <PUBCHEM_COMPOUND_CID>
139585736

> <PUBCHEM_CONFORMER_RMSD>
0.8

> <PUBCHEM_CONFORMER_DIVERSEORDER>
1
5
4
2
6
3

> <PUBCHEM_MMFF94_PARTIAL_CHARGES>
33
1 -0.56
10 0.14
11 0.56
13 -0.14
14 0.56
15 0.08
16 0.08
17 0.09
18 -0.15
19 0.08
2 -0.36
20 0.4
21 0.08
22 0.09
23 0.66
24 0.08
25 0.08
26 -0.15
27 -0.15
28 0.06
29 0.28
3 -0.43
30 0.28
36 0.15
37 0.15
38 0.15
4 -0.17
45 0.45
5 -0.36
6 -0.57
7 -0.36
8 -0.53
9 -0.57

> <PUBCHEM_EFFECTIVE_ROTOR_COUNT>
4.8

> <PUBCHEM_PHARMACOPHORE_FEATURES>
13
1 1 acceptor
1 2 acceptor
1 4 acceptor
1 5 acceptor
1 6 acceptor
1 7 acceptor
1 8 donor
1 9 acceptor
5 1 10 11 12 14 rings
5 2 10 11 13 15 rings
6 13 15 16 17 18 19 rings
6 21 22 24 25 26 27 rings
6 4 16 17 20 21 22 rings

> <PUBCHEM_HEAVY_ATOM_COUNT>
30

> <PUBCHEM_ATOM_DEF_STEREO_COUNT>
3

> <PUBCHEM_ATOM_UDEF_STEREO_COUNT>
0

> <PUBCHEM_BOND_DEF_STEREO_COUNT>
0

> <PUBCHEM_BOND_UDEF_STEREO_COUNT>
0

> <PUBCHEM_ISOTOPIC_ATOM_COUNT>
0

> <PUBCHEM_COMPONENT_COUNT>
1

> <PUBCHEM_CACTVS_TAUTO_COUNT>
-1

> <PUBCHEM_CONFORMER_ID>
0851E8C800000001

> <PUBCHEM_MMFF94_ENERGY>
111.4298

> <PUBCHEM_FEATURE_SELFOVERLAP>
66.774

> <PUBCHEM_SHAPE_FINGERPRINT>
10369192 42 12975306629835575972
10382601 240 18337110060107690978
10411042 1 17904180560780771614
10708813 3 18411138064802986873
10906281 52 18263932193535481164
10967382 1 18189880071939558686
1100329 8 18191296290187186868
11607047 403 11099291264308829388
11640471 11 18202292394080409513
12107183 9 18269835320202204114
12422481 6 18122036747141489858
12553582 1 18191290607919411934
12633257 1 18189604102957934292
12788726 201 17764603405221111743
13140716 1 18262226820382206594
138480 1 18263907862013473518
13965767 371 18127701426436611553
14739800 52 17774418560538170090
14790565 3 18262243343132476828
14955137 171 18261121750934861146
15297060 5 17703802409043190600
15420108 30 18272645710682954735
15475509 8 17842855321585199598
19591789 44 18189881167282585846
20510252 161 17037819707779726438
20739085 24 18194689154888825178
21033650 10 17841740669949661836
23558518 356 18267876158038174191
23559900 14 17255672522777194540
335352 9 18117259562619106390
350125 39 17829039158542991103
352729 6 17758391155882164254
38570 142 18267045958145085172
474 4 18336541711359259923
5104073 3 17972865132749158456
7064713 232 18343577469022648400
7097593 13 18410290285677236359

> <PUBCHEM_SHAPE_MULTIPOLES>
564.56
9
5.49
1.39
6.02
0.91
0.2
-5.98
4.3
-2.62
0.05
1.2
-0.53
-3.13

> <PUBCHEM_SHAPE_SELFOVERLAP>
1271.427

> <PUBCHEM_SHAPE_VOLUME>
298.8

> <PUBCHEM_COORDINATE_TYPE>
2
5
10

$$$$
