139586039
  -OEChem-03292013293D

 47 48  0     1  0  0  0  0  0999 V2000
   -4.8127    0.3244    1.6813 O   0  0  0  0  0  0  0  0  0  0  0  0
   -1.9762   -2.3646   -0.1038 O   0  0  0  0  0  0  0  0  0  0  0  0
   -0.0030    1.8072   -1.4035 O   0  0  0  0  0  0  0  0  0  0  0  0
    4.7219   -1.7552   -0.5032 O   0  0  0  0  0  0  0  0  0  0  0  0
   -4.4238   -1.9421    1.4534 O   0  0  0  0  0  0  0  0  0  0  0  0
    5.7840    1.6314    1.9643 O   0  0  0  0  0  0  0  0  0  0  0  0
    5.3293   -0.5501    2.4006 O   0  0  0  0  0  0  0  0  0  0  0  0
   -3.0060    1.0953    0.5206 C   0  0  0  0  0  0  0  0  0  0  0  0
   -0.9761   -0.2863   -0.7620 C   0  0  0  0  0  0  0  0  0  0  0  0
   -2.9763   -0.2844    0.5148 C   0  0  0  0  0  0  0  0  0  0  0  0
   -2.0170    1.8205   -0.1177 C   0  0  0  0  0  0  0  0  0  0  0  0
   -1.9799   -1.0074   -0.1143 C   0  0  0  0  0  0  0  0  0  0  0  0
   -0.9943    1.1191   -0.7639 C   0  0  0  0  0  0  0  0  0  0  0  0
    0.1374   -1.0209   -1.4657 C   0  0  0  0  0  0  0  0  0  0  0  0
   -4.1853    1.5651    1.2692 C   0  0  0  0  0  0  0  0  0  0  0  0
   -4.1261   -0.7815    1.2535 C   0  0  0  0  0  0  0  0  0  0  0  0
    1.3869   -1.0973   -0.6339 C   0  0  0  0  0  0  0  0  0  0  0  0
    2.6299   -0.6869   -0.9584 C   0  0  0  0  0  0  0  0  0  0  0  0
   -2.0455    3.3109   -0.1140 C   0  0  0  0  0  0  0  0  0  0  0  0
    3.7598   -0.8533    0.0464 C   0  0  2  0  0  0  0  0  0  0  0  0
    4.4384    0.4828    0.3790 C   0  0  0  0  0  0  0  0  0  0  0  0
    2.9953   -0.0508   -2.2745 C   0  0  0  0  0  0  0  0  0  0  0  0
   -2.6581   -3.0276   -1.1700 C   0  0  0  0  0  0  0  0  0  0  0  0
   -0.2191    2.1216   -2.7763 C   0  0  0  0  0  0  0  0  0  0  0  0
    5.2163    0.4302    1.6780 C   0  0  0  0  0  0  0  0  0  0  0  0
    0.3026   -0.5722   -2.4471 H   0  0  0  0  0  0  0  0  0  0  0  0
   -0.1532   -2.0506   -1.6996 H   0  0  0  0  0  0  0  0  0  0  0  0
   -3.9196    2.1315    2.1657 H   0  0  0  0  0  0  0  0  0  0  0  0
   -4.8889    2.1202    0.6432 H   0  0  0  0  0  0  0  0  0  0  0  0
    1.2441   -1.5571    0.3441 H   0  0  0  0  0  0  0  0  0  0  0  0
   -2.5835    3.7054    0.7541 H   0  0  0  0  0  0  0  0  0  0  0  0
   -1.0351    3.7303   -0.0628 H   0  0  0  0  0  0  0  0  0  0  0  0
   -2.5365    3.6798   -1.0199 H   0  0  0  0  0  0  0  0  0  0  0  0
    3.3855   -1.3151    0.9680 H   0  0  0  0  0  0  0  0  0  0  0  0
    5.1440    0.7621   -0.4121 H   0  0  0  0  0  0  0  0  0  0  0  0
    3.6838    1.2699    0.4960 H   0  0  0  0  0  0  0  0  0  0  0  0
    3.1866    1.0185   -2.1399 H   0  0  0  0  0  0  0  0  0  0  0  0
    3.8999   -0.5127   -2.6841 H   0  0  0  0  0  0  0  0  0  0  0  0
    2.2254   -0.1572   -3.0407 H   0  0  0  0  0  0  0  0  0  0  0  0
   -2.3858   -4.0862   -1.1429 H   0  0  0  0  0  0  0  0  0  0  0  0
   -3.7404   -2.9416   -1.0354 H   0  0  0  0  0  0  0  0  0  0  0  0
   -2.3760   -2.6174   -2.1449 H   0  0  0  0  0  0  0  0  0  0  0  0
    0.7547    2.2579   -3.2546 H   0  0  0  0  0  0  0  0  0  0  0  0
   -0.7785    3.0584   -2.8549 H   0  0  0  0  0  0  0  0  0  0  0  0
   -0.7606    1.3286   -3.3025 H   0  0  0  0  0  0  0  0  0  0  0  0
    4.2699   -2.5984   -0.6792 H   0  0  0  0  0  0  0  0  0  0  0  0
    6.2864    1.6064    2.8066 H   0  0  0  0  0  0  0  0  0  0  0  0
  1 15  1  0  0  0  0
  1 16  1  0  0  0  0
  2 12  1  0  0  0  0
  2 23  1  0  0  0  0
  3 13  1  0  0  0  0
  3 24  1  0  0  0  0
  4 20  1  0  0  0  0
  4 46  1  0  0  0  0
  5 16  2  0  0  0  0
  6 25  1  0  0  0  0
  6 47  1  0  0  0  0
  7 25  2  0  0  0  0
  8 10  1  0  0  0  0
  8 11  2  0  0  0  0
  8 15  1  0  0  0  0
  9 12  1  0  0  0  0
  9 13  2  0  0  0  0
  9 14  1  0  0  0  0
 10 12  2  0  0  0  0
 10 16  1  0  0  0  0
 11 13  1  0  0  0  0
 11 19  1  0  0  0  0
 14 17  1  0  0  0  0
 14 26  1  0  0  0  0
 14 27  1  0  0  0  0
 15 28  1  0  0  0  0
 15 29  1  0  0  0  0
 17 18  2  3  0  0  0
 17 30  1  0  0  0  0
 18 20  1  0  0  0  0
 18 22  1  0  0  0  0
 19 31  1  0  0  0  0
 19 32  1  0  0  0  0
 19 33  1  0  0  0  0
 20 21  1  0  0  0  0
 20 34  1  0  0  0  0
 21 25  1  0  0  0  0
 21 35  1  0  0  0  0
 21 36  1  0  0  0  0
 22 37  1  0  0  0  0
 22 38  1  0  0  0  0
 22 39  1  0  0  0  0
 23 40  1  0  0  0  0
 23 41  1  0  0  0  0
 23 42  1  0  0  0  0
 24 43  1  0  0  0  0
 24 44  1  0  0  0  0
 24 45  1  0  0  0  0
M  END
> <PUBCHEM_COMPOUND_CID>
139586039

> <PUBCHEM_CONFORMER_RMSD>
0.8

> <PUBCHEM_CONFORMER_DIVERSEORDER>
2
37
38
109
68
92
73
76
24
3
93
56
30
19
119
108
82
115
12
116
95
101
58
52
105
49
85
103
15
106
7
60
78
45
70
112
71
44
23
47
98
29
50
111
96
4
67
87
14
89
21
54
33
65
107
66
83
8
102
9
117
31
63
16
74
34
28
75
57
81
114
20
40
72
62
26
80
42
113
36
17
13
25
99
41
59
43
79
32
6
88
10
46
69
55
118
35
94
100
86
64
39
27
22
110
18
97
1
104
53
51
77
48
91
5
11
84
61
90

> <PUBCHEM_MMFF94_PARTIAL_CHARGES>
28
1 -0.43
10 0.09
11 -0.14
12 0.08
13 0.08
14 0.28
15 0.42
16 0.63
17 -0.29
18 -0.28
19 0.14
2 -0.36
20 0.42
21 0.06
22 0.14
23 0.28
24 0.28
25 0.66
3 -0.36
30 0.15
4 -0.68
46 0.4
47 0.5
5 -0.57
6 -0.65
7 -0.57
8 -0.14
9 -0.14

> <PUBCHEM_EFFECTIVE_ROTOR_COUNT>
7.4

> <PUBCHEM_PHARMACOPHORE_FEATURES>
11
1 2 acceptor
1 22 hydrophobe
1 3 acceptor
1 4 acceptor
1 4 donor
1 5 acceptor
1 6 acceptor
1 7 acceptor
3 6 7 25 anion
5 1 8 10 15 16 rings
6 8 9 10 11 12 13 rings

> <PUBCHEM_HEAVY_ATOM_COUNT>
25

> <PUBCHEM_ATOM_DEF_STEREO_COUNT>
1

> <PUBCHEM_ATOM_UDEF_STEREO_COUNT>
0

> <PUBCHEM_BOND_DEF_STEREO_COUNT>
0

> <PUBCHEM_BOND_UDEF_STEREO_COUNT>
1

> <PUBCHEM_ISOTOPIC_ATOM_COUNT>
0

> <PUBCHEM_COMPONENT_COUNT>
1

> <PUBCHEM_CACTVS_TAUTO_COUNT>
-1

> <PUBCHEM_CONFORMER_ID>
0851E9F700000002

> <PUBCHEM_MMFF94_ENERGY>
76.2115

> <PUBCHEM_FEATURE_SELFOVERLAP>
55.974

> <PUBCHEM_SHAPE_FINGERPRINT>
10074138 170 17315065567881625237
10319926 262 18338796694297775154
10369192 42 17130423709009768528
11370993 144 17988083292531599006
11595378 159 18041272193384445682
12363563 72 13912322344322269782
12553582 1 17967257507209297862
12596602 18 17603864520825802800
12633257 1 18341607148828534376
12892183 10 18410293575675081826
13140716 1 18265914612372548927
13583140 156 17971166194116093704
13828863 39 17416961914953964712
13994607 96 15338839806534523363
14081887 123 18413392020594932516
14420673 8 17685501949044647890
14848178 5 15357694197815749608
15163728 17 13829590699638230881
15342168 16 15770058311182325924
15475509 35 15867209067380636169
17349148 13 16443353052717996834
1813 80 17676493881667631404
19377110 9 17821729468635778956
200 152 15285363911581709508
20645477 70 13262689140461153266
21033648 29 18200318710505546169
21304303 282 16012644579472917645
21756936 100 16772939454789377960
22122407 14 16271378391751911595
23366157 5 17026305471959106133
23559900 14 18124904281487062463
23598288 3 16299512647875487348
3009799 131 18334286575163068687
3459 110 18058440070766593144
38570 142 7925374943121574095
44062 13 12468621803894629546
474 4 14117527497373942949
57724786 102 15913063001335970050
6034566 193 15123218992269359536
633830 44 15410625726557882814
7064713 232 18268729228805908061
90316 7 17677054525350378036

> <PUBCHEM_SHAPE_MULTIPOLES>
473.4
11.28
2.84
2.22
12.92
0.24
-0.28
-0.13
9.6
-2.63
-0.73
1.72
0.66
0.88

> <PUBCHEM_SHAPE_SELFOVERLAP>
998.562

> <PUBCHEM_SHAPE_VOLUME>
268.7

> <PUBCHEM_COORDINATE_TYPE>
2
5
10

$$$$
