REMARK  Name = 139587915
REMARK  7 active torsions:
REMARK  status: ('A' for Active; 'I' for Inactive)
REMARK    1  A    between atoms: N_2  and  O_34
REMARK    2  A    between atoms: C_3  and  C_11
REMARK    3  A    between atoms: C_4  and  O_19
REMARK    4  A    between atoms: C_5  and  C_22
REMARK    5  A    between atoms: C_11  and  O_15
REMARK    6  A    between atoms: C_12  and  O_17
REMARK    7  A    between atoms: C_22  and  C_24
REMARK                            x       y       z     vdW  Elec       q    Type
REMARK                         _______ _______ _______ _____ _____    ______ ____
ROOT
ATOM      1  O   UNL     1       1.007   2.341  -0.256  0.00  0.00    -0.267 OA
ATOM      2  N   UNL     1      -1.266   1.993  -0.438  0.00  0.00    -0.145 N 
ATOM      3  C   UNL     1      -2.249  -0.101  -0.080  0.00  0.00    +0.055 C 
ATOM      4  C   UNL     1      -0.925  -0.624   0.261  0.00  0.00    +0.140 C 
ATOM      5  C   UNL     1       0.177   0.160   0.222  0.00  0.00    +0.124 C 
ATOM      6  C   UNL     1      -2.367   1.192  -0.420  0.00  0.00    +0.098 C 
ATOM      7  C   UNL     1       0.024   1.607  -0.181  0.00  0.00    +0.281 C 
ENDROOT
BRANCH   3  11
ATOM      8  O   UNL     1      -5.699  -1.335  -1.088  0.00  0.00    -0.348 OA
ATOM      9  C   UNL     1      -4.448  -0.645  -1.145  0.00  0.00    +0.173 C 
ATOM     10  C   UNL     1      -5.730   0.080  -0.816  0.00  0.00    +0.172 C 
ATOM     11  C   UNL     1      -3.461  -0.993  -0.061  0.00  0.00    +0.138 C 
ATOM     12  C   UNL     1      -6.115   0.394   0.598  0.00  0.00    +0.140 C 
ATOM     13  C   UNL     1      -4.112  -0.958   1.337  0.00  0.00    +0.036 C 
ATOM     14  C   UNL     1      -4.926   0.316   1.558  0.00  0.00    +0.035 C 
BRANCH  11  15
ATOM     15  O   UNL     1      -3.010  -2.336  -0.276  0.00  0.00    -0.380 OA
ATOM     16  H   UNL     1      -3.771  -2.938  -0.269  0.00  0.00    +0.211 HD
ENDBRANCH  11  15
BRANCH  12  17
ATOM     17  O   UNL     1      -6.663   1.709   0.652  0.00  0.00    -0.382 OA
ATOM     18  H   UNL     1      -7.418   1.770   0.046  0.00  0.00    +0.210 HD
ENDBRANCH  12  17
ENDBRANCH   3  11
BRANCH   4  19
ATOM     19  O   UNL     1      -0.829  -1.957   0.626  0.00  0.00    -0.505 OA
ATOM     20  H   UNL     1      -1.598  -2.492   0.650  0.00  0.00    +0.292 HD
ENDBRANCH   4  19
BRANCH   5  22
ATOM     21  O   UNL     1       1.690  -0.888   1.678  0.00  0.00    -0.291 OA
ATOM     22  C   UNL     1       1.495  -0.402   0.566  0.00  0.00    +0.180 C 
BRANCH  22  24
ATOM     23  C   UNL     1       3.720   0.540   0.018  0.00  0.00    +0.012 C 
ATOM     24  C   UNL     1       2.571  -0.364  -0.487  0.00  0.00    +0.066 C 
ATOM     25  C   UNL     1       4.555  -0.162   1.117  0.00  0.00    +0.022 C 
ATOM     26  C   UNL     1       4.597   1.028  -1.154  0.00  0.00    +0.001 C 
ATOM     27  C   UNL     1       2.986  -1.812  -0.855  0.00  0.00    +0.029 C 
ATOM     28  C   UNL     1       5.777   0.683   1.521  0.00  0.00    +0.004 C 
ATOM     29  C   UNL     1       5.761   1.891  -0.681  0.00  0.00    +0.000 C 
ATOM     30  C   UNL     1       6.616   1.146   0.335  0.00  0.00    +0.000 C 
ATOM     31  C   UNL     1       4.933  -1.565   0.726  0.00  0.00    -0.031 C 
ATOM     32  C   UNL     1       4.234  -2.291  -0.157  0.00  0.00    -0.031 C 
ATOM     33  C   UNL     1       3.128  -1.988  -2.371  0.00  0.00    +0.005 C 
ENDBRANCH  22  24
ENDBRANCH   5  22
BRANCH   2  34
ATOM     34  O   UNL     1      -1.471   3.343  -0.750  0.00  0.00    -0.287 OA
ATOM     35  H   UNL     1      -2.335   3.655  -0.934  0.00  0.00    +0.242 HD
ENDBRANCH   2  34
TORSDOF 7
