REMARK  Name = 139587204
REMARK  6 active torsions:
REMARK  status: ('A' for Active; 'I' for Inactive)
REMARK    1  A    between atoms: C_8  and  O_16
REMARK    2  A    between atoms: C_9  and  C_21
REMARK    3  A    between atoms: C_10  and  C_24
REMARK    4  A    between atoms: C_14  and  O_18
REMARK    5  A    between atoms: C_21  and  O_22
REMARK    6  A    between atoms: C_24  and  O_25
REMARK                            x       y       z     vdW  Elec       q    Type
REMARK                         _______ _______ _______ _____ _____    ______ ____
ROOT
ATOM      1  O   UNL     1       0.719  -2.139  -0.064  0.00  0.00    -0.453 OA
ATOM      2  O   UNL     1      -0.569   1.720   0.372  0.00  0.00    -0.286 OA
ATOM      3  C   UNL     1       1.239   0.229   0.226  0.00  0.00    +0.107 A 
ATOM      4  C   UNL     1      -1.134  -0.556   0.091  0.00  0.00    +0.083 A 
ATOM      5  C   UNL     1       1.613  -1.106   0.074  0.00  0.00    +0.151 A 
ATOM      6  C   UNL     1      -0.623  -1.845  -0.052  0.00  0.00    +0.149 A 
ATOM      7  C   UNL     1      -0.193   0.565   0.241  0.00  0.00    +0.205 A 
ATOM      8  C   UNL     1       2.208   1.226   0.361  0.00  0.00    +0.144 C 
ATOM      9  C   UNL     1      -2.514  -0.335   0.093  0.00  0.00    +0.115 C 
ATOM     10  C   UNL     1       3.938  -0.455   0.192  0.00  0.00    +0.013 C 
ATOM     11  C   UNL     1       2.967  -1.447   0.057  0.00  0.00    +0.036 C 
ATOM     12  C   UNL     1       3.560   0.879   0.344  0.00  0.00    +0.035 C 
ATOM     13  C   UNL     1      -1.498  -2.924  -0.196  0.00  0.00    +0.041 C 
ATOM     14  C   UNL     1      -3.383  -1.417  -0.050  0.00  0.00    +0.140 C 
ATOM     15  C   UNL     1      -2.877  -2.708  -0.195  0.00  0.00    +0.040 C 
ENDROOT
BRANCH   8  16
ATOM     16  O   UNL     1       1.897   2.544   0.513  0.00  0.00    -0.471 OA
ATOM     17  C   UNL     1       1.770   3.321  -0.676  0.00  0.00    +0.252 C 
ENDBRANCH   8  16
BRANCH  14  18
ATOM     18  O   UNL     1      -4.736  -1.240  -0.053  0.00  0.00    -0.505 OA
ATOM     19  H   UNL     1      -5.096  -0.381   0.042  0.00  0.00    +0.292 HD
ENDBRANCH  14  18
BRANCH   9  21
ATOM     20  O   UNL     1      -3.420   1.496   1.323  0.00  0.00    -0.245 OA
ATOM     21  C   UNL     1      -3.116   0.988   0.239  0.00  0.00    +0.344 C 
BRANCH  21  22
ATOM     22  O   UNL     1      -3.298   1.587  -0.974  0.00  0.00    -0.441 OA
ATOM     23  C   UNL     1      -3.884   2.894  -0.963  0.00  0.00    +0.256 C 
ENDBRANCH  21  22
ENDBRANCH   9  21
BRANCH  10  24
ATOM     24  C   UNL     1       5.384  -0.822   0.174  0.00  0.00    +0.164 C 
BRANCH  24  25
ATOM     25  O   UNL     1       5.949  -0.454  -1.078  0.00  0.00    -0.377 OA
ATOM     26  H   UNL     1       6.890  -0.692  -1.090  0.00  0.00    +0.211 HD
ENDBRANCH  24  25
ENDBRANCH  10  24
TORSDOF 6
