REMARK  Name = 139585999
REMARK  11 active torsions:
REMARK  status: ('A' for Active; 'I' for Inactive)
REMARK    1  A    between atoms: C_4  and  C_19
REMARK    2  A    between atoms: C_9  and  O_10
REMARK    3  A    between atoms: C_9  and  C_12
REMARK    4  A    between atoms: C_13  and  C_14
REMARK    5  A    between atoms: C_15  and  C_16
REMARK    6  A    between atoms: C_16  and  C_17
REMARK    7  A    between atoms: C_19  and  C_20
REMARK    8  A    between atoms: C_20  and  C_21
REMARK    9  A    between atoms: C_20  and  O_24
REMARK   10  A    between atoms: C_20  and  C_27
REMARK   11  A    between atoms: C_27  and  O_28
REMARK                            x       y       z     vdW  Elec       q    Type
REMARK                         _______ _______ _______ _____ _____    ______ ____
ROOT
ATOM      1  O   UNL     1      -1.332   1.461  -0.830  0.00  0.00    -0.289 OA
ATOM      2  O   UNL     1       1.231  -2.304   0.358  0.00  0.00    -0.270 OA
ATOM      3  N   UNL     1      -1.075  -1.933  -0.046  0.00  0.00    -0.269 N 
ATOM      4  C   UNL     1      -1.999  -0.845  -0.409  0.00  0.00    +0.141 C 
ATOM      5  C   UNL     1      -1.036   0.315  -0.535  0.00  0.00    +0.198 C 
ATOM      6  C   UNL     1       0.329  -0.161  -0.235  0.00  0.00    +0.123 C 
ATOM      7  C   UNL     1       0.278  -1.601   0.075  0.00  0.00    +0.255 C 
ATOM      8  C   UNL     1      -1.565  -3.289   0.113  0.00  0.00    +0.116 C 
ATOM      9  C   UNL     1       1.436   0.594  -0.242  0.00  0.00    +0.141 C 
ENDROOT
BRANCH   9  10
ATOM     10  O   UNL     1       1.395   1.941  -0.546  0.00  0.00    -0.505 OA
ATOM     11  H   UNL     1       0.578   2.350  -0.753  0.00  0.00    +0.292 HD
ENDBRANCH   9  10
BRANCH   9  12
ATOM     12  C   UNL     1       2.748   0.055   0.064  0.00  0.00    +0.037 C 
ATOM     13  C   UNL     1       3.895   0.753   0.075  0.00  0.00    +0.003 C 
BRANCH  13  14
ATOM     14  C   UNL     1       5.175   0.157   0.389  0.00  0.00    -0.004 C 
ATOM     15  C   UNL     1       6.324   0.849   0.401  0.00  0.00    -0.026 C 
BRANCH  15  16
ATOM     16  C   UNL     1       7.657   0.241   0.730  0.00  0.00    +0.026 C 
BRANCH  16  17
ATOM     17  C   UNL     1       8.628   0.365  -0.445  0.00  0.00    +0.005 C 
ATOM     18  C   UNL     1       9.971  -0.273  -0.126  0.00  0.00    +0.000 C 
ENDBRANCH  16  17
ENDBRANCH  15  16
ENDBRANCH  13  14
ENDBRANCH   9  12
BRANCH   4  19
ATOM     19  C   UNL     1      -3.050  -0.567   0.650  0.00  0.00    +0.066 C 
BRANCH  19  20
ATOM     20  C   UNL     1      -4.176   0.413   0.223  0.00  0.00    +0.179 C 
BRANCH  20  21
ATOM     21  C   UNL     1      -5.383   0.368   1.212  0.00  0.00    +0.035 C 
ATOM     22  C   UNL     1      -6.521   1.337   0.871  0.00  0.00    +0.003 C 
ATOM     23  C   UNL     1      -4.963   0.576   2.675  0.00  0.00    +0.003 C 
ENDBRANCH  20  21
BRANCH  20  24
ATOM     24  O   UNL     1      -3.651   1.739   0.273  0.00  0.00    -0.376 OA
ATOM     25  H   UNL     1      -3.362   1.938   1.177  0.00  0.00    +0.211 HD
ENDBRANCH  20  24
BRANCH  20  27
ATOM     26  O   UNL     1      -4.575   0.883  -2.141  0.00  0.00    -0.248 OA
ATOM     27  C   UNL     1      -4.635   0.095  -1.205  0.00  0.00    +0.338 C 
BRANCH  27  28
ATOM     28  O   UNL     1      -5.106  -1.170  -1.349  0.00  0.00    -0.479 OA
ATOM     29  H   UNL     1      -5.136  -1.745  -0.610  0.00  0.00    +0.295 HD
ENDBRANCH  27  28
ENDBRANCH  20  27
ENDBRANCH  19  20
ENDBRANCH   4  19
TORSDOF 11
