REMARK  Name = 13963777
REMARK  7 active torsions:
REMARK  status: ('A' for Active; 'I' for Inactive)
REMARK    1  A    between atoms: C_5  and  C_12
REMARK    2  A    between atoms: C_6  and  O_24
REMARK    3  A    between atoms: C_9  and  O_28
REMARK    4  A    between atoms: C_10  and  O_26
REMARK    5  A    between atoms: C_13  and  O_18
REMARK    6  A    between atoms: C_15  and  O_20
REMARK    7  A    between atoms: C_16  and  O_22
REMARK                            x       y       z     vdW  Elec       q    Type
REMARK                         _______ _______ _______ _____ _____    ______ ____
ROOT
ATOM      1  O   UNL     1      -0.423   0.381  -0.187  0.00  0.00    -0.450 OA
ATOM      2  O   UNL     1      -1.646  -3.492  -0.499  0.00  0.00    -0.286 OA
ATOM      3  C   UNL     1      -2.234  -1.236  -0.118  0.00  0.00    +0.110 C 
ATOM      4  C   UNL     1      -1.748   0.067  -0.023  0.00  0.00    +0.188 C 
ATOM      5  C   UNL     1       0.469  -0.643  -0.467  0.00  0.00    +0.152 C 
ATOM      6  C   UNL     1      -2.623   1.119   0.250  0.00  0.00    +0.207 C 
ATOM      7  C   UNL     1      -1.290  -2.326  -0.406  0.00  0.00    +0.205 C 
ATOM      8  C   UNL     1       0.124  -1.936  -0.576  0.00  0.00    +0.080 C 
ATOM      9  C   UNL     1      -3.595  -1.497   0.058  0.00  0.00    +0.143 C 
ATOM     10  C   UNL     1      -3.982   0.863   0.426  0.00  0.00    +0.178 C 
ATOM     11  C   UNL     1      -4.467  -0.442   0.331  0.00  0.00    +0.077 C 
ENDROOT
BRANCH   5  12
ATOM     12  C   UNL     1       1.868  -0.196  -0.619  0.00  0.00    +0.072 C 
ATOM     13  C   UNL     1       2.732  -0.122   0.478  0.00  0.00    +0.178 C 
ATOM     14  C   UNL     1       2.335   0.159  -1.888  0.00  0.00    +0.009 C 
ATOM     15  C   UNL     1       4.050   0.303   0.308  0.00  0.00    +0.206 C 
ATOM     16  C   UNL     1       4.510   0.655  -0.961  0.00  0.00    +0.171 C 
ATOM     17  C   UNL     1       3.653   0.583  -2.059  0.00  0.00    +0.040 C 
BRANCH  13  18
ATOM     18  O   UNL     1       2.293  -0.461   1.726  0.00  0.00    -0.468 OA
ATOM     19  C   UNL     1       1.728   0.580   2.516  0.00  0.00    +0.253 C 
ENDBRANCH  13  18
BRANCH  15  20
ATOM     20  O   UNL     1       4.889   0.375   1.380  0.00  0.00    -0.465 OA
ATOM     21  C   UNL     1       5.649  -0.792   1.686  0.00  0.00    +0.253 C 
ENDBRANCH  15  20
BRANCH  16  22
ATOM     22  O   UNL     1       5.795   1.071  -1.142  0.00  0.00    -0.503 OA
ATOM     23  H   UNL     1       6.378   1.122  -0.410  0.00  0.00    +0.292 HD
ENDBRANCH  16  22
ENDBRANCH   5  12
BRANCH   6  24
ATOM     24  O   UNL     1      -2.155   2.397   0.346  0.00  0.00    -0.465 OA
ATOM     25  C   UNL     1      -1.510   2.938  -0.805  0.00  0.00    +0.253 C 
ENDBRANCH   6  24
BRANCH  10  26
ATOM     26  O   UNL     1      -4.850   1.879   0.694  0.00  0.00    -0.468 OA
ATOM     27  C   UNL     1      -5.455   2.526  -0.424  0.00  0.00    +0.253 C 
ENDBRANCH  10  26
BRANCH   9  28
ATOM     28  O   UNL     1      -4.118  -2.752  -0.023  0.00  0.00    -0.505 OA
ATOM     29  H   UNL     1      -3.559  -3.481  -0.205  0.00  0.00    +0.292 HD
ENDBRANCH   9  28
TORSDOF 7
