13962856
  -OEChem-03292013303D

 58 61  0     1  0  0  0  0  0999 V2000
    4.2448    0.6903    1.0120 O   0  0  0  0  0  0  0  0  0  0  0  0
   -0.0102   -0.0005    0.6255 O   0  0  0  0  0  0  0  0  0  0  0  0
    2.2152    2.8476    1.5806 O   0  0  0  0  0  0  0  0  0  0  0  0
   -1.9990    0.4641   -0.5026 O   0  0  0  0  0  0  0  0  0  0  0  0
   -1.3132   -2.0928    2.0156 O   0  0  0  0  0  0  0  0  0  0  0  0
   -4.2080   -1.6077    2.2714 O   0  0  0  0  0  0  0  0  0  0  0  0
   -5.3600   -0.9773   -0.3037 O   0  0  0  0  0  0  0  0  0  0  0  0
   -3.0069    1.4245   -2.8728 O   0  0  0  0  0  0  0  0  0  0  0  0
    3.3166   -1.0880   -0.4313 C   0  0  0  0  0  0  0  0  0  0  0  0
    3.0338    0.0166    0.6385 C   0  0  2  0  0  0  0  0  0  0  0  0
    4.6752   -1.0923   -1.1332 C   0  0  0  0  0  0  0  0  0  0  0  0
    4.3699   -2.1334   -0.1019 C   0  0  0  0  0  0  0  0  0  0  0  0
    2.1138    1.0374   -0.0378 C   0  0  1  0  0  0  0  0  0  0  0  0
    0.7659    0.4578   -0.4868 C   0  0  2  0  0  0  0  0  0  0  0  0
    2.1285   -1.4643   -1.3126 C   0  0  0  0  0  0  0  0  0  0  0  0
    0.0633    1.6987   -1.0538 C   0  0  0  0  0  0  0  0  0  0  0  0
    0.9907   -0.7316   -1.3678 C   0  0  0  0  0  0  0  0  0  0  0  0
    1.6456    2.2988    0.6487 C   0  0  0  0  0  0  0  0  0  0  0  0
    0.3864    2.8273   -0.0355 C   0  0  2  0  0  0  0  0  0  0  0  0
    2.4931   -0.6058    1.9288 C   0  0  0  0  0  0  0  0  0  0  0  0
    2.1953   -2.7229   -2.1466 C   0  0  0  0  0  0  0  0  0  0  0  0
   -0.7254    3.0881    0.9658 C   0  0  0  0  0  0  0  0  0  0  0  0
   -1.2607   -0.5367    0.1944 C   0  0  2  0  0  0  0  0  0  0  0  0
   -2.0257   -1.0016    1.4335 C   0  0  1  0  0  0  0  0  0  0  0  0
   -3.4418   -1.4533    1.0757 C   0  0  2  0  0  0  0  0  0  0  0  0
   -3.2550   -0.0173   -0.9842 C   0  0  1  0  0  0  0  0  0  0  0  0
   -4.1452   -0.4220    0.1932 C   0  0  1  0  0  0  0  0  0  0  0  0
   -3.8870    1.0962   -1.8133 C   0  0  0  0  0  0  0  0  0  0  0  0
    4.7483   -1.4100   -2.1663 H   0  0  0  0  0  0  0  0  0  0  0  0
    5.4129   -0.3389   -0.8843 H   0  0  0  0  0  0  0  0  0  0  0  0
    4.9025   -2.0705    0.8402 H   0  0  0  0  0  0  0  0  0  0  0  0
    4.2512   -3.1553   -0.4394 H   0  0  0  0  0  0  0  0  0  0  0  0
    2.6643    1.4186   -0.9160 H   0  0  0  0  0  0  0  0  0  0  0  0
   -0.9424    1.7762   -1.4364 H   0  0  0  0  0  0  0  0  0  0  0  0
    0.6269    1.9550   -1.9687 H   0  0  0  0  0  0  0  0  0  0  0  0
    0.1967   -1.0233   -2.0506 H   0  0  0  0  0  0  0  0  0  0  0  0
    0.6360    3.7464   -0.5768 H   0  0  0  0  0  0  0  0  0  0  0  0
    2.1402    0.1660    2.6211 H   0  0  0  0  0  0  0  0  0  0  0  0
    1.6838   -1.3187    1.7495 H   0  0  0  0  0  0  0  0  0  0  0  0
    3.2782   -1.1551    2.4623 H   0  0  0  0  0  0  0  0  0  0  0  0
    4.8175    0.0657    1.4876 H   0  0  0  0  0  0  0  0  0  0  0  0
    3.0409   -2.6981   -2.8393 H   0  0  0  0  0  0  0  0  0  0  0  0
    1.2940   -2.8665   -2.7534 H   0  0  0  0  0  0  0  0  0  0  0  0
    2.2874   -3.6035   -1.5032 H   0  0  0  0  0  0  0  0  0  0  0  0
   -1.6606    3.3369    0.4544 H   0  0  0  0  0  0  0  0  0  0  0  0
   -0.9065    2.2289    1.6184 H   0  0  0  0  0  0  0  0  0  0  0  0
   -0.4615    3.9298    1.6153 H   0  0  0  0  0  0  0  0  0  0  0  0
   -1.1127   -1.4159   -0.4429 H   0  0  0  0  0  0  0  0  0  0  0  0
   -2.0596   -0.2066    2.1878 H   0  0  0  0  0  0  0  0  0  0  0  0
   -3.4222   -2.4373    0.5915 H   0  0  0  0  0  0  0  0  0  0  0  0
   -3.0686   -0.8710   -1.6501 H   0  0  0  0  0  0  0  0  0  0  0  0
   -4.4081    0.4553    0.7971 H   0  0  0  0  0  0  0  0  0  0  0  0
   -1.2739   -2.8118    1.3620 H   0  0  0  0  0  0  0  0  0  0  0  0
   -4.0307    1.9980   -1.2087 H   0  0  0  0  0  0  0  0  0  0  0  0
   -4.8472    0.7870   -2.2369 H   0  0  0  0  0  0  0  0  0  0  0  0
   -5.1039   -1.8811    2.0097 H   0  0  0  0  0  0  0  0  0  0  0  0
   -5.1359   -1.7521   -0.8470 H   0  0  0  0  0  0  0  0  0  0  0  0
   -3.4239    2.1410   -3.3809 H   0  0  0  0  0  0  0  0  0  0  0  0
  1 10  1  0  0  0  0
  1 41  1  0  0  0  0
  2 14  1  0  0  0  0
  2 23  1  0  0  0  0
  3 18  2  0  0  0  0
  4 23  1  0  0  0  0
  4 26  1  0  0  0  0
  5 24  1  0  0  0  0
  5 53  1  0  0  0  0
  6 25  1  0  0  0  0
  6 56  1  0  0  0  0
  7 27  1  0  0  0  0
  7 57  1  0  0  0  0
  8 28  1  0  0  0  0
  8 58  1  0  0  0  0
  9 10  1  0  0  0  0
  9 11  1  0  0  0  0
  9 12  1  0  0  0  0
  9 15  1  0  0  0  0
 10 13  1  0  0  0  0
 10 20  1  0  0  0  0
 11 12  1  0  0  0  0
 11 29  1  0  0  0  0
 11 30  1  0  0  0  0
 12 31  1  0  0  0  0
 12 32  1  0  0  0  0
 13 14  1  0  0  0  0
 13 18  1  0  0  0  0
 13 33  1  0  0  0  0
 14 16  1  0  0  0  0
 14 17  1  0  0  0  0
 15 17  2  0  0  0  0
 15 21  1  0  0  0  0
 16 19  1  0  0  0  0
 16 34  1  0  0  0  0
 16 35  1  0  0  0  0
 17 36  1  0  0  0  0
 18 19  1  0  0  0  0
 19 22  1  0  0  0  0
 19 37  1  0  0  0  0
 20 38  1  0  0  0  0
 20 39  1  0  0  0  0
 20 40  1  0  0  0  0
 21 42  1  0  0  0  0
 21 43  1  0  0  0  0
 21 44  1  0  0  0  0
 22 45  1  0  0  0  0
 22 46  1  0  0  0  0
 22 47  1  0  0  0  0
 23 24  1  0  0  0  0
 23 48  1  0  0  0  0
 24 25  1  0  0  0  0
 24 49  1  0  0  0  0
 25 27  1  0  0  0  0
 25 50  1  0  0  0  0
 26 27  1  0  0  0  0
 26 28  1  0  0  0  0
 26 51  1  0  0  0  0
 27 52  1  0  0  0  0
 28 54  1  0  0  0  0
 28 55  1  0  0  0  0
M  END
> <PUBCHEM_COMPOUND_CID>
13962856

> <PUBCHEM_CONFORMER_RMSD>
0.8

> <PUBCHEM_CONFORMER_DIVERSEORDER>
1
2

> <PUBCHEM_MMFF94_PARTIAL_CHARGES>
35
1 -0.68
10 0.38
11 -0.2
12 -0.2
13 0.06
14 0.42
15 -0.18
17 -0.29
18 0.45
19 0.06
2 -0.56
21 0.14
23 0.56
24 0.28
25 0.28
26 0.28
27 0.28
28 0.28
29 0.1
3 -0.57
30 0.1
31 0.1
32 0.1
36 0.15
4 -0.56
41 0.4
5 -0.68
53 0.4
56 0.4
57 0.4
58 0.4
6 -0.68
7 -0.68
8 -0.68
9 -0.05

> <PUBCHEM_EFFECTIVE_ROTOR_COUNT>
5.2

> <PUBCHEM_PHARMACOPHORE_FEATURES>
16
1 1 acceptor
1 1 donor
1 2 acceptor
1 3 acceptor
1 4 acceptor
1 5 acceptor
1 5 donor
1 6 acceptor
1 6 donor
1 7 acceptor
1 7 donor
1 8 acceptor
1 8 donor
5 13 14 16 18 19 rings
6 4 23 24 25 26 27 rings
6 9 10 13 14 15 17 rings

> <PUBCHEM_HEAVY_ATOM_COUNT>
28

> <PUBCHEM_ATOM_DEF_STEREO_COUNT>
9

> <PUBCHEM_ATOM_UDEF_STEREO_COUNT>
0

> <PUBCHEM_BOND_DEF_STEREO_COUNT>
0

> <PUBCHEM_BOND_UDEF_STEREO_COUNT>
0

> <PUBCHEM_ISOTOPIC_ATOM_COUNT>
0

> <PUBCHEM_COMPONENT_COUNT>
1

> <PUBCHEM_CACTVS_TAUTO_COUNT>
3

> <PUBCHEM_CONFORMER_ID>
00D50E6800000001

> <PUBCHEM_MMFF94_ENERGY>
109.6352

> <PUBCHEM_FEATURE_SELFOVERLAP>
81.329

> <PUBCHEM_SHAPE_FINGERPRINT>
10366900 7 18341901732214347854
10906281 52 18411984637470214784
11578080 2 17748547043674168356
11582403 64 16823542260622394805
11640471 11 16486423203773929041
11796584 16 17677328286935265066
12236239 1 16559033800726554951
12363563 72 18339933635932383494
12403259 226 18115594884523833659
12422481 6 17414748426469736121
12553582 1 18131080303067628742
12623949 98 17833298645763538099
12714826 92 17676780820206368923
12788726 201 18122620544412679512
13134695 92 18272367598486587244
13140716 1 17840571919618083776
13544653 18 18271251529959858198
13911987 19 18341061769596799774
14251757 17 18260256439404611209
16752209 62 17530683186785364619
16945 1 18131355236803787900
17349148 13 17489584580236937511
17357779 13 18271525286806595444
1813 80 17560258941681850252
20511986 3 16486967359129954283
20600515 1 18117005394559336068
20645477 70 18341885342017532149
21033650 10 17024043548843888518
21781051 124 16443354208903171259
22182313 1 18262225715963811637
23175994 123 18411706473865316373
23419403 2 18336537283322078124
23559900 14 17749392628276436303
3380486 145 18341885350707550757
3737641 26 17558851493852873246
57527295 17 18193255422297093391
7288768 16 15406341089265333498
81228 2 18122638153815600652
9709674 26 18118124890701718459

> <PUBCHEM_SHAPE_MULTIPOLES>
529.27
8.62
3.02
2.12
3.55
1.81
0.18
-4.66
0.35
-1.28
-0.29
1.39
-0.53
2.51

> <PUBCHEM_SHAPE_SELFOVERLAP>
1131.924

> <PUBCHEM_SHAPE_VOLUME>
292.3

> <PUBCHEM_COORDINATE_TYPE>
2
5
10

$$$$
