REMARK  Name = 139600358
REMARK  7 active torsions:
REMARK  status: ('A' for Active; 'I' for Inactive)
REMARK    1  A    between atoms: C_7  and  O_23
REMARK    2  A    between atoms: C_11  and  O_25
REMARK    3  A    between atoms: C_14  and  O_29
REMARK    4  A    between atoms: C_18  and  O_33
REMARK    5  A    between atoms: O_25  and  C_27
REMARK    6  A    between atoms: O_29  and  C_31
REMARK    7  A    between atoms: O_33  and  C_35
REMARK                            x       y       z     vdW  Elec       q    Type
REMARK                         _______ _______ _______ _____ _____    ______ ____
ROOT
ATOM      1  N   UNL     1      -1.835  -1.781  -1.193  0.00  0.00    +0.391 N 
ATOM      2  C   UNL     1      -1.071  -0.454   0.676  0.00  0.00    -0.010 C 
ATOM      3  C   UNL     1       0.650  -2.111   0.325  0.00  0.00    +0.029 C 
ATOM      4  C   UNL     1      -0.861  -0.691  -0.858  0.00  0.00    -0.029 C 
ATOM      5  C   UNL     1       0.234  -1.019   1.363  0.00  0.00    +0.041 C 
ATOM      6  C   UNL     1      -2.215  -1.481   0.949  0.00  0.00    -0.022 C 
ATOM      7  C   UNL     1       0.579  -1.240  -0.966  0.00  0.00    +0.109 C 
ATOM      8  C   UNL     1      -1.806  -2.632   0.027  0.00  0.00    -0.058 C 
ATOM      9  C   UNL     1      -3.545  -1.021   0.315  0.00  0.00    -0.017 C 
ATOM     10  C   UNL     1      -0.415  -3.216   0.293  0.00  0.00    -0.018 C 
ATOM     11  C   UNL     1       1.469  -0.105   1.612  0.00  0.00    +0.176 C 
ATOM     12  C   UNL     1      -1.472   0.972   1.065  0.00  0.00    +0.042 C 
ATOM     13  C   UNL     1      -3.216  -1.219  -1.181  0.00  0.00    -0.077 C 
ATOM     14  C   UNL     1       1.629  -0.088  -0.892  0.00  0.00    +0.198 C 
ATOM     15  C   UNL     1       2.438  -0.191   0.417  0.00  0.00    +0.101 C 
ATOM     16  C   UNL     1       2.059  -2.685   0.552  0.00  0.00    +0.025 C 
ATOM     17  C   UNL     1      -3.921   0.417   0.712  0.00  0.00    +0.042 C 
ATOM     18  C   UNL     1      -2.821   1.453   0.542  0.00  0.00    +0.169 C 
ATOM     19  C   UNL     1       3.069  -1.568   0.487  0.00  0.00    -0.038 C 
ATOM     20  C   UNL     1      -4.716  -1.936   0.736  0.00  0.00    -0.002 C 
ATOM     21  C   UNL     1       4.391  -1.781   0.488  0.00  0.00    -0.009 C 
ATOM     22  H   UNL     1      -1.618  -2.230  -2.083  0.00  0.00    -0.079 HD
ENDROOT
BRANCH   7  23
ATOM     23  O   UNL     1       0.760  -2.006  -2.146  0.00  0.00    -0.385 OA
ATOM     24  H   UNL     1       0.100  -2.716  -2.174  0.00  0.00    +0.210 HD
ENDBRANCH   7  23
BRANCH  11  25
ATOM     25  O   UNL     1       1.154   1.237   1.923  0.00  0.00    -0.452 OA
BRANCH  25  27
ATOM     26  O   UNL     1       3.015   1.388   3.283  0.00  0.00    -0.250 OA
ATOM     27  C   UNL     1       2.014   1.878   2.777  0.00  0.00    +0.317 C 
ATOM     28  C   UNL     1       1.557   3.285   3.014  0.00  0.00    +0.121 C 
ENDBRANCH  25  27
ENDBRANCH  11  25
BRANCH  14  29
ATOM     29  O   UNL     1       2.510  -0.089  -2.013  0.00  0.00    -0.449 OA
BRANCH  29  31
ATOM     30  O   UNL     1       2.750   2.202  -1.845  0.00  0.00    -0.250 OA
ATOM     31  C   UNL     1       2.998   1.131  -2.382  0.00  0.00    +0.318 C 
ATOM     32  C   UNL     1       3.904   0.977  -3.567  0.00  0.00    +0.121 C 
ENDBRANCH  29  31
ENDBRANCH  14  29
BRANCH  18  33
ATOM     33  O   UNL     1      -2.698   1.848  -0.820  0.00  0.00    -0.452 OA
BRANCH  33  35
ATOM     34  O   UNL     1      -2.060   3.969  -0.164  0.00  0.00    -0.250 OA
ATOM     35  C   UNL     1      -2.307   3.141  -1.030  0.00  0.00    +0.317 C 
ATOM     36  C   UNL     1      -2.221   3.414  -2.501  0.00  0.00    +0.121 C 
ENDBRANCH  33  35
ENDBRANCH  18  33
TORSDOF 7
