REMARK  Name = 13962857
REMARK  8 active torsions:
REMARK  status: ('A' for Active; 'I' for Inactive)
REMARK    1  A    between atoms: C_3  and  O_16
REMARK    2  A    between atoms: C_7  and  O_18
REMARK    3  A    between atoms: O_18  and  C_20
REMARK    4  A    between atoms: C_21  and  O_25
REMARK    5  A    between atoms: C_22  and  O_27
REMARK    6  A    between atoms: C_23  and  C_31
REMARK    7  A    between atoms: C_24  and  O_29
REMARK    8  A    between atoms: C_31  and  O_32
REMARK                            x       y       z     vdW  Elec       q    Type
REMARK                         _______ _______ _______ _____ _____    ______ ____
ROOT
ATOM      1  O   UNL     1      -3.402  -2.197   1.177  0.00  0.00    -0.296 OA
ATOM      2  C   UNL     1      -3.317   0.882  -0.620  0.00  0.00    +0.038 C 
ATOM      3  C   UNL     1      -2.947   0.804   0.872  0.00  0.00    +0.100 C 
ATOM      4  C   UNL     1      -4.502   0.080  -1.144  0.00  0.00    +0.006 C 
ATOM      5  C   UNL     1      -4.619   1.566  -1.001  0.00  0.00    +0.006 C 
ATOM      6  C   UNL     1      -1.880  -0.294   1.095  0.00  0.00    +0.111 C 
ATOM      7  C   UNL     1      -0.641  -0.157   0.176  0.00  0.00    +0.122 C 
ATOM      8  C   UNL     1      -2.127   0.955  -1.536  0.00  0.00    -0.044 C 
ATOM      9  C   UNL     1      -0.125  -1.597   0.042  0.00  0.00    +0.039 C 
ATOM     10  C   UNL     1      -0.923   0.470  -1.170  0.00  0.00    -0.008 C 
ATOM     11  C   UNL     1      -2.354  -1.712   0.768  0.00  0.00    +0.155 C 
ATOM     12  C   UNL     1      -1.377  -2.455  -0.118  0.00  0.00    +0.060 C 
ATOM     13  C   UNL     1      -2.439   2.172   1.362  0.00  0.00    +0.030 C 
ATOM     14  C   UNL     1      -2.267   1.619  -2.882  0.00  0.00    +0.026 C 
ATOM     15  C   UNL     1      -1.164  -3.893   0.312  0.00  0.00    +0.008 C 
ENDROOT
BRANCH   3  16
ATOM     16  O   UNL     1      -4.089   0.535   1.696  0.00  0.00    -0.386 OA
ATOM     17  H   UNL     1      -4.473  -0.321   1.448  0.00  0.00    +0.210 HD
ENDBRANCH   3  16
BRANCH   7  18
ATOM     18  O   UNL     1       0.352   0.623   0.840  0.00  0.00    -0.329 OA
BRANCH  18  20
ATOM     19  O   UNL     1       2.067  -0.649  -0.102  0.00  0.00    -0.326 OA
ATOM     20  C   UNL     1       1.564   0.671   0.087  0.00  0.00    +0.266 C 
ATOM     21  C   UNL     1       2.568   1.521   0.865  0.00  0.00    +0.196 C 
ATOM     22  C   UNL     1       3.945   1.502   0.201  0.00  0.00    +0.172 C 
ATOM     23  C   UNL     1       3.269  -0.672  -0.873  0.00  0.00    +0.176 C 
ATOM     24  C   UNL     1       4.380   0.075  -0.131  0.00  0.00    +0.169 C 
BRANCH  21  25
ATOM     25  O   UNL     1       2.081   2.862   0.907  0.00  0.00    -0.378 OA
ATOM     26  H   UNL     1       1.207   2.876   1.329  0.00  0.00    +0.211 HD
ENDBRANCH  21  25
BRANCH  22  27
ATOM     27  O   UNL     1       4.910   2.062   1.092  0.00  0.00    -0.379 OA
ATOM     28  H   UNL     1       4.654   2.971   1.317  0.00  0.00    +0.211 HD
ENDBRANCH  22  27
BRANCH  24  29
ATOM     29  O   UNL     1       5.547   0.116  -0.947  0.00  0.00    -0.379 OA
ATOM     30  H   UNL     1       6.253   0.589  -0.479  0.00  0.00    +0.211 HD
ENDBRANCH  24  29
BRANCH  23  31
ATOM     31  C   UNL     1       3.634  -2.134  -1.112  0.00  0.00    +0.169 C 
BRANCH  31  32
ATOM     32  O   UNL     1       3.855  -2.754   0.142  0.00  0.00    -0.379 OA
ATOM     33  H   UNL     1       4.089  -3.686   0.005  0.00  0.00    +0.211 HD
ENDBRANCH  31  32
ENDBRANCH  23  31
ENDBRANCH  18  20
ENDBRANCH   7  18
TORSDOF 8
