139600356
  -OEChem-03292013293D

 51 56  0     1  0  0  0  0  0999 V2000
    0.3934   -0.5764   -1.7119 O   0  0  0  0  0  0  0  0  0  0  0  0
   -0.1917   -2.6577    0.8891 O   0  0  0  0  0  0  0  0  0  0  0  0
   -0.1193    1.7419   -1.7050 O   0  0  0  0  0  0  0  0  0  0  0  0
    0.5301    0.8760    2.7335 O   0  0  0  0  0  0  0  0  0  0  0  0
    3.4151    0.7226    1.3339 O   0  0  0  0  0  0  0  0  0  0  0  0
   -1.7382    2.0876    1.4045 O   0  0  0  0  0  0  0  0  0  0  0  0
    1.0647   -3.3457   -0.8929 O   0  0  0  0  0  0  0  0  0  0  0  0
   -0.3911    3.7162   -0.5681 O   0  0  0  0  0  0  0  0  0  0  0  0
    5.2346    0.9089   -0.0657 O   0  0  0  0  0  0  0  0  0  0  0  0
   -0.0625   -0.2763    0.6332 C   0  0  2  0  0  0  0  0  0  0  0  0
   -1.2322    0.3086   -0.1965 C   0  0  2  0  0  0  0  0  0  0  0  0
    0.7985   -0.9810   -0.4213 C   0  0  2  0  0  0  0  0  0  0  0  0
   -2.3363   -0.7754   -0.0777 C   0  0  1  0  0  0  0  0  0  0  0  0
   -0.6327   -1.4217    1.4772 C   0  0  1  0  0  0  0  0  0  0  0  0
    0.9185    0.6695    1.3855 C   0  0  2  0  0  0  0  0  0  0  0  0
   -0.6408    0.4071   -1.5949 C   0  0  2  0  0  0  0  0  0  0  0  0
   -2.1456   -1.3132    1.3413 C   0  0  0  0  0  0  0  0  0  0  0  0
   -1.6758    1.7434    0.0485 C   0  0  2  0  0  0  0  0  0  0  0  0
    2.1823   -0.5793   -0.0625 C   0  0  0  0  0  0  0  0  0  0  0  0
    2.2440   -0.0758    1.3190 C   0  0  1  0  0  0  0  0  0  0  0  0
   -3.7735   -0.3418   -0.3308 C   0  0  0  0  0  0  0  0  0  0  0  0
    0.5966   -2.4526   -0.2028 C   0  0  0  0  0  0  0  0  0  0  0  0
   -0.6716    2.5410   -0.7420 C   0  0  0  0  0  0  0  0  0  0  0  0
    3.2871   -0.3099   -0.7487 C   0  0  0  0  0  0  0  0  0  0  0  0
   -3.9251    0.1513   -1.7815 C   0  0  0  0  0  0  0  0  0  0  0  0
   -4.1539    0.8003    0.6294 C   0  0  0  0  0  0  0  0  0  0  0  0
   -4.7280   -1.5283   -0.1021 C   0  0  0  0  0  0  0  0  0  0  0  0
    4.1188    0.4818    0.1793 C   0  0  0  0  0  0  0  0  0  0  0  0
    3.6344   -0.5211   -2.1699 C   0  0  0  0  0  0  0  0  0  0  0  0
   -2.1036   -1.5919   -0.7783 H   0  0  0  0  0  0  0  0  0  0  0  0
   -0.3254   -1.4278    2.5265 H   0  0  0  0  0  0  0  0  0  0  0  0
    1.0275    1.6522    0.9189 H   0  0  0  0  0  0  0  0  0  0  0  0
   -1.3406    0.2552   -2.4184 H   0  0  0  0  0  0  0  0  0  0  0  0
   -2.5126   -0.6519    2.1275 H   0  0  0  0  0  0  0  0  0  0  0  0
   -2.6149   -2.2942    1.4689 H   0  0  0  0  0  0  0  0  0  0  0  0
   -2.5711    2.0603   -0.4702 H   0  0  0  0  0  0  0  0  0  0  0  0
    2.3279   -0.8664    2.0729 H   0  0  0  0  0  0  0  0  0  0  0  0
   -0.3585    1.2697    2.7239 H   0  0  0  0  0  0  0  0  0  0  0  0
   -4.2697    1.7851    0.1689 H   0  0  0  0  0  0  0  0  0  0  0  0
   -3.6279    0.8565    1.5778 H   0  0  0  0  0  0  0  0  0  0  0  0
   -5.1900    0.6202    0.9595 H   0  0  0  0  0  0  0  0  0  0  0  0
   -3.6229   -0.6289   -2.4900 H   0  0  0  0  0  0  0  0  0  0  0  0
   -3.3676    1.0555   -2.0252 H   0  0  0  0  0  0  0  0  0  0  0  0
   -4.4237   -2.4003   -0.6919 H   0  0  0  0  0  0  0  0  0  0  0  0
   -4.7738   -1.8284    0.9501 H   0  0  0  0  0  0  0  0  0  0  0  0
   -5.7510   -1.2734   -0.4034 H   0  0  0  0  0  0  0  0  0  0  0  0
   -4.9770    0.3802   -1.9939 H   0  0  0  0  0  0  0  0  0  0  0  0
   -2.0207    3.0161    1.4623 H   0  0  0  0  0  0  0  0  0  0  0  0
    3.7834    0.4372   -2.6769 H   0  0  0  0  0  0  0  0  0  0  0  0
    2.8518   -1.0686   -2.7033 H   0  0  0  0  0  0  0  0  0  0  0  0
    4.5586   -1.1019   -2.2517 H   0  0  0  0  0  0  0  0  0  0  0  0
  1 12  1  0  0  0  0
  1 16  1  0  0  0  0
  2 14  1  0  0  0  0
  2 22  1  0  0  0  0
  3 16  1  0  0  0  0
  3 23  1  0  0  0  0
  4 15  1  0  0  0  0
  4 38  1  0  0  0  0
  5 20  1  0  0  0  0
  5 28  1  0  0  0  0
  6 18  1  0  0  0  0
  6 48  1  0  0  0  0
  7 22  2  0  0  0  0
  8 23  2  0  0  0  0
  9 28  2  0  0  0  0
 10 11  1  0  0  0  0
 10 12  1  0  0  0  0
 10 14  1  0  0  0  0
 10 15  1  0  0  0  0
 11 13  1  0  0  0  0
 11 16  1  0  0  0  0
 11 18  1  0  0  0  0
 12 19  1  0  0  0  0
 12 22  1  0  0  0  0
 13 17  1  0  0  0  0
 13 21  1  0  0  0  0
 13 30  1  0  0  0  0
 14 17  1  0  0  0  0
 14 31  1  0  0  0  0
 15 20  1  0  0  0  0
 15 32  1  0  0  0  0
 16 33  1  0  0  0  0
 17 34  1  0  0  0  0
 17 35  1  0  0  0  0
 18 23  1  0  0  0  0
 18 36  1  0  0  0  0
 19 20  1  0  0  0  0
 19 24  2  0  0  0  0
 20 37  1  0  0  0  0
 21 25  1  0  0  0  0
 21 26  1  0  0  0  0
 21 27  1  0  0  0  0
 24 28  1  0  0  0  0
 24 29  1  0  0  0  0
 25 42  1  0  0  0  0
 25 43  1  0  0  0  0
 25 47  1  0  0  0  0
 26 39  1  0  0  0  0
 26 40  1  0  0  0  0
 26 41  1  0  0  0  0
 27 44  1  0  0  0  0
 27 45  1  0  0  0  0
 27 46  1  0  0  0  0
 29 49  1  0  0  0  0
 29 50  1  0  0  0  0
 29 51  1  0  0  0  0
M  END
> <PUBCHEM_COMPOUND_CID>
139600356

> <PUBCHEM_CONFORMER_RMSD>
0.8

> <PUBCHEM_CONFORMER_DIVERSEORDER>
1

> <PUBCHEM_MMFF94_PARTIAL_CHARGES>
23
1 -0.56
12 0.48
14 0.28
15 0.28
16 0.56
18 0.34
19 -0.28
2 -0.43
20 0.42
22 0.66
23 0.66
24 -0.12
28 0.71
29 0.14
3 -0.43
38 0.4
4 -0.68
48 0.4
5 -0.43
6 -0.68
7 -0.57
8 -0.57
9 -0.57

> <PUBCHEM_EFFECTIVE_ROTOR_COUNT>
2.6

> <PUBCHEM_PHARMACOPHORE_FEATURES>
15
1 1 acceptor
1 4 acceptor
1 4 donor
1 6 acceptor
1 6 donor
1 7 acceptor
1 8 acceptor
1 9 acceptor
4 21 25 26 27 hydrophobe
5 1 10 11 12 16 rings
5 10 11 13 14 17 rings
5 10 12 15 19 20 rings
5 2 10 12 14 22 rings
5 3 11 16 18 23 rings
5 5 19 20 24 28 rings

> <PUBCHEM_HEAVY_ATOM_COUNT>
29

> <PUBCHEM_ATOM_DEF_STEREO_COUNT>
7

> <PUBCHEM_ATOM_UDEF_STEREO_COUNT>
2

> <PUBCHEM_BOND_DEF_STEREO_COUNT>
0

> <PUBCHEM_BOND_UDEF_STEREO_COUNT>
0

> <PUBCHEM_ISOTOPIC_ATOM_COUNT>
0

> <PUBCHEM_COMPONENT_COUNT>
1

> <PUBCHEM_CACTVS_TAUTO_COUNT>
-1

> <PUBCHEM_CONFORMER_ID>
085221E400000001

> <PUBCHEM_MMFF94_ENERGY>
123.0692

> <PUBCHEM_FEATURE_SELFOVERLAP>
79.402

> <PUBCHEM_SHAPE_FINGERPRINT>
10498660 4 18334573503798952108
10863032 1 17985832536252308145
10906281 52 18188225246720594709
10930396 42 17755265158778590136
10948715 1 18057613061754922297
11578080 2 18120654626470931821
12011746 2 18410006675806237405
12035758 1 18264767847092394889
12236239 1 16805315617544623970
12788726 201 18334572417399339088
12969540 114 18191565618436988430
13140716 1 17827933033388343963
13224815 77 18336542733598399767
14223421 5 18194961846788985583
14787075 74 17917426591917971480
14955137 171 18262256502848117131
1601671 61 18260539005756546213
16945 1 18343863299190765763
17349148 13 17895200977911698622
17357779 13 18272363196266142317
17492 54 17604155938166286279
18981168 100 17828756240583759076
20600515 1 18337958994605972461
20691752 17 18334867065040207609
20715895 44 16664272310760108029
21033648 29 18059852917560074083
21330990 113 18413105061013653975
23227448 37 18053379092164968428
23402539 116 18408598175651958054
23419403 2 17557144222387278963
23558518 356 17898855638619102377
23559900 14 18335425660398126038
296302 2 17967247590060888383
350125 39 18046628893406899922
70251023 43 17980467972261786303

> <PUBCHEM_SHAPE_MULTIPOLES>
543.98
6.97
2.69
1.87
0.98
0.43
0.12
-0.01
-1.14
-0.63
-0.25
0.44
0.18
0.49

> <PUBCHEM_SHAPE_SELFOVERLAP>
1253.184

> <PUBCHEM_SHAPE_VOLUME>
283.4

> <PUBCHEM_COORDINATE_TYPE>
2
5
10

$$$$
