REMARK  Name = 13962856
REMARK  8 active torsions:
REMARK  status: ('A' for Active; 'I' for Inactive)
REMARK    1  A    between atoms: C_3  and  O_16
REMARK    2  A    between atoms: C_7  and  O_18
REMARK    3  A    between atoms: O_18  and  C_20
REMARK    4  A    between atoms: C_21  and  O_25
REMARK    5  A    between atoms: C_22  and  O_27
REMARK    6  A    between atoms: C_23  and  C_31
REMARK    7  A    between atoms: C_24  and  O_29
REMARK    8  A    between atoms: C_31  and  O_32
REMARK                            x       y       z     vdW  Elec       q    Type
REMARK                         _______ _______ _______ _____ _____    ______ ____
ROOT
ATOM      1  O   UNL     1       2.215   2.848   1.581  0.00  0.00    -0.296 OA
ATOM      2  C   UNL     1       3.317  -1.088  -0.431  0.00  0.00    +0.038 C 
ATOM      3  C   UNL     1       3.034   0.017   0.638  0.00  0.00    +0.100 C 
ATOM      4  C   UNL     1       4.675  -1.092  -1.133  0.00  0.00    +0.006 C 
ATOM      5  C   UNL     1       4.370  -2.133  -0.102  0.00  0.00    +0.006 C 
ATOM      6  C   UNL     1       2.114   1.037  -0.038  0.00  0.00    +0.111 C 
ATOM      7  C   UNL     1       0.766   0.458  -0.487  0.00  0.00    +0.122 C 
ATOM      8  C   UNL     1       2.128  -1.464  -1.313  0.00  0.00    -0.044 C 
ATOM      9  C   UNL     1       0.063   1.699  -1.054  0.00  0.00    +0.039 C 
ATOM     10  C   UNL     1       0.991  -0.732  -1.368  0.00  0.00    -0.008 C 
ATOM     11  C   UNL     1       1.646   2.299   0.649  0.00  0.00    +0.155 C 
ATOM     12  C   UNL     1       0.386   2.827  -0.035  0.00  0.00    +0.060 C 
ATOM     13  C   UNL     1       2.493  -0.606   1.929  0.00  0.00    +0.030 C 
ATOM     14  C   UNL     1       2.195  -2.723  -2.147  0.00  0.00    +0.026 C 
ATOM     15  C   UNL     1      -0.725   3.088   0.966  0.00  0.00    +0.008 C 
ENDROOT
BRANCH   3  16
ATOM     16  O   UNL     1       4.245   0.690   1.012  0.00  0.00    -0.386 OA
ATOM     17  H   UNL     1       4.637   1.108   0.229  0.00  0.00    +0.210 HD
ENDBRANCH   3  16
BRANCH   7  18
ATOM     18  O   UNL     1      -0.010  -0.001   0.625  0.00  0.00    -0.329 OA
BRANCH  18  20
ATOM     19  O   UNL     1      -1.999   0.464  -0.503  0.00  0.00    -0.326 OA
ATOM     20  C   UNL     1      -1.261  -0.537   0.194  0.00  0.00    +0.266 C 
ATOM     21  C   UNL     1      -2.026  -1.002   1.433  0.00  0.00    +0.196 C 
ATOM     22  C   UNL     1      -3.442  -1.453   1.076  0.00  0.00    +0.172 C 
ATOM     23  C   UNL     1      -3.255  -0.017  -0.984  0.00  0.00    +0.176 C 
ATOM     24  C   UNL     1      -4.145  -0.422   0.193  0.00  0.00    +0.169 C 
BRANCH  21  25
ATOM     25  O   UNL     1      -1.313  -2.093   2.016  0.00  0.00    -0.378 OA
ATOM     26  H   UNL     1      -0.414  -1.808   2.243  0.00  0.00    +0.211 HD
ENDBRANCH  21  25
BRANCH  22  27
ATOM     27  O   UNL     1      -4.208  -1.608   2.271  0.00  0.00    -0.379 OA
ATOM     28  H   UNL     1      -3.779  -2.259   2.848  0.00  0.00    +0.211 HD
ENDBRANCH  22  27
BRANCH  24  29
ATOM     29  O   UNL     1      -5.360  -0.977  -0.304  0.00  0.00    -0.379 OA
ATOM     30  H   UNL     1      -5.926  -1.235   0.441  0.00  0.00    +0.211 HD
ENDBRANCH  24  29
BRANCH  23  31
ATOM     31  C   UNL     1      -3.887   1.096  -1.813  0.00  0.00    +0.169 C 
BRANCH  31  32
ATOM     32  O   UNL     1      -3.007   1.425  -2.873  0.00  0.00    -0.379 OA
ATOM     33  H   UNL     1      -3.397   2.132  -3.409  0.00  0.00    +0.211 HD
ENDBRANCH  31  32
ENDBRANCH  23  31
ENDBRANCH  18  20
ENDBRANCH   7  18
TORSDOF 8
