REMARK  Name = 139600838
REMARK  8 active torsions:
REMARK  status: ('A' for Active; 'I' for Inactive)
REMARK    1  A    between atoms: C_2  and  O_7
REMARK    2  A    between atoms: C_3  and  O_9
REMARK    3  A    between atoms: C_4  and  C_17
REMARK    4  A    between atoms: C_5  and  O_13
REMARK    5  A    between atoms: C_6  and  O_11
REMARK    6  A    between atoms: O_13  and  C_15
REMARK    7  A    between atoms: C_17  and  O_18
REMARK    8  A    between atoms: O_18  and  C_20
REMARK                            x       y       z     vdW  Elec       q    Type
REMARK                         _______ _______ _______ _____ _____    ______ ____
ROOT
ATOM      1  O   UNL     1       0.651  -0.872   0.217  0.00  0.00    -0.324 OA
ATOM      2  C   UNL     1       0.089   1.479   0.045  0.00  0.00    +0.172 C 
ATOM      3  C   UNL     1      -1.340   1.116  -0.359  0.00  0.00    +0.185 C 
ATOM      4  C   UNL     1       1.065   0.370  -0.355  0.00  0.00    +0.191 C 
ATOM      5  C   UNL     1      -1.705  -0.294   0.106  0.00  0.00    +0.253 C 
ATOM      6  C   UNL     1      -0.619  -1.302  -0.270  0.00  0.00    +0.276 C 
ENDROOT
BRANCH   2   7
ATOM      7  O   UNL     1       0.466   2.693  -0.599  0.00  0.00    -0.379 OA
ATOM      8  H   UNL     1      -0.151   3.398  -0.347  0.00  0.00    +0.211 HD
ENDBRANCH   2   7
BRANCH   3   9
ATOM      9  O   UNL     1      -2.224   2.060   0.247  0.00  0.00    -0.378 OA
ATOM     10  H   UNL     1      -1.993   2.955  -0.048  0.00  0.00    +0.211 HD
ENDBRANCH   3   9
BRANCH   6  11
ATOM     11  O   UNL     1      -0.961  -2.557   0.319  0.00  0.00    -0.357 OA
ATOM     12  H   UNL     1      -0.285  -3.214   0.094  0.00  0.00    +0.213 HD
ENDBRANCH   6  11
BRANCH   5  13
ATOM     13  O   UNL     1      -2.924  -0.698  -0.518  0.00  0.00    -0.444 OA
BRANCH  13  15
ATOM     14  O   UNL     1      -4.133   0.207   1.230  0.00  0.00    -0.250 OA
ATOM     15  C   UNL     1      -4.067  -0.380   0.159  0.00  0.00    +0.318 C 
ATOM     16  C   UNL     1      -5.260  -0.863  -0.609  0.00  0.00    +0.121 C 
ENDBRANCH  13  15
ENDBRANCH   5  13
BRANCH   4  17
ATOM     17  C   UNL     1       2.478   0.656   0.142  0.00  0.00    +0.240 C 
BRANCH  17  18
ATOM     18  O   UNL     1       3.320  -0.412  -0.253  0.00  0.00    -0.446 OA
BRANCH  18  20
ATOM     19  O   UNL     1       5.131   0.612   0.749  0.00  0.00    -0.250 OA
ATOM     20  C   UNL     1       4.635  -0.310   0.117  0.00  0.00    +0.318 C 
ATOM     21  C   UNL     1       5.400  -1.505  -0.367  0.00  0.00    +0.121 C 
ENDBRANCH  18  20
ENDBRANCH  17  18
ENDBRANCH   4  17
TORSDOF 8
