139600358
  -OEChem-03292013293D

 67 73  0     1  0  0  0  0  0999 V2000
    0.7597   -2.0058   -2.1455 O   0  0  0  0  0  0  0  0  0  0  0  0
    1.1541    1.2371    1.9225 O   0  0  0  0  0  0  0  0  0  0  0  0
    2.5097   -0.0893   -2.0127 O   0  0  0  0  0  0  0  0  0  0  0  0
   -2.6979    1.8482   -0.8199 O   0  0  0  0  0  0  0  0  0  0  0  0
    3.0150    1.3882    3.2831 O   0  0  0  0  0  0  0  0  0  0  0  0
    2.7500    2.2021   -1.8451 O   0  0  0  0  0  0  0  0  0  0  0  0
   -2.0599    3.9694   -0.1637 O   0  0  0  0  0  0  0  0  0  0  0  0
   -1.8351   -1.7806   -1.1931 N   0  0  1  0  0  0  0  0  0  0  0  0
   -1.0710   -0.4536    0.6761 C   0  0  2  0  0  0  0  0  0  0  0  0
    0.6503   -2.1105    0.3245 C   0  0  2  0  0  0  0  0  0  0  0  0
   -0.8611   -0.6905   -0.8577 C   0  0  1  0  0  0  0  0  0  0  0  0
    0.2335   -1.0193    1.3625 C   0  0  1  0  0  0  0  0  0  0  0  0
   -2.2148   -1.4808    0.9490 C   0  0  2  0  0  0  0  0  0  0  0  0
    0.5791   -1.2399   -0.9657 C   0  0  2  0  0  0  0  0  0  0  0  0
   -1.8056   -2.6317    0.0267 C   0  0  2  0  0  0  0  0  0  0  0  0
   -3.5449   -1.0208    0.3146 C   0  0  2  0  0  0  0  0  0  0  0  0
   -0.4152   -3.2164    0.2932 C   0  0  0  0  0  0  0  0  0  0  0  0
    1.4688   -0.1050    1.6124 C   0  0  1  0  0  0  0  0  0  0  0  0
   -1.4718    0.9718    1.0652 C   0  0  0  0  0  0  0  0  0  0  0  0
   -3.2165   -1.2194   -1.1808 C   0  0  0  0  0  0  0  0  0  0  0  0
    1.6289   -0.0878   -0.8918 C   0  0  1  0  0  0  0  0  0  0  0  0
    2.4381   -0.1907    0.4175 C   0  0  2  0  0  0  0  0  0  0  0  0
    2.0591   -2.6854    0.5520 C   0  0  0  0  0  0  0  0  0  0  0  0
   -3.9215    0.4166    0.7116 C   0  0  0  0  0  0  0  0  0  0  0  0
   -2.8214    1.4530    0.5419 C   0  0  2  0  0  0  0  0  0  0  0  0
    3.0686   -1.5684    0.4874 C   0  0  0  0  0  0  0  0  0  0  0  0
   -4.7157   -1.9356    0.7358 C   0  0  0  0  0  0  0  0  0  0  0  0
    4.3911   -1.7813    0.4884 C   0  0  0  0  0  0  0  0  0  0  0  0
    2.0144    1.8779    2.7771 C   0  0  0  0  0  0  0  0  0  0  0  0
    2.9984    1.1314   -2.3823 C   0  0  0  0  0  0  0  0  0  0  0  0
   -2.3071    3.1411   -1.0297 C   0  0  0  0  0  0  0  0  0  0  0  0
    1.5573    3.2854    3.0140 C   0  0  0  0  0  0  0  0  0  0  0  0
    3.9038    0.9766   -3.5667 C   0  0  0  0  0  0  0  0  0  0  0  0
   -2.2206    3.4137   -2.5008 C   0  0  0  0  0  0  0  0  0  0  0  0
   -1.0007    0.1749   -1.5112 H   0  0  0  0  0  0  0  0  0  0  0  0
   -0.0341   -1.4662    2.3296 H   0  0  0  0  0  0  0  0  0  0  0  0
   -2.3105   -1.7561    2.0041 H   0  0  0  0  0  0  0  0  0  0  0  0
   -2.5299   -3.4505   -0.0313 H   0  0  0  0  0  0  0  0  0  0  0  0
   -0.4264   -3.7497    1.2518 H   0  0  0  0  0  0  0  0  0  0  0  0
   -0.1736   -3.9529   -0.4833 H   0  0  0  0  0  0  0  0  0  0  0  0
    1.9665   -0.5464    2.4899 H   0  0  0  0  0  0  0  0  0  0  0  0
   -0.7143    1.6728    0.7042 H   0  0  0  0  0  0  0  0  0  0  0  0
   -1.4941    1.0312    2.1609 H   0  0  0  0  0  0  0  0  0  0  0  0
   -3.8885   -1.9525   -1.6441 H   0  0  0  0  0  0  0  0  0  0  0  0
   -3.2917   -0.3144   -1.7897 H   0  0  0  0  0  0  0  0  0  0  0  0
    1.0820    0.8645   -0.8767 H   0  0  0  0  0  0  0  0  0  0  0  0
    3.2021    0.5938    0.4610 H   0  0  0  0  0  0  0  0  0  0  0  0
    2.2890   -3.4391   -0.2107 H   0  0  0  0  0  0  0  0  0  0  0  0
    2.1069   -3.1694    1.5350 H   0  0  0  0  0  0  0  0  0  0  0  0
   -4.2134    0.4148    1.7709 H   0  0  0  0  0  0  0  0  0  0  0  0
   -4.8035    0.7296    0.1380 H   0  0  0  0  0  0  0  0  0  0  0  0
   -3.1319    2.3241    1.1347 H   0  0  0  0  0  0  0  0  0  0  0  0
   -4.5614   -2.9824    0.4589 H   0  0  0  0  0  0  0  0  0  0  0  0
   -5.6486   -1.6123    0.2596 H   0  0  0  0  0  0  0  0  0  0  0  0
   -4.8649   -1.9043    1.8210 H   0  0  0  0  0  0  0  0  0  0  0  0
    0.6388   -1.4081   -2.9029 H   0  0  0  0  0  0  0  0  0  0  0  0
    5.0934   -0.9564    0.4383 H   0  0  0  0  0  0  0  0  0  0  0  0
    4.7957   -2.7865    0.5386 H   0  0  0  0  0  0  0  0  0  0  0  0
    2.2500    3.7823    3.6991 H   0  0  0  0  0  0  0  0  0  0  0  0
    0.5625    3.2794    3.4664 H   0  0  0  0  0  0  0  0  0  0  0  0
    1.5467    3.8339    2.0688 H   0  0  0  0  0  0  0  0  0  0  0  0
    4.7471    0.3322   -3.3059 H   0  0  0  0  0  0  0  0  0  0  0  0
    4.2911    1.9571   -3.8579 H   0  0  0  0  0  0  0  0  0  0  0  0
    3.3449    0.5588   -4.4078 H   0  0  0  0  0  0  0  0  0  0  0  0
   -1.4793    2.7519   -2.9559 H   0  0  0  0  0  0  0  0  0  0  0  0
   -1.9081    4.4496   -2.6604 H   0  0  0  0  0  0  0  0  0  0  0  0
   -3.2007    3.2698   -2.9624 H   0  0  0  0  0  0  0  0  0  0  0  0
  1 14  1  0  0  0  0
  1 56  1  0  0  0  0
  2 18  1  0  0  0  0
  2 29  1  0  0  0  0
  3 21  1  0  0  0  0
  3 30  1  0  0  0  0
  4 25  1  0  0  0  0
  4 31  1  0  0  0  0
  5 29  2  0  0  0  0
  6 30  2  0  0  0  0
  7 31  2  0  0  0  0
  8 11  1  0  0  0  0
  8 15  1  0  0  0  0
  8 20  1  0  0  0  0
  9 11  1  0  0  0  0
  9 12  1  0  0  0  0
  9 13  1  0  0  0  0
  9 19  1  0  0  0  0
 10 12  1  0  0  0  0
 10 14  1  0  0  0  0
 10 17  1  0  0  0  0
 10 23  1  0  0  0  0
 11 14  1  0  0  0  0
 11 35  1  0  0  0  0
 12 18  1  0  0  0  0
 12 36  1  0  0  0  0
 13 15  1  0  0  0  0
 13 16  1  0  0  0  0
 13 37  1  0  0  0  0
 14 21  1  0  0  0  0
 15 17  1  0  0  0  0
 15 38  1  0  0  0  0
 16 20  1  0  0  0  0
 16 24  1  0  0  0  0
 16 27  1  0  0  0  0
 17 39  1  0  0  0  0
 17 40  1  0  0  0  0
 18 22  1  0  0  0  0
 18 41  1  0  0  0  0
 19 25  1  0  0  0  0
 19 42  1  0  0  0  0
 19 43  1  0  0  0  0
 20 44  1  0  0  0  0
 20 45  1  0  0  0  0
 21 22  1  0  0  0  0
 21 46  1  0  0  0  0
 22 26  1  0  0  0  0
 22 47  1  0  0  0  0
 23 26  1  0  0  0  0
 23 48  1  0  0  0  0
 23 49  1  0  0  0  0
 24 25  1  0  0  0  0
 24 50  1  0  0  0  0
 24 51  1  0  0  0  0
 25 52  1  0  0  0  0
 26 28  2  0  0  0  0
 27 53  1  0  0  0  0
 27 54  1  0  0  0  0
 27 55  1  0  0  0  0
 28 57  1  0  0  0  0
 28 58  1  0  0  0  0
 29 32  1  0  0  0  0
 30 33  1  0  0  0  0
 31 34  1  0  0  0  0
 32 59  1  0  0  0  0
 32 60  1  0  0  0  0
 32 61  1  0  0  0  0
 33 62  1  0  0  0  0
 33 63  1  0  0  0  0
 33 64  1  0  0  0  0
 34 65  1  0  0  0  0
 34 66  1  0  0  0  0
 34 67  1  0  0  0  0
M  END
> <PUBCHEM_COMPOUND_CID>
139600358

> <PUBCHEM_CONFORMER_RMSD>
1

> <PUBCHEM_CONFORMER_DIVERSEORDER>
1
2

> <PUBCHEM_MMFF94_PARTIAL_CHARGES>
28
1 -0.68
11 0.27
14 0.28
15 0.27
18 0.28
2 -0.43
20 0.27
21 0.28
22 0.14
23 0.14
25 0.28
26 -0.28
28 -0.3
29 0.66
3 -0.43
30 0.66
31 0.66
32 0.06
33 0.06
34 0.06
4 -0.43
5 -0.57
56 0.4
57 0.15
58 0.15
6 -0.57
7 -0.57
8 -0.81

> <PUBCHEM_EFFECTIVE_ROTOR_COUNT>
7.6

> <PUBCHEM_PHARMACOPHORE_FEATURES>
11
1 1 acceptor
1 1 donor
1 5 acceptor
1 6 acceptor
1 7 acceptor
1 8 cation
6 9 13 16 19 24 25 rings
7 8 9 11 13 15 16 20 rings
7 9 11 12 14 18 21 22 rings
8 10 12 14 18 21 22 23 26 rings
9 8 9 10 11 12 13 14 15 17 rings

> <PUBCHEM_HEAVY_ATOM_COUNT>
34

> <PUBCHEM_ATOM_DEF_STEREO_COUNT>
10

> <PUBCHEM_ATOM_UDEF_STEREO_COUNT>
2

> <PUBCHEM_BOND_DEF_STEREO_COUNT>
0

> <PUBCHEM_BOND_UDEF_STEREO_COUNT>
0

> <PUBCHEM_ISOTOPIC_ATOM_COUNT>
0

> <PUBCHEM_COMPONENT_COUNT>
1

> <PUBCHEM_CACTVS_TAUTO_COUNT>
-1

> <PUBCHEM_CONFORMER_ID>
085221E600000001

> <PUBCHEM_MMFF94_ENERGY>
150.3286

> <PUBCHEM_FEATURE_SELFOVERLAP>
61.731

> <PUBCHEM_SHAPE_FINGERPRINT>
10165383 225 18051714156561413001
10863032 1 17751097983327435386
11578080 2 18339345388996492448
12107698 1 17096947783978454701
12156800 1 18262785367514699548
12403259 226 18341887489833782179
12788726 201 18263381273115367877
13583140 156 18198320910636289051
14400156 162 13263224675966158820
15238133 3 18129398019969702315
16945 1 18339633572495867675
17876694 64 17025679729425522057
1813 80 14403257614444268692
19315092 285 15647882881422625465
20691752 17 18196358432883814763
20764821 26 18269827645017064201
21033648 29 18049702054244974840
229495 10 17829931717171187427
23419403 2 16762299634901461570
23559900 14 18260823778899440355
3493558 16 18117840998016973228
350125 39 18410573942534269787
35225 105 16599772840712856928
5081480 168 16127557949922719320
9981440 41 16811547809019062260

> <PUBCHEM_SHAPE_MULTIPOLES>
653.64
6.73
4.14
3
0.78
2.62
-0.17
-0.13
1.16
1.55
0.27
-3.71
2.99
0.63

> <PUBCHEM_SHAPE_SELFOVERLAP>
1471.057

> <PUBCHEM_SHAPE_VOLUME>
344.4

> <PUBCHEM_COORDINATE_TYPE>
2
5
10

$$$$
