REMARK  Name = 13965876
REMARK  7 active torsions:
REMARK  status: ('A' for Active; 'I' for Inactive)
REMARK    1  A    between atoms: C_5  and  C_16
REMARK    2  A    between atoms: C_6  and  C_30
REMARK    3  A    between atoms: C_10  and  O_28
REMARK    4  A    between atoms: C_19  and  O_22
REMARK    5  A    between atoms: C_20  and  O_24
REMARK    6  A    between atoms: C_21  and  O_26
REMARK    7  A    between atoms: C_30  and  O_31
REMARK                            x       y       z     vdW  Elec       q    Type
REMARK                         _______ _______ _______ _____ _____    ______ ____
ROOT
ATOM      1  O   UNL     1       0.434   0.456   0.201  0.00  0.00    -0.465 OA
ATOM      2  O   UNL     1       1.147  -2.329   0.293  0.00  0.00    -0.466 OA
ATOM      3  O   UNL     1       2.376   2.339   0.018  0.00  0.00    -0.418 OA
ATOM      4  O   UNL     1       3.006   4.536  -0.138  0.00  0.00    -0.244 OA
ATOM      5  C   UNL     1      -0.489  -0.563   0.622  0.00  0.00    +0.231 C 
ATOM      6  C   UNL     1      -0.167  -1.887  -0.090  0.00  0.00    +0.239 C 
ATOM      7  C   UNL     1       1.730   0.023   0.180  0.00  0.00    +0.210 C 
ATOM      8  C   UNL     1       2.076  -1.326   0.235  0.00  0.00    +0.209 C 
ATOM      9  C   UNL     1       2.743   0.978   0.091  0.00  0.00    +0.186 C 
ATOM     10  C   UNL     1       3.420  -1.706   0.244  0.00  0.00    +0.176 C 
ATOM     11  C   UNL     1       4.088   0.615   0.084  0.00  0.00    +0.041 C 
ATOM     12  C   UNL     1       4.425  -0.738   0.167  0.00  0.00    +0.043 C 
ATOM     13  C   UNL     1       5.098   1.656  -0.003  0.00  0.00    +0.010 C 
ATOM     14  C   UNL     1       4.739   2.940  -0.075  0.00  0.00    +0.082 C 
ATOM     15  C   UNL     1       3.324   3.354  -0.070  0.00  0.00    +0.346 C 
ENDROOT
BRANCH   5  16
ATOM     16  C   UNL     1      -1.879  -0.038   0.337  0.00  0.00    +0.027 C 
ATOM     17  C   UNL     1      -2.760   0.208   1.390  0.00  0.00    +0.040 C 
ATOM     18  C   UNL     1      -2.279   0.198  -0.978  0.00  0.00    +0.040 C 
ATOM     19  C   UNL     1      -3.561   0.681  -1.240  0.00  0.00    +0.175 C 
ATOM     20  C   UNL     1      -4.042   0.692   1.127  0.00  0.00    +0.175 C 
ATOM     21  C   UNL     1      -4.442   0.928  -0.188  0.00  0.00    +0.202 C 
BRANCH  19  22
ATOM     22  O   UNL     1      -3.940   0.908  -2.530  0.00  0.00    -0.468 OA
ATOM     23  C   UNL     1      -4.552  -0.177  -3.225  0.00  0.00    +0.253 C 
ENDBRANCH  19  22
BRANCH  20  24
ATOM     24  O   UNL     1      -4.893   0.930   2.164  0.00  0.00    -0.468 OA
ATOM     25  C   UNL     1      -5.731  -0.148   2.575  0.00  0.00    +0.253 C 
ENDBRANCH  20  24
BRANCH  21  26
ATOM     26  O   UNL     1      -5.695   1.403  -0.444  0.00  0.00    -0.501 OA
ATOM     27  H   UNL     1      -5.964   1.562  -1.327  0.00  0.00    +0.292 HD
ENDBRANCH  21  26
ENDBRANCH   5  16
BRANCH  10  28
ATOM     28  O   UNL     1       3.771  -3.022   0.316  0.00  0.00    -0.468 OA
ATOM     29  C   UNL     1       3.926  -3.718  -0.918  0.00  0.00    +0.253 C 
ENDBRANCH  10  28
BRANCH   6  30
ATOM     30  C   UNL     1      -1.125  -3.014   0.284  0.00  0.00    +0.185 C 
BRANCH  30  31
ATOM     31  O   UNL     1      -0.751  -4.178  -0.429  0.00  0.00    -0.378 OA
ATOM     32  H   UNL     1      -1.353  -4.904  -0.201  0.00  0.00    +0.211 HD
ENDBRANCH  30  31
ENDBRANCH   6  30
TORSDOF 7
