REMARK  Name = 13970369
REMARK  4 active torsions:
REMARK  status: ('A' for Active; 'I' for Inactive)
REMARK    1  A    between atoms: C_10  and  O_24
REMARK    2  A    between atoms: C_14  and  O_26
REMARK    3  A    between atoms: C_18  and  O_28
REMARK    4  A    between atoms: C_19  and  C_21
REMARK                            x       y       z     vdW  Elec       q    Type
REMARK                         _______ _______ _______ _____ _____    ______ ____
ROOT
ATOM      1  O   UNL     1       3.121  -1.525   1.202  0.00  0.00    -0.330 OA
ATOM      2  O   UNL     1      -0.808  -2.547  -0.421  0.00  0.00    -0.284 OA
ATOM      3  O   UNL     1      -3.363  -2.136  -0.081  0.00  0.00    -0.283 OA
ATOM      4  C   UNL     1       1.297  -0.505  -0.192  0.00  0.00    +0.074 C 
ATOM      5  C   UNL     1       2.120   0.826  -0.260  0.00  0.00    +0.014 C 
ATOM      6  C   UNL     1       3.627   0.508  -0.083  0.00  0.00    +0.028 C 
ATOM      7  C   UNL     1       1.698  -1.256  -1.509  0.00  0.00    +0.009 C 
ATOM      8  C   UNL     1       4.074  -0.305  -1.330  0.00  0.00    +0.002 C 
ATOM      9  C   UNL     1       1.563   1.911   0.666  0.00  0.00    +0.034 C 
ATOM     10  C   UNL     1       1.709  -1.385   1.045  0.00  0.00    +0.235 C 
ATOM     11  C   UNL     1       3.201  -1.515  -1.661  0.00  0.00    +0.001 C 
ATOM     12  C   UNL     1      -0.219  -0.228  -0.151  0.00  0.00    +0.025 C 
ATOM     13  C   UNL     1       3.834  -0.298   1.212  0.00  0.00    +0.145 C 
ATOM     14  C   UNL     1       0.104   2.210   0.315  0.00  0.00    +0.135 C 
ATOM     15  C   UNL     1       4.496   1.777  -0.015  0.00  0.00    +0.003 C 
ATOM     16  C   UNL     1      -0.764   0.997   0.038  0.00  0.00    +0.037 C 
ATOM     17  C   UNL     1      -1.157  -1.388  -0.252  0.00  0.00    +0.230 C 
ATOM     18  C   UNL     1      -2.218   1.215   0.043  0.00  0.00    +0.131 C 
ATOM     19  C   UNL     1      -3.123   0.227   0.000  0.00  0.00    +0.053 C 
ATOM     20  C   UNL     1      -2.628  -1.159  -0.101  0.00  0.00    +0.233 C 
ENDROOT
BRANCH  19  21
ATOM     21  C   UNL     1      -4.611   0.409   0.025  0.00  0.00    +0.029 C 
ATOM     22  C   UNL     1      -5.234  -0.136  -1.257  0.00  0.00    +0.005 C 
ATOM     23  C   UNL     1      -5.220  -0.263   1.254  0.00  0.00    +0.005 C 
ENDBRANCH  19  21
BRANCH  10  24
ATOM     24  O   UNL     1       1.097  -1.005   2.276  0.00  0.00    -0.360 OA
ATOM     25  H   UNL     1       1.403  -1.594   2.984  0.00  0.00    +0.213 HD
ENDBRANCH  10  24
BRANCH  14  26
ATOM     26  O   UNL     1       0.072   3.043  -0.848  0.00  0.00    -0.380 OA
ATOM     27  H   UNL     1       0.620   3.829  -0.698  0.00  0.00    +0.211 HD
ENDBRANCH  14  26
BRANCH  18  28
ATOM     28  O   UNL     1      -2.668   2.528   0.086  0.00  0.00    -0.506 OA
ATOM     29  H   UNL     1      -2.053   3.233   0.117  0.00  0.00    +0.292 HD
ENDBRANCH  18  28
TORSDOF 4
