REMARK  Name = 13989137
REMARK  3 active torsions:
REMARK  status: ('A' for Active; 'I' for Inactive)
REMARK    1  A    between atoms: C_8  and  C_21
REMARK    2  A    between atoms: C_15  and  O_19
REMARK    3  A    between atoms: C_21  and  O_22
REMARK                            x       y       z     vdW  Elec       q    Type
REMARK                         _______ _______ _______ _____ _____    ______ ____
ROOT
ATOM      1  S   UNL     1      -0.779  -1.636  -2.057  0.00  0.00    -0.053 S 
ATOM      2  S   UNL     1      -2.281  -0.225  -2.110  0.00  0.00    -0.052 S 
ATOM      3  O   UNL     1      -1.340  -2.676   1.244  0.00  0.00    -0.272 OA
ATOM      4  O   UNL     1      -0.552   2.296  -0.349  0.00  0.00    -0.272 OA
ATOM      5  N   UNL     1       0.220   0.083  -0.182  0.00  0.00    -0.240 N 
ATOM      6  N   UNL     1      -2.231  -0.602   0.607  0.00  0.00    -0.261 N 
ATOM      7  C   UNL     1      -0.125  -1.339  -0.369  0.00  0.00    +0.186 C 
ATOM      8  C   UNL     1      -2.146   0.481  -0.407  0.00  0.00    +0.206 C 
ATOM      9  C   UNL     1       1.171  -2.140  -0.109  0.00  0.00    +0.066 C 
ATOM     10  C   UNL     1      -1.256  -1.623   0.617  0.00  0.00    +0.254 C 
ATOM     11  C   UNL     1      -0.737   1.086  -0.274  0.00  0.00    +0.259 C 
ATOM     12  C   UNL     1       1.602   0.217  -0.009  0.00  0.00    +0.085 C 
ATOM     13  C   UNL     1       2.194  -1.047   0.018  0.00  0.00    -0.002 C 
ATOM     14  C   UNL     1      -3.313  -0.611   1.584  0.00  0.00    +0.116 C 
ATOM     15  C   UNL     1       2.360   1.368   0.131  0.00  0.00    +0.147 C 
ATOM     16  C   UNL     1       3.562  -1.191   0.183  0.00  0.00    -0.003 C 
ATOM     17  C   UNL     1       3.741   1.230   0.292  0.00  0.00    +0.038 C 
ATOM     18  C   UNL     1       4.339  -0.039   0.316  0.00  0.00    +0.003 C 
ENDROOT
BRANCH  15  19
ATOM     19  O   UNL     1       1.863   2.628   0.138  0.00  0.00    -0.504 OA
ATOM     20  H   UNL     1       0.942   2.769   0.034  0.00  0.00    +0.292 HD
ENDBRANCH  15  19
BRANCH   8  21
ATOM     21  C   UNL     1      -3.213   1.574  -0.271  0.00  0.00    +0.176 C 
BRANCH  21  22
ATOM     22  O   UNL     1      -3.080   2.165   1.006  0.00  0.00    -0.379 OA
ATOM     23  H   UNL     1      -3.748   2.861   1.111  0.00  0.00    +0.211 HD
ENDBRANCH  21  22
ENDBRANCH   8  21
TORSDOF 3
