REMARK  Name = 13988994
REMARK  4 active torsions:
REMARK  status: ('A' for Active; 'I' for Inactive)
REMARK    1  A    between atoms: N_3  and  C_13
REMARK    2  A    between atoms: C_12  and  C_17
REMARK    3  A    between atoms: C_15  and  C_18
REMARK    4  A    between atoms: C_18  and  O_19
REMARK                            x       y       z     vdW  Elec       q    Type
REMARK                         _______ _______ _______ _____ _____    ______ ____
ROOT
ATOM      1  O   UNL     1       1.664  -2.342   1.432  0.00  0.00    -0.252 OA
ATOM      2  O   UNL     1       4.720   0.407  -0.631  0.00  0.00    -0.270 OA
ATOM      3  N   UNL     1       0.874  -0.397   0.409  0.00  0.00    -0.219 N 
ATOM      4  N   UNL     1       3.178  -0.961   0.400  0.00  0.00    -0.236 N 
ATOM      5  C   UNL     1       1.202   0.746  -0.309  0.00  0.00    +0.071 C 
ATOM      6  C   UNL     1       1.881  -1.309   0.795  0.00  0.00    +0.315 C 
ATOM      7  C   UNL     1       2.443   1.075  -0.686  0.00  0.00    +0.047 C 
ATOM      8  C   UNL     1       3.558   0.163  -0.316  0.00  0.00    +0.250 C 
ATOM      9  C   UNL     1       2.773   2.312  -1.459  0.00  0.00    +0.037 C 
ATOM     10  H   UNL     1       3.897  -1.582   0.658  0.00  0.00    +0.159 HD
ENDROOT
BRANCH   3  13
ATOM     11  O   UNL     1      -1.155   0.634   0.959  0.00  0.00    -0.336 OA
ATOM     12  C   UNL     1      -2.677  -0.820  -0.137  0.00  0.00    +0.125 C 
ATOM     13  C   UNL     1      -0.501  -0.624   0.744  0.00  0.00    +0.200 C 
ATOM     14  C   UNL     1      -1.271  -1.341  -0.350  0.00  0.00    +0.069 C 
ATOM     15  C   UNL     1      -2.402   0.633   0.240  0.00  0.00    +0.160 C 
BRANCH  12  17
ATOM     16  N   UNL     1      -4.177  -1.060  -2.277  0.00  0.00    -0.196 NA
ATOM     17  C   UNL     1      -3.514  -0.954  -1.331  0.00  0.00    +0.075 C 
ENDBRANCH  12  17
BRANCH  15  18
ATOM     18  C   UNL     1      -3.482   1.251   1.112  0.00  0.00    +0.168 C 
BRANCH  18  19
ATOM     19  O   UNL     1      -3.116   2.587   1.405  0.00  0.00    -0.379 OA
ATOM     20  H   UNL     1      -3.797   2.994   1.962  0.00  0.00    +0.211 HD
ENDBRANCH  18  19
ENDBRANCH  15  18
ENDBRANCH   3  13
TORSDOF 4
