REMARK  Name = 13987106
REMARK  16 active torsions:
REMARK  status: ('A' for Active; 'I' for Inactive)
REMARK    1  A    between atoms: C_1  and  C_8
REMARK    2  A    between atoms: C_1  and  O_17
REMARK    3  A    between atoms: C_1  and  C_32
REMARK    4  A    between atoms: C_4  and  C_14
REMARK    5  A    between atoms: C_14  and  O_15
REMARK    6  A    between atoms: O_17  and  P_18
REMARK    7  A    between atoms: P_18  and  O_20
REMARK    8  A    between atoms: P_18  and  C_22
REMARK    9  A    between atoms: C_22  and  C_23
REMARK   10  A    between atoms: C_23  and  C_24
REMARK   11  A    between atoms: C_24  and  C_25
REMARK   12  A    between atoms: C_25  and  C_26
REMARK   13  A    between atoms: C_32  and  C_33
REMARK   14  A    between atoms: C_33  and  C_34
REMARK   15  A    between atoms: C_34  and  C_35
REMARK   16  A    between atoms: C_35  and  N_36
REMARK                            x       y       z     vdW  Elec       q    Type
REMARK                         _______ _______ _______ _____ _____    ______ ____
ROOT
ATOM      1  C   UNL     1      -1.728   0.220   0.435  0.00  0.00    +0.200 C 
ENDROOT
BRANCH   1   8
ATOM      2  O   UNL     1      -0.967  -0.704  -1.606  0.00  0.00    -0.272 OA
ATOM      3  N   UNL     1      -0.129  -1.637   0.361  0.00  0.00    -0.248 N 
ATOM      4  C   UNL     1      -0.028  -1.717   1.838  0.00  0.00    +0.183 C 
ATOM      5  C   UNL     1       0.605  -3.076   2.174  0.00  0.00    +0.059 C 
ATOM      6  C   UNL     1       0.665  -2.674  -0.184  0.00  0.00    +0.050 C 
ATOM      7  C   UNL     1       1.139  -3.499   0.840  0.00  0.00    -0.006 C 
ATOM      8  C   UNL     1      -0.902  -0.749  -0.377  0.00  0.00    +0.257 C 
ATOM      9  C   UNL     1       0.988  -2.936  -1.507  0.00  0.00    +0.015 C 
ATOM     10  C   UNL     1       1.941  -4.597   0.571  0.00  0.00    -0.003 C 
ATOM     11  C   UNL     1       1.804  -4.037  -1.787  0.00  0.00    +0.001 C 
ATOM     12  C   UNL     1       2.278  -4.861  -0.757  0.00  0.00    -0.000 C 
BRANCH   4  14
ATOM     13  O   UNL     1       1.797  -0.142   1.616  0.00  0.00    -0.248 OA
ATOM     14  C   UNL     1       0.885  -0.610   2.282  0.00  0.00    +0.333 C 
BRANCH  14  15
ATOM     15  O   UNL     1       0.563  -0.196   3.532  0.00  0.00    -0.479 OA
ATOM     16  H   UNL     1      -0.149  -0.598   3.989  0.00  0.00    +0.295 HD
ENDBRANCH  14  15
ENDBRANCH   4  14
ENDBRANCH   1   8
BRANCH   1  17
ATOM     17  O   UNL     1      -1.805   1.396  -0.343  0.00  0.00    -0.287 OA
BRANCH  17  18
ATOM     18  P   UNL     1      -2.177   2.821   0.330  0.00  0.00    +0.340 P 
ATOM     19  O   UNL     1      -3.341   2.775   1.276  0.00  0.00    -0.258 OA
BRANCH  18  20
ATOM     20  O   UNL     1      -2.389   3.813  -0.929  0.00  0.00    -0.323 OA
ATOM     21  H   UNL     1      -3.199   3.567  -1.402  0.00  0.00    +0.220 HD
ENDBRANCH  18  20
BRANCH  18  22
ATOM     22  C   UNL     1      -0.669   3.405   1.078  0.00  0.00    +0.116 C 
BRANCH  22  23
ATOM     23  C   UNL     1       0.511   3.450   0.115  0.00  0.00    +0.013 C 
BRANCH  23  24
ATOM     24  C   UNL     1       1.785   3.966   0.791  0.00  0.00    +0.005 C 
BRANCH  24  25
ATOM     25  C   UNL     1       2.991   3.999  -0.154  0.00  0.00    +0.026 C 
BRANCH  25  26
ATOM     26  C   UNL     1       3.408   2.640  -0.658  0.00  0.00    -0.022 C 
ATOM     27  C   UNL     1       4.343   1.889   0.053  0.00  0.00    -0.004 C 
ATOM     28  C   UNL     1       2.856   2.134  -1.835  0.00  0.00    -0.004 C 
ATOM     29  C   UNL     1       4.728   0.632  -0.413  0.00  0.00    -0.000 C 
ATOM     30  C   UNL     1       3.241   0.876  -2.301  0.00  0.00    -0.000 C 
ATOM     31  C   UNL     1       4.177   0.126  -1.589  0.00  0.00    -0.000 C 
ENDBRANCH  25  26
ENDBRANCH  24  25
ENDBRANCH  23  24
ENDBRANCH  22  23
ENDBRANCH  18  22
ENDBRANCH  17  18
ENDBRANCH   1  17
BRANCH   1  32
ATOM     32  C   UNL     1      -3.114  -0.357   0.677  0.00  0.00    +0.039 C 
BRANCH  32  33
ATOM     33  C   UNL     1      -4.022  -0.156  -0.540  0.00  0.00    +0.001 C 
BRANCH  33  34
ATOM     34  C   UNL     1      -5.426  -0.708  -0.283  0.00  0.00    -0.024 C 
BRANCH  34  35
ATOM     35  C   UNL     1      -6.340  -0.473  -1.484  0.00  0.00    -0.086 C 
BRANCH  35  36
ATOM     36  N   UNL     1      -7.670  -1.012  -1.222  0.00  0.00    +0.380 N 
ATOM     37  H   UNL     1      -8.268  -0.849  -2.031  0.00  0.00    -0.089 HD
ATOM     38  H   UNL     1      -8.069  -0.551  -0.405  0.00  0.00    -0.089 HD
ATOM     39  H   UNL     1      -7.601  -2.015  -1.047  0.00  0.00    -0.089 HD
ENDBRANCH  35  36
ENDBRANCH  34  35
ENDBRANCH  33  34
ENDBRANCH  32  33
ENDBRANCH   1  32
TORSDOF 16
