13988994
  -OEChem-03292013303D

 31 32  0     1  0  0  0  0  0999 V2000
   -1.1548    0.6343    0.9594 O   0  0  0  0  0  0  0  0  0  0  0  0
   -3.1158    2.5869    1.4051 O   0  0  0  0  0  0  0  0  0  0  0  0
    1.6642   -2.3416    1.4317 O   0  0  0  0  0  0  0  0  0  0  0  0
    4.7203    0.4069   -0.6312 O   0  0  0  0  0  0  0  0  0  0  0  0
    0.8742   -0.3974    0.4088 N   0  0  0  0  0  0  0  0  0  0  0  0
    3.1777   -0.9614    0.3997 N   0  0  0  0  0  0  0  0  0  0  0  0
   -4.1769   -1.0600   -2.2775 N   0  0  0  0  0  0  0  0  0  0  0  0
   -2.6771   -0.8201   -0.1366 C   0  0  1  0  0  0  0  0  0  0  0  0
   -0.5010   -0.6240    0.7444 C   0  0  2  0  0  0  0  0  0  0  0  0
   -1.2707   -1.3407   -0.3501 C   0  0  0  0  0  0  0  0  0  0  0  0
   -2.4020    0.6327    0.2402 C   0  0  1  0  0  0  0  0  0  0  0  0
   -3.4820    1.2507    1.1124 C   0  0  0  0  0  0  0  0  0  0  0  0
    1.2016    0.7461   -0.3093 C   0  0  0  0  0  0  0  0  0  0  0  0
   -3.5139   -0.9540   -1.3312 C   0  0  0  0  0  0  0  0  0  0  0  0
    1.8810   -1.3087    0.7946 C   0  0  0  0  0  0  0  0  0  0  0  0
    2.4435    1.0753   -0.6856 C   0  0  0  0  0  0  0  0  0  0  0  0
    3.5585    0.1634   -0.3161 C   0  0  0  0  0  0  0  0  0  0  0  0
    2.7732    2.3117   -1.4587 C   0  0  0  0  0  0  0  0  0  0  0  0
   -0.5659   -1.1892    1.6820 H   0  0  0  0  0  0  0  0  0  0  0  0
   -3.1316   -1.3550    0.7072 H   0  0  0  0  0  0  0  0  0  0  0  0
   -1.1940   -2.4302   -0.2700 H   0  0  0  0  0  0  0  0  0  0  0  0
   -0.8982   -1.0655   -1.3463 H   0  0  0  0  0  0  0  0  0  0  0  0
   -2.2442    1.2599   -0.6473 H   0  0  0  0  0  0  0  0  0  0  0  0
   -3.5855    0.7173    2.0631 H   0  0  0  0  0  0  0  0  0  0  0  0
   -4.4504    1.2600    0.6043 H   0  0  0  0  0  0  0  0  0  0  0  0
    0.3816    1.3962   -0.5953 H   0  0  0  0  0  0  0  0  0  0  0  0
    3.9190   -1.6034    0.6664 H   0  0  0  0  0  0  0  0  0  0  0  0
   -2.2523    2.5641    1.8521 H   0  0  0  0  0  0  0  0  0  0  0  0
    3.4665    2.9427   -0.8931 H   0  0  0  0  0  0  0  0  0  0  0  0
    1.8815    2.9093   -1.6756 H   0  0  0  0  0  0  0  0  0  0  0  0
    3.2398    2.0519   -2.4145 H   0  0  0  0  0  0  0  0  0  0  0  0
  1  9  1  0  0  0  0
  1 11  1  0  0  0  0
  2 12  1  0  0  0  0
  2 28  1  0  0  0  0
  3 15  2  0  0  0  0
  4 17  2  0  0  0  0
  5  9  1  0  0  0  0
  5 13  1  0  0  0  0
  5 15  1  0  0  0  0
  6 15  1  0  0  0  0
  6 17  1  0  0  0  0
  6 27  1  0  0  0  0
  7 14  3  0  0  0  0
  8 10  1  0  0  0  0
  8 11  1  0  0  0  0
  8 14  1  0  0  0  0
  8 20  1  0  0  0  0
  9 10  1  0  0  0  0
  9 19  1  0  0  0  0
 10 21  1  0  0  0  0
 10 22  1  0  0  0  0
 11 12  1  0  0  0  0
 11 23  1  0  0  0  0
 12 24  1  0  0  0  0
 12 25  1  0  0  0  0
 13 16  2  0  0  0  0
 13 26  1  0  0  0  0
 16 17  1  0  0  0  0
 16 18  1  0  0  0  0
 18 29  1  0  0  0  0
 18 30  1  0  0  0  0
 18 31  1  0  0  0  0
M  END
> <PUBCHEM_COMPOUND_CID>
13988994

> <PUBCHEM_CONFORMER_RMSD>
0.6

> <PUBCHEM_CONFORMER_DIVERSEORDER>
1
11
7
4
17
16
8
14
12
10
13
5
9
15
2
3
6

> <PUBCHEM_MMFF94_PARTIAL_CHARGES>
20
1 -0.56
11 0.28
12 0.28
13 -0.04
14 0.36
15 0.69
16 -0.12
17 0.62
18 0.14
2 -0.68
26 0.15
27 0.37
28 0.4
3 -0.57
4 -0.57
5 -0.47
6 -0.49
7 -0.56
8 0.2
9 0.58

> <PUBCHEM_EFFECTIVE_ROTOR_COUNT>
3

> <PUBCHEM_PHARMACOPHORE_FEATURES>
9
1 1 acceptor
1 2 acceptor
1 2 donor
1 3 acceptor
1 4 acceptor
1 6 donor
1 7 acceptor
5 1 8 9 10 11 rings
6 5 6 13 15 16 17 rings

> <PUBCHEM_HEAVY_ATOM_COUNT>
18

> <PUBCHEM_ATOM_DEF_STEREO_COUNT>
3

> <PUBCHEM_ATOM_UDEF_STEREO_COUNT>
0

> <PUBCHEM_BOND_DEF_STEREO_COUNT>
0

> <PUBCHEM_BOND_UDEF_STEREO_COUNT>
0

> <PUBCHEM_ISOTOPIC_ATOM_COUNT>
0

> <PUBCHEM_COMPONENT_COUNT>
1

> <PUBCHEM_CACTVS_TAUTO_COUNT>
3

> <PUBCHEM_CONFORMER_ID>
00D5748200000001

> <PUBCHEM_MMFF94_ENERGY>
37.3438

> <PUBCHEM_FEATURE_SELFOVERLAP>
45.677

> <PUBCHEM_SHAPE_FINGERPRINT>
10062212 137 18343582902208635395
11471102 20 17895184511518652086
11543360 7 17561085855966927900
11578080 2 17980720975167101264
11640471 11 18269009612686962929
11796584 16 16629978607577522398
12202030 40 15554456218494826815
12236239 1 18412546500696046859
12553582 1 17536868880327061506
13583140 156 15791727550688014696
15669948 3 18131348571093451611
15775835 57 18338528460035208040
15842332 3 18339914901538428051
16752209 62 17917700306358556207
16945 1 17967813825553553954
18186145 218 18041287659487838292
18219364 16 17240486930876605581
192875 21 18340481282970258716
200 152 18411129273168215695
20449540 30 18041844059674441207
20645477 70 17459175331244597962
20871999 31 17561362894131561037
21639500 275 18040432226324411494
22620623 9 16773788196087997597
231179 274 17022893580072057686
23402539 116 18202002139821391116
23557571 272 16917348151496334825
23559900 14 16916791713383376886
23598291 2 18267297642843683971
25 1 17894638054181508234
2748010 2 17679602287455359050
3060560 45 18114452444750798606
3082319 5 18413102870749131663
474 4 18113909281336916560
57096353 35 18340767134407562407
603831 33 18342728646214524383
6049 1 16226057639098839019
633830 44 18262540142361828908
7615 1 18339350890669652953
77492 1 18411979135315986739
7832392 63 18338526218209992024
8030462 33 18340759420899649179
84936 182 18267873955026172736
88987 49 17632007547024144561
9981440 41 17546444944074273424

> <PUBCHEM_SHAPE_MULTIPOLES>
332.01
7.89
2.15
1.52
0.55
0.6
-0.46
1.37
-2.52
0.2
0.48
-1.57
0.08
-2.66

> <PUBCHEM_SHAPE_SELFOVERLAP>
696.007

> <PUBCHEM_SHAPE_VOLUME>
186

> <PUBCHEM_COORDINATE_TYPE>
2
5
10

$$$$
