REMARK  Name = 13995429
REMARK  5 active torsions:
REMARK  status: ('A' for Active; 'I' for Inactive)
REMARK    1  A    between atoms: C_6  and  C_24
REMARK    2  A    between atoms: C_10  and  O_20
REMARK    3  A    between atoms: C_13  and  O_18
REMARK    4  A    between atoms: O_20  and  C_22
REMARK    5  A    between atoms: C_24  and  O_25
REMARK                            x       y       z     vdW  Elec       q    Type
REMARK                         _______ _______ _______ _____ _____    ______ ____
ROOT
ATOM      1  O   UNL     1      -0.400   2.309  -1.788  0.00  0.00    -0.351 OA
ATOM      2  O   UNL     1       0.335  -0.618  -1.624  0.00  0.00    -0.348 OA
ATOM      3  O   UNL     1      -4.283  -0.459   0.297  0.00  0.00    -0.289 OA
ATOM      4  C   UNL     1       0.383   1.341   0.440  0.00  0.00    +0.039 C 
ATOM      5  C   UNL     1       0.603   1.657  -1.023  0.00  0.00    +0.148 C 
ATOM      6  C   UNL     1      -0.702   0.160   0.536  0.00  0.00    +0.090 C 
ATOM      7  C   UNL     1       1.275   0.461  -1.590  0.00  0.00    +0.182 C 
ATOM      8  C   UNL     1       1.825   0.782   0.775  0.00  0.00    +0.049 C 
ATOM      9  C   UNL     1       0.828   3.035  -1.605  0.00  0.00    +0.172 C 
ATOM     10  C   UNL     1       2.408   0.272  -0.567  0.00  0.00    +0.198 C 
ATOM     11  C   UNL     1      -0.215  -1.033  -0.362  0.00  0.00    +0.142 C 
ATOM     12  C   UNL     1       0.089   2.565   1.310  0.00  0.00    +0.003 C 
ATOM     13  C   UNL     1      -2.119   0.579   0.035  0.00  0.00    +0.176 C 
ATOM     14  C   UNL     1      -1.275  -2.051  -0.684  0.00  0.00    +0.002 C 
ATOM     15  C   UNL     1      -3.100  -0.588  -0.015  0.00  0.00    +0.196 C 
ATOM     16  C   UNL     1      -2.596  -1.898  -0.515  0.00  0.00    +0.013 C 
ATOM     17  C   UNL     1      -3.597  -2.970  -0.804  0.00  0.00    +0.034 C 
ENDROOT
BRANCH  13  18
ATOM     18  O   UNL     1      -2.708   1.607   0.812  0.00  0.00    -0.377 OA
ATOM     19  H   UNL     1      -2.102   2.363   0.860  0.00  0.00    +0.211 HD
ENDBRANCH  13  18
BRANCH  10  20
ATOM     20  O   UNL     1       2.875  -1.058  -0.481  0.00  0.00    -0.450 OA
BRANCH  20  22
ATOM     21  O   UNL     1       4.354  -0.460   1.190  0.00  0.00    -0.250 OA
ATOM     22  C   UNL     1       3.858  -1.295   0.446  0.00  0.00    +0.318 C 
ATOM     23  C   UNL     1       4.252  -2.740   0.426  0.00  0.00    +0.121 C 
ENDBRANCH  20  22
ENDBRANCH  10  20
BRANCH   6  24
ATOM     24  C   UNL     1      -0.831  -0.345   2.005  0.00  0.00    +0.143 C 
BRANCH  24  25
ATOM     25  O   UNL     1      -1.257   0.744   2.785  0.00  0.00    -0.382 OA
ATOM     26  H   UNL     1      -1.348   0.464   3.709  0.00  0.00    +0.210 HD
ENDBRANCH  24  25
ENDBRANCH   6  24
TORSDOF 5
