13995429
  -OEChem-03292013293D

 46 49  0     1  0  0  0  0  0999 V2000
   -0.3998    2.3089   -1.7881 O   0  0  0  0  0  0  0  0  0  0  0  0
    0.3350   -0.6175   -1.6243 O   0  0  0  0  0  0  0  0  0  0  0  0
    2.8747   -1.0575   -0.4808 O   0  0  0  0  0  0  0  0  0  0  0  0
   -2.7078    1.6071    0.8121 O   0  0  0  0  0  0  0  0  0  0  0  0
   -1.2567    0.7441    2.7851 O   0  0  0  0  0  0  0  0  0  0  0  0
   -4.2832   -0.4587    0.2975 O   0  0  0  0  0  0  0  0  0  0  0  0
    4.3536   -0.4597    1.1905 O   0  0  0  0  0  0  0  0  0  0  0  0
    0.3826    1.3410    0.4400 C   0  0  1  0  0  0  0  0  0  0  0  0
    0.6025    1.6567   -1.0231 C   0  0  1  0  0  0  0  0  0  0  0  0
   -0.7018    0.1599    0.5361 C   0  0  2  0  0  0  0  0  0  0  0  0
    1.2754    0.4610   -1.5896 C   0  0  1  0  0  0  0  0  0  0  0  0
    1.8246    0.7825    0.7752 C   0  0  0  0  0  0  0  0  0  0  0  0
    0.8277    3.0353   -1.6047 C   0  0  0  0  0  0  0  0  0  0  0  0
    2.4080    0.2723   -0.5670 C   0  0  1  0  0  0  0  0  0  0  0  0
   -0.2149   -1.0327   -0.3623 C   0  0  1  0  0  0  0  0  0  0  0  0
    0.0887    2.5654    1.3097 C   0  0  0  0  0  0  0  0  0  0  0  0
   -2.1192    0.5789    0.0346 C   0  0  1  0  0  0  0  0  0  0  0  0
   -0.8310   -0.3452    2.0053 C   0  0  0  0  0  0  0  0  0  0  0  0
   -1.2753   -2.0509   -0.6841 C   0  0  0  0  0  0  0  0  0  0  0  0
   -3.1004   -0.5879   -0.0151 C   0  0  0  0  0  0  0  0  0  0  0  0
   -2.5957   -1.8976   -0.5150 C   0  0  0  0  0  0  0  0  0  0  0  0
    3.8579   -1.2947    0.4460 C   0  0  0  0  0  0  0  0  0  0  0  0
   -3.5968   -2.9703   -0.8038 C   0  0  0  0  0  0  0  0  0  0  0  0
    4.2519   -2.7404    0.4259 C   0  0  0  0  0  0  0  0  0  0  0  0
    1.6648    0.6015   -2.6024 H   0  0  0  0  0  0  0  0  0  0  0  0
    1.8195    0.0334    1.5679 H   0  0  0  0  0  0  0  0  0  0  0  0
    2.4622    1.6044    1.1281 H   0  0  0  0  0  0  0  0  0  0  0  0
    0.7830    3.9178   -0.9835 H   0  0  0  0  0  0  0  0  0  0  0  0
    1.4775    3.1343   -2.4656 H   0  0  0  0  0  0  0  0  0  0  0  0
    3.2458    0.9237   -0.8541 H   0  0  0  0  0  0  0  0  0  0  0  0
    0.5635   -1.5859    0.1760 H   0  0  0  0  0  0  0  0  0  0  0  0
    0.8347    3.3488    1.1264 H   0  0  0  0  0  0  0  0  0  0  0  0
   -0.8756    3.0277    1.0944 H   0  0  0  0  0  0  0  0  0  0  0  0
    0.1821    2.3687    2.3794 H   0  0  0  0  0  0  0  0  0  0  0  0
   -2.0758    0.9420   -0.9953 H   0  0  0  0  0  0  0  0  0  0  0  0
    0.1105   -0.7246    2.4084 H   0  0  0  0  0  0  0  0  0  0  0  0
   -1.5669   -1.1490    2.1048 H   0  0  0  0  0  0  0  0  0  0  0  0
   -0.9075   -2.9999   -1.0705 H   0  0  0  0  0  0  0  0  0  0  0  0
   -3.5115    1.9036    0.3516 H   0  0  0  0  0  0  0  0  0  0  0  0
   -1.3393    0.4306    3.7017 H   0  0  0  0  0  0  0  0  0  0  0  0
   -4.1430   -3.2392    0.1062 H   0  0  0  0  0  0  0  0  0  0  0  0
   -3.1233   -3.8798   -1.1881 H   0  0  0  0  0  0  0  0  0  0  0  0
   -4.3171   -2.6287   -1.5543 H   0  0  0  0  0  0  0  0  0  0  0  0
    4.6475   -3.0022   -0.5586 H   0  0  0  0  0  0  0  0  0  0  0  0
    3.3873   -3.3621    0.6715 H   0  0  0  0  0  0  0  0  0  0  0  0
    5.0309   -2.9151    1.1735 H   0  0  0  0  0  0  0  0  0  0  0  0
  1  9  1  0  0  0  0
  1 13  1  0  0  0  0
  2 11  1  0  0  0  0
  2 15  1  0  0  0  0
  3 14  1  0  0  0  0
  3 22  1  0  0  0  0
  4 17  1  0  0  0  0
  4 39  1  0  0  0  0
  5 18  1  0  0  0  0
  5 40  1  0  0  0  0
  6 20  2  0  0  0  0
  7 22  2  0  0  0  0
  8  9  1  0  0  0  0
  8 10  1  0  0  0  0
  8 12  1  0  0  0  0
  8 16  1  0  0  0  0
  9 11  1  0  0  0  0
  9 13  1  0  0  0  0
 10 15  1  0  0  0  0
 10 17  1  0  0  0  0
 10 18  1  0  0  0  0
 11 14  1  0  0  0  0
 11 25  1  0  0  0  0
 12 14  1  0  0  0  0
 12 26  1  0  0  0  0
 12 27  1  0  0  0  0
 13 28  1  0  0  0  0
 13 29  1  0  0  0  0
 14 30  1  0  0  0  0
 15 19  1  0  0  0  0
 15 31  1  0  0  0  0
 16 32  1  0  0  0  0
 16 33  1  0  0  0  0
 16 34  1  0  0  0  0
 17 20  1  0  0  0  0
 17 35  1  0  0  0  0
 18 36  1  0  0  0  0
 18 37  1  0  0  0  0
 19 21  2  0  0  0  0
 19 38  1  0  0  0  0
 20 21  1  0  0  0  0
 21 23  1  0  0  0  0
 22 24  1  0  0  0  0
 23 41  1  0  0  0  0
 23 42  1  0  0  0  0
 23 43  1  0  0  0  0
 24 44  1  0  0  0  0
 24 45  1  0  0  0  0
 24 46  1  0  0  0  0
M  END
> <PUBCHEM_COMPOUND_CID>
13995429

> <PUBCHEM_CONFORMER_RMSD>
0.8

> <PUBCHEM_CONFORMER_DIVERSEORDER>
2
1

> <PUBCHEM_MMFF94_PARTIAL_CHARGES>
26
1 -0.3
11 0.38
13 -0.05
14 0.28
15 0.42
17 0.34
18 0.28
19 -0.29
2 -0.56
20 0.49
21 -0.12
22 0.66
23 0.14
24 0.06
28 0.1
29 0.1
3 -0.43
38 0.15
39 0.4
4 -0.68
40 0.4
5 -0.68
6 -0.57
7 -0.57
8 0.09
9 -0.04

> <PUBCHEM_EFFECTIVE_ROTOR_COUNT>
4.2

> <PUBCHEM_PHARMACOPHORE_FEATURES>
10
1 1 acceptor
1 2 acceptor
1 4 acceptor
1 4 donor
1 5 acceptor
1 5 donor
1 6 acceptor
1 7 acceptor
6 10 15 17 19 20 21 rings
8 2 8 9 10 11 12 14 15 rings

> <PUBCHEM_HEAVY_ATOM_COUNT>
24

> <PUBCHEM_ATOM_DEF_STEREO_COUNT>
7

> <PUBCHEM_ATOM_UDEF_STEREO_COUNT>
0

> <PUBCHEM_BOND_DEF_STEREO_COUNT>
0

> <PUBCHEM_BOND_UDEF_STEREO_COUNT>
0

> <PUBCHEM_ISOTOPIC_ATOM_COUNT>
0

> <PUBCHEM_COMPONENT_COUNT>
1

> <PUBCHEM_CACTVS_TAUTO_COUNT>
8

> <PUBCHEM_CONFORMER_ID>
00D58DA500000002

> <PUBCHEM_MMFF94_ENERGY>
93.8158

> <PUBCHEM_FEATURE_SELFOVERLAP>
50.789

> <PUBCHEM_SHAPE_FINGERPRINT>
10863032 1 18341608269366579453
11578080 2 18338499915846764492
121448 382 17114966928379430308
12422481 6 17760107128545013201
12633257 1 17701266824088013986
13004483 165 18336253549308412506
13009979 54 18341626943878834871
13134695 92 18200861998135505821
13140716 1 18202002126973380050
13149001 5 16588309457145927330
13965767 371 17549003069122807745
14181834 199 18264499557771199996
14787075 74 17125071389015263880
16945 1 17986130525272958700
1813 80 18040710368585913470
18186145 218 16443897418611769527
20600515 1 18343305833826127196
20602899 9 17617355313275515084
20626108 58 18266164200985033419
21069387 34 18261956352900344867
21330990 113 18193839228094641478
21452121 199 18124585633747654743
21452121 71 18342741870344663888
23227448 37 10806491240206410874
23419403 2 17700095985342357832
23526113 38 17386561500302443082
23557571 272 16844751775597157245
23559900 14 17702681960077509532
3027735 51 17388244642304671810
394222 165 17764317532029364084
484985 159 17836639722276671290
5845 1 10991886578607987228
6992083 37 18338246976595007213
90316 7 18263083215159248340
9981440 41 17251745053941236177

> <PUBCHEM_SHAPE_MULTIPOLES>
452.82
6.08
3.14
1.8
1.59
0.07
0.53
-5.77
0.88
0.34
-0.81
-0.06
0.89
-1.27

> <PUBCHEM_SHAPE_SELFOVERLAP>
983.984

> <PUBCHEM_SHAPE_VOLUME>
240.4

> <PUBCHEM_COORDINATE_TYPE>
2
5
10

$$$$
