REMARK  Name = 13992184
REMARK  11 active torsions:
REMARK  status: ('A' for Active; 'I' for Inactive)
REMARK    1  A    between atoms: C_5  and  C_30
REMARK    2  A    between atoms: C_7  and  O_19
REMARK    3  A    between atoms: C_9  and  O_17
REMARK    4  A    between atoms: C_13  and  O_23
REMARK    5  A    between atoms: O_19  and  C_21
REMARK    6  A    between atoms: O_23  and  C_25
REMARK    7  A    between atoms: C_25  and  C_26
REMARK    8  A    between atoms: C_26  and  C_27
REMARK    9  A    between atoms: C_27  and  C_28
REMARK   10  A    between atoms: C_30  and  O_31
REMARK   11  A    between atoms: O_31  and  C_33
REMARK                            x       y       z     vdW  Elec       q    Type
REMARK                         _______ _______ _______ _____ _____    ______ ____
ROOT
ATOM      1  O   UNL     1       3.107   0.599   2.691  0.00  0.00    -0.351 OA
ATOM      2  O   UNL     1       2.139   2.488  -0.274  0.00  0.00    -0.349 OA
ATOM      3  C   UNL     1       1.698  -0.141   0.756  0.00  0.00    +0.073 C 
ATOM      4  C   UNL     1       2.331   0.989   1.547  0.00  0.00    +0.151 C 
ATOM      5  C   UNL     1       0.550   0.540  -0.132  0.00  0.00    +0.079 C 
ATOM      6  C   UNL     1       3.086   1.788   0.541  0.00  0.00    +0.173 C 
ATOM      7  C   UNL     1       2.924  -0.552  -0.162  0.00  0.00    +0.200 C 
ATOM      8  C   UNL     1       1.985   1.457   2.940  0.00  0.00    +0.172 C 
ATOM      9  C   UNL     1       3.855   0.688  -0.206  0.00  0.00    +0.180 C 
ATOM     10  C   UNL     1       1.187   1.684  -0.996  0.00  0.00    +0.140 C 
ATOM     11  C   UNL     1       1.190  -1.304   1.616  0.00  0.00    +0.006 C 
ATOM     12  C   UNL     1      -0.570   1.176   0.756  0.00  0.00    +0.054 C 
ATOM     13  C   UNL     1      -1.638   1.964  -0.022  0.00  0.00    +0.187 C 
ATOM     14  C   UNL     1       0.190   2.653  -1.574  0.00  0.00    -0.002 C 
ATOM     15  C   UNL     1      -1.085   2.774  -1.167  0.00  0.00    -0.007 C 
ATOM     16  C   UNL     1      -2.017   3.761  -1.810  0.00  0.00    +0.030 C 
ENDROOT
BRANCH   9  17
ATOM     17  O   UNL     1       4.190   1.073  -1.526  0.00  0.00    -0.379 OA
ATOM     18  H   UNL     1       4.770   1.849  -1.499  0.00  0.00    +0.211 HD
ENDBRANCH   9  17
BRANCH   7  19
ATOM     19  O   UNL     1       3.652  -1.634   0.417  0.00  0.00    -0.450 OA
BRANCH  19  21
ATOM     20  O   UNL     1       4.373  -2.286  -1.679  0.00  0.00    -0.250 OA
ATOM     21  C   UNL     1       4.334  -2.424  -0.464  0.00  0.00    +0.318 C 
ATOM     22  C   UNL     1       5.047  -3.511   0.281  0.00  0.00    +0.121 C 
ENDBRANCH  19  21
ENDBRANCH   7  19
BRANCH  13  23
ATOM     23  O   UNL     1      -2.633   1.058  -0.496  0.00  0.00    -0.448 OA
BRANCH  23  25
ATOM     24  O   UNL     1      -3.749   1.218   1.517  0.00  0.00    -0.250 OA
ATOM     25  C   UNL     1      -3.640   0.769   0.384  0.00  0.00    +0.317 C 
BRANCH  25  26
ATOM     26  C   UNL     1      -4.604  -0.195  -0.269  0.00  0.00    +0.110 C 
BRANCH  26  27
ATOM     27  C   UNL     1      -5.748  -0.582   0.667  0.00  0.00    +0.012 C 
BRANCH  27  28
ATOM     28  C   UNL     1      -6.734  -1.526  -0.020  0.00  0.00    +0.001 C 
ATOM     29  C   UNL     1      -7.894  -1.883   0.895  0.00  0.00    +0.000 C 
ENDBRANCH  27  28
ENDBRANCH  26  27
ENDBRANCH  25  26
ENDBRANCH  23  25
ENDBRANCH  13  23
BRANCH   5  30
ATOM     30  C   UNL     1      -0.108  -0.512  -1.065  0.00  0.00    +0.211 C 
BRANCH  30  31
ATOM     31  O   UNL     1      -0.705  -1.489  -0.246  0.00  0.00    -0.448 OA
BRANCH  31  33
ATOM     32  O   UNL     1      -1.436  -2.648  -2.106  0.00  0.00    -0.250 OA
ATOM     33  C   UNL     1      -1.346  -2.518  -0.893  0.00  0.00    +0.318 C 
ATOM     34  C   UNL     1      -1.931  -3.476   0.100  0.00  0.00    +0.121 C 
ENDBRANCH  31  33
ENDBRANCH  30  31
ENDBRANCH   5  30
TORSDOF 11
