REMARK  Name = 14021703
REMARK  6 active torsions:
REMARK  status: ('A' for Active; 'I' for Inactive)
REMARK    1  A    between atoms: N_2  and  CA_9
REMARK    2  A    between atoms: C_3  and  CA_19
REMARK    3  A    between atoms: CA_11  and  C_16
REMARK    4  A    between atoms: C_16  and  O_17
REMARK    5  A    between atoms: CA_19  and  C_21
REMARK    6  A    between atoms: CA_19  and  N_29
REMARK                            x       y       z     vdW  Elec       q    Type
REMARK                         _______ _______ _______ _____ _____    ______ ____
ROOT
ATOM      1  O   UNL     1      -1.125   3.219   0.960  0.00  0.00    -0.277 OA
ATOM      2  N   UNL     1       0.019   1.671  -0.334  0.00  0.00    -0.298 N 
ATOM      3  C   UNL     1      -1.127   2.342   0.098  0.00  0.00    +0.206 C 
ATOM      4  H   UNL     1      -0.073   0.981  -1.031  0.00  0.00    +0.150 HD
ENDROOT
BRANCH   2   9
ATOM      5  S   UNL     1       0.929  -0.449   1.688  0.00  0.00    -0.114 S 
ATOM      6  O   UNL     1       2.907   1.849  -1.836  0.00  0.00    -0.273 OA
ATOM      7  N   UNL     1       2.832   0.531   0.118  0.00  0.00    -0.242 N 
ATOM      8  C   UNL     1       1.968   0.949   1.206  0.00  0.00    +0.155 C 
ATOM      9  CA  UNL     1       1.351   1.949   0.203  0.00  0.00    +0.178 C 
ATOM     10  C   UNL     1       2.506   1.517  -0.745  0.00  0.00    +0.251 C 
ATOM     11  CA  UNL     1       3.640  -0.560   0.172  0.00  0.00    +0.124 C 
ATOM     12  C   UNL     1       2.353  -1.490   2.152  0.00  0.00    +0.083 C 
ATOM     13  C   UNL     1       3.487  -1.506   1.129  0.00  0.00    -0.013 C 
ATOM     14  C   UNL     1       4.393  -2.701   1.306  0.00  0.00    +0.029 C 
BRANCH  11  16
ATOM     15  OXT UNL     1       5.787  -0.292  -0.813  0.00  0.00    -0.244 OA
ATOM     16  C   UNL     1       4.645  -0.699  -0.892  0.00  0.00    +0.351 C 
BRANCH  16  17
ATOM     17  O   UNL     1       4.097  -1.339  -1.943  0.00  0.00    -0.476 OA
ATOM     18  H   UNL     1       3.202  -1.616  -1.909  0.00  0.00    +0.295 HD
ENDBRANCH  16  17
ENDBRANCH  11  16
ENDBRANCH   2   9
BRANCH   3  19
ATOM     19  CA  UNL     1      -2.386   1.878  -0.623  0.00  0.00    +0.037 C 
BRANCH  19  21
ATOM     20  S   UNL     1      -4.277  -0.496   1.973  0.00  0.00    -0.087 S 
ATOM     21  C   UNL     1      -3.083   0.773   0.124  0.00  0.00    -0.027 C 
ATOM     22  C   UNL     1      -3.329  -0.515  -0.432  0.00  0.00    +0.001 C 
ATOM     23  C   UNL     1      -3.535   0.928   1.401  0.00  0.00    +0.030 C 
ATOM     24  C   UNL     1      -3.991  -1.330   0.491  0.00  0.00    +0.029 C 
ATOM     25  C   UNL     1      -3.021  -1.057  -1.704  0.00  0.00    +0.000 C 
ATOM     26  C   UNL     1      -4.347  -2.657   0.180  0.00  0.00    +0.006 C 
ATOM     27  C   UNL     1      -3.373  -2.372  -2.016  0.00  0.00    +0.000 C 
ATOM     28  C   UNL     1      -4.029  -3.162  -1.082  0.00  0.00    +0.001 C 
ENDBRANCH  19  21
BRANCH  19  29
ATOM     29  N   UNL     1      -3.291   3.018  -0.781  0.00  0.00    +0.390 N 
ATOM     30  H1  UNL     1      -2.814   3.764  -1.288  0.00  0.00    -0.088 HD
ATOM     31  H2  UNL     1      -3.573   3.358   0.138  0.00  0.00    -0.088 HD
ATOM     32  H3  UNL     1      -4.117   2.727  -1.304  0.00  0.00    -0.088 HD
ENDBRANCH  19  29
ENDBRANCH   3  19
TORSDOF 6
