14021487
  -OEChem-03292013303D

 52 54  0     1  0  0  0  0  0999 V2000
   -3.5598    1.0408    2.8322 Cl  0  0  0  0  0  0  0  0  0  0  0  0
    5.4041   -0.7358    2.8566 Cl  0  0  0  0  0  0  0  0  0  0  0  0
   -2.1983    1.7861   -0.0530 O   0  0  0  0  0  0  0  0  0  0  0  0
   -3.5532   -1.7589    1.9094 O   0  0  0  0  0  0  0  0  0  0  0  0
   -4.3443   -0.5174   -1.4124 O   0  0  0  0  0  0  0  0  0  0  0  0
    2.3348    0.5431   -0.2606 O   0  0  0  0  0  0  0  0  0  0  0  0
   -1.8545    4.0236   -0.4726 O   0  0  0  0  0  0  0  0  0  0  0  0
    3.4670   -0.7891   -1.7599 O   0  0  0  0  0  0  0  0  0  0  0  0
    5.6436   -0.8075   -0.2678 O   0  0  0  0  0  0  0  0  0  0  0  0
   -1.9170   -0.6010    0.5568 C   0  0  2  0  0  0  0  0  0  0  0  0
   -1.5686   -1.9784   -0.0915 C   0  0  1  0  0  0  0  0  0  0  0  0
   -3.4348   -0.7878    0.8480 C   0  0  1  0  0  0  0  0  0  0  0  0
   -1.4723    0.5773   -0.3390 C   0  0  2  0  0  0  0  0  0  0  0  0
   -3.9760   -1.4631   -0.4160 C   0  0  2  0  0  0  0  0  0  0  0  0
   -2.8109   -2.3014   -0.9603 C   0  0  0  0  0  0  0  0  0  0  0  0
   -0.0142    0.9874   -0.1044 C   0  0  1  0  0  0  0  0  0  0  0  0
   -0.2304   -2.1187   -0.7909 C   0  0  0  0  0  0  0  0  0  0  0  0
    1.0553    0.0592   -0.6863 C   0  0  2  0  0  0  0  0  0  0  0  0
    0.9398   -1.3862   -0.1911 C   0  0  0  0  0  0  0  0  0  0  0  0
   -4.2298    0.4267    1.3133 C   0  0  0  0  0  0  0  0  0  0  0  0
   -0.0856    2.3811   -0.6490 C   0  0  0  0  0  0  0  0  0  0  0  0
   -1.4571    2.8753   -0.4058 C   0  0  0  0  0  0  0  0  0  0  0  0
   -0.0320   -2.9017   -1.8659 C   0  0  0  0  0  0  0  0  0  0  0  0
    0.8101    3.1322   -1.2943 C   0  0  0  0  0  0  0  0  0  0  0  0
    3.4116   -0.1693   -0.7044 C   0  0  0  0  0  0  0  0  0  0  0  0
    4.5540   -0.0856    0.3053 C   0  0  1  0  0  0  0  0  0  0  0  0
    4.1420   -0.8007    1.5973 C   0  0  0  0  0  0  0  0  0  0  0  0
    4.9763    1.3700    0.5064 C   0  0  0  0  0  0  0  0  0  0  0  0
   -1.3899   -0.5310    1.5182 H   0  0  0  0  0  0  0  0  0  0  0  0
   -1.5318   -2.7174    0.7229 H   0  0  0  0  0  0  0  0  0  0  0  0
   -1.6589    0.3408   -1.3958 H   0  0  0  0  0  0  0  0  0  0  0  0
   -4.8479   -2.0937   -0.2083 H   0  0  0  0  0  0  0  0  0  0  0  0
   -2.6426   -2.0782   -2.0202 H   0  0  0  0  0  0  0  0  0  0  0  0
   -3.0408   -3.3706   -0.8789 H   0  0  0  0  0  0  0  0  0  0  0  0
    0.1704    1.1003    0.9750 H   0  0  0  0  0  0  0  0  0  0  0  0
    1.0169    0.0965   -1.7837 H   0  0  0  0  0  0  0  0  0  0  0  0
    0.8690   -1.4022    0.9053 H   0  0  0  0  0  0  0  0  0  0  0  0
    1.8424   -1.9746   -0.3887 H   0  0  0  0  0  0  0  0  0  0  0  0
   -5.2571    0.1242    1.5458 H   0  0  0  0  0  0  0  0  0  0  0  0
   -4.3031    1.2356    0.5853 H   0  0  0  0  0  0  0  0  0  0  0  0
   -3.4702   -2.6574    1.5508 H   0  0  0  0  0  0  0  0  0  0  0  0
   -4.6752   -1.0142   -2.1802 H   0  0  0  0  0  0  0  0  0  0  0  0
   -0.8269   -3.4868   -2.3134 H   0  0  0  0  0  0  0  0  0  0  0  0
    0.9484   -2.9870   -2.3244 H   0  0  0  0  0  0  0  0  0  0  0  0
    1.8114    2.7718   -1.4990 H   0  0  0  0  0  0  0  0  0  0  0  0
    0.5698    4.1320   -1.6407 H   0  0  0  0  0  0  0  0  0  0  0  0
    3.2388   -0.3606    2.0315 H   0  0  0  0  0  0  0  0  0  0  0  0
    3.9451   -1.8614    1.4088 H   0  0  0  0  0  0  0  0  0  0  0  0
    5.1105    1.8703   -0.4603 H   0  0  0  0  0  0  0  0  0  0  0  0
    5.9384    1.4444    1.0241 H   0  0  0  0  0  0  0  0  0  0  0  0
    4.2270    1.9353    1.0704 H   0  0  0  0  0  0  0  0  0  0  0  0
    5.9517   -0.3185   -1.0500 H   0  0  0  0  0  0  0  0  0  0  0  0
  1 20  1  0  0  0  0
  2 27  1  0  0  0  0
  3 13  1  0  0  0  0
  3 22  1  0  0  0  0
  4 12  1  0  0  0  0
  4 41  1  0  0  0  0
  5 14  1  0  0  0  0
  5 42  1  0  0  0  0
  6 18  1  0  0  0  0
  6 25  1  0  0  0  0
  7 22  2  0  0  0  0
  8 25  2  0  0  0  0
  9 26  1  0  0  0  0
  9 52  1  0  0  0  0
 10 11  1  0  0  0  0
 10 12  1  0  0  0  0
 10 13  1  0  0  0  0
 10 29  1  0  0  0  0
 11 15  1  0  0  0  0
 11 17  1  0  0  0  0
 11 30  1  0  0  0  0
 12 14  1  0  0  0  0
 12 20  1  0  0  0  0
 13 16  1  0  0  0  0
 13 31  1  0  0  0  0
 14 15  1  0  0  0  0
 14 32  1  0  0  0  0
 15 33  1  0  0  0  0
 15 34  1  0  0  0  0
 16 18  1  0  0  0  0
 16 21  1  0  0  0  0
 16 35  1  0  0  0  0
 17 19  1  0  0  0  0
 17 23  2  0  0  0  0
 18 19  1  0  0  0  0
 18 36  1  0  0  0  0
 19 37  1  0  0  0  0
 19 38  1  0  0  0  0
 20 39  1  0  0  0  0
 20 40  1  0  0  0  0
 21 22  1  0  0  0  0
 21 24  2  0  0  0  0
 23 43  1  0  0  0  0
 23 44  1  0  0  0  0
 24 45  1  0  0  0  0
 24 46  1  0  0  0  0
 25 26  1  0  0  0  0
 26 27  1  0  0  0  0
 26 28  1  0  0  0  0
 27 47  1  0  0  0  0
 27 48  1  0  0  0  0
 28 49  1  0  0  0  0
 28 50  1  0  0  0  0
 28 51  1  0  0  0  0
M  END
> <PUBCHEM_COMPOUND_CID>
14021487

> <PUBCHEM_CONFORMER_RMSD>
0.8

> <PUBCHEM_CONFORMER_DIVERSEORDER>
2
28
31
44
55
48
60
57
15
72
22
46
69
23
70
52
56
77
65
36
54
14
76
59
16
68
40
62
61
6
11
41
50
66
37
35
51
74
45
73
27
34
47
39
26
49
32
25
67
30
71
42
29
10
75
7
17
53
63
21
9
18
20
8
12
64
19
13
43
33
58
3
24
5
4
38
1

> <PUBCHEM_MMFF94_PARTIAL_CHARGES>
32
1 -0.29
11 0.14
12 0.28
13 0.28
14 0.28
16 0.14
17 -0.28
18 0.28
19 0.14
2 -0.29
20 0.29
21 -0.12
22 0.71
23 -0.3
24 -0.3
25 0.66
26 0.34
27 0.29
3 -0.43
4 -0.68
41 0.4
42 0.4
43 0.15
44 0.15
45 0.15
46 0.15
5 -0.68
52 0.4
6 -0.43
7 -0.57
8 -0.57
9 -0.68

> <PUBCHEM_EFFECTIVE_ROTOR_COUNT>
6.2

> <PUBCHEM_PHARMACOPHORE_FEATURES>
11
1 4 acceptor
1 4 donor
1 5 acceptor
1 5 donor
1 7 acceptor
1 8 acceptor
1 9 acceptor
1 9 donor
5 10 11 12 14 15 rings
5 3 13 16 21 22 rings
7 10 11 13 16 17 18 19 rings

> <PUBCHEM_HEAVY_ATOM_COUNT>
28

> <PUBCHEM_ATOM_DEF_STEREO_COUNT>
8

> <PUBCHEM_ATOM_UDEF_STEREO_COUNT>
0

> <PUBCHEM_BOND_DEF_STEREO_COUNT>
0

> <PUBCHEM_BOND_UDEF_STEREO_COUNT>
0

> <PUBCHEM_ISOTOPIC_ATOM_COUNT>
0

> <PUBCHEM_COMPONENT_COUNT>
1

> <PUBCHEM_CACTVS_TAUTO_COUNT>
1

> <PUBCHEM_CONFORMER_ID>
00D5F36F00000002

> <PUBCHEM_MMFF94_ENERGY>
90.8783

> <PUBCHEM_FEATURE_SELFOVERLAP>
55.888

> <PUBCHEM_SHAPE_FINGERPRINT>
10319926 262 18268412557321215522
10369192 42 17058358427138799256
10906281 52 18336553707704259813
10930396 42 17834349679846758464
11132069 177 18201727253461792399
11370993 144 17488757665882806488
11387372 6 16738322146922142266
11578080 2 17559665140957047921
11595378 159 18261661637224840760
12403814 3 18411696599418939890
12422481 6 18267034863948900899
12553582 1 18335718155522076295
12788726 201 18333731325758772856
13004483 165 18264188344604240932
13009979 54 17985838261649792811
13140716 1 18266473159905480969
13583140 156 17603859014382180492
13965767 371 17767437628512311705
14068700 675 17630029697779429823
14081887 123 18342453690903158576
14142880 1 18201727224003377571
14178342 30 18200615643391191507
14420673 8 17686608053879610738
14840074 17 18410300232536520680
15209294 21 17846512395726276059
15475509 35 16880501416969315291
17349148 13 18129660949377978871
17980427 23 17560529511863462625
1813 80 18113625615947873900
20600515 1 18199482106420482572
20739085 24 18047787989543604933
20775438 99 11318862700956782321
21033648 29 17775571952652259786
21304303 282 17317576835311967669
21756936 100 14476382929363271954
22182313 1 18049742723606655725
23366157 5 17609497485739364220
23402539 116 18341608235133396631
23419403 2 15466827499935774799
23559900 14 17489040301028409510
23598288 3 18042109990969166634
2748010 2 17833289531668115565
2838139 119 15194731086705549609
445580 44 18337373994443090400
5171179 24 17839740365893126518
5265222 85 18341905078722099678
6913067 236 18130491003294693470
7064713 232 18059864964637162776
90316 7 18407760334896199749
9862522 239 18268983202790290551
9981440 41 18051672379018431121

> <PUBCHEM_SHAPE_MULTIPOLES>
538.88
10.15
3.43
2.06
11.28
2.33
1.6
-2.25
5.63
-2.2
-1.7
0.31
-0.31
-0.84

> <PUBCHEM_SHAPE_SELFOVERLAP>
1124.278

> <PUBCHEM_SHAPE_VOLUME>
305.9

> <PUBCHEM_COORDINATE_TYPE>
2
5
10

$$$$
