REMARK  Name = 14021483
REMARK  8 active torsions:
REMARK  status: ('A' for Active; 'I' for Inactive)
REMARK    1  A    between atoms: C_5  and  C_18
REMARK    2  A    between atoms: C_5  and  O_19
REMARK    3  A    between atoms: C_7  and  O_21
REMARK    4  A    between atoms: C_11  and  O_23
REMARK    5  A    between atoms: O_23  and  C_25
REMARK    6  A    between atoms: C_25  and  C_26
REMARK    7  A    between atoms: C_26  and  C_29
REMARK    8  A    between atoms: C_26  and  O_30
REMARK                            x       y       z     vdW  Elec       q    Type
REMARK                         _______ _______ _______ _____ _____    ______ ____
ROOT
ATOM      1  O   UNL     1      -2.198   1.786  -0.053  0.00  0.00    -0.449 OA
ATOM      2  O   UNL     1      -1.854   4.024  -0.473  0.00  0.00    -0.245 OA
ATOM      3  C   UNL     1      -1.917  -0.601   0.557  0.00  0.00    +0.073 C 
ATOM      4  C   UNL     1      -1.569  -1.978  -0.091  0.00  0.00    +0.027 C 
ATOM      5  C   UNL     1      -3.435  -0.788   0.848  0.00  0.00    +0.131 C 
ATOM      6  C   UNL     1      -1.472   0.577  -0.339  0.00  0.00    +0.179 C 
ATOM      7  C   UNL     1      -3.976  -1.463  -0.416  0.00  0.00    +0.137 C 
ATOM      8  C   UNL     1      -2.811  -2.301  -0.960  0.00  0.00    +0.036 C 
ATOM      9  C   UNL     1      -0.014   0.988  -0.104  0.00  0.00    +0.109 C 
ATOM     10  C   UNL     1      -0.231  -2.119  -0.791  0.00  0.00    -0.041 C 
ATOM     11  C   UNL     1       1.055   0.059  -0.686  0.00  0.00    +0.181 C 
ATOM     12  C   UNL     1       0.940  -1.386  -0.191  0.00  0.00    +0.066 C 
ATOM     13  C   UNL     1      -0.086   2.381  -0.649  0.00  0.00    +0.060 C 
ATOM     14  C   UNL     1      -1.457   2.875  -0.406  0.00  0.00    +0.337 C 
ATOM     15  C   UNL     1      -0.032  -2.902  -1.866  0.00  0.00    -0.009 C 
ATOM     16  C   UNL     1       0.810   3.132  -1.294  0.00  0.00    +0.002 C 
ENDROOT
BRANCH   5  18
ATOM     17 CL   UNL     1      -3.560   1.041   2.832  0.00  0.00    -0.111 Cl
ATOM     18  C   UNL     1      -4.230   0.427   1.313  0.00  0.00    +0.124 C 
ENDBRANCH   5  18
BRANCH   5  19
ATOM     19  O   UNL     1      -3.553  -1.759   1.909  0.00  0.00    -0.383 OA
ATOM     20  H   UNL     1      -3.064  -2.561   1.670  0.00  0.00    +0.210 HD
ENDBRANCH   5  19
BRANCH   7  21
ATOM     21  O   UNL     1      -4.344  -0.517  -1.412  0.00  0.00    -0.382 OA
ATOM     22  H   UNL     1      -5.081   0.024  -1.088  0.00  0.00    +0.210 HD
ENDBRANCH   7  21
BRANCH  11  23
ATOM     23  O   UNL     1       2.335   0.543  -0.261  0.00  0.00    -0.450 OA
BRANCH  23  25
ATOM     24  O   UNL     1       3.467  -0.789  -1.760  0.00  0.00    -0.247 OA
ATOM     25  C   UNL     1       3.412  -0.169  -0.705  0.00  0.00    +0.342 C 
BRANCH  25  26
ATOM     26  C   UNL     1       4.554  -0.086   0.305  0.00  0.00    +0.192 C 
ATOM     27  C   UNL     1       4.976   1.370   0.506  0.00  0.00    +0.042 C 
BRANCH  26  29
ATOM     28 CL   UNL     1       5.404  -0.736   2.857  0.00  0.00    -0.111 Cl
ATOM     29  C   UNL     1       4.142  -0.801   1.597  0.00  0.00    +0.133 C 
ENDBRANCH  26  29
BRANCH  26  30
ATOM     30  O   UNL     1       5.644  -0.808  -0.268  0.00  0.00    -0.375 OA
ATOM     31  H   UNL     1       5.385  -1.733  -0.399  0.00  0.00    +0.211 HD
ENDBRANCH  26  30
ENDBRANCH  25  26
ENDBRANCH  23  25
ENDBRANCH  11  23
TORSDOF 8
