REMARK  Name = 14032016
REMARK  13 active torsions:
REMARK  status: ('A' for Active; 'I' for Inactive)
REMARK    1  A    between atoms: C_1  and  N_3
REMARK    2  A    between atoms: C_1  and  C_15
REMARK    3  A    between atoms: C_1  and  C_29
REMARK    4  A    between atoms: C_4  and  C_7
REMARK    5  A    between atoms: C_8  and  C_10
REMARK    6  A    between atoms: C_10  and  O_11
REMARK    7  A    between atoms: N_14  and  C_17
REMARK    8  A    between atoms: C_17  and  C_18
REMARK    9  A    between atoms: C_18  and  C_19
REMARK   10  A    between atoms: C_19  and  C_20
REMARK   11  A    between atoms: C_20  and  N_21
REMARK   12  A    between atoms: N_21  and  C_24
REMARK   13  A    between atoms: C_29  and  C_30
REMARK                            x       y       z     vdW  Elec       q    Type
REMARK                         _______ _______ _______ _____ _____    ______ ____
ROOT
ATOM      1  C   UNL     1       1.196   0.890  -0.616  0.00  0.00    +0.153 C 
ENDROOT
BRANCH   1   3
ATOM      2  O   UNL     1      -0.298  -0.600   1.386  0.00  0.00    -0.272 OA
ATOM      3  N   UNL     1       1.246  -0.527  -0.356  0.00  0.00    -0.296 N 
ATOM      4  C   UNL     1       0.492  -1.146   0.625  0.00  0.00    +0.253 C 
ATOM      5  H   UNL     1       1.847  -1.082  -0.904  0.00  0.00    +0.150 HD
BRANCH   4   7
ATOM      6  O   UNL     1      -0.523  -3.366   0.716  0.00  0.00    -0.333 OA
ATOM      7  C   UNL     1       0.702  -2.621   0.717  0.00  0.00    +0.229 C 
ATOM      8  C   UNL     1       0.321  -3.507  -0.434  0.00  0.00    +0.250 C 
BRANCH   8  10
ATOM      9  O   UNL     1       0.245  -5.866  -0.487  0.00  0.00    -0.247 OA
ATOM     10  C   UNL     1       0.911  -4.844  -0.557  0.00  0.00    +0.344 C 
BRANCH  10  11
ATOM     11  O   UNL     1       2.250  -4.801  -0.754  0.00  0.00    -0.478 OA
ATOM     12  H   UNL     1       2.691  -3.975  -0.796  0.00  0.00    +0.295 HD
ENDBRANCH  10  11
ENDBRANCH   8  10
ENDBRANCH   4   7
ENDBRANCH   1   3
BRANCH   1  15
ATOM     13  O   UNL     1      -0.242   0.335  -2.487  0.00  0.00    -0.273 OA
ATOM     14  N   UNL     1      -0.628   2.307  -1.322  0.00  0.00    -0.303 N 
ATOM     15  C   UNL     1       0.052   1.129  -1.595  0.00  0.00    +0.241 C 
ATOM     16  H   UNL     1      -0.307   2.872  -0.582  0.00  0.00    +0.149 HD
BRANCH  14  17
ATOM     17  C   UNL     1      -1.785   2.746  -2.069  0.00  0.00    +0.090 C 
BRANCH  17  18
ATOM     18  C   UNL     1      -3.092   2.230  -1.474  0.00  0.00    +0.023 C 
BRANCH  18  19
ATOM     19  C   UNL     1      -3.318   2.719  -0.039  0.00  0.00    +0.028 C 
BRANCH  19  20
ATOM     20  C   UNL     1      -4.620   2.192   0.557  0.00  0.00    +0.129 C 
BRANCH  20  21
ATOM     21  N   UNL     1      -4.594   0.729   0.592  0.00  0.00    -0.240 NA
BRANCH  21  24
ATOM     22  N   UNL     1      -6.790   0.721   1.565  0.00  0.00    -0.370 N 
ATOM     23  N   UNL     1      -5.696  -1.234   1.144  0.00  0.00    -0.370 N 
ATOM     24  C   UNL     1      -5.642   0.138   1.076  0.00  0.00    +0.189 C 
ATOM     25  H   UNL     1      -6.880   1.701   1.573  0.00  0.00    +0.159 HD
ATOM     26  H   UNL     1      -7.521   0.157   1.907  0.00  0.00    +0.159 HD
ATOM     27  H   UNL     1      -4.936  -1.773   0.825  0.00  0.00    +0.159 HD
ATOM     28  H   UNL     1      -6.494  -1.677   1.511  0.00  0.00    +0.159 HD
ENDBRANCH  21  24
ENDBRANCH  20  21
ENDBRANCH  19  20
ENDBRANCH  18  19
ENDBRANCH  17  18
ENDBRANCH  14  17
ENDBRANCH   1  15
BRANCH   1  29
ATOM     29  C   UNL     1       2.513   1.420  -1.195  0.00  0.00    +0.055 C 
BRANCH  29  30
ATOM     30  C   UNL     1       3.572   1.631  -0.141  0.00  0.00    -0.020 C 
ATOM     31  C   UNL     1       3.675   2.862   0.507  0.00  0.00    -0.004 C 
ATOM     32  C   UNL     1       4.446   0.595   0.187  0.00  0.00    -0.004 C 
ATOM     33  C   UNL     1       4.653   3.057   1.482  0.00  0.00    -0.000 C 
ATOM     34  C   UNL     1       5.424   0.790   1.162  0.00  0.00    -0.000 C 
ATOM     35  C   UNL     1       5.528   2.022   1.810  0.00  0.00    -0.000 C 
ENDBRANCH  29  30
ENDBRANCH   1  29
TORSDOF 13
