14031057
  -OEChem-03292013303D

 47 50  0     1  0  0  0  0  0999 V2000
   -0.5850    0.8294   -2.6768 O   0  0  0  0  0  0  0  0  0  0  0  0
   -2.2348   -1.6779   -0.4672 O   0  0  0  0  0  0  0  0  0  0  0  0
   -4.0549    2.0665    1.0908 O   0  0  0  0  0  0  0  0  0  0  0  0
    3.1735    2.3697    0.3048 O   0  0  0  0  0  0  0  0  0  0  0  0
    2.0496   -2.8282   -0.2654 O   0  0  0  0  0  0  0  0  0  0  0  0
   -2.9175   -2.7740    1.4387 O   0  0  0  0  0  0  0  0  0  0  0  0
   -1.8298    1.4267    0.7974 N   0  0  0  0  0  0  0  0  0  0  0  0
    0.5956    1.4942   -0.7198 N   0  0  1  0  0  0  0  0  0  0  0  0
    4.4655   -2.2322    0.8059 N   0  0  0  0  0  0  0  0  0  0  0  0
   -4.3718   -2.3996   -0.3024 N   0  0  0  0  0  0  0  0  0  0  0  0
   -1.7328    1.2321   -0.6209 C   0  0  1  0  0  0  0  0  0  0  0  0
   -1.3624    2.5162   -0.0003 C   0  0  2  0  0  0  0  0  0  0  0  0
   -0.5040    0.6651   -1.2619 C   0  0  1  0  0  0  0  0  0  0  0  0
    0.1187    2.7361   -0.1222 C   0  0  0  0  0  0  0  0  0  0  0  0
   -0.0652   -0.7997   -0.9458 C   0  0  1  0  0  0  0  0  0  0  0  0
    1.6377    0.6969   -0.3105 C   0  0  0  0  0  0  0  0  0  0  0  0
    1.3486   -0.5975   -0.4368 C   0  0  0  0  0  0  0  0  0  0  0  0
   -3.0496    1.4603    1.4530 C   0  0  0  0  0  0  0  0  0  0  0  0
   -0.9327   -1.5361    0.0705 C   0  0  0  0  0  0  0  0  0  0  0  0
    2.9197    1.1736    0.2131 C   0  0  0  0  0  0  0  0  0  0  0  0
    2.3147   -1.6424   -0.0933 C   0  0  0  0  0  0  0  0  0  0  0  0
   -1.5286   -0.0641   -3.2463 C   0  0  0  0  0  0  0  0  0  0  0  0
   -3.0355    0.6250    2.7042 C   0  0  0  0  0  0  0  0  0  0  0  0
    3.9063    0.1171    0.6179 C   0  0  0  0  0  0  0  0  0  0  0  0
    3.6329   -1.1982    0.4752 C   0  0  0  0  0  0  0  0  0  0  0  0
    5.1936    0.6642    1.1756 C   0  0  0  0  0  0  0  0  0  0  0  0
   -3.1517   -2.3232    0.3224 C   0  0  0  0  0  0  0  0  0  0  0  0
   -2.6717    1.1484   -1.1435 H   0  0  0  0  0  0  0  0  0  0  0  0
   -1.9914    3.3883   -0.0666 H   0  0  0  0  0  0  0  0  0  0  0  0
    0.3318    3.5771   -0.7889 H   0  0  0  0  0  0  0  0  0  0  0  0
    0.5633    2.9274    0.8599 H   0  0  0  0  0  0  0  0  0  0  0  0
    0.0122   -1.4152   -1.8471 H   0  0  0  0  0  0  0  0  0  0  0  0
   -0.9620   -1.0179    1.0344 H   0  0  0  0  0  0  0  0  0  0  0  0
   -0.5226   -2.5373    0.2506 H   0  0  0  0  0  0  0  0  0  0  0  0
   -1.9072    0.4076   -4.1591 H   0  0  0  0  0  0  0  0  0  0  0  0
   -2.3935   -0.2923   -2.6212 H   0  0  0  0  0  0  0  0  0  0  0  0
   -1.0402   -0.9896   -3.5640 H   0  0  0  0  0  0  0  0  0  0  0  0
   -3.7577   -0.1885    2.5987 H   0  0  0  0  0  0  0  0  0  0  0  0
   -3.3161    1.2534    3.5539 H   0  0  0  0  0  0  0  0  0  0  0  0
   -2.0476    0.1985    2.8989 H   0  0  0  0  0  0  0  0  0  0  0  0
    4.9909    1.2815    2.0576 H   0  0  0  0  0  0  0  0  0  0  0  0
    5.6964    1.2854    0.4264 H   0  0  0  0  0  0  0  0  0  0  0  0
    5.9017   -0.1094    1.4814 H   0  0  0  0  0  0  0  0  0  0  0  0
    5.3820   -2.0597    1.1955 H   0  0  0  0  0  0  0  0  0  0  0  0
    4.1611   -3.1864    0.6567 H   0  0  0  0  0  0  0  0  0  0  0  0
   -4.5162   -2.0098   -1.2278 H   0  0  0  0  0  0  0  0  0  0  0  0
   -5.1664   -2.8466    0.1424 H   0  0  0  0  0  0  0  0  0  0  0  0
  1 13  1  0  0  0  0
  1 22  1  0  0  0  0
  2 19  1  0  0  0  0
  2 27  1  0  0  0  0
  3 18  2  0  0  0  0
  4 20  2  0  0  0  0
  5 21  2  0  0  0  0
  6 27  2  0  0  0  0
  7 11  1  0  0  0  0
  7 12  1  0  0  0  0
  7 18  1  0  0  0  0
  8 13  1  0  0  0  0
  8 14  1  0  0  0  0
  8 16  1  0  0  0  0
  9 25  1  0  0  0  0
  9 44  1  0  0  0  0
  9 45  1  0  0  0  0
 10 27  1  0  0  0  0
 10 46  1  0  0  0  0
 10 47  1  0  0  0  0
 11 12  1  0  0  0  0
 11 13  1  0  0  0  0
 11 28  1  0  0  0  0
 12 14  1  0  0  0  0
 12 29  1  0  0  0  0
 13 15  1  0  0  0  0
 14 30  1  0  0  0  0
 14 31  1  0  0  0  0
 15 17  1  0  0  0  0
 15 19  1  0  0  0  0
 15 32  1  0  0  0  0
 16 17  2  0  0  0  0
 16 20  1  0  0  0  0
 17 21  1  0  0  0  0
 18 23  1  0  0  0  0
 19 33  1  0  0  0  0
 19 34  1  0  0  0  0
 20 24  1  0  0  0  0
 21 25  1  0  0  0  0
 22 35  1  0  0  0  0
 22 36  1  0  0  0  0
 22 37  1  0  0  0  0
 23 38  1  0  0  0  0
 23 39  1  0  0  0  0
 23 40  1  0  0  0  0
 24 25  2  0  0  0  0
 24 26  1  0  0  0  0
 26 41  1  0  0  0  0
 26 42  1  0  0  0  0
 26 43  1  0  0  0  0
M  END
> <PUBCHEM_COMPOUND_CID>
14031057

> <PUBCHEM_CONFORMER_RMSD>
0.8

> <PUBCHEM_CONFORMER_DIVERSEORDER>
1
9
10
7
3
6
4
11
8
5
2

> <PUBCHEM_MMFF94_PARTIAL_CHARGES>
33
1 -0.56
10 -0.8
11 -0.05
12 -0.05
13 0.74
14 0.46
15 0.14
16 0.11
17 -0.12
18 0.57
19 0.28
2 -0.43
20 0.54
21 0.54
22 0.28
23 0.06
24 -0.12
25 0.11
26 0.14
27 0.78
28 0.1
29 0.1
3 -0.57
4 -0.57
44 0.4
45 0.4
46 0.37
47 0.37
5 -0.57
6 -0.57
7 -0.36
8 -0.84
9 -0.9

> <PUBCHEM_EFFECTIVE_ROTOR_COUNT>
5.6

> <PUBCHEM_PHARMACOPHORE_FEATURES>
12
1 1 acceptor
1 10 donor
1 3 acceptor
1 4 acceptor
1 5 acceptor
1 6 acceptor
1 8 cation
1 9 cation
1 9 donor
5 8 13 15 16 17 rings
6 16 17 20 21 24 25 rings
6 7 8 11 12 13 14 rings

> <PUBCHEM_HEAVY_ATOM_COUNT>
27

> <PUBCHEM_ATOM_DEF_STEREO_COUNT>
4

> <PUBCHEM_ATOM_UDEF_STEREO_COUNT>
0

> <PUBCHEM_BOND_DEF_STEREO_COUNT>
0

> <PUBCHEM_BOND_UDEF_STEREO_COUNT>
0

> <PUBCHEM_ISOTOPIC_ATOM_COUNT>
0

> <PUBCHEM_COMPONENT_COUNT>
1

> <PUBCHEM_CACTVS_TAUTO_COUNT>
42

> <PUBCHEM_CONFORMER_ID>
00D618D100000001

> <PUBCHEM_MMFF94_ENERGY>
102.1629

> <PUBCHEM_FEATURE_SELFOVERLAP>
61.144

> <PUBCHEM_SHAPE_FINGERPRINT>
10863032 1 18342462538572705137
11552529 35 18131353015989444979
11578080 2 17895185658059123829
12390115 104 18129667525637774760
12422481 6 18050607043336993539
12633257 1 18339930290263539122
13004483 165 18340760537870941763
13140716 1 18412542081406775496
13544653 18 18189330345779290311
13583140 156 17988917885949294672
14178342 30 18410283693229302808
14223421 5 18412260640615801270
14790565 3 17036416726906719276
15163728 17 15266513819979608849
15295992 7 17489290963614138522
16945 1 18197506120916942596
17980427 23 17775012306066635489
1813 80 17167874074802895847
21304303 282 14348004912875020439
21421861 104 17976289003304691179
21756936 100 18059852935315130888
23419403 2 17975950353438590381
23566358 27 18261409840377271348
25222932 49 15877657786640263827
2818148 4 18336844021670599854
3380486 145 18333736810295509177
350125 39 18337667641937638996
392239 28 17698708531007695424
4340502 62 18058182626870953721
469060 322 17603299375658744050
5104073 3 18341314636339534266
7471813 234 18057314205705344167

> <PUBCHEM_SHAPE_MULTIPOLES>
500.51
7.77
3.28
2
4.86
0.76
0.93
1.95
-4.49
-1.48
-0.62
-2.01
-0.3
-0.41

> <PUBCHEM_SHAPE_SELFOVERLAP>
1094.957

> <PUBCHEM_SHAPE_VOLUME>
274

> <PUBCHEM_COORDINATE_TYPE>
2
5
10

$$$$
