14032016
  -OEChem-03292013303D

 53 54  0     1  0  0  0  0  0999 V2000
   -0.5231   -3.3661    0.7160 O   0  0  0  0  0  0  0  0  0  0  0  0
   -0.2979   -0.5997    1.3859 O   0  0  0  0  0  0  0  0  0  0  0  0
    2.2504   -4.8011   -0.7536 O   0  0  0  0  0  0  0  0  0  0  0  0
    0.2452   -5.8664   -0.4870 O   0  0  0  0  0  0  0  0  0  0  0  0
   -0.2417    0.3351   -2.4868 O   0  0  0  0  0  0  0  0  0  0  0  0
    1.2464   -0.5267   -0.3562 N   0  0  0  0  0  0  0  0  0  0  0  0
   -0.6284    2.3069   -1.3221 N   0  0  0  0  0  0  0  0  0  0  0  0
   -4.5937    0.7289    0.5923 N   0  0  0  0  0  0  0  0  0  0  0  0
   -6.7899    0.7207    1.5651 N   0  0  0  0  0  0  0  0  0  0  0  0
   -5.6959   -1.2339    1.1438 N   0  0  0  0  0  0  0  0  0  0  0  0
    0.7017   -2.6213    0.7168 C   0  0  1  0  0  0  0  0  0  0  0  0
    0.3208   -3.5066   -0.4341 C   0  0  1  0  0  0  0  0  0  0  0  0
    0.4921   -1.1462    0.6250 C   0  0  0  0  0  0  0  0  0  0  0  0
    1.1962    0.8901   -0.6161 C   0  0  1  0  0  0  0  0  0  0  0  0
    2.5130    1.4196   -1.1954 C   0  0  0  0  0  0  0  0  0  0  0  0
    0.9107   -4.8442   -0.5567 C   0  0  0  0  0  0  0  0  0  0  0  0
    0.0525    1.1286   -1.5954 C   0  0  0  0  0  0  0  0  0  0  0  0
    3.5716    1.6309   -0.1406 C   0  0  0  0  0  0  0  0  0  0  0  0
   -1.7852    2.7464   -2.0687 C   0  0  0  0  0  0  0  0  0  0  0  0
   -3.0919    2.2298   -1.4744 C   0  0  0  0  0  0  0  0  0  0  0  0
   -3.3177    2.7185   -0.0386 C   0  0  0  0  0  0  0  0  0  0  0  0
    3.6749    2.8620    0.5070 C   0  0  0  0  0  0  0  0  0  0  0  0
    4.4464    0.5949    0.1872 C   0  0  0  0  0  0  0  0  0  0  0  0
   -4.6195    2.1920    0.5566 C   0  0  0  0  0  0  0  0  0  0  0  0
    4.6529    3.0574    1.4820 C   0  0  0  0  0  0  0  0  0  0  0  0
    5.4244    0.7904    1.1624 C   0  0  0  0  0  0  0  0  0  0  0  0
    5.5276    2.0216    1.8098 C   0  0  0  0  0  0  0  0  0  0  0  0
   -5.6419    0.1383    1.0757 C   0  0  0  0  0  0  0  0  0  0  0  0
    1.4730   -2.9470    1.4042 H   0  0  0  0  0  0  0  0  0  0  0  0
   -0.0298   -3.0537   -1.3534 H   0  0  0  0  0  0  0  0  0  0  0  0
    0.9620    1.3962    0.3293 H   0  0  0  0  0  0  0  0  0  0  0  0
    1.8318   -1.1022   -0.9552 H   0  0  0  0  0  0  0  0  0  0  0  0
    2.8966    0.7457   -1.9735 H   0  0  0  0  0  0  0  0  0  0  0  0
    2.3414    2.3764   -1.7073 H   0  0  0  0  0  0  0  0  0  0  0  0
   -1.7725    3.8414   -2.0732 H   0  0  0  0  0  0  0  0  0  0  0  0
   -1.6908    2.4036   -3.1048 H   0  0  0  0  0  0  0  0  0  0  0  0
   -0.3079    2.9024   -0.5642 H   0  0  0  0  0  0  0  0  0  0  0  0
   -3.0841    1.1336   -1.4999 H   0  0  0  0  0  0  0  0  0  0  0  0
   -3.9247    2.5605   -2.1064 H   0  0  0  0  0  0  0  0  0  0  0  0
   -2.4850    2.3979    0.5991 H   0  0  0  0  0  0  0  0  0  0  0  0
   -3.3335    3.8148   -0.0227 H   0  0  0  0  0  0  0  0  0  0  0  0
    2.9974    3.6758    0.2623 H   0  0  0  0  0  0  0  0  0  0  0  0
    4.3766   -0.3689   -0.3099 H   0  0  0  0  0  0  0  0  0  0  0  0
    2.6382   -5.6985   -0.8351 H   0  0  0  0  0  0  0  0  0  0  0  0
   -4.7260    2.5959    1.5706 H   0  0  0  0  0  0  0  0  0  0  0  0
   -5.4609    2.5477   -0.0506 H   0  0  0  0  0  0  0  0  0  0  0  0
    4.7329    4.0157    1.9867 H   0  0  0  0  0  0  0  0  0  0  0  0
    6.1054   -0.0162    1.4179 H   0  0  0  0  0  0  0  0  0  0  0  0
    6.2889    2.1736    2.5693 H   0  0  0  0  0  0  0  0  0  0  0  0
   -7.5524    0.1542    1.9209 H   0  0  0  0  0  0  0  0  0  0  0  0
   -6.9182    1.7259    1.5904 H   0  0  0  0  0  0  0  0  0  0  0  0
   -6.5059   -1.7149    1.5191 H   0  0  0  0  0  0  0  0  0  0  0  0
   -4.9227   -1.8050    0.8203 H   0  0  0  0  0  0  0  0  0  0  0  0
  1 11  1  0  0  0  0
  1 12  1  0  0  0  0
  2 13  2  0  0  0  0
  3 16  1  0  0  0  0
  3 44  1  0  0  0  0
  4 16  2  0  0  0  0
  5 17  2  0  0  0  0
  6 13  1  0  0  0  0
  6 14  1  0  0  0  0
  6 32  1  0  0  0  0
  7 17  1  0  0  0  0
  7 19  1  0  0  0  0
  7 37  1  0  0  0  0
  8 24  1  0  0  0  0
  8 28  2  0  0  0  0
  9 28  1  0  0  0  0
  9 50  1  0  0  0  0
  9 51  1  0  0  0  0
 10 28  1  0  0  0  0
 10 52  1  0  0  0  0
 10 53  1  0  0  0  0
 11 12  1  0  0  0  0
 11 13  1  0  0  0  0
 11 29  1  0  0  0  0
 12 16  1  0  0  0  0
 12 30  1  0  0  0  0
 14 15  1  0  0  0  0
 14 17  1  0  0  0  0
 14 31  1  0  0  0  0
 15 18  1  0  0  0  0
 15 33  1  0  0  0  0
 15 34  1  0  0  0  0
 18 22  2  0  0  0  0
 18 23  1  0  0  0  0
 19 20  1  0  0  0  0
 19 35  1  0  0  0  0
 19 36  1  0  0  0  0
 20 21  1  0  0  0  0
 20 38  1  0  0  0  0
 20 39  1  0  0  0  0
 21 24  1  0  0  0  0
 21 40  1  0  0  0  0
 21 41  1  0  0  0  0
 22 25  1  0  0  0  0
 22 42  1  0  0  0  0
 23 26  2  0  0  0  0
 23 43  1  0  0  0  0
 24 45  1  0  0  0  0
 24 46  1  0  0  0  0
 25 27  2  0  0  0  0
 25 47  1  0  0  0  0
 26 27  1  0  0  0  0
 26 48  1  0  0  0  0
 27 49  1  0  0  0  0
M  END
> <PUBCHEM_COMPOUND_CID>
14032016

> <PUBCHEM_CONFORMER_RMSD>
1.2

> <PUBCHEM_CONFORMER_DIVERSEORDER>
1
46
16
27
28
110
108
88
120
53
10
62
12
25
70
141
21
9
67
135
133
128
23
5
118
44
59
35
106
123
96
32
137
61
126
119
73
69
111
48
136
38
66
26
42
72
54
31
49
13
87
34
58
77
131
105
50
20
92
45
8
122
107
140
39
114
94
14
57
11
130
138
143
75
124
60
55
43
127
89
93
115
6
33
63
99
56
101
139
47
134
74
84
3
65
41
142
81
97
132
29
129
24
109
40
79
83
85
117
15
36
144
18
112
22
51
4
71
102
78
91
121
80
95
7
90
37
17
76
113
98
19
82
103
52
64
100
116
104
68
2
30
125
86

> <PUBCHEM_MMFF94_PARTIAL_CHARGES>
40
1 -0.3
10 -0.85
11 0.05
12 0.05
13 0.63
14 0.36
15 0.14
16 0.72
17 0.57
18 -0.14
19 0.3
2 -0.57
22 -0.15
23 -0.15
24 0.25
25 -0.15
26 -0.15
27 -0.15
28 0.55
29 0.1
3 -0.65
30 0.1
32 0.37
37 0.37
4 -0.57
42 0.15
43 0.15
44 0.5
47 0.15
48 0.15
49 0.15
5 -0.57
50 0.4
51 0.4
52 0.4
53 0.4
6 -0.73
7 -0.73
8 -0.7
9 -0.85

> <PUBCHEM_EFFECTIVE_ROTOR_COUNT>
13.6

> <PUBCHEM_PHARMACOPHORE_FEATURES>
12
1 1 acceptor
1 10 donor
1 2 acceptor
1 3 acceptor
1 4 acceptor
1 5 acceptor
1 6 donor
1 7 donor
1 9 donor
3 3 4 16 anion
4 8 9 10 28 cation
6 18 22 23 25 26 27 rings

> <PUBCHEM_HEAVY_ATOM_COUNT>
28

> <PUBCHEM_ATOM_DEF_STEREO_COUNT>
1

> <PUBCHEM_ATOM_UDEF_STEREO_COUNT>
2

> <PUBCHEM_BOND_DEF_STEREO_COUNT>
0

> <PUBCHEM_BOND_UDEF_STEREO_COUNT>
0

> <PUBCHEM_ISOTOPIC_ATOM_COUNT>
0

> <PUBCHEM_COMPONENT_COUNT>
1

> <PUBCHEM_CACTVS_TAUTO_COUNT>
8

> <PUBCHEM_CONFORMER_ID>
00D61C9000000001

> <PUBCHEM_MMFF94_ENERGY>
52.4819

> <PUBCHEM_FEATURE_SELFOVERLAP>
61.013

> <PUBCHEM_SHAPE_FINGERPRINT>
10074138 170 18050830406678065008
11070050 100 18202275892657991528
11488393 25 18119242861861490986
12422481 6 18040151824999860769
12839892 36 18260829302184996333
13692114 37 18338517542444918055
14150022 121 17548119491614534824
14863182 85 18042426702089662957
15420108 30 18339074994698035835
15684970 41 17469011403353353619
17909252 39 18120110385315663979
17913733 40 18412259515181610073
19611394 137 17684642135188569042
1979834 28 18261693514414251769
20028762 73 18337397144654510319
21304303 172 17690560105989304910
229767 44 18263924521821862587
238918 7 18333457538272622123
255183 313 18264476438088748368
392239 28 18342181102636426481
6442390 28 18411140263868447044
6691757 9 18123720250057873584
6703917 75 18339662104412215956

> <PUBCHEM_SHAPE_MULTIPOLES>
521.98
12.2
6.62
1.84
9.72
13.87
-0.46
-11.67
9.53
-2.12
-1.54
0.54
-1.1
2.27

> <PUBCHEM_SHAPE_SELFOVERLAP>
1064.785

> <PUBCHEM_SHAPE_VOLUME>
299.2

> <PUBCHEM_COORDINATE_TYPE>
2
5
10

$$$$
