REMARK  Name = 14031057
REMARK  5 active torsions:
REMARK  status: ('A' for Active; 'I' for Inactive)
REMARK    1  A    between atoms: C_8  and  O_23
REMARK    2  A    between atoms: C_10  and  C_25
REMARK    3  A    between atoms: C_18  and  N_20
REMARK    4  A    between atoms: C_25  and  O_26
REMARK    5  A    between atoms: O_26  and  C_29
REMARK                            x       y       z     vdW  Elec       q    Type
REMARK                         _______ _______ _______ _____ _____    ______ ____
ROOT
ATOM      1  O   UNL     1      -4.055   2.067   1.091  0.00  0.00    -0.275 OA
ATOM      2  O   UNL     1       3.174   2.370   0.305  0.00  0.00    -0.286 OA
ATOM      3  O   UNL     1       2.050  -2.828  -0.265  0.00  0.00    -0.286 OA
ATOM      4  N   UNL     1      -1.830   1.427   0.797  0.00  0.00    -0.274 N 
ATOM      5  N   UNL     1       0.596   1.494  -0.720  0.00  0.00    -0.283 N 
ATOM      6  C   UNL     1      -1.733   1.232  -0.621  0.00  0.00    +0.138 C 
ATOM      7  C   UNL     1      -1.362   2.516   0.000  0.00  0.00    +0.117 C 
ATOM      8  C   UNL     1      -0.504   0.665  -1.262  0.00  0.00    +0.179 C 
ATOM      9  C   UNL     1       0.119   2.736  -0.122  0.00  0.00    +0.114 C 
ATOM     10  C   UNL     1      -0.065  -0.800  -0.946  0.00  0.00    +0.115 C 
ATOM     11  C   UNL     1       1.638   0.697  -0.310  0.00  0.00    +0.088 C 
ATOM     12  C   UNL     1       1.349  -0.598  -0.437  0.00  0.00    +0.042 C 
ATOM     13  C   UNL     1      -3.050   1.460   1.453  0.00  0.00    +0.226 C 
ATOM     14  C   UNL     1       2.920   1.174   0.213  0.00  0.00    +0.206 C 
ATOM     15  C   UNL     1       2.315  -1.642  -0.093  0.00  0.00    +0.206 C 
ATOM     16  C   UNL     1      -3.035   0.625   2.704  0.00  0.00    +0.095 C 
ATOM     17  C   UNL     1       3.906   0.117   0.618  0.00  0.00    +0.034 C 
ATOM     18  C   UNL     1       3.633  -1.198   0.475  0.00  0.00    +0.080 C 
ATOM     19  C   UNL     1       5.194   0.664   1.176  0.00  0.00    +0.036 C 
ENDROOT
BRANCH  18  20
ATOM     20  N   UNL     1       4.465  -2.232   0.806  0.00  0.00    -0.355 N 
ATOM     21  H   UNL     1       4.176  -3.162   0.664  0.00  0.00    +0.142 HD
ATOM     22  H   UNL     1       5.355  -2.046   1.186  0.00  0.00    +0.142 HD
ENDBRANCH  18  20
BRANCH   8  23
ATOM     23  O   UNL     1      -0.585   0.829  -2.677  0.00  0.00    -0.337 OA
ATOM     24  C   UNL     1      -1.529  -0.064  -3.246  0.00  0.00    +0.176 C 
ENDBRANCH   8  23
BRANCH  10  25
ATOM     25  C   UNL     1      -0.933  -1.536   0.070  0.00  0.00    +0.219 C 
BRANCH  25  26
ATOM     26  O   UNL     1      -2.235  -1.678  -0.467  0.00  0.00    -0.434 OA
BRANCH  26  29
ATOM     27  O   UNL     1      -2.917  -2.774   1.439  0.00  0.00    -0.227 OA
ATOM     28  N   UNL     1      -4.372  -2.400  -0.302  0.00  0.00    -0.295 N 
ATOM     29  C   UNL     1      -3.152  -2.323   0.322  0.00  0.00    +0.398 C 
ATOM     30  H   UNL     1      -4.490  -2.015  -1.201  0.00  0.00    +0.148 HD
ATOM     31  H   UNL     1      -5.129  -2.839   0.148  0.00  0.00    +0.148 HD
ENDBRANCH  26  29
ENDBRANCH  25  26
ENDBRANCH  10  25
TORSDOF 5
