REMARK  Name = 14037936
REMARK  8 active torsions:
REMARK  status: ('A' for Active; 'I' for Inactive)
REMARK    1  A    between atoms: C_10  and  O_17
REMARK    2  A    between atoms: C_11  and  O_21
REMARK    3  A    between atoms: C_12  and  O_19
REMARK    4  A    between atoms: O_21  and  C_23
REMARK    5  A    between atoms: C_23  and  C_24
REMARK    6  A    between atoms: C_24  and  C_25
REMARK    7  A    between atoms: C_25  and  C_27
REMARK    8  A    between atoms: C_27  and  O_28
REMARK                            x       y       z     vdW  Elec       q    Type
REMARK                         _______ _______ _______ _____ _____    ______ ____
ROOT
ATOM      1  O   UNL     1      -2.799   0.343   1.283  0.00  0.00    -0.361 OA
ATOM      2  C   UNL     1      -3.192  -0.183  -0.004  0.00  0.00    +0.093 C 
ATOM      3  C   UNL     1      -2.147  -1.240  -0.457  0.00  0.00    +0.030 C 
ATOM      4  C   UNL     1      -1.156  -1.221   0.719  0.00  0.00    +0.060 C 
ATOM      5  C   UNL     1      -4.272  -1.284   0.049  0.00  0.00    +0.023 C 
ATOM      6  C   UNL     1      -1.409   0.117   1.422  0.00  0.00    +0.123 C 
ATOM      7  C   UNL     1      -3.256  -2.310  -0.467  0.00  0.00    +0.005 C 
ATOM      8  C   UNL     1      -0.539   1.167   0.684  0.00  0.00    +0.094 C 
ATOM      9  C   UNL     1      -3.458   0.984  -0.940  0.00  0.00    +0.030 C 
ATOM     10  C   UNL     1       0.304  -1.104   0.320  0.00  0.00    +0.153 C 
ATOM     11  C   UNL     1       0.449   0.335  -0.172  0.00  0.00    +0.200 C 
ATOM     12  C   UNL     1      -1.300   2.278  -0.106  0.00  0.00    +0.094 C 
ATOM     13  C   UNL     1      -2.194   1.790  -1.276  0.00  0.00    +0.030 C 
ATOM     14  C   UNL     1      -4.837  -1.663   1.402  0.00  0.00    +0.002 C 
ATOM     15  C   UNL     1      -5.418  -1.081  -0.925  0.00  0.00    +0.002 C 
ATOM     16  C   UNL     1      -0.285   3.290  -0.667  0.00  0.00    +0.030 C 
ENDROOT
BRANCH  10  17
ATOM     17  O   UNL     1       0.651  -2.050  -0.674  0.00  0.00    -0.381 OA
ATOM     18  H   UNL     1       0.545  -2.946  -0.319  0.00  0.00    +0.210 HD
ENDBRANCH  10  17
BRANCH  12  19
ATOM     19  O   UNL     1      -2.107   3.029   0.811  0.00  0.00    -0.387 OA
ATOM     20  H   UNL     1      -2.775   2.447   1.206  0.00  0.00    +0.210 HD
ENDBRANCH  12  19
BRANCH  11  21
ATOM     21  O   UNL     1       1.779   0.795   0.035  0.00  0.00    -0.450 OA
BRANCH  21  23
ATOM     22  O   UNL     1       2.629  -0.494  -1.679  0.00  0.00    -0.250 OA
ATOM     23  C   UNL     1       2.761   0.091  -0.613  0.00  0.00    +0.318 C 
BRANCH  23  24
ATOM     24  C   UNL     1       4.035   0.154   0.202  0.00  0.00    +0.121 C 
BRANCH  24  25
ATOM     25  C   UNL     1       5.215  -0.529  -0.478  0.00  0.00    +0.121 C 
BRANCH  25  27
ATOM     26  O   UNL     1       6.526   0.175   1.425  0.00  0.00    -0.250 OA
ATOM     27  C   UNL     1       6.473  -0.394   0.343  0.00  0.00    +0.314 C 
BRANCH  27  28
ATOM     28  O   UNL     1       7.543  -0.993  -0.237  0.00  0.00    -0.480 OA
ATOM     29  H   UNL     1       7.449  -1.416  -1.068  0.00  0.00    +0.295 HD
ENDBRANCH  27  28
ENDBRANCH  25  27
ENDBRANCH  24  25
ENDBRANCH  23  24
ENDBRANCH  21  23
ENDBRANCH  11  21
TORSDOF 8
