REMARK  Name = 14037471
REMARK  8 active torsions:
REMARK  status: ('A' for Active; 'I' for Inactive)
REMARK    1  A    between atoms: C_5  and  C_12
REMARK    2  A    between atoms: C_6  and  O_24
REMARK    3  A    between atoms: C_8  and  O_30
REMARK    4  A    between atoms: C_10  and  O_26
REMARK    5  A    between atoms: C_11  and  O_28
REMARK    6  A    between atoms: C_15  and  O_18
REMARK    7  A    between atoms: C_16  and  O_22
REMARK    8  A    between atoms: C_17  and  O_20
REMARK                            x       y       z     vdW  Elec       q    Type
REMARK                         _______ _______ _______ _____ _____    ______ ____
ROOT
ATOM      1  O   UNL     1      -0.371  -0.725  -0.063  0.00  0.00    -0.450 OA
ATOM      2  O   UNL     1      -1.936   3.021   0.286  0.00  0.00    -0.283 OA
ATOM      3  C   UNL     1      -2.324   0.697   0.169  0.00  0.00    +0.113 A 
ATOM      4  C   UNL     1      -1.727  -0.555   0.044  0.00  0.00    +0.155 A 
ATOM      5  C   UNL     1       0.441   0.398  -0.033  0.00  0.00    +0.182 A 
ATOM      6  C   UNL     1      -0.009   1.661   0.074  0.00  0.00    +0.212 A 
ATOM      7  C   UNL     1      -1.469   1.894   0.186  0.00  0.00    +0.238 A 
ATOM      8  C   UNL     1      -3.713   0.810   0.272  0.00  0.00    +0.177 C 
ATOM      9  C   UNL     1      -2.517  -1.706   0.022  0.00  0.00    +0.078 C 
ATOM     10  C   UNL     1      -4.500  -0.342   0.251  0.00  0.00    +0.206 C 
ATOM     11  C   UNL     1      -3.904  -1.597   0.126  0.00  0.00    +0.178 C 
ENDROOT
BRANCH   5  12
ATOM     12  C   UNL     1       1.873   0.075  -0.158  0.00  0.00    +0.044 C 
ATOM     13  C   UNL     1       2.641  -0.148   0.986  0.00  0.00    +0.043 C 
ATOM     14  C   UNL     1       2.463  -0.008  -1.420  0.00  0.00    +0.043 C 
ATOM     15  C   UNL     1       3.997  -0.454   0.868  0.00  0.00    +0.176 C 
ATOM     16  C   UNL     1       3.819  -0.313  -1.538  0.00  0.00    +0.171 C 
ATOM     17  C   UNL     1       4.586  -0.536  -0.394  0.00  0.00    +0.206 C 
BRANCH  15  18
ATOM     18  O   UNL     1       4.734  -0.669   1.992  0.00  0.00    -0.468 OA
ATOM     19  C   UNL     1       5.369   0.465   2.579  0.00  0.00    +0.253 C 
ENDBRANCH  15  18
BRANCH  17  20
ATOM     20  O   UNL     1       5.911  -0.834  -0.509  0.00  0.00    -0.465 OA
ATOM     21  C   UNL     1       6.342  -2.084   0.024  0.00  0.00    +0.253 C 
ENDBRANCH  17  20
BRANCH  16  22
ATOM     22  O   UNL     1       4.382  -0.390  -2.776  0.00  0.00    -0.503 OA
ATOM     23  H   UNL     1       3.859  -0.239  -3.538  0.00  0.00    +0.292 HD
ENDBRANCH  16  22
ENDBRANCH   5  12
BRANCH   6  24
ATOM     24  O   UNL     1       0.824   2.759   0.067  0.00  0.00    -0.465 OA
ATOM     25  C   UNL     1       0.511   3.622  -1.010  0.00  0.00    +0.253 C 
ENDBRANCH   6  24
BRANCH  10  26
ATOM     26  O   UNL     1      -5.857  -0.245   0.350  0.00  0.00    -0.465 OA
ATOM     27  C   UNL     1      -6.587  -0.114  -0.868  0.00  0.00    +0.253 C 
ENDBRANCH  10  26
BRANCH  11  28
ATOM     28  O   UNL     1      -4.665  -2.727   0.103  0.00  0.00    -0.468 OA
ATOM     29  C   UNL     1      -3.977  -3.969  -0.027  0.00  0.00    +0.253 C 
ENDBRANCH  11  28
BRANCH   8  30
ATOM     30  O   UNL     1      -4.334   2.017   0.395  0.00  0.00    -0.503 OA
ATOM     31  H   UNL     1      -3.827   2.805   0.412  0.00  0.00    +0.292 HD
ENDBRANCH   8  30
TORSDOF 8
