REMARK  Name = 14059869
REMARK  3 active torsions:
REMARK  status: ('A' for Active; 'I' for Inactive)
REMARK    1  A    between atoms: C_9  and  O_23
REMARK    2  A    between atoms: C_12  and  O_25
REMARK    3  A    between atoms: C_21  and  C_27
REMARK                            x       y       z     vdW  Elec       q    Type
REMARK                         _______ _______ _______ _____ _____    ______ ____
ROOT
ATOM      1  O   UNL     1       1.997   1.741   0.851  0.00  0.00    -0.424 OA
ATOM      2  O   UNL     1       3.953   1.059   1.818  0.00  0.00    -0.250 OA
ATOM      3  O   UNL     1      -0.531   2.967   0.083  0.00  0.00    -0.285 OA
ATOM      4  O   UNL     1      -1.668  -2.902  -0.286  0.00  0.00    -0.293 OA
ATOM      5  C   UNL     1       0.640  -0.971  -0.145  0.00  0.00    +0.039 C 
ATOM      6  C   UNL     1       1.188  -2.360   0.092  0.00  0.00    +0.003 C 
ATOM      7  C   UNL     1       1.661   0.028  -0.701  0.00  0.00    +0.085 C 
ATOM      8  C   UNL     1       0.737  -1.531   1.267  0.00  0.00    +0.003 C 
ATOM      9  C   UNL     1      -0.777  -0.656  -0.641  0.00  0.00    +0.160 C 
ATOM     10  C   UNL     1       3.109  -0.085  -0.170  0.00  0.00    +0.096 C 
ATOM     11  C   UNL     1       2.638  -2.607  -0.171  0.00  0.00    +0.001 C 
ATOM     12  C   UNL     1       1.277   1.463  -0.354  0.00  0.00    +0.285 C 
ATOM     13  C   UNL     1       3.529  -1.481   0.341  0.00  0.00    +0.011 C 
ATOM     14  C   UNL     1      -1.199   0.690  -0.099  0.00  0.00    +0.045 C 
ATOM     15  C   UNL     1       3.100   0.939   0.950  0.00  0.00    +0.318 C 
ATOM     16  C   UNL     1      -0.189   1.798  -0.111  0.00  0.00    +0.234 C 
ATOM     17  C   UNL     1      -1.879  -1.694  -0.392  0.00  0.00    +0.179 C 
ATOM     18  C   UNL     1       4.131   0.387  -1.222  0.00  0.00    +0.011 C 
ATOM     19  C   UNL     1      -2.388   0.958   0.471  0.00  0.00    -0.021 C 
ATOM     20  C   UNL     1      -3.309  -1.194  -0.416  0.00  0.00    +0.075 C 
ATOM     21  C   UNL     1      -3.516  -0.043   0.579  0.00  0.00    +0.044 C 
ATOM     22  C   UNL     1      -3.571  -0.574   2.022  0.00  0.00    +0.009 C 
ENDROOT
BRANCH   9  23
ATOM     23  O   UNL     1      -0.776  -0.572  -2.073  0.00  0.00    -0.376 OA
ATOM     24  H   UNL     1      -0.105   0.068  -2.359  0.00  0.00    +0.211 HD
ENDBRANCH   9  23
BRANCH  12  25
ATOM     25  O   UNL     1       1.658   2.372  -1.387  0.00  0.00    -0.349 OA
ATOM     26  H   UNL     1       2.591   2.233  -1.614  0.00  0.00    +0.214 HD
ENDBRANCH  12  25
BRANCH  21  27
ATOM     27  C   UNL     1      -4.837   0.617   0.267  0.00  0.00    -0.022 C 
ATOM     28  C   UNL     1      -4.978   1.650  -0.571  0.00  0.00    -0.005 C 
ENDBRANCH  21  27
TORSDOF 3
