REMARK  Name = 14060930
REMARK  5 active torsions:
REMARK  status: ('A' for Active; 'I' for Inactive)
REMARK    1  A    between atoms: C_3  and  O_21
REMARK    2  A    between atoms: C_6  and  O_23
REMARK    3  A    between atoms: C_7  and  O_25
REMARK    4  A    between atoms: C_10  and  O_27
REMARK    5  A    between atoms: C_16  and  O_29
REMARK                            x       y       z     vdW  Elec       q    Type
REMARK                         _______ _______ _______ _____ _____    ______ ____
ROOT
ATOM      1  C   UNL     1       1.453   0.276  -0.534  0.00  0.00    +0.033 C 
ATOM      2  C   UNL     1       1.118  -1.244  -0.733  0.00  0.00    +0.021 C 
ATOM      3  C   UNL     1       1.651   0.624   0.957  0.00  0.00    +0.113 C 
ATOM      4  C   UNL     1       2.968  -0.097   1.270  0.00  0.00    +0.052 C 
ATOM      5  C   UNL     1       2.909   0.514  -1.100  0.00  0.00    +0.030 C 
ATOM      6  C   UNL     1      -1.884   0.339  -0.437  0.00  0.00    +0.118 C 
ATOM      7  C   UNL     1       3.872   0.347   0.098  0.00  0.00    +0.091 C 
ATOM      8  C   UNL     1       0.451   1.188  -1.278  0.00  0.00    +0.034 C 
ATOM      9  C   UNL     1      -1.338  -0.961   0.212  0.00  0.00    +0.048 C 
ATOM     10  C   UNL     1      -0.865   1.490  -0.542  0.00  0.00    +0.135 C 
ATOM     11  C   UNL     1       2.071  -2.181   0.057  0.00  0.00    +0.004 C 
ATOM     12  C   UNL     1      -3.198   0.676   0.410  0.00  0.00    +0.050 C 
ATOM     13  C   UNL     1       2.667  -1.597   1.339  0.00  0.00    +0.005 C 
ATOM     14  C   UNL     1      -0.331  -1.728  -0.624  0.00  0.00    -0.042 C 
ATOM     15  C   UNL     1      -2.643  -1.712   0.534  0.00  0.00    +0.036 C 
ATOM     16  C   UNL     1      -3.505  -0.645   1.186  0.00  0.00    +0.113 C 
ATOM     17  C   UNL     1       5.082  -0.531  -0.198  0.00  0.00    +0.029 C 
ATOM     18  C   UNL     1      -2.986   1.773   1.477  0.00  0.00    +0.005 C 
ATOM     19  C   UNL     1      -4.380   1.118  -0.477  0.00  0.00    +0.005 C 
ATOM     20  C   UNL     1      -0.657  -2.843  -1.310  0.00  0.00    -0.009 C 
ENDROOT
BRANCH   3  21
ATOM     21  O   UNL     1       1.791   2.028   1.151  0.00  0.00    -0.384 OA
ATOM     22  H   UNL     1       0.950   2.467   0.949  0.00  0.00    +0.210 HD
ENDBRANCH   3  21
BRANCH   6  23
ATOM     23  O   UNL     1      -2.276  -0.019  -1.778  0.00  0.00    -0.384 OA
ATOM     24  H   UNL     1      -1.485  -0.226  -2.301  0.00  0.00    +0.210 HD
ENDBRANCH   6  23
BRANCH   7  25
ATOM     25  O   UNL     1       4.397   1.651   0.402  0.00  0.00    -0.387 OA
ATOM     26  H   UNL     1       3.666   2.256   0.600  0.00  0.00    +0.210 HD
ENDBRANCH   7  25
BRANCH  10  27
ATOM     27  O   UNL     1      -1.501   2.570  -1.240  0.00  0.00    -0.382 OA
ATOM     28  H   UNL     1      -2.338   2.790  -0.802  0.00  0.00    +0.210 HD
ENDBRANCH  10  27
BRANCH  16  29
ATOM     29  O   UNL     1      -4.866  -1.036   1.161  0.00  0.00    -0.384 OA
ATOM     30  H   UNL     1      -5.408  -0.349   1.579  0.00  0.00    +0.210 HD
ENDBRANCH  16  29
TORSDOF 5
