REMARK  Name = 140793092
REMARK  8 active torsions:
REMARK  status: ('A' for Active; 'I' for Inactive)
REMARK    1  A    between atoms: C_3  and  O_18
REMARK    2  A    between atoms: C_5  and  C_24
REMARK    3  A    between atoms: C_6  and  O_20
REMARK    4  A    between atoms: C_14  and  O_22
REMARK    5  A    between atoms: C_24  and  C_25
REMARK    6  A    between atoms: C_26  and  N_28
REMARK    7  A    between atoms: C_29  and  C_31
REMARK    8  A    between atoms: C_32  and  C_33
REMARK                            x       y       z     vdW  Elec       q    Type
REMARK                         _______ _______ _______ _____ _____    ______ ____
ROOT
ATOM      1  O   UNL     1       2.150   0.023   0.724  0.00  0.00    -0.449 OA
ATOM      2  O   UNL     1       1.273  -0.309  -1.402  0.00  0.00    -0.245 OA
ATOM      3  C   UNL     1       4.701   2.725   0.407  0.00  0.00    +0.141 C 
ATOM      4  C   UNL     1       3.880   1.612   1.063  0.00  0.00    +0.076 C 
ATOM      5  C   UNL     1       2.475   1.410   0.485  0.00  0.00    +0.176 C 
ATOM      6  C   UNL     1       5.005   2.523  -1.093  0.00  0.00    +0.142 C 
ATOM      7  C   UNL     1       5.745   1.219  -1.452  0.00  0.00    +0.057 C 
ATOM      8  C   UNL     1       4.812   0.115  -1.872  0.00  0.00    -0.028 C 
ATOM      9  C   UNL     1       3.835  -2.192  -1.793  0.00  0.00    +0.052 C 
ATOM     10  C   UNL     1       1.704  -0.699  -0.333  0.00  0.00    +0.344 C 
ATOM     11  C   UNL     1       2.993  -2.805  -0.693  0.00  0.00    -0.009 C 
ATOM     12  C   UNL     1       1.977  -2.104  -0.015  0.00  0.00    +0.106 C 
ATOM     13  C   UNL     1       4.773  -1.112  -1.326  0.00  0.00    -0.026 C 
ATOM     14  C   UNL     1       1.218  -2.709   0.993  0.00  0.00    +0.140 C 
ATOM     15  C   UNL     1       3.224  -4.139  -0.322  0.00  0.00    -0.004 C 
ATOM     16  C   UNL     1       1.467  -4.035   1.338  0.00  0.00    +0.037 C 
ATOM     17  C   UNL     1       2.468  -4.748   0.683  0.00  0.00    +0.003 C 
ENDROOT
BRANCH   3  18
ATOM     18  O   UNL     1       5.950   2.813   1.105  0.00  0.00    -0.382 OA
ATOM     19  H   UNL     1       5.782   2.941   2.052  0.00  0.00    +0.210 HD
ENDBRANCH   3  18
BRANCH   6  20
ATOM     20  O   UNL     1       5.824   3.615  -1.532  0.00  0.00    -0.382 OA
ATOM     21  H   UNL     1       5.386   4.454  -1.320  0.00  0.00    +0.210 HD
ENDBRANCH   6  20
BRANCH  14  22
ATOM     22  O   UNL     1       0.226  -2.037   1.640  0.00  0.00    -0.505 OA
ATOM     23  H   UNL     1       0.044  -1.145   1.421  0.00  0.00    +0.292 HD
ENDBRANCH  14  22
BRANCH   5  24
ATOM     24  C   UNL     1       1.433   2.280   1.171  0.00  0.00    +0.071 C 
BRANCH  24  25
ATOM     25  C   UNL     1       0.060   2.001   0.639  0.00  0.00    -0.006 C 
ATOM     26  C   UNL     1      -0.950   1.561   1.399  0.00  0.00    +0.060 C 
BRANCH  26  28
ATOM     27  O   UNL     1      -3.237   0.617   2.869  0.00  0.00    -0.260 OA
ATOM     28  N   UNL     1      -2.194   1.322   0.903  0.00  0.00    -0.273 N 
ATOM     29  C   UNL     1      -3.253   0.867   1.670  0.00  0.00    +0.293 C 
ATOM     30  H   UNL     1      -2.351   1.482  -0.055  0.00  0.00    +0.156 HD
BRANCH  29  31
ATOM     31  C   UNL     1      -4.488   0.680   0.942  0.00  0.00    -0.002 C 
ATOM     32  C   UNL     1      -5.514   0.525   0.337  0.00  0.00    -0.055 C 
BRANCH  32  33
ATOM     33  C   UNL     1      -6.735   0.342  -0.386  0.00  0.00    +0.042 C 
ATOM     34  C   UNL     1      -6.805   0.686  -1.736  0.00  0.00    +0.008 C 
ATOM     35  C   UNL     1      -7.856  -0.180   0.260  0.00  0.00    +0.008 C 
ATOM     36  C   UNL     1      -7.996   0.507  -2.440  0.00  0.00    +0.001 C 
ATOM     37  C   UNL     1      -9.046  -0.359  -0.444  0.00  0.00    +0.001 C 
ATOM     38  C   UNL     1      -9.117  -0.016  -1.794  0.00  0.00    +0.000 C 
ENDBRANCH  32  33
ENDBRANCH  29  31
ENDBRANCH  26  28
ENDBRANCH  24  25
ENDBRANCH   5  24
TORSDOF 8
