REMARK  Name = 140709
REMARK  11 active torsions:
REMARK  status: ('A' for Active; 'I' for Inactive)
REMARK    1  A    between atoms: CA_1  and  C_4
REMARK    2  A    between atoms: CA_1  and  N_14
REMARK    3  A    between atoms: CA_1  and  CB_18
REMARK    4  A    between atoms: N_3  and  CA_6
REMARK    5  A    between atoms: CA_6  and  CB_7
REMARK    6  A    between atoms: CA_6  and  C_11
REMARK    7  A    between atoms: C_11  and  O_12
REMARK    8  A    between atoms: CB_18  and  CG_19
REMARK    9  A    between atoms: CG_19  and  CD_20
REMARK   10  A    between atoms: CD_20  and  CE_21
REMARK   11  A    between atoms: CE_21  and  NZ_22
REMARK                            x       y       z     vdW  Elec       q    Type
REMARK                         _______ _______ _______ _____ _____    ______ ____
ROOT
ATOM      1  CA  LYS A   1      -0.883  -1.935  -0.618  0.00  0.00    +0.013 C 
ENDROOT
BRANCH   1   4
ATOM      2  O   LYS A   1       0.118  -1.454   1.538  0.00  0.00    -0.277 OA
ATOM      3  N   VAL A   2       0.936  -0.365  -0.342  0.00  0.00    -0.298 N 
ATOM      4  C   LYS A   1       0.099  -1.249   0.326  0.00  0.00    +0.202 C 
ATOM      5  H   VAL A   2       0.838  -0.276  -1.318  0.00  0.00    +0.150 HD
BRANCH   3   6
ATOM      6  CA  VAL A   2       1.943   0.429   0.323  0.00  0.00    +0.171 C 
BRANCH   6   7
ATOM      7  CB  VAL A   2       3.268  -0.358   0.414  0.00  0.00    +0.029 C 
ATOM      8  CG1 VAL A   2       4.299   0.344   1.302  0.00  0.00    +0.002 C 
ATOM      9  CG2 VAL A   2       3.877  -0.675  -0.955  0.00  0.00    +0.002 C 
ENDBRANCH   6   7
BRANCH   6  11
ATOM     10  OXT VAL A   2       2.768   2.705   0.120  0.00  0.00    -0.248 OA
ATOM     11  C   VAL A   2       2.070   1.803  -0.329  0.00  0.00    +0.332 C 
BRANCH  11  12
ATOM     12  O   VAL A   2       1.301   1.976  -1.432  0.00  0.00    -0.479 OA
ATOM     13  H   VAL A   2       0.777   1.269  -1.754  0.00  0.00    +0.295 HD
ENDBRANCH  11  12
ENDBRANCH   6  11
ENDBRANCH   3   6
ENDBRANCH   1   4
BRANCH   1  14
ATOM     14  N   LYS A   1      -0.621  -3.372  -0.562  0.00  0.00    +0.387 N 
ATOM     15  H1  LYS A   1      -1.265  -3.860  -1.185  0.00  0.00    -0.089 HD
ATOM     16  H2  LYS A   1      -0.755  -3.705   0.393  0.00  0.00    -0.089 HD
ATOM     17  H3  LYS A   1       0.339  -3.554  -0.855  0.00  0.00    -0.089 HD
ENDBRANCH   1  14
BRANCH   1  18
ATOM     18  CB  LYS A   1      -2.320  -1.589  -0.200  0.00  0.00    -0.013 C 
BRANCH  18  19
ATOM     19  CG  LYS A   1      -2.629  -0.090  -0.269  0.00  0.00    -0.004 C 
BRANCH  19  20
ATOM     20  CD  LYS A   1      -4.083   0.195   0.120  0.00  0.00    -0.024 C 
BRANCH  20  21
ATOM     21  CE  LYS A   1      -4.380   1.693   0.086  0.00  0.00    -0.086 C 
BRANCH  21  22
ATOM     22  NZ  LYS A   1      -5.762   1.944   0.479  0.00  0.00    +0.380 N 
ATOM     23  HZ1 LYS A   1      -5.946   2.946   0.452  0.00  0.00    -0.089 HD
ATOM     24  HZ2 LYS A   1      -5.915   1.595   1.425  0.00  0.00    -0.089 HD
ATOM     25  HZ3 LYS A   1      -6.391   1.465  -0.166  0.00  0.00    -0.089 HD
ENDBRANCH  21  22
ENDBRANCH  20  21
ENDBRANCH  19  20
ENDBRANCH  18  19
ENDBRANCH   1  18
TORSDOF 11
