REMARK  Name = 14108095
REMARK  6 active torsions:
REMARK  status: ('A' for Active; 'I' for Inactive)
REMARK    1  A    between atoms: C_6  and  C_24
REMARK    2  A    between atoms: C_10  and  O_20
REMARK    3  A    between atoms: C_13  and  O_18
REMARK    4  A    between atoms: O_20  and  C_22
REMARK    5  A    between atoms: C_24  and  O_25
REMARK    6  A    between atoms: O_25  and  C_27
REMARK                            x       y       z     vdW  Elec       q    Type
REMARK                         _______ _______ _______ _____ _____    ______ ____
ROOT
ATOM      1  O   UNL     1      -1.631   0.145  -3.216  0.00  0.00    -0.351 OA
ATOM      2  O   UNL     1      -1.165   1.958  -0.090  0.00  0.00    -0.348 OA
ATOM      3  O   UNL     1       3.802   1.706   0.093  0.00  0.00    -0.289 OA
ATOM      4  C   UNL     1      -0.453  -0.599  -1.133  0.00  0.00    +0.040 C 
ATOM      5  C   UNL     1      -1.040   0.524  -1.963  0.00  0.00    +0.148 C 
ATOM      6  C   UNL     1       0.541   0.098  -0.086  0.00  0.00    +0.103 C 
ATOM      7  C   UNL     1      -1.962   1.242  -1.040  0.00  0.00    +0.182 C 
ATOM      8  C   UNL     1      -1.756  -1.109  -0.401  0.00  0.00    +0.049 C 
ATOM      9  C   UNL     1      -0.535   1.069  -3.276  0.00  0.00    +0.172 C 
ATOM     10  C   UNL     1      -2.750   0.075  -0.424  0.00  0.00    +0.198 C 
ATOM     11  C   UNL     1      -0.274   1.171   0.723  0.00  0.00    +0.143 C 
ATOM     12  C   UNL     1       0.152  -1.741  -1.954  0.00  0.00    +0.003 C 
ATOM     13  C   UNL     1       1.728   0.834  -0.780  0.00  0.00    +0.177 C 
ATOM     14  C   UNL     1       0.574   2.159   1.476  0.00  0.00    +0.002 C 
ATOM     15  C   UNL     1       2.579   1.633   0.203  0.00  0.00    +0.196 C 
ATOM     16  C   UNL     1       1.881   2.381   1.286  0.00  0.00    +0.013 C 
ATOM     17  C   UNL     1       2.683   3.346   2.100  0.00  0.00    +0.034 C 
ENDROOT
BRANCH  13  18
ATOM     18  O   UNL     1       2.594  -0.075  -1.439  0.00  0.00    -0.377 OA
ATOM     19  H   UNL     1       2.086  -0.602  -2.075  0.00  0.00    +0.211 HD
ENDBRANCH  13  18
BRANCH  10  20
ATOM     20  O   UNL     1      -3.275   0.385   0.850  0.00  0.00    -0.450 OA
BRANCH  20  22
ATOM     21  O   UNL     1      -4.178  -1.735   1.023  0.00  0.00    -0.250 OA
ATOM     22  C   UNL     1      -3.976  -0.616   1.474  0.00  0.00    +0.318 C 
ATOM     23  C   UNL     1      -4.470  -0.147   2.809  0.00  0.00    +0.121 C 
ENDBRANCH  20  22
ENDBRANCH  10  20
BRANCH   6  24
ATOM     24  C   UNL     1       1.125  -0.957   0.897  0.00  0.00    +0.214 C 
BRANCH  24  25
ATOM     25  O   UNL     1       1.834  -1.899   0.130  0.00  0.00    -0.448 OA
BRANCH  25  27
ATOM     26  O   UNL     1       2.395  -3.078   2.036  0.00  0.00    -0.250 OA
ATOM     27  C   UNL     1       2.432  -2.924   0.823  0.00  0.00    +0.318 C 
ATOM     28  C   UNL     1       3.146  -3.846  -0.119  0.00  0.00    +0.121 C 
ENDBRANCH  25  27
ENDBRANCH  24  25
ENDBRANCH   6  24
TORSDOF 6
