REMARK  Name = 14109027
REMARK  6 active torsions:
REMARK  status: ('A' for Active; 'I' for Inactive)
REMARK    1  A    between atoms: C_7  and  C_29
REMARK    2  A    between atoms: C_8  and  O_25
REMARK    3  A    between atoms: C_9  and  O_23
REMARK    4  A    between atoms: O_25  and  C_27
REMARK    5  A    between atoms: C_29  and  O_30
REMARK    6  A    between atoms: O_30  and  C_32
REMARK                            x       y       z     vdW  Elec       q    Type
REMARK                         _______ _______ _______ _____ _____    ______ ____
ROOT
ATOM      1  O   UNL     1       1.169   0.720  -2.192  0.00  0.00    -0.448 OA
ATOM      2  O   UNL     1       1.726  -2.858  -1.743  0.00  0.00    -0.291 OA
ATOM      3  O   UNL     1       3.312   0.082  -2.260  0.00  0.00    -0.250 OA
ATOM      4  C   UNL     1      -0.303   0.547  -0.197  0.00  0.00    +0.084 C 
ATOM      5  C   UNL     1       0.633  -0.625   0.347  0.00  0.00    +0.051 C 
ATOM      6  C   UNL     1       1.986  -0.792  -0.445  0.00  0.00    +0.147 C 
ATOM      7  C   UNL     1      -1.841   0.359   0.225  0.00  0.00    +0.051 C 
ATOM      8  C   UNL     1       0.161   1.937   0.355  0.00  0.00    +0.172 C 
ATOM      9  C   UNL     1       0.873  -0.650   1.893  0.00  0.00    +0.112 C 
ATOM     10  C   UNL     1      -2.807   1.598  -0.019  0.00  0.00    +0.004 C 
ATOM     11  C   UNL     1       3.206  -0.639   0.506  0.00  0.00    +0.023 C 
ATOM     12  C   UNL     1       3.093  -1.865   1.413  0.00  0.00    +0.029 C 
ATOM     13  C   UNL     1      -0.157   0.443  -1.730  0.00  0.00    +0.212 C 
ATOM     14  C   UNL     1       1.891  -1.716   2.350  0.00  0.00    +0.034 C 
ATOM     15  C   UNL     1      -0.723   3.094  -0.098  0.00  0.00    +0.044 C 
ATOM     16  C   UNL     1      -2.137   2.918   0.426  0.00  0.00    +0.004 C 
ATOM     17  C   UNL     1       2.134  -2.283  -0.747  0.00  0.00    +0.178 C 
ATOM     18  C   UNL     1       2.219   0.034  -1.700  0.00  0.00    +0.323 C 
ATOM     19  C   UNL     1       2.833  -2.941   0.393  0.00  0.00    +0.013 C 
ATOM     20  C   UNL     1      -4.080   1.440   0.860  0.00  0.00    +0.000 C 
ATOM     21  C   UNL     1      -3.311   1.749  -1.470  0.00  0.00    +0.000 C 
ATOM     22  C   UNL     1       3.186  -4.226   0.411  0.00  0.00    -0.002 C 
ENDROOT
BRANCH   9  23
ATOM     23  O   UNL     1      -0.341  -0.892   2.595  0.00  0.00    -0.384 OA
ATOM     24  H   UNL     1      -1.004  -0.236   2.329  0.00  0.00    +0.210 HD
ENDBRANCH   9  23
BRANCH   8  25
ATOM     25  O   UNL     1       1.511   2.255   0.042  0.00  0.00    -0.452 OA
BRANCH  25  27
ATOM     26  O   UNL     1       1.589   4.014   1.538  0.00  0.00    -0.250 OA
ATOM     27  C   UNL     1       1.966   3.454   0.517  0.00  0.00    +0.317 C 
ATOM     28  C   UNL     1       3.015   4.003  -0.403  0.00  0.00    +0.121 C 
ENDBRANCH  25  27
ENDBRANCH   8  25
BRANCH   7  29
ATOM     29  C   UNL     1      -2.463  -0.958  -0.286  0.00  0.00    +0.209 C 
BRANCH  29  30
ATOM     30  O   UNL     1      -3.800  -1.005   0.159  0.00  0.00    -0.448 OA
BRANCH  30  32
ATOM     31  O   UNL     1      -4.101  -3.052  -0.870  0.00  0.00    -0.250 OA
ATOM     32  C   UNL     1      -4.521  -2.116  -0.203  0.00  0.00    +0.318 C 
ATOM     33  C   UNL     1      -5.917  -2.029   0.336  0.00  0.00    +0.121 C 
ENDBRANCH  30  32
ENDBRANCH  29  30
ENDBRANCH   7  29
TORSDOF 6
