14108095
  -OEChem-03292013303D

 51 54  0     1  0  0  0  0  0999 V2000
   -1.6309    0.1450   -3.2157 O   0  0  0  0  0  0  0  0  0  0  0  0
   -1.1648    1.9576   -0.0902 O   0  0  0  0  0  0  0  0  0  0  0  0
   -3.2752    0.3846    0.8496 O   0  0  0  0  0  0  0  0  0  0  0  0
    2.5943   -0.0747   -1.4391 O   0  0  0  0  0  0  0  0  0  0  0  0
    1.8338   -1.8990    0.1299 O   0  0  0  0  0  0  0  0  0  0  0  0
    3.8022    1.7055    0.0928 O   0  0  0  0  0  0  0  0  0  0  0  0
   -4.1780   -1.7348    1.0228 O   0  0  0  0  0  0  0  0  0  0  0  0
    2.3949   -3.0778    2.0360 O   0  0  0  0  0  0  0  0  0  0  0  0
   -0.4530   -0.5993   -1.1333 C   0  0  1  0  0  0  0  0  0  0  0  0
   -1.0404    0.5241   -1.9629 C   0  0  2  0  0  0  0  0  0  0  0  0
    0.5409    0.0982   -0.0862 C   0  0  2  0  0  0  0  0  0  0  0  0
   -1.9625    1.2416   -1.0398 C   0  0  1  0  0  0  0  0  0  0  0  0
   -1.7561   -1.1088   -0.4011 C   0  0  0  0  0  0  0  0  0  0  0  0
   -0.5350    1.0695   -3.2757 C   0  0  0  0  0  0  0  0  0  0  0  0
   -2.7499    0.0751   -0.4244 C   0  0  1  0  0  0  0  0  0  0  0  0
   -0.2735    1.1711    0.7230 C   0  0  1  0  0  0  0  0  0  0  0  0
    0.1523   -1.7414   -1.9545 C   0  0  0  0  0  0  0  0  0  0  0  0
    1.7280    0.8343   -0.7797 C   0  0  1  0  0  0  0  0  0  0  0  0
    1.1250   -0.9566    0.8968 C   0  0  0  0  0  0  0  0  0  0  0  0
    0.5736    2.1592    1.4762 C   0  0  0  0  0  0  0  0  0  0  0  0
    2.5786    1.6326    0.2029 C   0  0  0  0  0  0  0  0  0  0  0  0
    1.8810    2.3812    1.2855 C   0  0  0  0  0  0  0  0  0  0  0  0
   -3.9758   -0.6156    1.4740 C   0  0  0  0  0  0  0  0  0  0  0  0
    2.6830    3.3457    2.0998 C   0  0  0  0  0  0  0  0  0  0  0  0
    2.4315   -2.9243    0.8227 C   0  0  0  0  0  0  0  0  0  0  0  0
   -4.4699   -0.1471    2.8091 C   0  0  0  0  0  0  0  0  0  0  0  0
    3.1457   -3.8461   -0.1187 C   0  0  0  0  0  0  0  0  0  0  0  0
   -2.6229    1.9593   -1.5360 H   0  0  0  0  0  0  0  0  0  0  0  0
   -1.5592   -1.4965    0.6000 H   0  0  0  0  0  0  0  0  0  0  0  0
   -2.2009   -1.9345   -0.9726 H   0  0  0  0  0  0  0  0  0  0  0  0
   -0.7604    2.0985   -3.5246 H   0  0  0  0  0  0  0  0  0  0  0  0
    0.4027    0.7029   -3.6711 H   0  0  0  0  0  0  0  0  0  0  0  0
   -3.5805   -0.1767   -1.0989 H   0  0  0  0  0  0  0  0  0  0  0  0
   -0.8765    0.6605    1.4830 H   0  0  0  0  0  0  0  0  0  0  0  0
   -0.5434   -2.0512   -2.7451 H   0  0  0  0  0  0  0  0  0  0  0  0
    1.0704   -1.4702   -2.4759 H   0  0  0  0  0  0  0  0  0  0  0  0
    0.3106   -2.6477   -1.3649 H   0  0  0  0  0  0  0  0  0  0  0  0
    1.3800    1.5558   -1.5238 H   0  0  0  0  0  0  0  0  0  0  0  0
    0.3360   -1.4592    1.4645 H   0  0  0  0  0  0  0  0  0  0  0  0
    1.8025   -0.4971    1.6253 H   0  0  0  0  0  0  0  0  0  0  0  0
    0.0573    2.7222    2.2517 H   0  0  0  0  0  0  0  0  0  0  0  0
    3.0293   -0.6300   -0.7712 H   0  0  0  0  0  0  0  0  0  0  0  0
    3.1283    4.1115    1.4563 H   0  0  0  0  0  0  0  0  0  0  0  0
    3.4874    2.8239    2.6285 H   0  0  0  0  0  0  0  0  0  0  0  0
    2.0702    3.8575    2.8493 H   0  0  0  0  0  0  0  0  0  0  0  0
   -5.1432    0.7035    2.6764 H   0  0  0  0  0  0  0  0  0  0  0  0
   -3.6217    0.1278    3.4410 H   0  0  0  0  0  0  0  0  0  0  0  0
   -5.0207   -0.9563    3.2969 H   0  0  0  0  0  0  0  0  0  0  0  0
    3.9015   -3.2893   -0.6784 H   0  0  0  0  0  0  0  0  0  0  0  0
    2.4267   -4.3090   -0.7989 H   0  0  0  0  0  0  0  0  0  0  0  0
    3.6456   -4.6333    0.4527 H   0  0  0  0  0  0  0  0  0  0  0  0
  1 10  1  0  0  0  0
  1 14  1  0  0  0  0
  2 12  1  0  0  0  0
  2 16  1  0  0  0  0
  3 15  1  0  0  0  0
  3 23  1  0  0  0  0
  4 18  1  0  0  0  0
  4 42  1  0  0  0  0
  5 19  1  0  0  0  0
  5 25  1  0  0  0  0
  6 21  2  0  0  0  0
  7 23  2  0  0  0  0
  8 25  2  0  0  0  0
  9 10  1  0  0  0  0
  9 11  1  0  0  0  0
  9 13  1  0  0  0  0
  9 17  1  0  0  0  0
 10 12  1  0  0  0  0
 10 14  1  0  0  0  0
 11 16  1  0  0  0  0
 11 18  1  0  0  0  0
 11 19  1  0  0  0  0
 12 15  1  0  0  0  0
 12 28  1  0  0  0  0
 13 15  1  0  0  0  0
 13 29  1  0  0  0  0
 13 30  1  0  0  0  0
 14 31  1  0  0  0  0
 14 32  1  0  0  0  0
 15 33  1  0  0  0  0
 16 20  1  0  0  0  0
 16 34  1  0  0  0  0
 17 35  1  0  0  0  0
 17 36  1  0  0  0  0
 17 37  1  0  0  0  0
 18 21  1  0  0  0  0
 18 38  1  0  0  0  0
 19 39  1  0  0  0  0
 19 40  1  0  0  0  0
 20 22  2  0  0  0  0
 20 41  1  0  0  0  0
 21 22  1  0  0  0  0
 22 24  1  0  0  0  0
 23 26  1  0  0  0  0
 24 43  1  0  0  0  0
 24 44  1  0  0  0  0
 24 45  1  0  0  0  0
 25 27  1  0  0  0  0
 26 46  1  0  0  0  0
 26 47  1  0  0  0  0
 26 48  1  0  0  0  0
 27 49  1  0  0  0  0
 27 50  1  0  0  0  0
 27 51  1  0  0  0  0
M  END
> <PUBCHEM_COMPOUND_CID>
14108095

> <PUBCHEM_CONFORMER_RMSD>
0.8

> <PUBCHEM_CONFORMER_DIVERSEORDER>
3
7
6
1
4
8
5
2

> <PUBCHEM_MMFF94_PARTIAL_CHARGES>
28
1 -0.3
10 -0.04
12 0.38
14 -0.05
15 0.28
16 0.42
18 0.34
19 0.28
2 -0.56
20 -0.29
21 0.49
22 -0.12
23 0.66
24 0.14
25 0.66
26 0.06
27 0.06
3 -0.43
31 0.1
32 0.1
4 -0.68
41 0.15
42 0.4
5 -0.43
6 -0.57
7 -0.57
8 -0.57
9 0.09

> <PUBCHEM_EFFECTIVE_ROTOR_COUNT>
6.2

> <PUBCHEM_PHARMACOPHORE_FEATURES>
9
1 1 acceptor
1 2 acceptor
1 4 acceptor
1 4 donor
1 6 acceptor
1 7 acceptor
1 8 acceptor
6 11 16 18 20 21 22 rings
8 2 9 10 11 12 13 15 16 rings

> <PUBCHEM_HEAVY_ATOM_COUNT>
27

> <PUBCHEM_ATOM_DEF_STEREO_COUNT>
7

> <PUBCHEM_ATOM_UDEF_STEREO_COUNT>
0

> <PUBCHEM_BOND_DEF_STEREO_COUNT>
0

> <PUBCHEM_BOND_UDEF_STEREO_COUNT>
0

> <PUBCHEM_ISOTOPIC_ATOM_COUNT>
0

> <PUBCHEM_COMPONENT_COUNT>
1

> <PUBCHEM_CACTVS_TAUTO_COUNT>
8

> <PUBCHEM_CONFORMER_ID>
00D745BF00000003

> <PUBCHEM_MMFF94_ENERGY>
94.1783

> <PUBCHEM_FEATURE_SELFOVERLAP>
45.692

> <PUBCHEM_SHAPE_FINGERPRINT>
10064457 181 18048610501070148978
10165383 225 18190194566551143764
10382601 240 18202012065564866897
10863032 1 17968665891172580973
10948715 1 16844184522002434061
11578080 2 17968659307019624701
121448 382 17334735027880283568
12160290 23 17253690081895025914
12633257 1 18057341491653116379
12714826 92 17534344431472522123
13140716 1 18056469784700713112
13149001 5 17610591177628074287
133893 2 17912044431187208188
13533116 47 18410019849510730275
13583140 156 18413387635839985921
14223421 5 18187077334773836183
14863182 85 17899998302274444763
14955137 171 18130511830018522370
15664445 248 16588316015719178909
16945 1 18188212116778639845
17980427 26 18201156684326071664
21330990 113 18116719701629042466
22112679 90 17345731054479821644
229495 10 18335693932012035157
23419403 2 18189602878818193813
23557571 272 17240748576284917965
23559900 14 17822570512877996983
25222932 49 17770230663426780107
298252 57 16342033193335735617
3380486 77 17270838897885227959
35225 105 17039743788972883266
394222 165 17560536091352005619
458136 41 18336554931447867336
469060 322 17391886520936234135
58260988 521 18041853929662093410
6442390 28 17977674426235887010
70251023 43 18120064261920718775
7288768 16 17553476285983156728
81228 2 16964333840069518442
9981440 41 17472922636679955201
9999458 23 18194698170204488561

> <PUBCHEM_SHAPE_MULTIPOLES>
508.69
6.04
3.63
2.81
4.3
1.18
-1.39
1.03
4.47
-5.36
2.21
1.86
0
0.19

> <PUBCHEM_SHAPE_SELFOVERLAP>
1097.679

> <PUBCHEM_SHAPE_VOLUME>
274.1

> <PUBCHEM_COORDINATE_TYPE>
2
5
10

$$$$
