14109375
  -OEChem-03292013303D

 71 74  0     1  0  0  0  0  0999 V2000
    0.9052   -2.6018   -1.3663 O   0  0  0  0  0  0  0  0  0  0  0  0
   -1.3059   -3.0585    0.1633 O   0  0  0  0  0  0  0  0  0  0  0  0
    0.9809    2.9975   -0.0260 O   0  0  0  0  0  0  0  0  0  0  0  0
    6.5912    0.6403    1.7661 O   0  0  0  0  0  0  0  0  0  0  0  0
   -7.4736    0.2457    2.3331 O   0  0  0  0  0  0  0  0  0  0  0  0
   -7.9058   -0.6096    0.2745 O   0  0  0  0  0  0  0  0  0  0  0  0
   -1.4954    0.3809   -0.5750 C   0  0  1  0  0  0  0  0  0  0  0  0
   -0.7336   -0.6693    0.2900 C   0  0  2  0  0  0  0  0  0  0  0  0
    2.9054    0.7551   -0.2971 C   0  0  1  0  0  0  0  0  0  0  0  0
   -2.9836    0.0657   -0.2723 C   0  0  2  0  0  0  0  0  0  0  0  0
    0.7401   -0.5943   -0.0658 C   0  0  0  0  0  0  0  0  0  0  0  0
    3.5822   -0.5856    0.2003 C   0  0  1  0  0  0  0  0  0  0  0  0
    1.3625    0.6154   -0.1304 C   0  0  0  0  0  0  0  0  0  0  0  0
   -1.0340    1.7660   -0.1424 C   0  0  0  0  0  0  0  0  0  0  0  0
   -3.0447   -1.4701   -0.3534 C   0  0  0  0  0  0  0  0  0  0  0  0
    1.4783   -1.8986   -0.2626 C   0  0  2  0  0  0  0  0  0  0  0  0
   -1.6318   -1.8870    0.0205 C   0  0  0  0  0  0  0  0  0  0  0  0
    2.9747   -1.7748   -0.5488 C   0  0  0  0  0  0  0  0  0  0  0  0
    5.1475   -0.6333    0.2842 C   0  0  0  0  0  0  0  0  0  0  0  0
    3.5171    1.8894    0.5724 C   0  0  0  0  0  0  0  0  0  0  0  0
   -4.0194    0.7326   -1.1696 C   0  0  1  0  0  0  0  0  0  0  0  0
    0.4895    1.8705   -0.0902 C   0  0  0  0  0  0  0  0  0  0  0  0
   -1.2228    0.2295   -2.1083 C   0  0  0  0  0  0  0  0  0  0  0  0
   -0.8299   -0.4921    1.8328 C   0  0  0  0  0  0  0  0  0  0  0  0
    3.1235    1.0770   -1.7919 C   0  0  0  0  0  0  0  0  0  0  0  0
    5.0377    1.9489    0.5410 C   0  0  0  0  0  0  0  0  0  0  0  0
    5.6527    0.6435    0.9670 C   0  0  0  0  0  0  0  0  0  0  0  0
   -5.4361    0.2637   -0.7818 C   0  0  0  0  0  0  0  0  0  0  0  0
    5.8747   -0.7823   -1.0598 C   0  0  0  0  0  0  0  0  0  0  0  0
    5.5776   -1.8333    1.1691 C   0  0  0  0  0  0  0  0  0  0  0  0
   -3.8748    2.2554   -1.0927 C   0  0  0  0  0  0  0  0  0  0  0  0
   -5.7917    0.5285    0.6825 C   0  0  0  0  0  0  0  0  0  0  0  0
   -7.1575   -0.0148    1.0375 C   0  0  0  0  0  0  0  0  0  0  0  0
   -3.1652    0.3736    0.7632 H   0  0  0  0  0  0  0  0  0  0  0  0
    3.2559   -0.6916    1.2500 H   0  0  0  0  0  0  0  0  0  0  0  0
   -1.4204    2.0395    0.8454 H   0  0  0  0  0  0  0  0  0  0  0  0
   -1.3386    2.5384   -0.8509 H   0  0  0  0  0  0  0  0  0  0  0  0
   -3.2648   -1.8355   -1.3607 H   0  0  0  0  0  0  0  0  0  0  0  0
   -3.7542   -1.8841    0.3678 H   0  0  0  0  0  0  0  0  0  0  0  0
    1.3418   -2.5093    0.6385 H   0  0  0  0  0  0  0  0  0  0  0  0
    3.4406   -2.7216   -0.2565 H   0  0  0  0  0  0  0  0  0  0  0  0
    3.1577   -1.6983   -1.6270 H   0  0  0  0  0  0  0  0  0  0  0  0
    3.1826    1.7715    1.6120 H   0  0  0  0  0  0  0  0  0  0  0  0
    3.1808    2.8746    0.2394 H   0  0  0  0  0  0  0  0  0  0  0  0
   -3.8812    0.4329   -2.2155 H   0  0  0  0  0  0  0  0  0  0  0  0
   -1.5193   -0.7533   -2.4880 H   0  0  0  0  0  0  0  0  0  0  0  0
   -1.7601    0.9836   -2.6913 H   0  0  0  0  0  0  0  0  0  0  0  0
   -0.1677    0.3577   -2.3680 H   0  0  0  0  0  0  0  0  0  0  0  0
   -1.8578   -0.5445    2.2069 H   0  0  0  0  0  0  0  0  0  0  0  0
   -0.2841   -1.2981    2.3410 H   0  0  0  0  0  0  0  0  0  0  0  0
   -0.4009    0.4516    2.1849 H   0  0  0  0  0  0  0  0  0  0  0  0
    2.7415    0.2887   -2.4485 H   0  0  0  0  0  0  0  0  0  0  0  0
    2.5988    1.9986   -2.0739 H   0  0  0  0  0  0  0  0  0  0  0  0
    4.1684    1.2432   -2.0480 H   0  0  0  0  0  0  0  0  0  0  0  0
    5.3765    2.7310    1.2307 H   0  0  0  0  0  0  0  0  0  0  0  0
    5.4175    2.2101   -0.4508 H   0  0  0  0  0  0  0  0  0  0  0  0
   -6.1691    0.7674   -1.4261 H   0  0  0  0  0  0  0  0  0  0  0  0
   -5.5479   -0.8056   -1.0010 H   0  0  0  0  0  0  0  0  0  0  0  0
    5.5150   -1.6467   -1.6262 H   0  0  0  0  0  0  0  0  0  0  0  0
    5.7922    0.1019   -1.6916 H   0  0  0  0  0  0  0  0  0  0  0  0
    6.9509   -0.9270   -0.9008 H   0  0  0  0  0  0  0  0  0  0  0  0
    5.3296   -2.7952    0.7111 H   0  0  0  0  0  0  0  0  0  0  0  0
    6.6612   -1.8395    1.3390 H   0  0  0  0  0  0  0  0  0  0  0  0
    5.1003   -1.7905    2.1550 H   0  0  0  0  0  0  0  0  0  0  0  0
   -3.6737    2.6126   -0.0782 H   0  0  0  0  0  0  0  0  0  0  0  0
   -3.1130    2.6241   -1.7819 H   0  0  0  0  0  0  0  0  0  0  0  0
   -4.8052    2.7366   -1.4184 H   0  0  0  0  0  0  0  0  0  0  0  0
    1.3341   -3.4734   -1.4131 H   0  0  0  0  0  0  0  0  0  0  0  0
   -5.0945    0.0329    1.3627 H   0  0  0  0  0  0  0  0  0  0  0  0
   -5.7924    1.6045    0.8843 H   0  0  0  0  0  0  0  0  0  0  0  0
   -8.3602   -0.1011    2.5696 H   0  0  0  0  0  0  0  0  0  0  0  0
  1 16  1  0  0  0  0
  1 68  1  0  0  0  0
  2 17  2  0  0  0  0
  3 22  2  0  0  0  0
  4 27  2  0  0  0  0
  5 33  1  0  0  0  0
  5 71  1  0  0  0  0
  6 33  2  0  0  0  0
  7  8  1  0  0  0  0
  7 10  1  0  0  0  0
  7 14  1  0  0  0  0
  7 23  1  0  0  0  0
  8 11  1  0  0  0  0
  8 17  1  0  0  0  0
  8 24  1  0  0  0  0
  9 12  1  0  0  0  0
  9 13  1  0  0  0  0
  9 20  1  0  0  0  0
  9 25  1  0  0  0  0
 10 15  1  0  0  0  0
 10 21  1  0  0  0  0
 10 34  1  0  0  0  0
 11 13  2  0  0  0  0
 11 16  1  0  0  0  0
 12 18  1  0  0  0  0
 12 19  1  0  0  0  0
 12 35  1  0  0  0  0
 13 22  1  0  0  0  0
 14 22  1  0  0  0  0
 14 36  1  0  0  0  0
 14 37  1  0  0  0  0
 15 17  1  0  0  0  0
 15 38  1  0  0  0  0
 15 39  1  0  0  0  0
 16 18  1  0  0  0  0
 16 40  1  0  0  0  0
 18 41  1  0  0  0  0
 18 42  1  0  0  0  0
 19 27  1  0  0  0  0
 19 29  1  0  0  0  0
 19 30  1  0  0  0  0
 20 26  1  0  0  0  0
 20 43  1  0  0  0  0
 20 44  1  0  0  0  0
 21 28  1  0  0  0  0
 21 31  1  0  0  0  0
 21 45  1  0  0  0  0
 23 46  1  0  0  0  0
 23 47  1  0  0  0  0
 23 48  1  0  0  0  0
 24 49  1  0  0  0  0
 24 50  1  0  0  0  0
 24 51  1  0  0  0  0
 25 52  1  0  0  0  0
 25 53  1  0  0  0  0
 25 54  1  0  0  0  0
 26 27  1  0  0  0  0
 26 55  1  0  0  0  0
 26 56  1  0  0  0  0
 28 32  1  0  0  0  0
 28 57  1  0  0  0  0
 28 58  1  0  0  0  0
 29 59  1  0  0  0  0
 29 60  1  0  0  0  0
 29 61  1  0  0  0  0
 30 62  1  0  0  0  0
 30 63  1  0  0  0  0
 30 64  1  0  0  0  0
 31 65  1  0  0  0  0
 31 66  1  0  0  0  0
 31 67  1  0  0  0  0
 32 33  1  0  0  0  0
 32 69  1  0  0  0  0
 32 70  1  0  0  0  0
M  END
> <PUBCHEM_COMPOUND_CID>
14109375

> <PUBCHEM_CONFORMER_RMSD>
0.8

> <PUBCHEM_CONFORMER_DIVERSEORDER>
3
5
1
4
2

> <PUBCHEM_MMFF94_PARTIAL_CHARGES>
22
1 -0.68
11 -0.28
13 -0.12
14 0.06
15 0.06
16 0.42
17 0.45
19 0.06
2 -0.57
22 0.49
26 0.06
27 0.45
3 -0.57
32 0.06
33 0.66
4 -0.57
5 -0.65
6 -0.57
68 0.4
71 0.5
8 0.2
9 0.14

> <PUBCHEM_EFFECTIVE_ROTOR_COUNT>
5.6

> <PUBCHEM_PHARMACOPHORE_FEATURES>
14
1 1 acceptor
1 1 donor
1 2 acceptor
1 3 acceptor
1 31 hydrophobe
1 4 acceptor
1 5 acceptor
1 6 acceptor
3 19 29 30 hydrophobe
3 5 6 33 anion
5 7 8 10 15 17 rings
6 7 8 11 13 14 22 rings
6 9 11 12 13 16 18 rings
6 9 12 19 20 26 27 rings

> <PUBCHEM_HEAVY_ATOM_COUNT>
33

> <PUBCHEM_ATOM_DEF_STEREO_COUNT>
7

> <PUBCHEM_ATOM_UDEF_STEREO_COUNT>
0

> <PUBCHEM_BOND_DEF_STEREO_COUNT>
0

> <PUBCHEM_BOND_UDEF_STEREO_COUNT>
0

> <PUBCHEM_ISOTOPIC_ATOM_COUNT>
0

> <PUBCHEM_COMPONENT_COUNT>
1

> <PUBCHEM_CACTVS_TAUTO_COUNT>
8

> <PUBCHEM_CONFORMER_ID>
00D74ABF00000003

> <PUBCHEM_MMFF94_ENERGY>
119.9639

> <PUBCHEM_FEATURE_SELFOVERLAP>
71.204

> <PUBCHEM_SHAPE_FINGERPRINT>
10 15 18187080689396762056
10076449 9 18335994081965478046
10906281 52 18342187681960996206
11456790 92 18059851740823366394
11578080 2 17486760046317864920
11646440 116 18412265029898739977
12035758 1 18334856130116652209
12166972 35 17968099711414679460
12236239 1 17131828772277289439
12788726 201 18198615536813188808
13140716 1 18194681690330558281
13224815 77 18336264630877703276
13402501 40 18410567375566249316
13533116 47 17775284933357864574
13782708 43 17458345230367508003
14028597 1 17988929925270042443
14251764 18 17989204872007167149
14790565 3 18195242213675222469
14849402 71 18129660936678252369
14856354 85 16415473883840899133
14955137 171 17749397005175639309
15131766 46 14762907950074251282
15183329 4 18410851057876361031
15840311 113 17561369469969571929
16728300 4 17389357365584361306
17349148 13 18410846643135368204
18608769 82 18187652444017283307
20715895 44 18337097956958598196
21267235 1 18409733920008763686
21279426 13 18266168436207565348
21424621 283 16415206650643406307
21521721 280 18201998858497895720
21623969 137 18408608050398794075
21781051 124 17895493495623899643
21792934 111 18334852793412853309
22149856 69 18267887033633501897
23559900 14 18411411839731452356
24771293 8 17987502866662576016
3004659 81 18186521004045623812
3009799 131 11815898946964042403
3178227 256 18260556619401596617
335352 9 18411420630822489638
3383291 50 18259702298445237635
350125 39 18334577940520865119
3680242 22 18409161087473017322
4093350 32 16988848263564865262
4340502 62 18341897385338010263
5104073 3 18339355382952588218
59755656 215 18410855417954306622
6328613 192 11312051071972126291
70251023 43 17700994145025334782

> <PUBCHEM_SHAPE_MULTIPOLES>
643.91
16.48
2.5
1.51
14.9
0.15
0.12
-0.46
7.06
-1.23
-0.26
0.48
-0.06
0.75

> <PUBCHEM_SHAPE_SELFOVERLAP>
1379.533

> <PUBCHEM_SHAPE_VOLUME>
354.4

> <PUBCHEM_COORDINATE_TYPE>
2
5
10

$$$$
