14109027
  -OEChem-03292013303D

 64 67  0     1  0  0  0  0  0999 V2000
    1.1689    0.7203   -2.1915 O   0  0  0  0  0  0  0  0  0  0  0  0
    1.5109    2.2552    0.0415 O   0  0  0  0  0  0  0  0  0  0  0  0
   -0.3406   -0.8919    2.5952 O   0  0  0  0  0  0  0  0  0  0  0  0
   -3.8005   -1.0050    0.1585 O   0  0  0  0  0  0  0  0  0  0  0  0
    1.7259   -2.8578   -1.7434 O   0  0  0  0  0  0  0  0  0  0  0  0
    3.3116    0.0820   -2.2604 O   0  0  0  0  0  0  0  0  0  0  0  0
    1.5894    4.0136    1.5378 O   0  0  0  0  0  0  0  0  0  0  0  0
   -4.1012   -3.0520   -0.8697 O   0  0  0  0  0  0  0  0  0  0  0  0
   -0.3032    0.5475   -0.1973 C   0  0  1  0  0  0  0  0  0  0  0  0
    0.6334   -0.6247    0.3473 C   0  0  1  0  0  0  0  0  0  0  0  0
    1.9855   -0.7917   -0.4452 C   0  0  1  0  0  0  0  0  0  0  0  0
   -1.8405    0.3591    0.2247 C   0  0  1  0  0  0  0  0  0  0  0  0
    0.1613    1.9370    0.3553 C   0  0  2  0  0  0  0  0  0  0  0  0
    0.8734   -0.6499    1.8925 C   0  0  2  0  0  0  0  0  0  0  0  0
   -2.8067    1.5976   -0.0195 C   0  0  0  0  0  0  0  0  0  0  0  0
    3.2063   -0.6389    0.5057 C   0  0  0  0  0  0  0  0  0  0  0  0
    3.0929   -1.8654    1.4128 C   0  0  1  0  0  0  0  0  0  0  0  0
   -0.1571    0.4426   -1.7300 C   0  0  0  0  0  0  0  0  0  0  0  0
    1.8905   -1.7155    2.3504 C   0  0  0  0  0  0  0  0  0  0  0  0
   -0.7233    3.0943   -0.0982 C   0  0  0  0  0  0  0  0  0  0  0  0
   -2.1370    2.9177    0.4259 C   0  0  0  0  0  0  0  0  0  0  0  0
    2.1343   -2.2834   -0.7473 C   0  0  0  0  0  0  0  0  0  0  0  0
    2.2185    0.0338   -1.6997 C   0  0  0  0  0  0  0  0  0  0  0  0
    2.8328   -2.9409    0.3927 C   0  0  0  0  0  0  0  0  0  0  0  0
   -2.4629   -0.9579   -0.2860 C   0  0  0  0  0  0  0  0  0  0  0  0
   -4.0802    1.4396    0.8596 C   0  0  0  0  0  0  0  0  0  0  0  0
   -3.3114    1.7488   -1.4704 C   0  0  0  0  0  0  0  0  0  0  0  0
    3.1864   -4.2261    0.4112 C   0  0  0  0  0  0  0  0  0  0  0  0
    1.9663    3.4541    0.5170 C   0  0  0  0  0  0  0  0  0  0  0  0
   -4.5212   -2.1157   -0.2032 C   0  0  0  0  0  0  0  0  0  0  0  0
    3.0146    4.0028   -0.4028 C   0  0  0  0  0  0  0  0  0  0  0  0
   -5.9167   -2.0290    0.3363 C   0  0  0  0  0  0  0  0  0  0  0  0
    0.0677   -1.5432    0.1498 H   0  0  0  0  0  0  0  0  0  0  0  0
   -1.8291    0.2753    1.3170 H   0  0  0  0  0  0  0  0  0  0  0  0
    0.0888    1.8965    1.4498 H   0  0  0  0  0  0  0  0  0  0  0  0
    1.2466    0.3239    2.2247 H   0  0  0  0  0  0  0  0  0  0  0  0
    3.2020    0.3071    1.0576 H   0  0  0  0  0  0  0  0  0  0  0  0
    4.1589   -0.6709   -0.0423 H   0  0  0  0  0  0  0  0  0  0  0  0
    4.0153   -2.0505    1.9723 H   0  0  0  0  0  0  0  0  0  0  0  0
   -0.4279   -0.5513   -2.1039 H   0  0  0  0  0  0  0  0  0  0  0  0
   -0.7926    1.1509   -2.2533 H   0  0  0  0  0  0  0  0  0  0  0  0
    1.3891   -2.6795    2.5113 H   0  0  0  0  0  0  0  0  0  0  0  0
    2.2517   -1.4207    3.3451 H   0  0  0  0  0  0  0  0  0  0  0  0
   -0.7135    3.1791   -1.1906 H   0  0  0  0  0  0  0  0  0  0  0  0
   -0.3777    4.0708    0.2518 H   0  0  0  0  0  0  0  0  0  0  0  0
   -2.1017    2.9574    1.5237 H   0  0  0  0  0  0  0  0  0  0  0  0
   -2.7441    3.7769    0.1121 H   0  0  0  0  0  0  0  0  0  0  0  0
   -1.9376   -1.8254    0.1220 H   0  0  0  0  0  0  0  0  0  0  0  0
   -2.4442   -1.0129   -1.3784 H   0  0  0  0  0  0  0  0  0  0  0  0
   -4.5045    2.4266    1.0895 H   0  0  0  0  0  0  0  0  0  0  0  0
   -4.8982    0.9122    0.3603 H   0  0  0  0  0  0  0  0  0  0  0  0
   -3.8695    0.9694    1.8261 H   0  0  0  0  0  0  0  0  0  0  0  0
   -2.5403    2.0966   -2.1576 H   0  0  0  0  0  0  0  0  0  0  0  0
   -3.7304    0.8205   -1.8684 H   0  0  0  0  0  0  0  0  0  0  0  0
   -4.1109    2.4994   -1.5197 H   0  0  0  0  0  0  0  0  0  0  0  0
   -0.1441   -0.8537    3.5468 H   0  0  0  0  0  0  0  0  0  0  0  0
    3.7184   -4.6405    1.2608 H   0  0  0  0  0  0  0  0  0  0  0  0
    2.9554   -4.8928   -0.4123 H   0  0  0  0  0  0  0  0  0  0  0  0
    2.5845    4.1731   -1.3929 H   0  0  0  0  0  0  0  0  0  0  0  0
    3.8548    3.3065   -0.4626 H   0  0  0  0  0  0  0  0  0  0  0  0
    3.3787    4.9567   -0.0108 H   0  0  0  0  0  0  0  0  0  0  0  0
   -6.4462   -1.2012   -0.1412 H   0  0  0  0  0  0  0  0  0  0  0  0
   -5.8872   -1.8930    1.4204 H   0  0  0  0  0  0  0  0  0  0  0  0
   -6.4483   -2.9600    0.1195 H   0  0  0  0  0  0  0  0  0  0  0  0
  1 18  1  0  0  0  0
  1 23  1  0  0  0  0
  2 13  1  0  0  0  0
  2 29  1  0  0  0  0
  3 14  1  0  0  0  0
  3 56  1  0  0  0  0
  4 25  1  0  0  0  0
  4 30  1  0  0  0  0
  5 22  2  0  0  0  0
  6 23  2  0  0  0  0
  7 29  2  0  0  0  0
  8 30  2  0  0  0  0
  9 10  1  0  0  0  0
  9 12  1  0  0  0  0
  9 13  1  0  0  0  0
  9 18  1  0  0  0  0
 10 11  1  0  0  0  0
 10 14  1  0  0  0  0
 10 33  1  0  0  0  0
 11 16  1  0  0  0  0
 11 22  1  0  0  0  0
 11 23  1  0  0  0  0
 12 15  1  0  0  0  0
 12 25  1  0  0  0  0
 12 34  1  0  0  0  0
 13 20  1  0  0  0  0
 13 35  1  0  0  0  0
 14 19  1  0  0  0  0
 14 36  1  0  0  0  0
 15 21  1  0  0  0  0
 15 26  1  0  0  0  0
 15 27  1  0  0  0  0
 16 17  1  0  0  0  0
 16 37  1  0  0  0  0
 16 38  1  0  0  0  0
 17 19  1  0  0  0  0
 17 24  1  0  0  0  0
 17 39  1  0  0  0  0
 18 40  1  0  0  0  0
 18 41  1  0  0  0  0
 19 42  1  0  0  0  0
 19 43  1  0  0  0  0
 20 21  1  0  0  0  0
 20 44  1  0  0  0  0
 20 45  1  0  0  0  0
 21 46  1  0  0  0  0
 21 47  1  0  0  0  0
 22 24  1  0  0  0  0
 24 28  2  0  0  0  0
 25 48  1  0  0  0  0
 25 49  1  0  0  0  0
 26 50  1  0  0  0  0
 26 51  1  0  0  0  0
 26 52  1  0  0  0  0
 27 53  1  0  0  0  0
 27 54  1  0  0  0  0
 27 55  1  0  0  0  0
 28 57  1  0  0  0  0
 28 58  1  0  0  0  0
 29 31  1  0  0  0  0
 30 32  1  0  0  0  0
 31 59  1  0  0  0  0
 31 60  1  0  0  0  0
 31 61  1  0  0  0  0
 32 62  1  0  0  0  0
 32 63  1  0  0  0  0
 32 64  1  0  0  0  0
M  END
> <PUBCHEM_COMPOUND_CID>
14109027

> <PUBCHEM_CONFORMER_RMSD>
1

> <PUBCHEM_CONFORMER_DIVERSEORDER>
1
10
7
6
12
8
5
9
3
4
11
13
2

> <PUBCHEM_MMFF94_PARTIAL_CHARGES>
25
1 -0.43
11 0.12
13 0.28
14 0.28
17 0.14
18 0.28
2 -0.43
22 0.49
23 0.66
24 -0.12
25 0.28
28 -0.3
29 0.66
3 -0.68
30 0.66
31 0.06
32 0.06
4 -0.43
5 -0.57
56 0.4
57 0.15
58 0.15
6 -0.57
7 -0.57
8 -0.57

> <PUBCHEM_EFFECTIVE_ROTOR_COUNT>
7

> <PUBCHEM_PHARMACOPHORE_FEATURES>
10
1 3 acceptor
1 3 donor
1 5 acceptor
1 6 acceptor
1 7 acceptor
1 8 acceptor
3 15 26 27 hydrophobe
6 1 9 10 11 18 23 rings
6 9 12 13 15 20 21 rings
8 10 11 14 16 17 19 22 24 rings

> <PUBCHEM_HEAVY_ATOM_COUNT>
32

> <PUBCHEM_ATOM_DEF_STEREO_COUNT>
7

> <PUBCHEM_ATOM_UDEF_STEREO_COUNT>
0

> <PUBCHEM_BOND_DEF_STEREO_COUNT>
0

> <PUBCHEM_BOND_UDEF_STEREO_COUNT>
0

> <PUBCHEM_ISOTOPIC_ATOM_COUNT>
0

> <PUBCHEM_COMPONENT_COUNT>
1

> <PUBCHEM_CACTVS_TAUTO_COUNT>
1

> <PUBCHEM_CONFORMER_ID>
00D7496300000001

> <PUBCHEM_MMFF94_ENERGY>
135.179

> <PUBCHEM_FEATURE_SELFOVERLAP>
50.765

> <PUBCHEM_SHAPE_FINGERPRINT>
10863032 1 18197773311196215546
12156800 1 16476534406547052082
12553582 1 18198911301161962853
12633257 1 16414896605143971959
12788726 201 17832727685378714738
13009979 54 17614017196231764014
13140716 1 17979632656229087215
13583140 156 17630016331261085754
14223421 5 18336818797153908613
14787075 74 18187366536829307160
14790565 3 17545601618655807645
14856354 85 17909261387323160806
14863182 85 17974291229104887221
16728300 4 17682635775491104488
16752209 62 17540244350858731013
16945 1 18340774723594162516
17909252 39 18262807375237984043
20567600 347 18047189932015426488
20600515 1 18056192471357511952
20691752 17 16950561077893849897
20905425 154 18341327898360429465
21033648 29 16343138001000929707
21421861 104 18338516460397541611
23419403 2 17607766695892251958
23559900 14 18342448214946391613
238 59 17897462793694599939
5265222 85 16035522977249286742
57359948 33 17605812920150299967
59755656 215 18266458904819562693
6669772 16 18052537961622380820
70251023 43 18127436581314496439

> <PUBCHEM_SHAPE_MULTIPOLES>
611.59
7.73
5.18
1.89
9.1
2.26
-0.01
-6.42
0.13
-1.96
-0.61
-1.26
-0.27
-0.51

> <PUBCHEM_SHAPE_SELFOVERLAP>
1307.999

> <PUBCHEM_SHAPE_VOLUME>
332

> <PUBCHEM_COORDINATE_TYPE>
2
5
10

$$$$
