REMARK  Name = 14109375
REMARK  6 active torsions:
REMARK  status: ('A' for Active; 'I' for Inactive)
REMARK    1  A    between atoms: C_7  and  C_28
REMARK    2  A    between atoms: C_13  and  O_26
REMARK    3  A    between atoms: C_28  and  C_30
REMARK    4  A    between atoms: C_30  and  C_31
REMARK    5  A    between atoms: C_31  and  C_33
REMARK    6  A    between atoms: C_33  and  O_34
REMARK                            x       y       z     vdW  Elec       q    Type
REMARK                         _______ _______ _______ _____ _____    ______ ____
ROOT
ATOM      1  O   UNL     1      -1.306  -3.058   0.163  0.00  0.00    -0.296 OA
ATOM      2  O   UNL     1       0.981   2.998  -0.026  0.00  0.00    -0.292 OA
ATOM      3  O   UNL     1       6.591   0.640   1.766  0.00  0.00    -0.296 OA
ATOM      4  C   UNL     1      -1.495   0.381  -0.575  0.00  0.00    +0.017 C 
ATOM      5  C   UNL     1      -0.734  -0.669   0.290  0.00  0.00    +0.069 C 
ATOM      6  C   UNL     1       2.905   0.755  -0.297  0.00  0.00    +0.022 C 
ATOM      7  C   UNL     1      -2.984   0.066  -0.272  0.00  0.00    +0.008 C 
ATOM      8  C   UNL     1       0.740  -0.594  -0.066  0.00  0.00    -0.013 C 
ATOM      9  C   UNL     1       3.582  -0.586   0.200  0.00  0.00    +0.013 C 
ATOM     10  C   UNL     1       1.363   0.615  -0.130  0.00  0.00    +0.007 C 
ATOM     11  C   UNL     1      -1.034   1.766  -0.142  0.00  0.00    +0.069 C 
ATOM     12  C   UNL     1      -3.045  -1.470  -0.353  0.00  0.00    +0.065 C 
ATOM     13  C   UNL     1       1.478  -1.899  -0.263  0.00  0.00    +0.129 C 
ATOM     14  C   UNL     1      -1.632  -1.887   0.021  0.00  0.00    +0.153 C 
ATOM     15  C   UNL     1       2.975  -1.775  -0.549  0.00  0.00    +0.034 C 
ATOM     16  C   UNL     1       5.147  -0.633   0.284  0.00  0.00    +0.052 C 
ATOM     17  C   UNL     1       3.517   1.889   0.572  0.00  0.00    +0.012 C 
ATOM     18  C   UNL     1       0.489   1.871  -0.090  0.00  0.00    +0.169 C 
ATOM     19  C   UNL     1      -1.223   0.230  -2.108  0.00  0.00    +0.001 C 
ATOM     20  C   UNL     1      -0.830  -0.492   1.833  0.00  0.00    +0.012 C 
ATOM     21  C   UNL     1       3.123   1.077  -1.792  0.00  0.00    +0.004 C 
ATOM     22  C   UNL     1       5.038   1.949   0.541  0.00  0.00    +0.065 C 
ATOM     23  C   UNL     1       5.653   0.643   0.967  0.00  0.00    +0.150 C 
ATOM     24  C   UNL     1       5.875  -0.782  -1.060  0.00  0.00    +0.007 C 
ATOM     25  C   UNL     1       5.578  -1.833   1.169  0.00  0.00    +0.007 C 
ENDROOT
BRANCH  13  26
ATOM     26  O   UNL     1       0.905  -2.602  -1.366  0.00  0.00    -0.380 OA
ATOM     27  H   UNL     1      -0.049  -2.703  -1.225  0.00  0.00    +0.211 HD
ENDBRANCH  13  26
BRANCH   7  28
ATOM     28  C   UNL     1      -4.019   0.733  -1.170  0.00  0.00    +0.001 C 
ATOM     29  C   UNL     1      -3.875   2.255  -1.093  0.00  0.00    +0.000 C 
BRANCH  28  30
ATOM     30  C   UNL     1      -5.436   0.264  -0.782  0.00  0.00    +0.012 C 
BRANCH  30  31
ATOM     31  C   UNL     1      -5.792   0.528   0.682  0.00  0.00    +0.109 C 
BRANCH  31  33
ATOM     32  O   UNL     1      -7.906  -0.610   0.275  0.00  0.00    -0.250 OA
ATOM     33  C   UNL     1      -7.157  -0.015   1.038  0.00  0.00    +0.314 C 
BRANCH  33  34
ATOM     34  O   UNL     1      -7.474   0.246   2.333  0.00  0.00    -0.480 OA
ATOM     35  H   UNL     1      -6.867   0.705   2.880  0.00  0.00    +0.295 HD
ENDBRANCH  33  34
ENDBRANCH  31  33
ENDBRANCH  30  31
ENDBRANCH  28  30
ENDBRANCH   7  28
TORSDOF 6
