REMARK  Name = 14132955
REMARK  4 active torsions:
REMARK  status: ('A' for Active; 'I' for Inactive)
REMARK    1  A    between atoms: N_1  and  C1*_12
REMARK    2  A    between atoms: C3*_14  and  O3*_16
REMARK    3  A    between atoms: C4*_15  and  C5*_18
REMARK    4  A    between atoms: C5*_18  and  O5*_19
REMARK                            x       y       z     vdW  Elec       q    Type
REMARK                         _______ _______ _______ _____ _____    ______ ____
ROOT
ATOM      1  N   UNL     1       0.334   1.051   0.306  0.00  0.00    -0.226 N 
ATOM      2  N   UNL     1       2.535   1.420   0.204  0.00  0.00    -0.385 NA
ATOM      3  N   UNL     1       0.300  -1.344  -0.101  0.00  0.00    -0.227 NA
ATOM      4  N   UNL     1       2.554  -2.226  -0.419  0.00  0.00    -0.227 NA
ATOM      5  C   UNL     1       0.916  -0.162   0.055  0.00  0.00    +0.169 C 
ATOM      6  C   UNL     1       1.352   1.969   0.386  0.00  0.00    +0.167 C 
ATOM      7  C   UNL     1       2.277   0.088  -0.004  0.00  0.00    +0.195 C 
ATOM      8  C   UNL     1       1.094   3.400   0.649  0.00  0.00    +0.084 C 
ATOM      9  C   UNL     1       3.107  -1.000  -0.251  0.00  0.00    +0.155 C 
ATOM     10  C   UNL     1       1.205  -2.320  -0.335  0.00  0.00    +0.253 C 
ATOM     11  N   UNL     1       4.501  -0.838  -0.327  0.00  0.00    -0.341 N 
ATOM     12  H   UNL     1       5.078  -1.616  -0.503  0.00  0.00    +0.144 HD
ATOM     13  H   UNL     1       4.900   0.053  -0.205  0.00  0.00    +0.144 HD
ENDROOT
BRANCH   1  15
ATOM     14  O4* UNL     1      -1.732   0.169   1.061  0.00  0.00    -0.335 OA
ATOM     15  C1* UNL     1      -1.098   1.313   0.458  0.00  0.00    +0.201 C 
ATOM     16  C2* UNL     1      -1.815   1.598  -0.857  0.00  0.00    +0.083 C 
ATOM     17  C3* UNL     1      -2.530   0.298  -1.149  0.00  0.00    +0.144 C 
ATOM     18  C4* UNL     1      -2.860  -0.195   0.250  0.00  0.00    +0.173 C 
BRANCH  17  19
ATOM     19  O3* UNL     1      -3.688   0.513  -1.929  0.00  0.00    -0.382 OA
ATOM     20  H3* UNL     1      -3.430   0.826  -2.811  0.00  0.00    +0.210 HD
ENDBRANCH  17  19
BRANCH  18  21
ATOM     21  C5* UNL     1      -3.084  -1.694   0.329  0.00  0.00    +0.169 C 
BRANCH  21  22
ATOM     22  O5* UNL     1      -3.371  -2.039   1.673  0.00  0.00    -0.379 OA
ATOM     23  H5* UNL     1      -3.516  -2.996   1.737  0.00  0.00    +0.211 HD
ENDBRANCH  21  22
ENDBRANCH  18  21
ENDBRANCH   1  15
TORSDOF 4
