REMARK  Name = 14134976
REMARK  5 active torsions:
REMARK  status: ('A' for Active; 'I' for Inactive)
REMARK    1  A    between atoms: C_1  and  O_25
REMARK    2  A    between atoms: C_5  and  C_32
REMARK    3  A    between atoms: C_6  and  C_21
REMARK    4  A    between atoms: C_17  and  O_27
REMARK    5  A    between atoms: C_18  and  O_29
REMARK                            x       y       z     vdW  Elec       q    Type
REMARK                         _______ _______ _______ _____ _____    ______ ____
ROOT
ATOM      1  C   UNL     1      -1.195   0.646  -0.265  0.00  0.00    +0.088 C 
ATOM      2  C   UNL     1       0.281   0.782   0.199  0.00  0.00    +0.025 C 
ATOM      3  C   UNL     1      -1.774  -0.787  -0.108  0.00  0.00    +0.026 C 
ATOM      4  C   UNL     1       1.223  -0.309  -0.379  0.00  0.00    +0.009 C 
ATOM      5  C   UNL     1       2.691  -0.152   0.148  0.00  0.00    +0.061 C 
ATOM      6  C   UNL     1      -3.051  -0.773  -1.015  0.00  0.00    +0.024 C 
ATOM      7  C   UNL     1      -0.786  -1.834  -0.693  0.00  0.00    +0.003 C 
ATOM      8  C   UNL     1       0.634  -1.713  -0.148  0.00  0.00    +0.001 C 
ATOM      9  C   UNL     1       3.190   1.289  -0.152  0.00  0.00    +0.010 C 
ATOM     10  C   UNL     1      -1.435   0.958  -1.750  0.00  0.00    +0.027 C 
ATOM     11  C   UNL     1       0.835   2.192  -0.089  0.00  0.00    +0.002 C 
ATOM     12  C   UNL     1      -2.766   0.282  -2.103  0.00  0.00    +0.007 C 
ATOM     13  C   UNL     1       2.264   2.372   0.412  0.00  0.00    +0.001 C 
ATOM     14  C   UNL     1       3.656  -1.154  -0.532  0.00  0.00    +0.039 C 
ATOM     15  C   UNL     1      -2.079  -1.157   1.358  0.00  0.00    +0.003 C 
ATOM     16  C   UNL     1       4.640   1.508   0.294  0.00  0.00    +0.032 C 
ATOM     17  C   UNL     1       5.125  -0.937  -0.151  0.00  0.00    +0.138 C 
ATOM     18  C   UNL     1       5.580   0.504  -0.372  0.00  0.00    +0.137 C 
ENDROOT
BRANCH   6  21
ATOM     19  O   UNL     1      -6.359  -0.864   0.706  0.00  0.00    -0.441 OA
ATOM     20  O   UNL     1      -6.958   1.349   0.899  0.00  0.00    -0.245 OA
ATOM     21  C   UNL     1      -4.364  -0.480  -0.349  0.00  0.00    +0.005 C 
ATOM     22  C   UNL     1      -5.234  -1.560   0.159  0.00  0.00    +0.231 C 
ATOM     23  C   UNL     1      -4.905   0.715  -0.132  0.00  0.00    +0.077 C 
ATOM     24  C   UNL     1      -6.182   0.479   0.542  0.00  0.00    +0.341 C 
ENDBRANCH   6  21
BRANCH   1  25
ATOM     25  O   UNL     1      -1.953   1.578   0.521  0.00  0.00    -0.387 OA
ATOM     26  H   UNL     1      -1.812   1.396   1.463  0.00  0.00    +0.210 HD
ENDBRANCH   1  25
BRANCH  17  27
ATOM     27  O   UNL     1       5.920  -1.810  -0.954  0.00  0.00    -0.382 OA
ATOM     28  H   UNL     1       5.633  -2.727  -0.816  0.00  0.00    +0.210 HD
ENDBRANCH  17  27
BRANCH  18  29
ATOM     29  O   UNL     1       6.888   0.656   0.177  0.00  0.00    -0.382 OA
ATOM     30  H   UNL     1       7.190   1.568   0.044  0.00  0.00    +0.210 HD
ENDBRANCH  18  29
BRANCH   5  32
ATOM     31  O   UNL     1       3.398  -1.333   2.139  0.00  0.00    -0.288 OA
ATOM     32  C   UNL     1       2.715  -0.447   1.636  0.00  0.00    +0.207 C 
ENDBRANCH   5  32
TORSDOF 5
