REMARK  Name = 14132346
REMARK  11 active torsions:
REMARK  status: ('A' for Active; 'I' for Inactive)
REMARK    1  A    between atoms: O_1  and  C_7
REMARK    2  A    between atoms: O_1  and  C_18
REMARK    3  A    between atoms: C_3  and  O_8
REMARK    4  A    between atoms: C_4  and  O_10
REMARK    5  A    between atoms: C_5  and  C_14
REMARK    6  A    between atoms: C_6  and  O_12
REMARK    7  A    between atoms: C_14  and  O_15
REMARK    8  A    between atoms: C_18  and  C_19
REMARK    9  A    between atoms: C_22  and  O_25
REMARK   10  A    between atoms: C_23  and  O_27
REMARK   11  A    between atoms: C_24  and  O_29
REMARK                            x       y       z     vdW  Elec       q    Type
REMARK                         _______ _______ _______ _____ _____    ______ ____
ROOT
ATOM      1  O   UNL     1       0.555  -0.460   0.314  0.00  0.00    -0.419 OA
ENDROOT
BRANCH   1   7
ATOM      2  O   UNL     1       2.429   0.855  -0.137  0.00  0.00    -0.316 OA
ATOM      3  C   UNL     1       4.615  -0.083  -0.600  0.00  0.00    +0.169 C 
ATOM      4  C   UNL     1       4.163  -1.432  -0.041  0.00  0.00    +0.173 C 
ATOM      5  C   UNL     1       3.831   1.062   0.044  0.00  0.00    +0.177 C 
ATOM      6  C   UNL     1       2.640  -1.563  -0.075  0.00  0.00    +0.211 C 
ATOM      7  C   UNL     1       1.962  -0.325   0.512  0.00  0.00    +0.321 C 
BRANCH   3   8
ATOM      8  O   UNL     1       6.005   0.093  -0.340  0.00  0.00    -0.379 OA
ATOM      9  H   UNL     1       6.505  -0.632  -0.747  0.00  0.00    +0.211 HD
ENDBRANCH   3   8
BRANCH   4  10
ATOM     10  O   UNL     1       4.747  -2.461  -0.842  0.00  0.00    -0.379 OA
ATOM     11  H   UNL     1       5.713  -2.378  -0.820  0.00  0.00    +0.211 HD
ENDBRANCH   4  10
BRANCH   6  12
ATOM     12  O   UNL     1       2.244  -2.697   0.696  0.00  0.00    -0.377 OA
ATOM     13  H   UNL     1       2.666  -3.494   0.338  0.00  0.00    +0.211 HD
ENDBRANCH   6  12
BRANCH   5  14
ATOM     14  C   UNL     1       4.182   2.409  -0.582  0.00  0.00    +0.169 C 
BRANCH  14  15
ATOM     15  O   UNL     1       3.414   3.415   0.053  0.00  0.00    -0.379 OA
ATOM     16  H   UNL     1       3.627   4.277  -0.336  0.00  0.00    +0.211 HD
ENDBRANCH  14  15
ENDBRANCH   5  14
ENDBRANCH   1   7
BRANCH   1  18
ATOM     17  O   UNL     1       0.198   1.574   1.333  0.00  0.00    -0.245 OA
ATOM     18  C   UNL     1      -0.208   0.566   0.775  0.00  0.00    +0.343 C 
BRANCH  18  19
ATOM     19  C   UNL     1      -1.646   0.305   0.511  0.00  0.00    +0.082 C 
ATOM     20  C   UNL     1      -2.493   1.376   0.307  0.00  0.00    +0.047 C 
ATOM     21  C   UNL     1      -2.091  -1.000   0.478  0.00  0.00    +0.047 C 
ATOM     22  C   UNL     1      -3.442  -1.246   0.231  0.00  0.00    +0.175 C 
ATOM     23  C   UNL     1      -3.843   1.130   0.060  0.00  0.00    +0.175 C 
ATOM     24  C   UNL     1      -4.318  -0.181   0.022  0.00  0.00    +0.202 C 
BRANCH  22  25
ATOM     25  O   UNL     1      -3.893  -2.531   0.195  0.00  0.00    -0.468 OA
ATOM     26  C   UNL     1      -3.869  -3.192  -1.069  0.00  0.00    +0.253 C 
ENDBRANCH  22  25
BRANCH  23  27
ATOM     27  O   UNL     1      -4.689   2.179  -0.141  0.00  0.00    -0.468 OA
ATOM     28  C   UNL     1      -4.856   2.630  -1.484  0.00  0.00    +0.253 C 
ENDBRANCH  23  27
BRANCH  24  29
ATOM     29  O   UNL     1      -5.638  -0.422  -0.221  0.00  0.00    -0.501 OA
ATOM     30  H   UNL     1      -5.957  -1.302  -0.246  0.00  0.00    +0.292 HD
ENDBRANCH  24  29
ENDBRANCH  18  19
ENDBRANCH   1  18
TORSDOF 11
