REMARK  Name = 14136266
REMARK  7 active torsions:
REMARK  status: ('A' for Active; 'I' for Inactive)
REMARK    1  A    between atoms: C_6  and  O_19
REMARK    2  A    between atoms: C_9  and  C_31
REMARK    3  A    between atoms: C_15  and  N_21
REMARK    4  A    between atoms: N_21  and  C_23
REMARK    5  A    between atoms: C_28  and  O_29
REMARK    6  A    between atoms: C_31  and  O_32
REMARK    7  A    between atoms: O_32  and  C_35
REMARK                            x       y       z     vdW  Elec       q    Type
REMARK                         _______ _______ _______ _____ _____    ______ ____
ROOT
ATOM      1  O   UNL     1       0.217  -3.704   0.896  0.00  0.00    -0.286 OA
ATOM      2  O   UNL     1      -0.868   0.780  -1.809  0.00  0.00    -0.286 OA
ATOM      3  N   UNL     1       3.449   0.079   2.148  0.00  0.00    +0.388 N 
ATOM      4  N   UNL     1       2.313  -1.787   0.262  0.00  0.00    -0.290 N 
ATOM      5  C   UNL     1       3.950  -0.194   0.803  0.00  0.00    -0.036 C 
ATOM      6  C   UNL     1       3.065  -0.650  -0.317  0.00  0.00    +0.141 C 
ATOM      7  C   UNL     1       3.925  -1.261   1.852  0.00  0.00    -0.057 C 
ATOM      8  C   UNL     1       2.934  -2.322   1.467  0.00  0.00    +0.070 C 
ATOM      9  C   UNL     1       1.948   0.293  -0.871  0.00  0.00    +0.111 C 
ATOM     10  C   UNL     1       0.976  -1.683  -0.040  0.00  0.00    +0.088 C 
ATOM     11  C   UNL     1       0.705  -0.557  -0.698  0.00  0.00    +0.042 C 
ATOM     12  C   UNL     1      -0.055  -2.664   0.307  0.00  0.00    +0.206 C 
ATOM     13  C   UNL     1      -0.647  -0.236  -1.157  0.00  0.00    +0.206 C 
ATOM     14  C   UNL     1      -1.457  -2.331  -0.113  0.00  0.00    +0.035 C 
ATOM     15  C   UNL     1      -1.741  -1.202  -0.798  0.00  0.00    +0.087 C 
ATOM     16  C   UNL     1      -2.478  -3.360   0.294  0.00  0.00    +0.036 C 
ATOM     17  H   UNL     1       2.453   0.241   2.293  0.00  0.00    -0.084 HD
ATOM     18  H   UNL     1       3.673   0.772   2.863  0.00  0.00    -0.084 HD
ENDROOT
BRANCH   6  19
ATOM     19  O   UNL     1       3.874  -1.115  -1.398  0.00  0.00    -0.341 OA
ATOM     20  C   UNL     1       4.492  -0.036  -2.080  0.00  0.00    +0.176 C 
ENDBRANCH   6  19
BRANCH  15  21
ATOM     21  N   UNL     1      -2.980  -0.815  -1.230  0.00  0.00    -0.310 N 
ATOM     22  H   UNL     1      -3.238  -1.124  -2.129  0.00  0.00    +0.152 HD
BRANCH  21  23
ATOM     23  C   UNL     1      -3.927  -0.036  -0.558  0.00  0.00    +0.049 C 
ATOM     24  C   UNL     1      -5.155   0.264  -1.161  0.00  0.00    +0.018 C 
ATOM     25  C   UNL     1      -3.660   0.454   0.727  0.00  0.00    +0.018 C 
ATOM     26  C   UNL     1      -6.100   1.041  -0.491  0.00  0.00    +0.038 C 
ATOM     27  C   UNL     1      -4.605   1.232   1.397  0.00  0.00    +0.038 C 
ATOM     28  C   UNL     1      -5.825   1.525   0.788  0.00  0.00    +0.134 C 
BRANCH  28  29
ATOM     29  O   UNL     1      -6.747   2.283   1.442  0.00  0.00    -0.506 OA
ATOM     30  H   UNL     1      -7.567   2.480   1.033  0.00  0.00    +0.292 HD
ENDBRANCH  28  29
ENDBRANCH  21  23
ENDBRANCH  15  21
BRANCH   9  31
ATOM     31  C   UNL     1       1.822   1.648  -0.183  0.00  0.00    +0.218 C 
BRANCH  31  32
ATOM     32  O   UNL     1       3.024   2.370  -0.384  0.00  0.00    -0.434 OA
BRANCH  32  35
ATOM     33  O   UNL     1       2.179   4.141   0.820  0.00  0.00    -0.227 OA
ATOM     34  N   UNL     1       4.290   4.220  -0.087  0.00  0.00    -0.295 N 
ATOM     35  C   UNL     1       3.082   3.621   0.174  0.00  0.00    +0.398 C 
ATOM     36  H   UNL     1       4.972   3.744  -0.614  0.00  0.00    +0.148 HD
ATOM     37  H   UNL     1       4.474   5.126   0.253  0.00  0.00    +0.148 HD
ENDBRANCH  32  35
ENDBRANCH  31  32
ENDBRANCH   9  31
TORSDOF 7
