REMARK  Name = 14135395
REMARK  10 active torsions:
REMARK  status: ('A' for Active; 'I' for Inactive)
REMARK    1  A    between atoms: O_1  and  C_3
REMARK    2  A    between atoms: O_1  and  C_17
REMARK    3  A    between atoms: C_4  and  O_8
REMARK    4  A    between atoms: C_5  and  O_10
REMARK    5  A    between atoms: C_6  and  O_12
REMARK    6  A    between atoms: C_7  and  C_14
REMARK    7  A    between atoms: C_14  and  O_15
REMARK    8  A    between atoms: C_17  and  C_19
REMARK    9  A    between atoms: C_19  and  C_20
REMARK   10  A    between atoms: C_20  and  C_23
REMARK                            x       y       z     vdW  Elec       q    Type
REMARK                         _______ _______ _______ _____ _____    ______ ____
ROOT
ATOM      1  O   UNL     1       1.229   1.507   0.165  0.00  0.00    -0.331 OA
ENDROOT
BRANCH   1   3
ATOM      2  O   UNL     1       2.095  -0.623  -0.229  0.00  0.00    -0.326 OA
ATOM      3  C   UNL     1       2.376   0.774  -0.263  0.00  0.00    +0.266 C 
ATOM      4  C   UNL     1       3.530   1.113   0.681  0.00  0.00    +0.196 C 
ATOM      5  C   UNL     1       4.761   0.255   0.384  0.00  0.00    +0.172 C 
ATOM      6  C   UNL     1       4.390  -1.224   0.271  0.00  0.00    +0.169 C 
ATOM      7  C   UNL     1       3.199  -1.415  -0.672  0.00  0.00    +0.176 C 
BRANCH   4   8
ATOM      8  O   UNL     1       3.861   2.490   0.508  0.00  0.00    -0.378 OA
ATOM      9  H   UNL     1       3.081   3.036   0.695  0.00  0.00    +0.211 HD
ENDBRANCH   4   8
BRANCH   5  10
ATOM     10  O   UNL     1       5.704   0.393   1.448  0.00  0.00    -0.379 OA
ATOM     11  H   UNL     1       5.955   1.326   1.538  0.00  0.00    +0.211 HD
ENDBRANCH   5  10
BRANCH   6  12
ATOM     12  O   UNL     1       5.508  -1.953  -0.229  0.00  0.00    -0.379 OA
ATOM     13  H   UNL     1       6.264  -1.834   0.366  0.00  0.00    +0.211 HD
ENDBRANCH   6  12
BRANCH   7  14
ATOM     14  C   UNL     1       2.737  -2.868  -0.710  0.00  0.00    +0.169 C 
BRANCH  14  15
ATOM     15  O   UNL     1       1.631  -2.966  -1.589  0.00  0.00    -0.379 OA
ATOM     16  H   UNL     1       1.326  -3.886  -1.624  0.00  0.00    +0.211 HD
ENDBRANCH  14  15
ENDBRANCH   7  14
ENDBRANCH   1   3
BRANCH   1  17
ATOM     17  C   UNL     1       0.370   1.815  -0.929  0.00  0.00    +0.118 C 
ATOM     18  C   UNL     1       0.819   3.131  -1.548  0.00  0.00    +0.032 C 
BRANCH  17  19
ATOM     19  C   UNL     1      -1.085   1.885  -0.454  0.00  0.00    +0.030 C 
BRANCH  19  20
ATOM     20  C   UNL     1      -1.522   0.580   0.204  0.00  0.00    +0.007 C 
BRANCH  20  23
ATOM     21  O   UNL     1      -5.221  -2.158  -1.342  0.00  0.00    -0.291 OA
ATOM     22  C   UNL     1      -3.464  -0.592   1.475  0.00  0.00    +0.011 C 
ATOM     23  C   UNL     1      -2.970   0.680   0.710  0.00  0.00    +0.019 C 
ATOM     24  C   UNL     1      -3.724  -1.741   0.481  0.00  0.00    +0.069 C 
ATOM     25  C   UNL     1      -3.880   1.018  -0.462  0.00  0.00    -0.041 C 
ATOM     26  C   UNL     1      -4.768  -0.266   2.247  0.00  0.00    +0.001 C 
ATOM     27  C   UNL     1      -2.435  -1.067   2.521  0.00  0.00    +0.001 C 
ATOM     28  C   UNL     1      -4.584  -1.329  -0.694  0.00  0.00    +0.173 C 
ATOM     29  C   UNL     1      -4.620   0.096  -1.099  0.00  0.00    +0.029 C 
ATOM     30  C   UNL     1      -3.938   2.463  -0.874  0.00  0.00    +0.026 C 
ENDBRANCH  20  23
ENDBRANCH  19  20
ENDBRANCH  17  19
ENDBRANCH   1  17
TORSDOF 10
