14135395
  -OEChem-03292013303D

 58 59  0     1  0  0  0  0  0999 V2000
    1.2291    1.5074    0.1654 O   0  0  0  0  0  0  0  0  0  0  0  0
    2.0955   -0.6228   -0.2287 O   0  0  0  0  0  0  0  0  0  0  0  0
    3.8605    2.4903    0.5077 O   0  0  0  0  0  0  0  0  0  0  0  0
    5.7044    0.3934    1.4476 O   0  0  0  0  0  0  0  0  0  0  0  0
    5.5079   -1.9530   -0.2292 O   0  0  0  0  0  0  0  0  0  0  0  0
   -5.2208   -2.1582   -1.3422 O   0  0  0  0  0  0  0  0  0  0  0  0
    1.6309   -2.9657   -1.5895 O   0  0  0  0  0  0  0  0  0  0  0  0
   -3.4638   -0.5917    1.4746 C   0  0  0  0  0  0  0  0  0  0  0  0
   -2.9702    0.6799    0.7100 C   0  0  1  0  0  0  0  0  0  0  0  0
   -1.5221    0.5795    0.2041 C   0  0  0  0  0  0  0  0  0  0  0  0
   -3.7240   -1.7408    0.4813 C   0  0  0  0  0  0  0  0  0  0  0  0
   -3.8801    1.0175   -0.4622 C   0  0  0  0  0  0  0  0  0  0  0  0
   -1.0851    1.8846   -0.4536 C   0  0  0  0  0  0  0  0  0  0  0  0
   -4.7680   -0.2662    2.2470 C   0  0  0  0  0  0  0  0  0  0  0  0
   -2.4349   -1.0665    2.5212 C   0  0  0  0  0  0  0  0  0  0  0  0
    0.3697    1.8145   -0.9291 C   0  0  1  0  0  0  0  0  0  0  0  0
    2.3763    0.7745   -0.2631 C   0  0  2  0  0  0  0  0  0  0  0  0
    3.5303    1.1125    0.6807 C   0  0  1  0  0  0  0  0  0  0  0  0
    4.7607    0.2548    0.3843 C   0  0  2  0  0  0  0  0  0  0  0  0
   -4.5840   -1.3286   -0.6939 C   0  0  0  0  0  0  0  0  0  0  0  0
    4.3900   -1.2240    0.2708 C   0  0  1  0  0  0  0  0  0  0  0  0
   -4.6195    0.0964   -1.0993 C   0  0  0  0  0  0  0  0  0  0  0  0
    3.1991   -1.4146   -0.6717 C   0  0  1  0  0  0  0  0  0  0  0  0
   -3.9377    2.4632   -0.8738 C   0  0  0  0  0  0  0  0  0  0  0  0
    0.8191    3.1312   -1.5481 C   0  0  0  0  0  0  0  0  0  0  0  0
    2.7366   -2.8677   -0.7103 C   0  0  0  0  0  0  0  0  0  0  0  0
   -3.0148    1.5112    1.4288 H   0  0  0  0  0  0  0  0  0  0  0  0
   -0.8506    0.3761    1.0442 H   0  0  0  0  0  0  0  0  0  0  0  0
   -1.4093   -0.2483   -0.5065 H   0  0  0  0  0  0  0  0  0  0  0  0
   -2.7832   -2.1273    0.0714 H   0  0  0  0  0  0  0  0  0  0  0  0
   -4.2269   -2.5706    0.9930 H   0  0  0  0  0  0  0  0  0  0  0  0
   -1.6491    2.0921   -1.3597 H   0  0  0  0  0  0  0  0  0  0  0  0
   -1.1964    2.7128    0.2559 H   0  0  0  0  0  0  0  0  0  0  0  0
   -5.1335   -1.1457    2.7900 H   0  0  0  0  0  0  0  0  0  0  0  0
   -4.5967    0.5271    2.9838 H   0  0  0  0  0  0  0  0  0  0  0  0
   -5.5771    0.0661    1.5897 H   0  0  0  0  0  0  0  0  0  0  0  0
   -2.8475   -1.8719    3.1402 H   0  0  0  0  0  0  0  0  0  0  0  0
   -2.1466   -0.2485    3.1908 H   0  0  0  0  0  0  0  0  0  0  0  0
   -1.5274   -1.4646    2.0553 H   0  0  0  0  0  0  0  0  0  0  0  0
    0.4283    1.0226   -1.6892 H   0  0  0  0  0  0  0  0  0  0  0  0
    2.6520    1.0626   -1.2867 H   0  0  0  0  0  0  0  0  0  0  0  0
    3.2239    0.9886    1.7262 H   0  0  0  0  0  0  0  0  0  0  0  0
    5.2651    0.6048   -0.5248 H   0  0  0  0  0  0  0  0  0  0  0  0
    4.1598   -1.6195    1.2678 H   0  0  0  0  0  0  0  0  0  0  0  0
    3.4552   -1.1137   -1.6967 H   0  0  0  0  0  0  0  0  0  0  0  0
   -5.2635    0.3603   -1.9312 H   0  0  0  0  0  0  0  0  0  0  0  0
   -4.9843    2.7931   -0.8778 H   0  0  0  0  0  0  0  0  0  0  0  0
   -3.5551    2.6161   -1.8874 H   0  0  0  0  0  0  0  0  0  0  0  0
   -3.4252    3.1310   -0.1762 H   0  0  0  0  0  0  0  0  0  0  0  0
    0.1701    3.4193   -2.3810 H   0  0  0  0  0  0  0  0  0  0  0  0
    1.8455    3.0704   -1.9229 H   0  0  0  0  0  0  0  0  0  0  0  0
    0.8066    3.9346   -0.8029 H   0  0  0  0  0  0  0  0  0  0  0  0
    2.4095   -3.2107    0.2770 H   0  0  0  0  0  0  0  0  0  0  0  0
    3.5246   -3.5343   -1.0720 H   0  0  0  0  0  0  0  0  0  0  0  0
    4.1328    2.6218   -0.4165 H   0  0  0  0  0  0  0  0  0  0  0  0
    6.4664   -0.1729    1.2362 H   0  0  0  0  0  0  0  0  0  0  0  0
    5.7149   -1.6139   -1.1167 H   0  0  0  0  0  0  0  0  0  0  0  0
    0.9390   -2.3668   -1.2601 H   0  0  0  0  0  0  0  0  0  0  0  0
  1 16  1  0  0  0  0
  1 17  1  0  0  0  0
  2 17  1  0  0  0  0
  2 23  1  0  0  0  0
  3 18  1  0  0  0  0
  3 55  1  0  0  0  0
  4 19  1  0  0  0  0
  4 56  1  0  0  0  0
  5 21  1  0  0  0  0
  5 57  1  0  0  0  0
  6 20  2  0  0  0  0
  7 26  1  0  0  0  0
  7 58  1  0  0  0  0
  8  9  1  0  0  0  0
  8 11  1  0  0  0  0
  8 14  1  0  0  0  0
  8 15  1  0  0  0  0
  9 10  1  0  0  0  0
  9 12  1  0  0  0  0
  9 27  1  0  0  0  0
 10 13  1  0  0  0  0
 10 28  1  0  0  0  0
 10 29  1  0  0  0  0
 11 20  1  0  0  0  0
 11 30  1  0  0  0  0
 11 31  1  0  0  0  0
 12 22  2  0  0  0  0
 12 24  1  0  0  0  0
 13 16  1  0  0  0  0
 13 32  1  0  0  0  0
 13 33  1  0  0  0  0
 14 34  1  0  0  0  0
 14 35  1  0  0  0  0
 14 36  1  0  0  0  0
 15 37  1  0  0  0  0
 15 38  1  0  0  0  0
 15 39  1  0  0  0  0
 16 25  1  0  0  0  0
 16 40  1  0  0  0  0
 17 18  1  0  0  0  0
 17 41  1  0  0  0  0
 18 19  1  0  0  0  0
 18 42  1  0  0  0  0
 19 21  1  0  0  0  0
 19 43  1  0  0  0  0
 20 22  1  0  0  0  0
 21 23  1  0  0  0  0
 21 44  1  0  0  0  0
 22 46  1  0  0  0  0
 23 26  1  0  0  0  0
 23 45  1  0  0  0  0
 24 47  1  0  0  0  0
 24 48  1  0  0  0  0
 24 49  1  0  0  0  0
 25 50  1  0  0  0  0
 25 51  1  0  0  0  0
 25 52  1  0  0  0  0
 26 53  1  0  0  0  0
 26 54  1  0  0  0  0
M  END
> <PUBCHEM_COMPOUND_CID>
14135395

> <PUBCHEM_CONFORMER_RMSD>
0.8

> <PUBCHEM_CONFORMER_DIVERSEORDER>
1
139
25
121
102
94
113
134
86
33
9
88
83
12
2
108
75
129
19
67
110
57
85
107
97
133
15
130
3
36
66
22
78
7
138
38
60
128
120
56
72
20
101
115
96
42
4
37
84
141
124
123
127
140
50
95
48
92
47
45
17
30
11
8
41
144
24
16
27
74
87
13
44
90
53
71
39
43
103
126
125
77
136
79
64
23
59
73
104
80
55
69
29
6
26
93
89
10
91
58
54
135
99
40
5
76
32
105
34
82
116
61
117
81
65
14
31
111
49
62
70
98
132
114
18
51
122
68
21
35
137
142
131
112
52
118
106
63
28
109
143
46
119
100

> <PUBCHEM_MMFF94_PARTIAL_CHARGES>
25
1 -0.56
11 0.06
12 -0.28
16 0.28
17 0.56
18 0.28
19 0.28
2 -0.56
20 0.49
21 0.28
22 -0.14
23 0.28
24 0.14
26 0.28
3 -0.68
4 -0.68
46 0.15
5 -0.68
55 0.4
56 0.4
57 0.4
58 0.4
6 -0.57
7 -0.68
9 0.14

> <PUBCHEM_EFFECTIVE_ROTOR_COUNT>
7.8

> <PUBCHEM_PHARMACOPHORE_FEATURES>
14
1 1 acceptor
1 2 acceptor
1 3 acceptor
1 3 donor
1 4 acceptor
1 4 donor
1 5 acceptor
1 5 donor
1 6 acceptor
1 7 acceptor
1 7 donor
3 8 14 15 hydrophobe
6 2 17 18 19 21 23 rings
6 8 9 11 12 20 22 rings

> <PUBCHEM_HEAVY_ATOM_COUNT>
26

> <PUBCHEM_ATOM_DEF_STEREO_COUNT>
7

> <PUBCHEM_ATOM_UDEF_STEREO_COUNT>
0

> <PUBCHEM_BOND_DEF_STEREO_COUNT>
0

> <PUBCHEM_BOND_UDEF_STEREO_COUNT>
0

> <PUBCHEM_ISOTOPIC_ATOM_COUNT>
0

> <PUBCHEM_COMPONENT_COUNT>
1

> <PUBCHEM_CACTVS_TAUTO_COUNT>
8

> <PUBCHEM_CONFORMER_ID>
00D7B06300000001

> <PUBCHEM_MMFF94_ENERGY>
72.9492

> <PUBCHEM_FEATURE_SELFOVERLAP>
71.11

> <PUBCHEM_SHAPE_FINGERPRINT>
12363563 72 17895205401843966936
12553582 1 18263383476064241021
12596602 18 16774078496584178618
13402501 40 18334860476639587690
13544653 18 18412266137873688489
13583140 156 17418080027779111873
14341114 328 16845299332124124058
1454969 45 18335701698141522980
15183329 4 9367351427340495024
15361156 5 18261401009360463396
15880784 105 18060136531219409946
17349148 13 18336267928626856521
20028762 73 17988920072647408854
20403669 9 18113904866020566873
20511986 3 17703782596823283851
20600515 1 17313394391578929012
20645477 70 18410004455603771940
21315764 371 17703228541330335982
21623110 236 18130791157400873559
21673915 165 18272929448949343670
23559900 14 18410846642798485560
23572383 38 18333725827562551291
404807 14 16906947596891528607
463206 1 18126844026758568007
508706 21 18040437676843963323
9709674 26 18260268589962186253

> <PUBCHEM_SHAPE_MULTIPOLES>
493.98
13.04
3.24
1.71
4.14
0.43
0.67
-4.6
1.56
1.05
-1.56
-1.59
-0.63
1.42

> <PUBCHEM_SHAPE_SELFOVERLAP>
1004.063

> <PUBCHEM_SHAPE_VOLUME>
284.2

> <PUBCHEM_COORDINATE_TYPE>
2
5
10

$$$$
