REMARK  Name = 14146239
REMARK  6 active torsions:
REMARK  status: ('A' for Active; 'I' for Inactive)
REMARK    1  A    between atoms: C_3  and  C_22
REMARK    2  A    between atoms: C_3  and  C_26
REMARK    3  A    between atoms: C_6  and  N_16
REMARK    4  A    between atoms: C_10  and  C_24
REMARK    5  A    between atoms: C_26  and  C_28
REMARK    6  A    between atoms: C_28  and  O_29
REMARK                            x       y       z     vdW  Elec       q    Type
REMARK                         _______ _______ _______ _____ _____    ______ ____
ROOT
ATOM      1  O   UNL     1       2.399  -0.247  -0.173  0.00  0.00    -0.350 OA
ATOM      2  N   UNL     1      -0.880   1.473  -0.084  0.00  0.00    -0.355 N 
ATOM      3  C   UNL     1       1.625   0.981  -0.171  0.00  0.00    +0.136 C 
ATOM      4  C   UNL     1       0.185   0.625   0.042  0.00  0.00    +0.057 A 
ATOM      5  C   UNL     1      -0.291  -0.609   0.431  0.00  0.00    +0.013 A 
ATOM      6  C   UNL     1       0.637  -1.744   0.664  0.00  0.00    +0.126 C 
ATOM      7  C   UNL     1       2.067  -1.206   0.849  0.00  0.00    +0.166 C 
ATOM      8  C   UNL     1      -1.706  -0.511   0.543  0.00  0.00    +0.014 A 
ATOM      9  C   UNL     1      -2.048   0.804   0.213  0.00  0.00    +0.052 A 
ATOM     10  C   UNL     1      -3.370   1.262   0.217  0.00  0.00    -0.007 C 
ATOM     11  C   UNL     1      -2.733  -1.411   0.893  0.00  0.00    +0.001 C 
ATOM     12  C   UNL     1      -4.371   0.350   0.566  0.00  0.00    -0.003 C 
ATOM     13  C   UNL     1      -4.059  -0.966   0.899  0.00  0.00    -0.000 C 
ATOM     14  H   UNL     1      -0.821   2.420  -0.347  0.00  0.00    +0.166 HD
ENDROOT
BRANCH   6  16
ATOM     15  O   UNL     1       1.060  -4.612   0.649  0.00  0.00    -0.253 OA
ATOM     16  N   UNL     1       0.567  -2.634  -0.470  0.00  0.00    -0.285 N 
ATOM     17  N   UNL     1       0.659  -4.627  -1.611  0.00  0.00    -0.313 N 
ATOM     18  C   UNL     1       0.785  -4.003  -0.383  0.00  0.00    +0.298 C 
ATOM     19  H   UNL     1       0.352  -2.251  -1.351  0.00  0.00    +0.151 HD
ATOM     20  H   UNL     1       0.790  -5.600  -1.684  0.00  0.00    +0.146 HD
ATOM     21  H   UNL     1       0.437  -4.099  -2.411  0.00  0.00    +0.146 HD
ENDBRANCH   6  16
BRANCH   3  22
ATOM     22  C   UNL     1       1.846   1.614  -1.547  0.00  0.00    +0.033 C 
ATOM     23  C   UNL     1       1.409   0.680  -2.657  0.00  0.00    +0.003 C 
ENDBRANCH   3  22
BRANCH  10  24
ATOM     24  C   UNL     1      -3.741   2.664  -0.133  0.00  0.00    +0.028 C 
ATOM     25  C   UNL     1      -4.018   2.836  -1.624  0.00  0.00    +0.005 C 
ENDBRANCH  10  24
BRANCH   3  26
ATOM     26  C   UNL     1       2.143   1.916   0.926  0.00  0.00    +0.142 C 
BRANCH  26  28
ATOM     27  O   UNL     1       4.529   1.487   0.671  0.00  0.00    -0.250 OA
ATOM     28  C   UNL     1       3.589   2.266   0.715  0.00  0.00    +0.317 C 
BRANCH  28  29
ATOM     29  O   UNL     1       3.716   3.611   0.575  0.00  0.00    -0.480 OA
ATOM     30  H   UNL     1       2.958   4.160   0.618  0.00  0.00    +0.295 HD
ENDBRANCH  28  29
ENDBRANCH  26  28
ENDBRANCH   3  26
TORSDOF 6
