14146239
  -OEChem-03292013303D

 48 50  0     1  0  0  0  0  0999 V2000
    2.3994   -0.2471   -0.1726 O   0  0  0  0  0  0  0  0  0  0  0  0
    3.7163    3.6105    0.5751 O   0  0  0  0  0  0  0  0  0  0  0  0
    4.5289    1.4866    0.6709 O   0  0  0  0  0  0  0  0  0  0  0  0
    1.0602   -4.6122    0.6495 O   0  0  0  0  0  0  0  0  0  0  0  0
   -0.8797    1.4734   -0.0840 N   0  0  0  0  0  0  0  0  0  0  0  0
    0.5667   -2.6338   -0.4698 N   0  0  0  0  0  0  0  0  0  0  0  0
    0.6586   -4.6272   -1.6107 N   0  0  0  0  0  0  0  0  0  0  0  0
    1.6248    0.9809   -0.1706 C   0  0  2  0  0  0  0  0  0  0  0  0
    0.1854    0.6252    0.0416 C   0  0  0  0  0  0  0  0  0  0  0  0
   -0.2915   -0.6085    0.4314 C   0  0  0  0  0  0  0  0  0  0  0  0
    0.6375   -1.7436    0.6637 C   0  0  2  0  0  0  0  0  0  0  0  0
    1.8458    1.6141   -1.5473 C   0  0  0  0  0  0  0  0  0  0  0  0
    2.0673   -1.2056    0.8491 C   0  0  0  0  0  0  0  0  0  0  0  0
   -1.7057   -0.5115    0.5427 C   0  0  0  0  0  0  0  0  0  0  0  0
    2.1430    1.9157    0.9260 C   0  0  0  0  0  0  0  0  0  0  0  0
   -2.0480    0.8041    0.2126 C   0  0  0  0  0  0  0  0  0  0  0  0
   -3.3705    1.2618    0.2166 C   0  0  0  0  0  0  0  0  0  0  0  0
    1.4094    0.6801   -2.6573 C   0  0  0  0  0  0  0  0  0  0  0  0
   -2.7326   -1.4111    0.8927 C   0  0  0  0  0  0  0  0  0  0  0  0
    3.5890    2.2659    0.7152 C   0  0  0  0  0  0  0  0  0  0  0  0
   -4.3710    0.3505    0.5659 C   0  0  0  0  0  0  0  0  0  0  0  0
   -3.7411    2.6644   -0.1332 C   0  0  0  0  0  0  0  0  0  0  0  0
   -4.0593   -0.9657    0.8992 C   0  0  0  0  0  0  0  0  0  0  0  0
    0.7853   -4.0029   -0.3827 C   0  0  0  0  0  0  0  0  0  0  0  0
   -4.0183    2.8362   -1.6241 C   0  0  0  0  0  0  0  0  0  0  0  0
    0.3490   -2.3010    1.5623 H   0  0  0  0  0  0  0  0  0  0  0  0
    2.9085    1.8251   -1.7166 H   0  0  0  0  0  0  0  0  0  0  0  0
    1.3082    2.5658   -1.6385 H   0  0  0  0  0  0  0  0  0  0  0  0
    2.1883   -0.7412    1.8340 H   0  0  0  0  0  0  0  0  0  0  0  0
    2.7987   -2.0185    0.7839 H   0  0  0  0  0  0  0  0  0  0  0  0
    1.5438    2.8354    0.9569 H   0  0  0  0  0  0  0  0  0  0  0  0
    2.0657    1.4727    1.9254 H   0  0  0  0  0  0  0  0  0  0  0  0
   -0.8206    2.4457   -0.3532 H   0  0  0  0  0  0  0  0  0  0  0  0
    0.3995   -2.2393   -1.3913 H   0  0  0  0  0  0  0  0  0  0  0  0
    1.6240    1.1414   -3.6279 H   0  0  0  0  0  0  0  0  0  0  0  0
    0.3348    0.4756   -2.6360 H   0  0  0  0  0  0  0  0  0  0  0  0
    1.9442   -0.2745   -2.6317 H   0  0  0  0  0  0  0  0  0  0  0  0
   -2.5048   -2.4405    1.1548 H   0  0  0  0  0  0  0  0  0  0  0  0
   -5.4133    0.6614    0.5800 H   0  0  0  0  0  0  0  0  0  0  0  0
   -4.6256    2.9718    0.4386 H   0  0  0  0  0  0  0  0  0  0  0  0
   -2.9421    3.3526    0.1675 H   0  0  0  0  0  0  0  0  0  0  0  0
   -4.8545   -1.6563    1.1673 H   0  0  0  0  0  0  0  0  0  0  0  0
   -4.8453    2.1962   -1.9496 H   0  0  0  0  0  0  0  0  0  0  0  0
   -4.2860    3.8750   -1.8414 H   0  0  0  0  0  0  0  0  0  0  0  0
   -3.1379    2.5792   -2.2228 H   0  0  0  0  0  0  0  0  0  0  0  0
    4.6499    3.8765    0.4337 H   0  0  0  0  0  0  0  0  0  0  0  0
    0.7900   -5.6286   -1.7068 H   0  0  0  0  0  0  0  0  0  0  0  0
    0.4299   -4.1080   -2.4516 H   0  0  0  0  0  0  0  0  0  0  0  0
  1  8  1  0  0  0  0
  1 13  1  0  0  0  0
  2 20  1  0  0  0  0
  2 46  1  0  0  0  0
  3 20  2  0  0  0  0
  4 24  2  0  0  0  0
  5  9  1  0  0  0  0
  5 16  1  0  0  0  0
  5 33  1  0  0  0  0
  6 11  1  0  0  0  0
  6 24  1  0  0  0  0
  6 34  1  0  0  0  0
  7 24  1  0  0  0  0
  7 47  1  0  0  0  0
  7 48  1  0  0  0  0
  8  9  1  0  0  0  0
  8 12  1  0  0  0  0
  8 15  1  0  0  0  0
  9 10  2  0  0  0  0
 10 11  1  0  0  0  0
 10 14  1  0  0  0  0
 11 13  1  0  0  0  0
 11 26  1  0  0  0  0
 12 18  1  0  0  0  0
 12 27  1  0  0  0  0
 12 28  1  0  0  0  0
 13 29  1  0  0  0  0
 13 30  1  0  0  0  0
 14 16  1  0  0  0  0
 14 19  2  0  0  0  0
 15 20  1  0  0  0  0
 15 31  1  0  0  0  0
 15 32  1  0  0  0  0
 16 17  2  0  0  0  0
 17 21  1  0  0  0  0
 17 22  1  0  0  0  0
 18 35  1  0  0  0  0
 18 36  1  0  0  0  0
 18 37  1  0  0  0  0
 19 23  1  0  0  0  0
 19 38  1  0  0  0  0
 21 23  2  0  0  0  0
 21 39  1  0  0  0  0
 22 25  1  0  0  0  0
 22 40  1  0  0  0  0
 22 41  1  0  0  0  0
 23 42  1  0  0  0  0
 25 43  1  0  0  0  0
 25 44  1  0  0  0  0
 25 45  1  0  0  0  0
M  END
> <PUBCHEM_COMPOUND_CID>
14146239

> <PUBCHEM_CONFORMER_RMSD>
0.8

> <PUBCHEM_CONFORMER_DIVERSEORDER>
1
31
60
54
49
39
13
52
47
48
36
56
46
58
5
29
53
45
50
51
55
44
30
33
35
28
40
37
26
38
25
22
20
41
59
4
34
32
43
42
57
9
10
11
15
6
27
23
24
18
3
12
16
17
19
2
14
21
8
7

> <PUBCHEM_MMFF94_PARTIAL_CHARGES>
29
1 -0.56
10 -0.18
11 0.48
13 0.28
15 0.06
16 -0.15
17 -0.14
19 -0.15
2 -0.65
20 0.66
21 -0.15
22 0.14
23 -0.15
24 0.69
3 -0.57
33 0.27
34 0.37
38 0.15
39 0.15
4 -0.57
42 0.15
46 0.5
47 0.37
48 0.37
5 0.03
6 -0.73
7 -0.8
8 0.46
9 -0.33

> <PUBCHEM_EFFECTIVE_ROTOR_COUNT>
6.8

> <PUBCHEM_PHARMACOPHORE_FEATURES>
14
1 1 acceptor
1 18 hydrophobe
1 2 acceptor
1 25 hydrophobe
1 3 acceptor
1 4 acceptor
1 5 cation
1 5 donor
1 6 donor
1 7 donor
3 2 3 20 anion
5 5 9 10 14 16 rings
6 1 8 9 10 11 13 rings
6 14 16 17 19 21 23 rings

> <PUBCHEM_HEAVY_ATOM_COUNT>
25

> <PUBCHEM_ATOM_DEF_STEREO_COUNT>
0

> <PUBCHEM_ATOM_UDEF_STEREO_COUNT>
2

> <PUBCHEM_BOND_DEF_STEREO_COUNT>
0

> <PUBCHEM_BOND_UDEF_STEREO_COUNT>
0

> <PUBCHEM_ISOTOPIC_ATOM_COUNT>
0

> <PUBCHEM_COMPONENT_COUNT>
1

> <PUBCHEM_CACTVS_TAUTO_COUNT>
3

> <PUBCHEM_CONFORMER_ID>
00D7DABF00000001

> <PUBCHEM_MMFF94_ENERGY>
47.1929

> <PUBCHEM_FEATURE_SELFOVERLAP>
71.335

> <PUBCHEM_SHAPE_FINGERPRINT>
10411042 1 17403173699622939683
10764073 3 17608905622487800336
1100329 8 16970551015109499720
11578080 2 16372964401119379406
11582403 64 17488158539610248776
11725454 13 17559669736482929224
11833330 49 17402890523480295395
12160290 23 17691436386512893594
12422481 6 17969764312295317488
12553582 1 17330570743549249267
12788726 201 17108768972817380266
13004483 165 17118871290312356818
13134695 92 17836077875691319805
13140716 1 18409733949815085249
13540713 4 18043256747928405481
138480 1 18051694334933751730
14178342 30 17967534592676482977
14223421 5 18336271154621796217
14955137 171 17043477249704204177
15042514 8 17832991924383050882
15420108 30 18266716070407608490
16087824 20 17907013238479823895
16945 1 18194962941847267193
19591789 44 18411702131685204290
20600515 1 17395576095343291634
21033648 29 18269824462610016656
22149856 69 18263386780149645793
23419403 2 16902949801959657520
23559900 14 18195520398553438826
2748010 2 18335715969378434673
376196 1 18261095366908707009
495365 180 18198603493825253865
5104073 3 18261398819586415521
621550 34 18409459098363734099
633830 44 17774740696197429825
6443956 14 17834395622663393339
6669772 16 18131078155837214478
7364860 26 18340209566006146762
7399639 24 18336835285786260499
7808743 9 17906172111646608880
81228 2 17332823036825133714
9709674 26 18264210206446875963
9925002 15 17399241240403833125
9981440 41 18410844486835264313

> <PUBCHEM_SHAPE_MULTIPOLES>
476.07
7.2
5.08
1.47
4.66
5.66
-1.08
-6.36
1.22
-3.51
-1
-0.44
-0.22
1.82

> <PUBCHEM_SHAPE_SELFOVERLAP>
1025.958

> <PUBCHEM_SHAPE_VOLUME>
262.3

> <PUBCHEM_COORDINATE_TYPE>
2
5
10

$$$$
