REMARK  Name = 14158941
REMARK  4 active torsions:
REMARK  status: ('A' for Active; 'I' for Inactive)
REMARK    1  A    between atoms: N_1  and  C1*_11
REMARK    2  A    between atoms: C3*_13  and  O3*_15
REMARK    3  A    between atoms: C4*_14  and  C5*_17
REMARK    4  A    between atoms: C5*_17  and  O5*_18
REMARK                            x       y       z     vdW  Elec       q    Type
REMARK                         _______ _______ _______ _____ _____    ______ ____
ROOT
ATOM      1  N   UNL     1      -0.123  -0.117   0.166  0.00  0.00    -0.252 N 
ATOM      2  N   UNL     1      -1.635   1.677  -0.399  0.00  0.00    -0.233 NA
ATOM      3  N   UNL     1      -3.979   1.046  -0.216  0.00  0.00    -0.234 NA
ATOM      4  C   UNL     1      -1.377   0.417  -0.006  0.00  0.00    +0.122 C 
ATOM      5  C   UNL     1      -0.245  -1.425   0.572  0.00  0.00    +0.064 C 
ATOM      6  C   UNL     1      -2.313  -0.566   0.294  0.00  0.00    +0.131 C 
ATOM      7  C   UNL     1      -1.587  -1.729   0.659  0.00  0.00    +0.004 C 
ATOM      8  C   UNL     1      -3.655  -0.208   0.175  0.00  0.00    +0.110 C 
ATOM      9  C   UNL     1      -2.962   1.899  -0.475  0.00  0.00    +0.252 C 
ATOM     10  N   UNL     1      -4.673  -1.136   0.459  0.00  0.00    -0.346 N 
ATOM     11  H   UNL     1      -5.617  -0.873   0.372  0.00  0.00    +0.143 HD
ATOM     12  H   UNL     1      -4.441  -2.050   0.744  0.00  0.00    +0.143 HD
ENDROOT
BRANCH   1  14
ATOM     13  O4* UNL     1       2.133   0.100   0.882  0.00  0.00    -0.335 OA
ATOM     14  C1* UNL     1       1.147   0.583  -0.045  0.00  0.00    +0.199 C 
ATOM     15  C2* UNL     1       1.709   0.426  -1.455  0.00  0.00    +0.083 C 
ATOM     16  C3* UNL     1       2.852  -0.549  -1.276  0.00  0.00    +0.144 C 
ATOM     17  C4* UNL     1       3.306  -0.306   0.154  0.00  0.00    +0.173 C 
BRANCH  16  18
ATOM     18  O3* UNL     1       2.365  -1.883  -1.386  0.00  0.00    -0.382 OA
ATOM     19  H3* UNL     1       2.072  -2.047  -2.296  0.00  0.00    +0.210 HD
ENDBRANCH  16  18
BRANCH  17  20
ATOM     20  C5* UNL     1       4.343   0.805   0.266  0.00  0.00    +0.169 C 
BRANCH  20  21
ATOM     21  O5* UNL     1       4.696   0.967   1.630  0.00  0.00    -0.379 OA
ATOM     22  H5* UNL     1       5.356   1.673   1.712  0.00  0.00    +0.211 HD
ENDBRANCH  20  21
ENDBRANCH  17  20
ENDBRANCH   1  14
TORSDOF 4
