14179187
  -OEChem-03292013303D

 35 37  0     1  0  0  0  0  0999 V2000
    2.2510   -0.1838   -0.9720 O   0  0  0  0  0  0  0  0  0  0  0  0
    2.0379    2.7490    0.4708 O   0  0  0  0  0  0  0  0  0  0  0  0
    2.8970   -0.4144    1.9467 O   0  0  0  0  0  0  0  0  0  0  0  0
    4.6599   -1.4040   -1.6938 O   0  0  0  0  0  0  0  0  0  0  0  0
    0.0327   -0.1373   -0.1360 N   0  0  0  0  0  0  0  0  0  0  0  0
   -1.1924   -1.9018    0.4843 N   0  0  0  0  0  0  0  0  0  0  0  0
   -1.7060    1.4763   -0.6230 N   0  0  0  0  0  0  0  0  0  0  0  0
   -3.8898    0.4646   -0.2513 N   0  0  0  0  0  0  0  0  0  0  0  0
   -4.0881   -1.8522    0.5596 N   0  0  0  0  0  0  0  0  0  0  0  0
    1.7973    1.3810    0.7917 C   0  0  1  0  0  0  0  0  0  0  0  0
    1.2210    0.6647   -0.4334 C   0  0  1  0  0  0  0  0  0  0  0  0
    3.1121    0.6699    1.0519 C   0  0  2  0  0  0  0  0  0  0  0  0
    3.4916    0.1559   -0.3316 C   0  0  1  0  0  0  0  0  0  0  0  0
    4.4124   -1.0505   -0.3496 C   0  0  0  0  0  0  0  0  0  0  0  0
   -1.2705    0.2537   -0.2317 C   0  0  0  0  0  0  0  0  0  0  0  0
    0.0279   -1.4396    0.2980 C   0  0  0  0  0  0  0  0  0  0  0  0
   -2.0021   -0.8516    0.1550 C   0  0  0  0  0  0  0  0  0  0  0  0
   -3.4488   -0.8010    0.1778 C   0  0  0  0  0  0  0  0  0  0  0  0
   -3.0107    1.5060   -0.6055 C   0  0  0  0  0  0  0  0  0  0  0  0
   -5.3323    0.7151   -0.3081 C   0  0  0  0  0  0  0  0  0  0  0  0
    1.1198    1.3642    1.6515 H   0  0  0  0  0  0  0  0  0  0  0  0
    0.9354    1.3673   -1.2250 H   0  0  0  0  0  0  0  0  0  0  0  0
    3.8940    1.3136    1.4670 H   0  0  0  0  0  0  0  0  0  0  0  0
    3.9294    0.9640   -0.9318 H   0  0  0  0  0  0  0  0  0  0  0  0
    3.9592   -1.9193    0.1385 H   0  0  0  0  0  0  0  0  0  0  0  0
    5.3662   -0.8277    0.1371 H   0  0  0  0  0  0  0  0  0  0  0  0
    2.6278    2.7844   -0.3009 H   0  0  0  0  0  0  0  0  0  0  0  0
    0.9370   -2.0016    0.4639 H   0  0  0  0  0  0  0  0  0  0  0  0
    2.6133   -0.0383    2.7974 H   0  0  0  0  0  0  0  0  0  0  0  0
    3.8031   -1.5975   -2.1114 H   0  0  0  0  0  0  0  0  0  0  0  0
   -3.5300    2.4331   -0.8980 H   0  0  0  0  0  0  0  0  0  0  0  0
   -5.8181   -0.0163   -0.9626 H   0  0  0  0  0  0  0  0  0  0  0  0
   -5.5656    1.7111   -0.6984 H   0  0  0  0  0  0  0  0  0  0  0  0
   -5.7672    0.6386    0.6938 H   0  0  0  0  0  0  0  0  0  0  0  0
   -5.0975   -1.6807    0.5281 H   0  0  0  0  0  0  0  0  0  0  0  0
  1 11  1  0  0  0  0
  1 13  1  0  0  0  0
  2 10  1  0  0  0  0
  2 27  1  0  0  0  0
  3 12  1  0  0  0  0
  3 29  1  0  0  0  0
  4 14  1  0  0  0  0
  4 30  1  0  0  0  0
  5 11  1  0  0  0  0
  5 15  1  0  0  0  0
  5 16  1  0  0  0  0
  6 16  2  0  0  0  0
  6 17  1  0  0  0  0
  7 15  1  0  0  0  0
  7 19  2  0  0  0  0
  8 18  1  0  0  0  0
  8 19  1  0  0  0  0
  8 20  1  0  0  0  0
  9 18  2  0  0  0  0
  9 35  1  0  0  0  0
 10 11  1  0  0  0  0
 10 12  1  0  0  0  0
 10 21  1  0  0  0  0
 11 22  1  0  0  0  0
 12 13  1  0  0  0  0
 12 23  1  0  0  0  0
 13 14  1  0  0  0  0
 13 24  1  0  0  0  0
 14 25  1  0  0  0  0
 14 26  1  0  0  0  0
 15 17  2  0  0  0  0
 16 28  1  0  0  0  0
 17 18  1  0  0  0  0
 19 31  1  0  0  0  0
 20 32  1  0  0  0  0
 20 33  1  0  0  0  0
 20 34  1  0  0  0  0
M  END
> <PUBCHEM_COMPOUND_CID>
14179187

> <PUBCHEM_CONFORMER_RMSD>
0.6

> <PUBCHEM_CONFORMER_DIVERSEORDER>
1
6
21
9
7
8
12
17
3
5
13
19
18
16
11
2
14
4
20
15
10

> <PUBCHEM_MMFF94_PARTIAL_CHARGES>
26
1 -0.56
10 0.28
11 0.54
12 0.28
13 0.28
14 0.28
15 -0.03
16 0.04
17 0.14
18 0.59
19 0.44
2 -0.68
20 0.37
27 0.4
28 0.15
29 0.4
3 -0.68
30 0.4
31 0.06
35 0.4
4 -0.68
5 0.05
6 -0.57
7 -0.58
8 -0.47
9 -0.85

> <PUBCHEM_EFFECTIVE_ROTOR_COUNT>
3

> <PUBCHEM_PHARMACOPHORE_FEATURES>
14
1 1 acceptor
1 2 acceptor
1 2 donor
1 3 acceptor
1 3 donor
1 4 acceptor
1 4 donor
1 9 donor
3 5 6 16 cation
3 7 8 19 cation
3 8 9 18 cation
5 1 10 11 12 13 rings
5 5 6 15 16 17 rings
6 7 8 15 17 18 19 rings

> <PUBCHEM_HEAVY_ATOM_COUNT>
20

> <PUBCHEM_ATOM_DEF_STEREO_COUNT>
4

> <PUBCHEM_ATOM_UDEF_STEREO_COUNT>
0

> <PUBCHEM_BOND_DEF_STEREO_COUNT>
0

> <PUBCHEM_BOND_UDEF_STEREO_COUNT>
0

> <PUBCHEM_ISOTOPIC_ATOM_COUNT>
0

> <PUBCHEM_COMPONENT_COUNT>
1

> <PUBCHEM_CACTVS_TAUTO_COUNT>
1

> <PUBCHEM_CONFORMER_ID>
00D85B7300000001

> <PUBCHEM_MMFF94_ENERGY>
46.6187

> <PUBCHEM_FEATURE_SELFOVERLAP>
71.275

> <PUBCHEM_SHAPE_FINGERPRINT>
10608611 8 18339356482559193377
11132069 177 18408037433955220553
12236239 1 16805325478657530404
12403259 226 18411134766405078197
12403259 415 18334006177727653805
128620 24 10879992479872998881
13134695 92 17131827656066184824
13571099 22 18060138739075056624
13675066 3 18201432614288746931
13760787 19 17022624178121971571
14866123 147 17336199160698553402
15196674 1 18335983168295465941
15219456 202 18271805773682358404
15788980 27 16200150976057979295
16752209 62 18186235143248044123
16945 1 18336253613469099883
17804303 29 18335423473499818247
18186145 218 18412257333443659993
200 152 17131830950110505997
20233049 118 18333731295593963252
20510252 161 18339079393034145177
20645477 70 17703790297689070390
20871999 31 18336841796903992156
21267235 1 18261403273599382179
2215653 11 18272088262392599295
23175994 123 17917998252139136552
23402539 116 18410567405731188959
23559900 14 18411983580833971948
3004659 81 18115032888554578278
351380 180 18343295977155802941
5104073 3 18335982064441476937
59755656 215 18336546002421998639
633830 44 18410847789638337839
69090 78 18131062766647522311
7364860 26 18265889151643297155
9709674 26 18267021837260629866
9971528 1 17989201543101739600

> <PUBCHEM_SHAPE_MULTIPOLES>
363.21
9.45
1.95
1.09
2.39
0.35
-0.11
-1.17
1.37
0.12
-0.17
-1.26
-0.13
1.35

> <PUBCHEM_SHAPE_SELFOVERLAP>
784.935

> <PUBCHEM_SHAPE_VOLUME>
196

> <PUBCHEM_COORDINATE_TYPE>
2
5
10

$$$$
