REMARK  Name = 14185468
REMARK  4 active torsions:
REMARK  status: ('A' for Active; 'I' for Inactive)
REMARK    1  A    between atoms: CA_5  and  CB_11
REMARK    2  A    between atoms: CA_6  and  CB_19
REMARK    3  A    between atoms: CB_11  and  CG_14
REMARK    4  A    between atoms: CB_19  and  CG_22
REMARK                            x       y       z     vdW  Elec       q    Type
REMARK                         _______ _______ _______ _____ _____    ______ ____
ROOT
ATOM      1  O   HIS A   2      -2.010   1.148  -1.722  0.00  0.00    -0.273 OA
ATOM      2  O   HIS A   1       2.010   1.147   1.722  0.00  0.00    -0.273 OA
ATOM      3  N   HIS A   1       0.247   1.002  -1.299  0.00  0.00    -0.297 N 
ATOM      4  N   HIS A   2      -0.248   1.001   1.299  0.00  0.00    -0.297 N 
ATOM      5  CA  HIS A   1       1.298   0.416  -0.480  0.00  0.00    +0.154 C 
ATOM      6  CA  HIS A   2      -1.298   0.416   0.479  0.00  0.00    +0.154 C 
ATOM      7  C   HIS A   2      -1.089   0.930  -0.938  0.00  0.00    +0.241 C 
ATOM      8  C   HIS A   1       1.089   0.930   0.939  0.00  0.00    +0.241 C 
ATOM      9  H   HIS A   1       0.493   1.463  -2.133  0.00  0.00    +0.150 HD
ATOM     10  H   HIS A   2      -0.493   1.462   2.134  0.00  0.00    +0.150 HD
ENDROOT
BRANCH   5  11
ATOM     11  CB  HIS A   1       2.677   0.769  -1.014  0.00  0.00    +0.071 C 
BRANCH  11  14
ATOM     12  ND1 HIS A   1       4.798   0.253   0.185  0.00  0.00    -0.319 N 
ATOM     13  NE2 HIS A   1       4.991  -1.952  -0.003  0.00  0.00    -0.315 N 
ATOM     14  CG  HIS A   1       3.732  -0.183  -0.514  0.00  0.00    +0.040 C 
ATOM     15  CD2 HIS A   1       3.848  -1.524  -0.629  0.00  0.00    +0.069 C 
ATOM     16  CE1 HIS A   1       5.540  -0.858   0.476  0.00  0.00    +0.182 C 
ATOM     17  HD1 HIS A   1       5.001   1.183   0.435  0.00  0.00    +0.148 HD
ATOM     18  HE2 HIS A   1       5.327  -2.875   0.072  0.00  0.00    +0.148 HD
ENDBRANCH  11  14
ENDBRANCH   5  11
BRANCH   6  19
ATOM     19  CB  HIS A   2      -2.676   0.769   1.015  0.00  0.00    +0.071 C 
BRANCH  19  22
ATOM     20  ND1 HIS A   2      -4.798   0.253  -0.184  0.00  0.00    -0.319 N 
ATOM     21  NE2 HIS A   2      -4.991  -1.952   0.002  0.00  0.00    -0.315 N 
ATOM     22  CG  HIS A   2      -3.732  -0.184   0.514  0.00  0.00    +0.040 C 
ATOM     23  CD2 HIS A   2      -3.848  -1.524   0.628  0.00  0.00    +0.069 C 
ATOM     24  CE1 HIS A   2      -5.540  -0.858  -0.476  0.00  0.00    +0.182 C 
ATOM     25  HD1 HIS A   2      -5.001   1.183  -0.434  0.00  0.00    +0.148 HD
ATOM     26  HE2 HIS A   2      -5.327  -2.875  -0.073  0.00  0.00    +0.148 HD
ENDBRANCH  19  22
ENDBRANCH   6  19
TORSDOF 4
