REMARK  Name = 14189788
REMARK  13 active torsions:
REMARK  status: ('A' for Active; 'I' for Inactive)
REMARK    1  A    between atoms: C_1  and  N_3
REMARK    2  A    between atoms: C_1  and  C_20
REMARK    3  A    between atoms: C_1  and  C_33
REMARK    4  A    between atoms: C_4  and  C_6
REMARK    5  A    between atoms: C_6  and  N_7
REMARK    6  A    between atoms: C_6  and  C_11
REMARK    7  A    between atoms: C_11  and  C_12
REMARK    8  A    between atoms: N_19  and  C_22
REMARK    9  A    between atoms: C_22  and  C_24
REMARK   10  A    between atoms: C_24  and  O_25
REMARK   11  A    between atoms: O_25  and  C_26
REMARK   12  A    between atoms: C_26  and  C_27
REMARK   13  A    between atoms: C_33  and  C_34
REMARK                            x       y       z     vdW  Elec       q    Type
REMARK                         _______ _______ _______ _____ _____    ______ ____
ROOT
ATOM      1  C   UNL     1       1.238   0.850  -0.943  0.00  0.00    +0.153 C 
ENDROOT
BRANCH   1   3
ATOM      2  O   UNL     1       1.076  -0.330   1.694  0.00  0.00    -0.277 OA
ATOM      3  N   UNL     1       1.607  -0.490  -0.562  0.00  0.00    -0.300 N 
ATOM      4  C   UNL     1       1.495  -0.976   0.736  0.00  0.00    +0.202 C 
ATOM      5  H   UNL     1       1.957  -1.093  -1.257  0.00  0.00    +0.150 HD
BRANCH   4   6
ATOM      6  C   UNL     1       2.010  -2.405   0.860  0.00  0.00    +0.017 C 
BRANCH   6   7
ATOM      7  N   UNL     1       3.195  -2.363   1.679  0.00  0.00    +0.388 N 
ATOM      8  H   UNL     1       3.569  -3.306   1.785  0.00  0.00    -0.089 HD
ATOM      9  H   UNL     1       2.960  -1.985   2.597  0.00  0.00    -0.089 HD
ATOM     10  H   UNL     1       3.894  -1.767   1.235  0.00  0.00    -0.089 HD
ENDBRANCH   6   7
BRANCH   6  11
ATOM     11  C   UNL     1       0.926  -3.312   1.456  0.00  0.00    +0.013 C 
BRANCH  11  12
ATOM     12  C   UNL     1      -0.082  -3.768   0.430  0.00  0.00    -0.024 C 
ATOM     13  C   UNL     1      -1.228  -3.009   0.193  0.00  0.00    -0.004 C 
ATOM     14  C   UNL     1       0.132  -4.949  -0.282  0.00  0.00    -0.004 C 
ATOM     15  C   UNL     1      -2.160  -3.431  -0.755  0.00  0.00    -0.000 C 
ATOM     16  C   UNL     1      -0.800  -5.370  -1.230  0.00  0.00    -0.000 C 
ATOM     17  C   UNL     1      -1.946  -4.611  -1.467  0.00  0.00    -0.000 C 
ENDBRANCH  11  12
ENDBRANCH   6  11
ENDBRANCH   4   6
ENDBRANCH   1   3
BRANCH   1  20
ATOM     18  O   UNL     1      -0.324  -0.341  -2.363  0.00  0.00    -0.273 OA
ATOM     19  N   UNL     1      -0.454   1.975  -2.249  0.00  0.00    -0.294 N 
ATOM     20  C   UNL     1       0.088   0.736  -1.937  0.00  0.00    +0.241 C 
ATOM     21  H   UNL     1      -0.046   2.778  -1.850  0.00  0.00    +0.150 HD
BRANCH  19  22
ATOM     22  C   UNL     1      -1.587   2.147  -3.129  0.00  0.00    +0.201 C 
BRANCH  22  24
ATOM     23  O   UNL     1      -3.981   2.253  -2.993  0.00  0.00    -0.248 OA
ATOM     24  C   UNL     1      -2.913   2.116  -2.405  0.00  0.00    +0.338 C 
BRANCH  24  25
ATOM     25  O   UNL     1      -2.769   1.923  -1.065  0.00  0.00    -0.442 OA
BRANCH  25  26
ATOM     26  C   UNL     1      -3.984   1.883  -0.309  0.00  0.00    +0.235 C 
BRANCH  26  27
ATOM     27  C   UNL     1      -3.652   1.666   1.138  0.00  0.00    +0.021 C 
ATOM     28  C   UNL     1      -3.561   0.369   1.646  0.00  0.00    -0.001 C 
ATOM     29  C   UNL     1      -3.436   2.760   1.976  0.00  0.00    -0.001 C 
ATOM     30  C   UNL     1      -3.252   0.167   2.991  0.00  0.00    -0.000 C 
ATOM     31  C   UNL     1      -3.127   2.557   3.321  0.00  0.00    -0.000 C 
ATOM     32  C   UNL     1      -3.036   1.261   3.829  0.00  0.00    -0.000 C 
ENDBRANCH  26  27
ENDBRANCH  25  26
ENDBRANCH  24  25
ENDBRANCH  22  24
ENDBRANCH  19  22
ENDBRANCH   1  20
BRANCH   1  33
ATOM     33  C   UNL     1       2.409   1.617  -1.569  0.00  0.00    +0.055 C 
BRANCH  33  34
ATOM     34  C   UNL     1       3.593   1.736  -0.640  0.00  0.00    -0.020 C 
ATOM     35  C   UNL     1       4.585   0.755  -0.646  0.00  0.00    -0.004 C 
ATOM     36  C   UNL     1       3.694   2.825   0.224  0.00  0.00    -0.004 C 
ATOM     37  C   UNL     1       5.679   0.865   0.213  0.00  0.00    -0.000 C 
ATOM     38  C   UNL     1       4.788   2.935   1.083  0.00  0.00    -0.000 C 
ATOM     39  C   UNL     1       5.780   1.955   1.077  0.00  0.00    -0.000 C 
ENDBRANCH  33  34
ENDBRANCH   1  33
TORSDOF 13
