REMARK  Name = 14181
REMARK  9 active torsions:
REMARK  status: ('A' for Active; 'I' for Inactive)
REMARK    1  A    between atoms: C_2  and  O_17
REMARK    2  A    between atoms: C_3  and  O_19
REMARK    3  A    between atoms: C_4  and  C_21
REMARK    4  A    between atoms: C_5  and  N_6
REMARK    5  A    between atoms: C_9  and  C_14
REMARK    6  A    between atoms: C_21  and  O_22
REMARK    7  A    between atoms: O_22  and  P_23
REMARK    8  A    between atoms: P_23  and  O_25
REMARK    9  A    between atoms: P_23  and  O_27
REMARK                            x       y       z     vdW  Elec       q    Type
REMARK                         _______ _______ _______ _____ _____    ______ ____
ROOT
ATOM      1  O   UNL     1       0.507  -1.260   1.131  0.00  0.00    -0.333 OA
ATOM      2  C   UNL     1       1.132  -2.864  -0.511  0.00  0.00    +0.171 C 
ATOM      3  C   UNL     1      -0.278  -2.388  -0.798  0.00  0.00    +0.187 C 
ATOM      4  C   UNL     1       1.657  -1.781   0.426  0.00  0.00    +0.176 C 
ATOM      5  C   UNL     1      -0.685  -1.819   0.549  0.00  0.00    +0.223 C 
ENDROOT
BRANCH   5   6
ATOM      6  N   UNL     1      -1.759  -0.807   0.384  0.00  0.00    -0.279 N 
ATOM      7  C   UNL     1      -1.423   0.475   0.148  0.00  0.00    +0.124 C 
ATOM      8  C   UNL     1      -3.045  -1.192   0.473  0.00  0.00    +0.063 C 
ATOM      9  C   UNL     1      -2.406   1.442  -0.011  0.00  0.00    +0.051 C 
ATOM     10  C   UNL     1      -4.069  -0.268   0.323  0.00  0.00    +0.016 C 
ATOM     11  C   UNL     1      -3.741   1.062   0.078  0.00  0.00    +0.003 C 
BRANCH   9  14
ATOM     12  O   UNL     1      -2.910   3.711  -0.394  0.00  0.00    -0.271 OA
ATOM     13  N   UNL     1      -0.689   3.139  -0.342  0.00  0.00    -0.326 N 
ATOM     14  C   UNL     1      -2.044   2.826  -0.265  0.00  0.00    +0.240 C 
ATOM     15  H   UNL     1      -0.408   4.067  -0.514  0.00  0.00    +0.145 HD
ATOM     16  H   UNL     1      -0.013   2.433  -0.226  0.00  0.00    +0.145 HD
ENDBRANCH   9  14
ENDBRANCH   5   6
BRANCH   2  17
ATOM     17  O   UNL     1       1.080  -4.102   0.200  0.00  0.00    -0.379 OA
ATOM     18  H   UNL     1       0.747  -4.798  -0.388  0.00  0.00    +0.211 HD
ENDBRANCH   2  17
BRANCH   3  19
ATOM     19  O   UNL     1      -1.139  -3.426  -1.216  0.00  0.00    -0.378 OA
ATOM     20  H   UNL     1      -0.846  -3.762  -2.078  0.00  0.00    +0.211 HD
ENDBRANCH   3  19
BRANCH   4  21
ATOM     21  C   UNL     1       2.330  -0.633  -0.312  0.00  0.00    +0.186 C 
BRANCH  21  22
ATOM     22  O   UNL     1       2.771   0.321   0.639  0.00  0.00    -0.271 OA
BRANCH  22  23
ATOM     23  P   UNL     1       3.526   1.651   0.106  0.00  0.00    +0.473 P 
ATOM     24  O   UNL     1       3.958   2.607   1.179  0.00  0.00    -0.227 OA
BRANCH  23  25
ATOM     25  O   UNL     1       2.504   2.259  -0.991  0.00  0.00    -0.303 OA
ATOM     26  H   UNL     1       2.281   1.573  -1.640  0.00  0.00    +0.222 HD
ENDBRANCH  23  25
BRANCH  23  27
ATOM     27  O   UNL     1       4.724   1.048  -0.797  0.00  0.00    -0.303 OA
ATOM     28  H   UNL     1       4.357   0.444  -1.461  0.00  0.00    +0.222 HD
ENDBRANCH  23  27
ENDBRANCH  22  23
ENDBRANCH  21  22
ENDBRANCH   4  21
TORSDOF 9
