REMARK  Name = 14180
REMARK  8 active torsions:
REMARK  status: ('A' for Active; 'I' for Inactive)
REMARK    1  A    between atoms: C_2  and  O_17
REMARK    2  A    between atoms: C_3  and  O_19
REMARK    3  A    between atoms: C_4  and  C_21
REMARK    4  A    between atoms: C_5  and  N_6
REMARK    5  A    between atoms: C_9  and  C_14
REMARK    6  A    between atoms: C_21  and  O_22
REMARK    7  A    between atoms: O_22  and  P_23
REMARK    8  A    between atoms: P_23  and  O_26
REMARK                            x       y       z     vdW  Elec       q    Type
REMARK                         _______ _______ _______ _____ _____    ______ ____
ROOT
ATOM      1  O   UNL     1       0.496  -1.251   1.110  0.00  0.00    -0.333 OA
ATOM      2  C   UNL     1       1.092  -2.869  -0.529  0.00  0.00    +0.171 C 
ATOM      3  C   UNL     1      -0.319  -2.386  -0.802  0.00  0.00    +0.187 C 
ATOM      4  C   UNL     1       1.634  -1.783   0.394  0.00  0.00    +0.176 C 
ATOM      5  C   UNL     1      -0.706  -1.808   0.547  0.00  0.00    +0.223 C 
ENDROOT
BRANCH   5   6
ATOM      6  N   UNL     1      -1.776  -0.791   0.390  0.00  0.00    -0.279 N 
ATOM      7  C   UNL     1      -1.437   0.487   0.142  0.00  0.00    +0.124 C 
ATOM      8  C   UNL     1      -3.063  -1.169   0.499  0.00  0.00    +0.063 C 
ATOM      9  C   UNL     1      -2.417   1.459  -0.010  0.00  0.00    +0.051 C 
ATOM     10  C   UNL     1      -4.084  -0.241   0.356  0.00  0.00    +0.016 C 
ATOM     11  C   UNL     1      -3.753   1.086   0.099  0.00  0.00    +0.003 C 
BRANCH   9  14
ATOM     12  O   UNL     1      -2.914   3.727  -0.401  0.00  0.00    -0.271 OA
ATOM     13  N   UNL     1      -0.696   3.145  -0.374  0.00  0.00    -0.326 N 
ATOM     14  C   UNL     1      -2.051   2.839  -0.278  0.00  0.00    +0.240 C 
ATOM     15  H   UNL     1      -0.412   4.070  -0.555  0.00  0.00    +0.145 HD
ATOM     16  H   UNL     1      -0.022   2.436  -0.262  0.00  0.00    +0.145 HD
ENDBRANCH   9  14
ENDBRANCH   5   6
BRANCH   2  17
ATOM     17  O   UNL     1       1.043  -4.102   0.189  0.00  0.00    -0.379 OA
ATOM     18  H   UNL     1       0.699  -4.800  -0.390  0.00  0.00    +0.211 HD
ENDBRANCH   2  17
BRANCH   3  19
ATOM     19  O   UNL     1      -1.190  -3.423  -1.202  0.00  0.00    -0.378 OA
ATOM     20  H   UNL     1      -0.911  -3.766  -2.066  0.00  0.00    +0.211 HD
ENDBRANCH   3  19
BRANCH   4  21
ATOM     21  C   UNL     1       2.304  -0.642  -0.360  0.00  0.00    +0.186 C 
BRANCH  21  22
ATOM     22  O   UNL     1       2.762   0.315   0.579  0.00  0.00    -0.269 OA
BRANCH  22  23
ATOM     23  P   UNL     1       3.527   1.659   0.048  0.00  0.00    +0.503 P 
ATOM     24  O   UNL     1       3.905   2.500   1.248  0.00  0.00    -0.116 OA
ATOM     25  O   UNL     1       2.753   2.268  -1.101  0.00  0.00    -0.225 OA
BRANCH  23  26
ATOM     26  O   UNL     1       4.890   0.980  -0.545  0.00  0.00    -0.301 OA
ATOM     27  H   UNL     1       5.397   0.585   0.182  0.00  0.00    +0.222 HD
ENDBRANCH  23  26
ENDBRANCH  22  23
ENDBRANCH  21  22
ENDBRANCH   4  21
TORSDOF 8
