REMARK  Name = 14198
REMARK  5 active torsions:
REMARK  status: ('A' for Active; 'I' for Inactive)
REMARK    1  A    between atoms: C_8  and  O_23
REMARK    2  A    between atoms: C_10  and  C_25
REMARK    3  A    between atoms: C_18  and  N_20
REMARK    4  A    between atoms: C_25  and  O_26
REMARK    5  A    between atoms: O_26  and  C_29
REMARK                            x       y       z     vdW  Elec       q    Type
REMARK                         _______ _______ _______ _____ _____    ______ ____
ROOT
ATOM      1  O   UNL     1       4.994  -0.324  -0.793  0.00  0.00    -0.275 OA
ATOM      2  O   UNL     1      -1.951   2.360  -1.847  0.00  0.00    -0.286 OA
ATOM      3  O   UNL     1      -2.961  -1.223   1.995  0.00  0.00    -0.286 OA
ATOM      4  N   UNL     1       3.167   1.021  -0.244  0.00  0.00    -0.274 N 
ATOM      5  N   UNL     1       0.197   1.227  -0.247  0.00  0.00    -0.283 N 
ATOM      6  C   UNL     1       2.186   0.069   0.204  0.00  0.00    +0.138 C 
ATOM      7  C   UNL     1       2.213   0.536  -1.190  0.00  0.00    +0.117 C 
ATOM      8  C   UNL     1       0.935   0.567   0.858  0.00  0.00    +0.179 C 
ATOM      9  C   UNL     1       0.982   1.345  -1.473  0.00  0.00    +0.114 C 
ATOM     10  C   UNL     1      -0.105  -0.462   1.417  0.00  0.00    +0.115 C 
ATOM     11  C   UNL     1      -1.146   0.938  -0.156  0.00  0.00    +0.088 C 
ATOM     12  C   UNL     1      -1.392   0.030   0.786  0.00  0.00    +0.042 C 
ATOM     13  C   UNL     1       4.514   0.707  -0.328  0.00  0.00    +0.226 C 
ATOM     14  C   UNL     1      -2.200   1.525  -0.985  0.00  0.00    +0.206 C 
ATOM     15  C   UNL     1      -2.751  -0.418   1.093  0.00  0.00    +0.206 C 
ATOM     16  C   UNL     1       5.381   1.806   0.223  0.00  0.00    +0.095 C 
ATOM     17  C   UNL     1      -3.599   1.054  -0.710  0.00  0.00    +0.034 C 
ATOM     18  C   UNL     1      -3.865   0.152   0.260  0.00  0.00    +0.080 C 
ATOM     19  C   UNL     1      -4.640   1.680  -1.600  0.00  0.00    +0.036 C 
ENDROOT
BRANCH  18  20
ATOM     20  N   UNL     1      -5.101  -0.332   0.590  0.00  0.00    -0.355 N 
ATOM     21  H   UNL     1      -5.194  -0.991   1.315  0.00  0.00    +0.142 HD
ATOM     22  H   UNL     1      -5.898  -0.022   0.102  0.00  0.00    +0.142 HD
ENDBRANCH  18  20
BRANCH   8  23
ATOM     23  O   UNL     1       1.266   1.510   1.875  0.00  0.00    -0.337 OA
ATOM     24  C   UNL     1       1.832   0.870   3.009  0.00  0.00    +0.176 C 
ENDBRANCH   8  23
BRANCH  10  25
ATOM     25  C   UNL     1       0.155  -1.917   1.035  0.00  0.00    +0.219 C 
BRANCH  25  26
ATOM     26  O   UNL     1       0.248  -2.001  -0.375  0.00  0.00    -0.434 OA
BRANCH  26  29
ATOM     27  O   UNL     1       0.610  -4.270  -0.231  0.00  0.00    -0.227 OA
ATOM     28  N   UNL     1       0.550  -3.204  -2.267  0.00  0.00    -0.295 N 
ATOM     29  C   UNL     1       0.481  -3.248  -0.897  0.00  0.00    +0.398 C 
ATOM     30  H   UNL     1       0.437  -2.347  -2.738  0.00  0.00    +0.148 HD
ATOM     31  H   UNL     1       0.714  -4.029  -2.779  0.00  0.00    +0.148 HD
ENDBRANCH  26  29
ENDBRANCH  25  26
ENDBRANCH  10  25
TORSDOF 5
