REMARK  Name = 14209051
REMARK  4 active torsions:
REMARK  status: ('A' for Active; 'I' for Inactive)
REMARK    1  A    between atoms: C3*_3  and  O3*_15
REMARK    2  A    between atoms: C1*_4  and  N1_8
REMARK    3  A    between atoms: C4*_5  and  C5*_17
REMARK    4  A    between atoms: C5*_17  and  O5*_18
REMARK                            x       y       z     vdW  Elec       q    Type
REMARK                         _______ _______ _______ _____ _____    ______ ____
ROOT
ATOM      1  O4* U   A   1      -0.848   1.185  -1.075  0.00  0.00    -0.335 OA
ATOM      2  C2* U   A   1      -1.306  -0.775   0.221  0.00  0.00    +0.083 C 
ATOM      3  C3* U   A   1      -1.946   0.431   0.878  0.00  0.00    +0.144 C 
ATOM      4  C1* U   A   1      -0.403  -0.160  -0.845  0.00  0.00    +0.202 C 
ATOM      5  C4* U   A   1      -2.007   1.437  -0.264  0.00  0.00    +0.173 C 
ENDROOT
BRANCH   4   8
ATOM      6  O2  U   A   1       1.524  -2.134  -1.450  0.00  0.00    -0.252 OA
ATOM      7  O4  U   A   1       4.831   0.139   0.817  0.00  0.00    -0.270 OA
ATOM      8  N1  U   A   1       0.972  -0.109  -0.425  0.00  0.00    -0.219 N 
ATOM      9  N3  U   A   1       3.170  -1.001  -0.320  0.00  0.00    -0.236 N 
ATOM     10  C2  U   A   1       1.855  -1.152  -0.782  0.00  0.00    +0.315 C 
ATOM     11  C6  U   A   1       1.424   0.966   0.329  0.00  0.00    +0.076 C 
ATOM     12  C5  U   A   1       2.680   1.096   0.762  0.00  0.00    +0.074 C 
ATOM     13  C4  U   A   1       3.669   0.050   0.434  0.00  0.00    +0.254 C 
ATOM     14  H3  U   A   1       3.805  -1.716  -0.555  0.00  0.00    +0.159 HD
ENDBRANCH   4   8
BRANCH   3  15
ATOM     15  O3* U   A   1      -1.122   0.886   1.946  0.00  0.00    -0.382 OA
ATOM     16  H3* U   A   1      -1.109   0.220   2.651  0.00  0.00    +0.210 HD
ENDBRANCH   3  15
BRANCH   5  17
ATOM     17  C5* U   A   1      -2.025   2.897   0.150  0.00  0.00    +0.169 C 
BRANCH  17  18
ATOM     18  O5* U   A   1      -2.071   3.704  -1.015  0.00  0.00    -0.379 OA
ATOM     19  H5* U   A   1      -2.083   4.640  -0.761  0.00  0.00    +0.211 HD
ENDBRANCH  17  18
ENDBRANCH   5  17
TORSDOF 4
REMARK  Name = 14209051
REMARK  4 active torsions:
REMARK  status: ('A' for Active; 'I' for Inactive)
REMARK    1  A    between atoms: C3*_3  and  O3*_15
REMARK    2  A    between atoms: C1*_4  and  N1_8
REMARK    3  A    between atoms: C4*_5  and  C5*_17
REMARK    4  A    between atoms: C5*_17  and  O5*_18
REMARK                            x       y       z     vdW  Elec       q    Type
REMARK                         _______ _______ _______ _____ _____    ______ ____
ROOT
ATOM      1  N   UNL     1      -2.810  -2.511   0.234  0.00  0.00    +0.000 NA
ATOM      2  N   UNL     1      -3.244  -3.372   0.843  0.00  0.00    +0.000 NA
ENDROOT
TORSDOF 0
