14209051
  -OEChem-03292013303D

 30 31  0     1  0  0  0  0  0999 V2000
   -0.8476    1.1847   -1.0750 O   0  0  0  0  0  0  0  0  0  0  0  0
   -1.1217    0.8860    1.9461 O   0  0  0  0  0  0  0  0  0  0  0  0
   -2.0710    3.7041   -1.0154 O   0  0  0  0  0  0  0  0  0  0  0  0
    1.5242   -2.1343   -1.4501 O   0  0  0  0  0  0  0  0  0  0  0  0
    4.8313    0.1389    0.8172 O   0  0  0  0  0  0  0  0  0  0  0  0
    0.9719   -0.1091   -0.4250 N   0  0  0  0  0  0  0  0  0  0  0  0
   -2.3449   -1.5751   -0.4381 N   0  0  0  0  0  0  0  0  0  0  0  0
    3.1696   -1.0011   -0.3199 N   0  0  0  0  0  0  0  0  0  0  0  0
   -2.8102   -2.5107    0.2340 N   0  3  0  0  0  0  0  0  0  0  0  0
   -3.2443   -3.3722    0.8427 N   0  5  0  0  0  0  0  0  0  0  0  0
   -1.3055   -0.7751    0.2207 C   0  0  2  0  0  0  0  0  0  0  0  0
   -1.9460    0.4313    0.8783 C   0  0  2  0  0  0  0  0  0  0  0  0
   -0.4025   -0.1604   -0.8448 C   0  0  1  0  0  0  0  0  0  0  0  0
   -2.0068    1.4374   -0.2641 C   0  0  1  0  0  0  0  0  0  0  0  0
   -2.0249    2.8972    0.1502 C   0  0  0  0  0  0  0  0  0  0  0  0
    1.8555   -1.1524   -0.7820 C   0  0  0  0  0  0  0  0  0  0  0  0
    1.4242    0.9655    0.3291 C   0  0  0  0  0  0  0  0  0  0  0  0
    2.6798    1.0958    0.7623 C   0  0  0  0  0  0  0  0  0  0  0  0
    3.6688    0.0495    0.4341 C   0  0  0  0  0  0  0  0  0  0  0  0
   -0.7351   -1.3942    0.9258 H   0  0  0  0  0  0  0  0  0  0  0  0
   -2.9386    0.2259    1.2930 H   0  0  0  0  0  0  0  0  0  0  0  0
   -0.4675   -0.7031   -1.7950 H   0  0  0  0  0  0  0  0  0  0  0  0
   -2.8700    1.2259   -0.9082 H   0  0  0  0  0  0  0  0  0  0  0  0
   -1.1201    3.1768    0.6973 H   0  0  0  0  0  0  0  0  0  0  0  0
   -2.9019    3.1169    0.7667 H   0  0  0  0  0  0  0  0  0  0  0  0
   -1.6001    1.5976    2.4043 H   0  0  0  0  0  0  0  0  0  0  0  0
    0.7257    1.7544    0.5680 H   0  0  0  0  0  0  0  0  0  0  0  0
   -2.0899    4.6309   -0.7218 H   0  0  0  0  0  0  0  0  0  0  0  0
    3.8240   -1.7393   -0.5641 H   0  0  0  0  0  0  0  0  0  0  0  0
    3.0006    1.9516    1.3436 H   0  0  0  0  0  0  0  0  0  0  0  0
  1 13  1  0  0  0  0
  1 14  1  0  0  0  0
  2 12  1  0  0  0  0
  2 26  1  0  0  0  0
  3 15  1  0  0  0  0
  3 28  1  0  0  0  0
  4 16  2  0  0  0  0
  5 19  2  0  0  0  0
  6 13  1  0  0  0  0
  6 16  1  0  0  0  0
  6 17  1  0  0  0  0
  7  9  2  0  0  0  0
  7 11  1  0  0  0  0
  8 16  1  0  0  0  0
  8 19  1  0  0  0  0
  8 29  1  0  0  0  0
  9 10  2  0  0  0  0
 11 12  1  0  0  0  0
 11 13  1  0  0  0  0
 11 20  1  0  0  0  0
 12 14  1  0  0  0  0
 12 21  1  0  0  0  0
 13 22  1  0  0  0  0
 14 15  1  0  0  0  0
 14 23  1  0  0  0  0
 15 24  1  0  0  0  0
 15 25  1  0  0  0  0
 17 18  2  0  0  0  0
 17 27  1  0  0  0  0
 18 19  1  0  0  0  0
 18 30  1  0  0  0  0
M  CHG  2   9   1  10  -1
M  END
> <PUBCHEM_COMPOUND_CID>
14209051

> <PUBCHEM_CONFORMER_RMSD>
0.6

> <PUBCHEM_CONFORMER_DIVERSEORDER>
3
39
52
53
49
51
26
42
32
9
10
46
45
16
27
37
20
34
13
36
29
5
14
40
30
47
54
12
44
33
38
4
21
50
8
24
18
48
15
28
22
35
6
31
41
25
23
7
43
11
17
19
1
2

> <PUBCHEM_MMFF94_PARTIAL_CHARGES>
24
1 -0.56
10 -0.37
11 0.25
12 0.28
13 0.58
14 0.28
15 0.28
16 0.69
17 -0.04
18 -0.14
19 0.62
2 -0.68
26 0.4
27 0.15
28 0.4
29 0.37
3 -0.68
30 0.15
4 -0.57
5 -0.57
6 -0.47
7 -0.56
8 -0.49
9 0.69

> <PUBCHEM_EFFECTIVE_ROTOR_COUNT>
4

> <PUBCHEM_PHARMACOPHORE_FEATURES>
10
1 1 acceptor
1 2 acceptor
1 2 donor
1 3 acceptor
1 3 donor
1 4 acceptor
1 5 acceptor
1 8 donor
5 1 11 12 13 14 rings
6 6 8 16 17 18 19 rings

> <PUBCHEM_HEAVY_ATOM_COUNT>
19

> <PUBCHEM_ATOM_DEF_STEREO_COUNT>
4

> <PUBCHEM_ATOM_UDEF_STEREO_COUNT>
0

> <PUBCHEM_BOND_DEF_STEREO_COUNT>
0

> <PUBCHEM_BOND_UDEF_STEREO_COUNT>
0

> <PUBCHEM_ISOTOPIC_ATOM_COUNT>
0

> <PUBCHEM_COMPONENT_COUNT>
1

> <PUBCHEM_CACTVS_TAUTO_COUNT>
3

> <PUBCHEM_CONFORMER_ID>
00D8D01B00000003

> <PUBCHEM_MMFF94_ENERGY>
42.8422

> <PUBCHEM_FEATURE_SELFOVERLAP>
50.753

> <PUBCHEM_SHAPE_FINGERPRINT>
10608611 8 18270957943217876052
11833330 49 18261109690825001597
12077114 3 18264203608818089360
12500047 106 18192715531833101782
12532896 13 18121775033077166493
12730499 353 17544481847788869085
13140716 1 18339926042636133937
14178342 30 18334293128708382866
14223421 5 18272092712094937366
14289901 80 18186802478906159880
15099037 37 18410569626123908938
15420108 30 14030561269072653336
16945 1 18339090314893197197
17980427 26 17401465071037332245
18186145 218 17767405682076610725
19049666 15 18054515707513652028
200 152 17561068233473376743
20524608 308 18263362503839343057
21069387 34 16298941077943840298
21650355 55 18335982077294664579
23419403 2 17841975965722452577
23493267 7 18267013973750166896
23557571 272 18408879663634734143
25 1 17695626255827278469
2748010 2 17988368070364476062
6049 1 17916605166901856222
633830 44 17553758456987389197
81228 2 18337404785438077451
9709674 26 18271524200048111326

> <PUBCHEM_SHAPE_MULTIPOLES>
336.76
6.02
3.34
1.19
5.84
0.08
0.13
-1.17
1.42
-4.68
-0.35
-0.12
0.06
1.36

> <PUBCHEM_SHAPE_SELFOVERLAP>
708.838

> <PUBCHEM_SHAPE_VOLUME>
187.6

> <PUBCHEM_COORDINATE_TYPE>
2
5
10

$$$$
