REMARK  Name = 14203
REMARK  5 active torsions:
REMARK  status: ('A' for Active; 'I' for Inactive)
REMARK    1  A    between atoms: C_7  and  C_23
REMARK    2  A    between atoms: C_8  and  O_32
REMARK    3  A    between atoms: C_13  and  O_28
REMARK    4  A    between atoms: C_20  and  O_30
REMARK    5  A    between atoms: O_32  and  C_34
REMARK                            x       y       z     vdW  Elec       q    Type
REMARK                         _______ _______ _______ _____ _____    ______ ____
ROOT
ATOM      1  O   UNL     1       0.873   0.280   1.545  0.00  0.00    -0.352 OA
ATOM      2  C   UNL     1       0.035   0.309   0.380  0.00  0.00    +0.121 C 
ATOM      3  C   UNL     1       0.741   0.591  -0.938  0.00  0.00    +0.033 C 
ATOM      4  C   UNL     1      -1.374   0.818   0.578  0.00  0.00    +0.028 C 
ATOM      5  C   UNL     1       0.556  -0.978   0.936  0.00  0.00    +0.180 C 
ATOM      6  C   UNL     1      -2.279   0.335  -0.593  0.00  0.00    +0.005 C 
ATOM      7  C   UNL     1       2.012  -0.347  -0.905  0.00  0.00    +0.070 C 
ATOM      8  C   UNL     1       1.558  -1.543  -0.021  0.00  0.00    +0.202 C 
ATOM      9  C   UNL     1      -3.775   0.836  -0.454  0.00  0.00    +0.023 C 
ATOM     10  C   UNL     1      -0.201   0.137  -2.081  0.00  0.00    +0.003 C 
ATOM     11  C   UNL     1      -1.623   0.696  -1.952  0.00  0.00    +0.000 C 
ATOM     12  C   UNL     1      -1.970   0.453   1.944  0.00  0.00    +0.005 C 
ATOM     13  C   UNL     1      -4.335   0.433   0.960  0.00  0.00    +0.091 C 
ATOM     14  C   UNL     1       1.089   2.080  -1.089  0.00  0.00    +0.003 C 
ATOM     15  C   UNL     1      -3.410   0.918   2.092  0.00  0.00    +0.027 C 
ATOM     16  C   UNL     1      -4.692   0.217  -1.554  0.00  0.00    +0.005 C 
ATOM     17  C   UNL     1      -4.575  -1.095   1.082  0.00  0.00    +0.056 C 
ATOM     18  C   UNL     1      -3.857   2.375  -0.650  0.00  0.00    +0.002 C 
ATOM     19  C   UNL     1      -4.883  -1.293  -1.424  0.00  0.00    +0.029 C 
ATOM     20  C   UNL     1      -5.420  -1.684  -0.051  0.00  0.00    +0.113 C 
ENDROOT
BRANCH   7  23
ATOM     21  O   UNL     1       4.783   0.965   1.368  0.00  0.00    -0.418 OA
ATOM     22  O   UNL     1       6.686   2.096   0.852  0.00  0.00    -0.244 OA
ATOM     23  C   UNL     1       3.269   0.306  -0.397  0.00  0.00    +0.019 C 
ATOM     24  C   UNL     1       4.160   0.917  -1.348  0.00  0.00    +0.006 C 
ATOM     25  C   UNL     1       3.611   0.356   0.895  0.00  0.00    +0.179 C 
ATOM     26  C   UNL     1       5.289   1.510  -0.949  0.00  0.00    +0.082 C 
ATOM     27  C   UNL     1       5.649   1.552   0.484  0.00  0.00    +0.346 C 
ENDBRANCH   7  23
BRANCH  13  28
ATOM     28  O   UNL     1      -5.590   1.088   1.206  0.00  0.00    -0.387 OA
ATOM     29  H   UNL     1      -5.473   2.049   1.137  0.00  0.00    +0.210 HD
ENDBRANCH  13  28
BRANCH  20  30
ATOM     30  O   UNL     1      -6.767  -1.237   0.088  0.00  0.00    -0.384 OA
ATOM     31  H   UNL     1      -7.103  -1.489   0.962  0.00  0.00    +0.210 HD
ENDBRANCH  20  30
BRANCH   8  32
ATOM     32  O   UNL     1       2.615  -2.182   0.673  0.00  0.00    -0.449 OA
BRANCH  32  34
ATOM     33  O   UNL     1       3.610  -2.763  -1.329  0.00  0.00    -0.250 OA
ATOM     34  C   UNL     1       3.584  -2.757  -0.106  0.00  0.00    +0.318 C 
ATOM     35  C   UNL     1       4.631  -3.390   0.759  0.00  0.00    +0.121 C 
ENDBRANCH  32  34
ENDBRANCH   8  32
TORSDOF 5
