REMARK  Name = 14212369
REMARK  3 active torsions:
REMARK  status: ('A' for Active; 'I' for Inactive)
REMARK    1  A    between atoms: N_2  and  C_20
REMARK    2  A    between atoms: P_12  and  O_24
REMARK    3  A    between atoms: C_19  and  O_22
REMARK                            x       y       z     vdW  Elec       q    Type
REMARK                         _______ _______ _______ _____ _____    ______ ____
ROOT
ATOM      1  O   UNL     1       2.588  -3.117   0.262  0.00  0.00    -0.252 OA
ATOM      2  N   UNL     1       1.329  -1.157  -0.222  0.00  0.00    -0.205 N 
ATOM      3  N   UNL     1       3.496  -0.937   0.410  0.00  0.00    -0.278 N 
ATOM      4  N   UNL     1       0.857   1.256  -0.497  0.00  0.00    -0.231 NA
ATOM      5  N   UNL     1       2.783   2.668  -0.003  0.00  0.00    -0.232 NA
ATOM      6  C   UNL     1       1.643   0.214  -0.205  0.00  0.00    +0.139 C 
ATOM      7  C   UNL     1       2.479  -1.903   0.162  0.00  0.00    +0.311 C 
ATOM      8  C   UNL     1       2.964   0.327   0.181  0.00  0.00    +0.182 C 
ATOM      9  C   UNL     1       3.517   1.569   0.276  0.00  0.00    +0.125 C 
ATOM     10  C   UNL     1       1.492   2.445  -0.375  0.00  0.00    +0.253 C 
ATOM     11  H   UNL     1       4.419  -1.131   0.695  0.00  0.00    +0.152 HD
ATOM     12  N   UNL     1       4.864   1.704   0.669  0.00  0.00    -0.345 N 
ATOM     13  H   UNL     1       5.269   2.599   0.739  0.00  0.00    +0.143 HD
ATOM     14  H   UNL     1       5.400   0.904   0.873  0.00  0.00    +0.143 HD
ENDROOT
BRANCH   2  23
ATOM     15  P   UNL     1      -3.881   0.873   0.566  0.00  0.00    +0.476 P 
ATOM     16  O   UNL     1      -0.552  -0.870  -1.583  0.00  0.00    -0.333 OA
ATOM     17  O   UNL     1      -2.982  -0.417   0.993  0.00  0.00    -0.271 OA
ATOM     18  O   UNL     1      -3.687   0.999  -1.044  0.00  0.00    -0.271 OA
ATOM     19  O   UNL     1      -5.307   0.812   1.028  0.00  0.00    -0.227 OA
ATOM     20  C   UNL     1      -1.709  -0.495   0.394  0.00  0.00    +0.186 C 
ATOM     21  C   UNL     1      -1.852  -0.522  -1.112  0.00  0.00    +0.177 C 
ATOM     22  C   UNL     1      -0.913  -1.758   0.624  0.00  0.00    +0.188 C 
ATOM     23  C   UNL     1       0.051  -1.716  -0.571  0.00  0.00    +0.230 C 
ATOM     24  C   UNL     1      -2.391   0.803  -1.611  0.00  0.00    +0.186 C 
BRANCH  22  25
ATOM     25  O   UNL     1      -1.740  -2.912   0.505  0.00  0.00    -0.378 OA
ATOM     26  H   UNL     1      -2.353  -2.948   1.256  0.00  0.00    +0.211 HD
ENDBRANCH  22  25
BRANCH  15  27
ATOM     27  O   UNL     1      -3.049   2.132   1.154  0.00  0.00    -0.302 OA
ATOM     28  H   UNL     1      -2.140   2.107   0.815  0.00  0.00    +0.222 HD
ENDBRANCH  15  27
ENDBRANCH   2  23
TORSDOF 3
