14212369
  -OEChem-03292013303D

 35 38  0     1  0  0  0  0  0999 V2000
   -3.8805    0.8734    0.5658 P   0  0  2  0  0  0  0  0  0  0  0  0
   -0.5525   -0.8704   -1.5831 O   0  0  0  0  0  0  0  0  0  0  0  0
   -2.9821   -0.4174    0.9927 O   0  0  0  0  0  0  0  0  0  0  0  0
   -3.6874    0.9992   -1.0439 O   0  0  0  0  0  0  0  0  0  0  0  0
   -1.7400   -2.9117    0.5054 O   0  0  0  0  0  0  0  0  0  0  0  0
   -3.0487    2.1321    1.1544 O   0  0  0  0  0  0  0  0  0  0  0  0
   -5.3073    0.8123    1.0279 O   0  0  0  0  0  0  0  0  0  0  0  0
    2.5883   -3.1169    0.2615 O   0  0  0  0  0  0  0  0  0  0  0  0
    1.3286   -1.1570   -0.2218 N   0  0  0  0  0  0  0  0  0  0  0  0
    3.4963   -0.9370    0.4102 N   0  0  0  0  0  0  0  0  0  0  0  0
    0.8573    1.2560   -0.4973 N   0  0  0  0  0  0  0  0  0  0  0  0
    2.7830    2.6682   -0.0033 N   0  0  0  0  0  0  0  0  0  0  0  0
    4.8638    1.7045    0.6687 N   0  0  0  0  0  0  0  0  0  0  0  0
   -1.7088   -0.4949    0.3938 C   0  0  2  0  0  0  0  0  0  0  0  0
   -1.8521   -0.5221   -1.1123 C   0  0  1  0  0  0  0  0  0  0  0  0
   -0.9133   -1.7582    0.6238 C   0  0  2  0  0  0  0  0  0  0  0  0
    0.0506   -1.7155   -0.5705 C   0  0  1  0  0  0  0  0  0  0  0  0
   -2.3906    0.8032   -1.6112 C   0  0  0  0  0  0  0  0  0  0  0  0
    1.6433    0.2145   -0.2053 C   0  0  0  0  0  0  0  0  0  0  0  0
    2.4795   -1.9029    0.1623 C   0  0  0  0  0  0  0  0  0  0  0  0
    2.9639    0.3265    0.1811 C   0  0  0  0  0  0  0  0  0  0  0  0
    3.5166    1.5695    0.2760 C   0  0  0  0  0  0  0  0  0  0  0  0
    1.4922    2.4447   -0.3748 C   0  0  0  0  0  0  0  0  0  0  0  0
   -1.1210    0.3620    0.7359 H   0  0  0  0  0  0  0  0  0  0  0  0
   -2.5559   -1.3099   -1.4166 H   0  0  0  0  0  0  0  0  0  0  0  0
   -0.4205   -1.7975    1.5997 H   0  0  0  0  0  0  0  0  0  0  0  0
    0.2046   -2.7120   -0.9998 H   0  0  0  0  0  0  0  0  0  0  0  0
   -1.7453    1.6460   -1.3457 H   0  0  0  0  0  0  0  0  0  0  0  0
   -2.4817    0.7969   -2.7018 H   0  0  0  0  0  0  0  0  0  0  0  0
   -2.4293   -2.8434    1.1881 H   0  0  0  0  0  0  0  0  0  0  0  0
    4.4468   -1.1266    0.7026 H   0  0  0  0  0  0  0  0  0  0  0  0
   -3.4639    3.0206    1.1439 H   0  0  0  0  0  0  0  0  0  0  0  0
    0.9032    3.3268   -0.5984 H   0  0  0  0  0  0  0  0  0  0  0  0
    5.2715    0.9856    1.2534 H   0  0  0  0  0  0  0  0  0  0  0  0
    5.2366    2.6435    0.7331 H   0  0  0  0  0  0  0  0  0  0  0  0
  1  3  1  0  0  0  0
  1  4  1  0  0  0  0
  1  6  1  0  0  0  0
  1  7  2  0  0  0  0
  2 15  1  0  0  0  0
  2 17  1  0  0  0  0
  3 14  1  0  0  0  0
  4 18  1  0  0  0  0
  5 16  1  0  0  0  0
  5 30  1  0  0  0  0
  6 32  1  0  0  0  0
  8 20  2  0  0  0  0
  9 17  1  0  0  0  0
  9 19  1  0  0  0  0
  9 20  1  0  0  0  0
 10 20  1  0  0  0  0
 10 21  1  0  0  0  0
 10 31  1  0  0  0  0
 11 19  2  0  0  0  0
 11 23  1  0  0  0  0
 12 22  1  0  0  0  0
 12 23  2  0  0  0  0
 13 22  1  0  0  0  0
 13 34  1  0  0  0  0
 13 35  1  0  0  0  0
 14 15  1  0  0  0  0
 14 16  1  0  0  0  0
 14 24  1  0  0  0  0
 15 18  1  0  0  0  0
 15 25  1  0  0  0  0
 16 17  1  0  0  0  0
 16 26  1  0  0  0  0
 17 27  1  0  0  0  0
 18 28  1  0  0  0  0
 18 29  1  0  0  0  0
 19 21  1  0  0  0  0
 21 22  2  0  0  0  0
 23 33  1  0  0  0  0
M  END
> <PUBCHEM_COMPOUND_CID>
14212369

> <PUBCHEM_CONFORMER_RMSD>
0.6

> <PUBCHEM_CONFORMER_DIVERSEORDER>
1
10
7
9
6
8
3
2
4
5
11

> <PUBCHEM_MMFF94_PARTIAL_CHARGES>
29
1 1.51
10 -0.55
11 -0.62
12 -0.62
13 -0.9
14 0.28
15 0.28
16 0.28
17 0.58
18 0.28
19 0.43
2 -0.56
20 0.69
21 0.12
22 0.41
23 0.47
3 -0.55
30 0.4
31 0.37
32 0.5
33 0.15
34 0.4
35 0.4
4 -0.55
5 -0.68
6 -0.77
7 -0.7
8 -0.57
9 -0.48

> <PUBCHEM_EFFECTIVE_ROTOR_COUNT>
2.2

> <PUBCHEM_PHARMACOPHORE_FEATURES>
14
1 10 donor
1 13 cation
1 13 donor
1 2 acceptor
1 5 acceptor
1 5 donor
1 6 acceptor
1 7 acceptor
1 8 acceptor
3 11 12 23 cation
5 2 14 15 16 17 rings
5 9 10 19 20 21 rings
6 1 3 4 14 15 18 rings
6 11 12 19 21 22 23 rings

> <PUBCHEM_HEAVY_ATOM_COUNT>
23

> <PUBCHEM_ATOM_DEF_STEREO_COUNT>
4

> <PUBCHEM_ATOM_UDEF_STEREO_COUNT>
0

> <PUBCHEM_BOND_DEF_STEREO_COUNT>
0

> <PUBCHEM_BOND_UDEF_STEREO_COUNT>
0

> <PUBCHEM_ISOTOPIC_ATOM_COUNT>
0

> <PUBCHEM_COMPONENT_COUNT>
1

> <PUBCHEM_CACTVS_TAUTO_COUNT>
6

> <PUBCHEM_CONFORMER_ID>
00D8DD1100000001

> <PUBCHEM_MMFF94_ENERGY>
62.379

> <PUBCHEM_FEATURE_SELFOVERLAP>
71.262

> <PUBCHEM_SHAPE_FINGERPRINT>
10382601 240 18334851706627397912
10967382 1 18337101285789971244
11640471 11 17775569749138441745
12390115 104 18122072167768953980
12403259 226 18042968666817194359
12403259 415 18041562425942047029
12553582 1 18194111916201949102
12633257 1 18040988583561134064
12788726 201 17558248072306759223
13140716 1 18266174127071062568
13583140 156 16443886358559409397
14178342 30 18265325286935383250
14223421 5 18261959668557035979
14787075 74 18343302609154851371
14790565 3 18191029109168300804
16945 1 18408879629538967190
1813 80 17627521436694293926
18186145 218 18341331093836677207
18219364 16 18114451280518879093
19049666 15 17896309216928590910
20510252 161 17762898071097108348
20715895 44 17552365371956142745
20739085 24 18263937531346549300
21033648 29 17603580777916397349
21041028 32 18051411768945371628
21475661 188 18121783820739048449
22182937 141 18339080513751272009
23175994 123 18048315548576169286
23184049 59 18340204068453211086
23557571 272 13757771759979815061
2748010 2 17976802217505065716
3286 77 18188501146898157935
350125 39 18048318044041293164
474 4 18342737369440568163
49207404 50 18189069705957529435
5104073 3 18191854829483626120
7832392 63 18412263964946978974
81228 2 17532659129577134675

> <PUBCHEM_SHAPE_MULTIPOLES>
411.19
7.98
3.02
1.14
2.02
0.73
-0.27
-4.2
2.41
-1.9
0.38
1.07
-0.14
-0.09

> <PUBCHEM_SHAPE_SELFOVERLAP>
893.364

> <PUBCHEM_SHAPE_VOLUME>
225

> <PUBCHEM_COORDINATE_TYPE>
2
5
10

$$$$
