REMARK  Name = 14228263
REMARK  4 active torsions:
REMARK  status: ('A' for Active; 'I' for Inactive)
REMARK    1  A    between atoms: C_7  and  N_17
REMARK    2  A    between atoms: C_8  and  N_13
REMARK    3  A    between atoms: C_9  and  N_16
REMARK    4  A    between atoms: C_10  and  N_20
REMARK                            x       y       z     vdW  Elec       q    Type
REMARK                         _______ _______ _______ _____ _____    ______ ____
ROOT
ATOM      1  O   UNL     1       2.607   1.920   0.000  0.00  0.00    -0.236 OA
ATOM      2  O   UNL     1       1.083   3.601   0.000  0.00  0.00    -0.044 OA
ATOM      3  N   UNL     1       1.253   2.361   0.000  0.00  0.00    -0.016 N 
ATOM      4  N   UNL     1       2.604   0.535   0.000  0.00  0.00    -0.046 NA
ATOM      5  C   UNL     1       0.463   1.291   0.000  0.00  0.00    +0.162 C 
ATOM      6  C   UNL     1       1.325   0.133   0.000  0.00  0.00    +0.168 C 
ATOM      7  C   UNL     1      -0.927   1.276   0.000  0.00  0.00    +0.075 C 
ATOM      8  C   UNL     1       0.790  -1.168   0.000  0.00  0.00    +0.176 C 
ATOM      9  C   UNL     1      -1.438  -0.035   0.000  0.00  0.00    +0.239 C 
ATOM     10  C   UNL     1      -0.620  -1.204   0.000  0.00  0.00    +0.076 C 
ENDROOT
BRANCH   8  13
ATOM     11  O   UNL     1       2.878  -2.148   0.000  0.00  0.00    -0.126 OA
ATOM     12  O   UNL     1       1.112  -3.452   0.000  0.00  0.00    -0.126 OA
ATOM     13  N   UNL     1       1.630  -2.307   0.000  0.00  0.00    +0.060 N 
ENDBRANCH   8  13
BRANCH   9  16
ATOM     14  O   UNL     1      -3.579   0.822   0.000  0.00  0.00    -0.130 OA
ATOM     15  O   UNL     1      -3.327  -1.359  -0.001  0.00  0.00    -0.130 OA
ATOM     16  N   UNL     1      -2.860  -0.200   0.000  0.00  0.00    +0.044 N 
ENDBRANCH   9  16
BRANCH   7  17
ATOM     17  N   UNL     1      -1.741   2.416   0.000  0.00  0.00    -0.357 N 
ATOM     18  H   UNL     1      -1.333   3.312   0.000  0.00  0.00    +0.142 HD
ATOM     19  H   UNL     1      -2.721   2.321  -0.001  0.00  0.00    +0.142 HD
ENDBRANCH   7  17
BRANCH  10  20
ATOM     20  N   UNL     1      -1.253  -2.483   0.000  0.00  0.00    -0.357 N 
ATOM     21  H   UNL     1      -0.708  -3.302  -0.001  0.00  0.00    +0.142 HD
ATOM     22  H   UNL     1      -2.236  -2.545   0.000  0.00  0.00    +0.142 HD
ENDBRANCH  10  20
TORSDOF 4
