14237477
  -OEChem-03292013303D

 33 34  0     1  0  0  0  0  0999 V2000
   -1.6235   -0.4808    1.0317 O   0  0  0  0  0  0  0  0  0  0  0  0
   -1.3170    2.3616   -1.1329 O   0  0  0  0  0  0  0  0  0  0  0  0
   -3.5225    1.7351    0.3440 O   0  0  0  0  0  0  0  0  0  0  0  0
   -2.7606   -2.9497    0.3397 O   0  0  0  0  0  0  0  0  0  0  0  0
    1.4764    2.1721    0.6501 O   0  0  0  0  0  0  0  0  0  0  0  0
    0.4957    0.1123    0.2431 N   0  0  0  0  0  0  0  0  0  0  0  0
    2.8824    0.3855    0.1028 N   0  0  0  0  0  0  0  0  0  0  0  0
    4.2227   -1.5117   -0.4634 N   0  0  0  0  0  0  0  0  0  0  0  0
   -1.5347    1.0026   -0.8140 C   0  0  2  0  0  0  0  0  0  0  0  0
   -2.9861    0.7124   -0.4949 C   0  0  1  0  0  0  0  0  0  0  0  0
   -0.8401    0.5852    0.4707 C   0  0  1  0  0  0  0  0  0  0  0  0
   -2.8827   -0.5639    0.3288 C   0  0  1  0  0  0  0  0  0  0  0  0
   -2.8698   -1.8285   -0.5195 C   0  0  0  0  0  0  0  0  0  0  0  0
    1.6123    0.9809    0.3537 C   0  0  0  0  0  0  0  0  0  0  0  0
    0.6685   -1.2217   -0.0901 C   0  0  0  0  0  0  0  0  0  0  0  0
    1.8516   -1.7837   -0.3254 C   0  0  0  0  0  0  0  0  0  0  0  0
    3.0721   -0.9620   -0.2343 C   0  0  0  0  0  0  0  0  0  0  0  0
    4.0554    1.2543    0.2098 C   0  0  0  0  0  0  0  0  0  0  0  0
   -1.2145    0.3917   -1.6666 H   0  0  0  0  0  0  0  0  0  0  0  0
   -3.6265    0.6357   -1.3774 H   0  0  0  0  0  0  0  0  0  0  0  0
   -0.8117    1.4069    1.1962 H   0  0  0  0  0  0  0  0  0  0  0  0
   -3.6663   -0.6332    1.0919 H   0  0  0  0  0  0  0  0  0  0  0  0
   -2.0451   -1.8538   -1.2355 H   0  0  0  0  0  0  0  0  0  0  0  0
   -3.8085   -1.9160   -1.0767 H   0  0  0  0  0  0  0  0  0  0  0  0
   -0.3585    2.4865   -1.2386 H   0  0  0  0  0  0  0  0  0  0  0  0
   -3.0318    1.7472    1.1826 H   0  0  0  0  0  0  0  0  0  0  0  0
   -0.2034   -1.8525   -0.1623 H   0  0  0  0  0  0  0  0  0  0  0  0
    1.9344   -2.8334   -0.5815 H   0  0  0  0  0  0  0  0  0  0  0  0
   -2.7687   -3.7433   -0.2221 H   0  0  0  0  0  0  0  0  0  0  0  0
    4.6044    1.2196   -0.7367 H   0  0  0  0  0  0  0  0  0  0  0  0
    4.7065    0.8613    0.9972 H   0  0  0  0  0  0  0  0  0  0  0  0
    3.7975    2.2904    0.4386 H   0  0  0  0  0  0  0  0  0  0  0  0
    4.1226   -2.5062   -0.6916 H   0  0  0  0  0  0  0  0  0  0  0  0
  1 11  1  0  0  0  0
  1 12  1  0  0  0  0
  2  9  1  0  0  0  0
  2 25  1  0  0  0  0
  3 10  1  0  0  0  0
  3 26  1  0  0  0  0
  4 13  1  0  0  0  0
  4 29  1  0  0  0  0
  5 14  2  0  0  0  0
  6 11  1  0  0  0  0
  6 14  1  0  0  0  0
  6 15  1  0  0  0  0
  7 14  1  0  0  0  0
  7 17  1  0  0  0  0
  7 18  1  0  0  0  0
  8 17  2  0  0  0  0
  8 33  1  0  0  0  0
  9 10  1  0  0  0  0
  9 11  1  0  0  0  0
  9 19  1  0  0  0  0
 10 12  1  0  0  0  0
 10 20  1  0  0  0  0
 11 21  1  0  0  0  0
 12 13  1  0  0  0  0
 12 22  1  0  0  0  0
 13 23  1  0  0  0  0
 13 24  1  0  0  0  0
 15 16  2  0  0  0  0
 15 27  1  0  0  0  0
 16 17  1  0  0  0  0
 16 28  1  0  0  0  0
 18 30  1  0  0  0  0
 18 31  1  0  0  0  0
 18 32  1  0  0  0  0
M  END
> <PUBCHEM_COMPOUND_CID>
14237477

> <PUBCHEM_CONFORMER_RMSD>
0.6

> <PUBCHEM_CONFORMER_DIVERSEORDER>
1
10
14
9
7
3
8
4
12
13
5
6
2
11

> <PUBCHEM_MMFF94_PARTIAL_CHARGES>
24
1 -0.56
10 0.28
11 0.58
12 0.28
13 0.28
14 0.69
15 -0.04
16 -0.14
17 0.5
18 0.3
2 -0.68
25 0.4
26 0.4
27 0.15
28 0.15
29 0.4
3 -0.68
33 0.4
4 -0.68
5 -0.57
6 -0.47
7 -0.42
8 -0.85
9 0.28

> <PUBCHEM_EFFECTIVE_ROTOR_COUNT>
3

> <PUBCHEM_PHARMACOPHORE_FEATURES>
11
1 1 acceptor
1 2 acceptor
1 2 donor
1 3 acceptor
1 3 donor
1 4 acceptor
1 4 donor
1 5 acceptor
1 8 donor
5 1 9 10 11 12 rings
6 6 7 14 15 16 17 rings

> <PUBCHEM_HEAVY_ATOM_COUNT>
18

> <PUBCHEM_ATOM_DEF_STEREO_COUNT>
4

> <PUBCHEM_ATOM_UDEF_STEREO_COUNT>
0

> <PUBCHEM_BOND_DEF_STEREO_COUNT>
0

> <PUBCHEM_BOND_UDEF_STEREO_COUNT>
0

> <PUBCHEM_ISOTOPIC_ATOM_COUNT>
0

> <PUBCHEM_COMPONENT_COUNT>
1

> <PUBCHEM_CACTVS_TAUTO_COUNT>
1

> <PUBCHEM_CONFORMER_ID>
00D93F2500000001

> <PUBCHEM_MMFF94_ENERGY>
49.7801

> <PUBCHEM_FEATURE_SELFOVERLAP>
55.84

> <PUBCHEM_SHAPE_FINGERPRINT>
10608611 8 18410007715352178132
10967382 1 18267584602535543803
11132069 177 18409726270471646856
11471102 20 18342171129347253116
12173636 292 18265612087745478493
12500047 106 18336262328105306799
12932764 1 17895471427770384418
12969540 114 17897143760030694341
13140716 1 18341324514316064458
13296908 3 18342457028245565794
14115302 16 18336559208887251645
14251745 187 18336819883400443354
14965852 173 18412826889024932569
15196674 1 18412826893473056054
15219456 202 18410575080415707904
15375462 6 18337669844701688254
16945 1 18263349309694424529
17834074 16 18411419522546827471
18175812 5 18411139112859065630
18186145 218 18262235521753579748
19141452 34 18341336682180187211
200 152 17774714286163412607
20201158 50 18339361842630685110
20645477 70 18059572443273611902
21501502 16 18409726266018397931
221490 88 18340211885789808690
23402539 116 17821998848499293916
23557571 272 18339371837045794540
23559900 14 18341046299557349170
2748010 2 18337945817798892847
2871803 45 18336819905171321847
4028521 119 17968648320746183701
46194498 28 17322357834562018479
5104073 3 18413107260200564202
58051976 378 18269270334497373476
69090 78 18337668612452204117
74978 22 18341894065233111041
81228 2 18114743849680763449
8809292 202 18409169874511984962
93112 12 18411698759834949519
9709674 26 18413109471855799110

> <PUBCHEM_SHAPE_MULTIPOLES>
326.14
6.88
2.55
0.84
3.01
0.49
0.05
0.85
0.24
-0.88
0.17
-0.27
-0.15
0.7

> <PUBCHEM_SHAPE_SELFOVERLAP>
683.184

> <PUBCHEM_SHAPE_VOLUME>
184.8

> <PUBCHEM_COORDINATE_TYPE>
2
5
10

$$$$
