REMARK  Name = 14237477
REMARK  5 active torsions:
REMARK  status: ('A' for Active; 'I' for Inactive)
REMARK    1  A    between atoms: C2*_2  and  O2*_16
REMARK    2  A    between atoms: C3*_3  and  O3*_18
REMARK    3  A    between atoms: C1*_4  and  N_7
REMARK    4  A    between atoms: C4*_5  and  C5*_20
REMARK    5  A    between atoms: C5*_20  and  O5*_21
REMARK                            x       y       z     vdW  Elec       q    Type
REMARK                         _______ _______ _______ _____ _____    ______ ____
ROOT
ATOM      1  O4* UNL     1      -1.623  -0.481   1.032  0.00  0.00    -0.333 OA
ATOM      2  C2* UNL     1      -1.535   1.003  -0.814  0.00  0.00    +0.187 C 
ATOM      3  C3* UNL     1      -2.986   0.712  -0.495  0.00  0.00    +0.171 C 
ATOM      4  C1* UNL     1      -0.840   0.585   0.471  0.00  0.00    +0.229 C 
ATOM      5  C4* UNL     1      -2.883  -0.564   0.329  0.00  0.00    +0.175 C 
ENDROOT
BRANCH   4   7
ATOM      6  O   UNL     1       1.476   2.172   0.650  0.00  0.00    -0.252 OA
ATOM      7  N   UNL     1       0.496   0.112   0.243  0.00  0.00    -0.217 N 
ATOM      8  N   UNL     1       2.882   0.386   0.103  0.00  0.00    -0.226 N 
ATOM      9  N   UNL     1       4.223  -1.512  -0.463  0.00  0.00    -0.285 NA
ATOM     10  C   UNL     1       1.612   0.981   0.354  0.00  0.00    +0.318 C 
ATOM     11  C   UNL     1       0.668  -1.222  -0.090  0.00  0.00    +0.074 C 
ATOM     12  C   UNL     1       1.852  -1.784  -0.325  0.00  0.00    +0.050 C 
ATOM     13  C   UNL     1       3.072  -0.962  -0.234  0.00  0.00    +0.132 C 
ATOM     14  C   UNL     1       4.055   1.254   0.210  0.00  0.00    +0.123 C 
ATOM     15  H   UNL     1       5.045  -0.974  -0.406  0.00  0.00    +0.188 HD
ENDBRANCH   4   7
BRANCH   2  16
ATOM     16  O2* UNL     1      -1.317   2.362  -1.133  0.00  0.00    -0.378 OA
ATOM     17  H2* UNL     1      -1.779   2.578  -1.958  0.00  0.00    +0.211 HD
ENDBRANCH   2  16
BRANCH   3  18
ATOM     18  O3* UNL     1      -3.522   1.735   0.344  0.00  0.00    -0.379 OA
ATOM     19  H3* UNL     1      -3.598   2.560  -0.160  0.00  0.00    +0.211 HD
ENDBRANCH   3  18
BRANCH   5  20
ATOM     20  C5* UNL     1      -2.870  -1.829  -0.519  0.00  0.00    +0.169 C 
BRANCH  20  21
ATOM     21  O5* UNL     1      -2.761  -2.950   0.340  0.00  0.00    -0.379 OA
ATOM     22  H5* UNL     1      -2.751  -3.763  -0.189  0.00  0.00    +0.211 HD
ENDBRANCH  20  21
ENDBRANCH   5  20
TORSDOF 5
