REMARK  Name = 14258195
REMARK  3 active torsions:
REMARK  status: ('A' for Active; 'I' for Inactive)
REMARK    1  A    between atoms: P_1  and  O_22
REMARK    2  A    between atoms: C_8  and  O_20
REMARK    3  A    between atoms: C_9  and  N_11
REMARK                            x       y       z     vdW  Elec       q    Type
REMARK                         _______ _______ _______ _____ _____    ______ ____
ROOT
ATOM      1  P   UNL     1       4.286   0.077  -0.608  0.00  0.00    +0.476 P 
ATOM      2  O   UNL     1       0.572   0.229   1.599  0.00  0.00    -0.333 OA
ATOM      3  O   UNL     1       2.945  -0.808  -0.862  0.00  0.00    -0.271 OA
ATOM      4  O   UNL     1       4.178   0.614   0.922  0.00  0.00    -0.271 OA
ATOM      5  O   UNL     1       5.567  -0.645  -0.914  0.00  0.00    -0.227 OA
ATOM      6  C   UNL     1       1.750  -0.275  -0.336  0.00  0.00    +0.186 C 
ATOM      7  C   UNL     1       1.898  -0.051   1.155  0.00  0.00    +0.177 C 
ATOM      8  C   UNL     1       0.525  -1.159  -0.377  0.00  0.00    +0.188 C 
ATOM      9  C   UNL     1      -0.317  -0.566   0.769  0.00  0.00    +0.225 C 
ATOM     10  C   UNL     1       2.912   1.041   1.427  0.00  0.00    +0.186 C 
ENDROOT
BRANCH   9  11
ATOM     11  N   UNL     1      -1.428   0.267   0.306  0.00  0.00    -0.247 N 
ATOM     12  N   UNL     1      -2.529   2.080  -0.383  0.00  0.00    -0.247 NA
ATOM     13  N   UNL     1      -3.232  -1.358   0.259  0.00  0.00    -0.208 NA
ATOM     14  N   UNL     1      -5.324  -0.340  -0.480  0.00  0.00    -0.243 NA
ATOM     15  C   UNL     1      -2.717  -0.131   0.092  0.00  0.00    +0.152 C 
ATOM     16  C   UNL     1      -1.365   1.603   0.007  0.00  0.00    +0.223 C 
ATOM     17  C   UNL     1      -3.383   1.007  -0.335  0.00  0.00    +0.112 C 
ATOM     18  C   UNL     1      -4.737   0.872  -0.626  0.00  0.00    +0.175 C 
ATOM     19  C   UNL     1      -4.547  -1.365  -0.052  0.00  0.00    +0.196 C 
ENDBRANCH   9  11
BRANCH   8  20
ATOM     20  O   UNL     1       0.878  -2.502  -0.057  0.00  0.00    -0.378 OA
ATOM     21  H   UNL     1       1.409  -2.877  -0.777  0.00  0.00    +0.211 HD
ENDBRANCH   8  20
BRANCH   1  22
ATOM     22  O   UNL     1       4.066   1.407  -1.505  0.00  0.00    -0.302 OA
ATOM     23  H   UNL     1       3.226   1.826  -1.261  0.00  0.00    +0.222 HD
ENDBRANCH   1  22
TORSDOF 3
