14274910
  -OEChem-03292013303D

 48 51  0     1  0  0  0  0  0999 V2000
    1.5445    2.6659   -0.2284 O   0  0  0  0  0  0  0  0  0  0  0  0
   -0.6877    0.3006   -1.8784 O   0  0  0  0  0  0  0  0  0  0  0  0
    2.8637   -0.1155    0.7627 O   0  0  0  0  0  0  0  0  0  0  0  0
    1.5992   -1.2717   -2.1447 O   0  0  0  0  0  0  0  0  0  0  0  0
   -0.0520   -2.1755    1.3041 O   0  0  0  0  0  0  0  0  0  0  0  0
   -3.9462   -0.3106    1.8467 O   0  0  0  0  0  0  0  0  0  0  0  0
    3.8500   -1.7512   -0.5369 O   0  0  0  0  0  0  0  0  0  0  0  0
    0.4857    0.5983    0.7106 C   0  0  1  0  0  0  0  0  0  0  0  0
    0.5266    1.6618   -0.3713 C   0  0  2  0  0  0  0  0  0  0  0  0
   -0.9604   -0.0830    0.5949 C   0  0  2  0  0  0  0  0  0  0  0  0
    0.5905    0.9055   -1.6535 C   0  0  1  0  0  0  0  0  0  0  0  0
    1.5981   -0.3910    0.1625 C   0  0  1  0  0  0  0  0  0  0  0  0
    0.1873    3.1277   -0.2476 C   0  0  0  0  0  0  0  0  0  0  0  0
    1.7109   -0.1024   -1.3574 C   0  0  1  0  0  0  0  0  0  0  0  0
   -1.1585   -0.6116   -0.8687 C   0  0  1  0  0  0  0  0  0  0  0  0
    0.8012    1.1186    2.1177 C   0  0  0  0  0  0  0  0  0  0  0  0
   -2.1078    0.9371    0.8969 C   0  0  0  0  0  0  0  0  0  0  0  0
   -1.0834   -1.2637    1.5963 C   0  0  0  0  0  0  0  0  0  0  0  0
   -3.5291    0.3897    0.6763 C   0  0  1  0  0  0  0  0  0  0  0  0
   -2.5879   -0.9175   -1.2290 C   0  0  0  0  0  0  0  0  0  0  0  0
   -3.6595   -0.4978   -0.5356 C   0  0  0  0  0  0  0  0  0  0  0  0
    3.9060   -0.8748    0.3152 C   0  0  0  0  0  0  0  0  0  0  0  0
   -5.0538   -0.8613   -0.9611 C   0  0  0  0  0  0  0  0  0  0  0  0
    5.1625   -0.4773    1.0288 C   0  0  0  0  0  0  0  0  0  0  0  0
    0.8262    1.5263   -2.5235 H   0  0  0  0  0  0  0  0  0  0  0  0
    1.4495   -1.4509    0.2899 H   0  0  0  0  0  0  0  0  0  0  0  0
   -0.1516    3.6515   -1.1322 H   0  0  0  0  0  0  0  0  0  0  0  0
   -0.2254    3.4975    0.6813 H   0  0  0  0  0  0  0  0  0  0  0  0
    2.6708    0.3735   -1.5951 H   0  0  0  0  0  0  0  0  0  0  0  0
   -0.6136   -1.5519   -1.0042 H   0  0  0  0  0  0  0  0  0  0  0  0
    1.7456    1.6738    2.1440 H   0  0  0  0  0  0  0  0  0  0  0  0
    0.0352    1.8082    2.4825 H   0  0  0  0  0  0  0  0  0  0  0  0
    0.8927    0.2993    2.8373 H   0  0  0  0  0  0  0  0  0  0  0  0
   -2.0066    1.8061    0.2390 H   0  0  0  0  0  0  0  0  0  0  0  0
   -2.0257    1.3005    1.9275 H   0  0  0  0  0  0  0  0  0  0  0  0
   -2.0258   -1.8061    1.4924 H   0  0  0  0  0  0  0  0  0  0  0  0
   -0.9946   -0.9319    2.6350 H   0  0  0  0  0  0  0  0  0  0  0  0
   -4.1989    1.2521    0.5692 H   0  0  0  0  0  0  0  0  0  0  0  0
   -2.7339   -1.5293   -2.1167 H   0  0  0  0  0  0  0  0  0  0  0  0
    1.5747   -0.9954   -3.0766 H   0  0  0  0  0  0  0  0  0  0  0  0
   -0.1247   -2.9090    1.9383 H   0  0  0  0  0  0  0  0  0  0  0  0
   -5.5464   -1.4634   -0.1914 H   0  0  0  0  0  0  0  0  0  0  0  0
   -5.0642   -1.4408   -1.8903 H   0  0  0  0  0  0  0  0  0  0  0  0
   -5.6474    0.0430   -1.1300 H   0  0  0  0  0  0  0  0  0  0  0  0
   -4.9001   -0.4811    1.7695 H   0  0  0  0  0  0  0  0  0  0  0  0
    5.0475   -0.6450    2.1027 H   0  0  0  0  0  0  0  0  0  0  0  0
    5.3878    0.5724    0.8245 H   0  0  0  0  0  0  0  0  0  0  0  0
    5.9941   -1.0891    0.6674 H   0  0  0  0  0  0  0  0  0  0  0  0
  1  9  1  0  0  0  0
  1 13  1  0  0  0  0
  2 11  1  0  0  0  0
  2 15  1  0  0  0  0
  3 12  1  0  0  0  0
  3 22  1  0  0  0  0
  4 14  1  0  0  0  0
  4 40  1  0  0  0  0
  5 18  1  0  0  0  0
  5 41  1  0  0  0  0
  6 19  1  0  0  0  0
  6 45  1  0  0  0  0
  7 22  2  0  0  0  0
  8  9  1  0  0  0  0
  8 10  1  0  0  0  0
  8 12  1  0  0  0  0
  8 16  1  0  0  0  0
  9 11  1  0  0  0  0
  9 13  1  0  0  0  0
 10 15  1  0  0  0  0
 10 17  1  0  0  0  0
 10 18  1  0  0  0  0
 11 14  1  0  0  0  0
 11 25  1  0  0  0  0
 12 14  1  0  0  0  0
 12 26  1  0  0  0  0
 13 27  1  0  0  0  0
 13 28  1  0  0  0  0
 14 29  1  0  0  0  0
 15 20  1  0  0  0  0
 15 30  1  0  0  0  0
 16 31  1  0  0  0  0
 16 32  1  0  0  0  0
 16 33  1  0  0  0  0
 17 19  1  0  0  0  0
 17 34  1  0  0  0  0
 17 35  1  0  0  0  0
 18 36  1  0  0  0  0
 18 37  1  0  0  0  0
 19 21  1  0  0  0  0
 19 38  1  0  0  0  0
 20 21  2  0  0  0  0
 20 39  1  0  0  0  0
 21 23  1  0  0  0  0
 22 24  1  0  0  0  0
 23 42  1  0  0  0  0
 23 43  1  0  0  0  0
 23 44  1  0  0  0  0
 24 46  1  0  0  0  0
 24 47  1  0  0  0  0
 24 48  1  0  0  0  0
M  END
> <PUBCHEM_COMPOUND_CID>
14274910

> <PUBCHEM_CONFORMER_RMSD>
0.8

> <PUBCHEM_CONFORMER_DIVERSEORDER>
1

> <PUBCHEM_MMFF94_PARTIAL_CHARGES>
27
1 -0.3
11 0.38
12 0.28
13 -0.05
14 0.28
15 0.42
18 0.28
19 0.42
2 -0.56
20 -0.29
21 -0.28
22 0.66
23 0.14
24 0.06
27 0.1
28 0.1
3 -0.43
39 0.15
4 -0.68
40 0.4
41 0.4
45 0.4
5 -0.68
6 -0.68
7 -0.57
8 0.09
9 -0.04

> <PUBCHEM_EFFECTIVE_ROTOR_COUNT>
4.4

> <PUBCHEM_PHARMACOPHORE_FEATURES>
11
1 1 acceptor
1 2 acceptor
1 4 acceptor
1 4 donor
1 5 acceptor
1 5 donor
1 6 acceptor
1 6 donor
1 7 acceptor
6 10 15 17 19 20 21 rings
8 2 8 9 10 11 12 14 15 rings

> <PUBCHEM_HEAVY_ATOM_COUNT>
24

> <PUBCHEM_ATOM_DEF_STEREO_COUNT>
8

> <PUBCHEM_ATOM_UDEF_STEREO_COUNT>
0

> <PUBCHEM_BOND_DEF_STEREO_COUNT>
0

> <PUBCHEM_BOND_UDEF_STEREO_COUNT>
0

> <PUBCHEM_ISOTOPIC_ATOM_COUNT>
0

> <PUBCHEM_COMPONENT_COUNT>
1

> <PUBCHEM_CACTVS_TAUTO_COUNT>
1

> <PUBCHEM_CONFORMER_ID>
00D9D15E00000001

> <PUBCHEM_MMFF94_ENERGY>
98.5761

> <PUBCHEM_FEATURE_SELFOVERLAP>
55.84

> <PUBCHEM_SHAPE_FINGERPRINT>
104564 63 17460019700366223365
10863032 1 18193841671957477853
10948715 1 14045734915750409720
11315181 36 16950849103697870514
11578080 2 17057828229920161544
12011746 2 16226034588368343299
12035759 4 14418122972844133292
12119455 92 11383830476519567236
12403814 3 17917136213605996508
12423570 1 11581158256287998884
12788726 201 18262809467082196524
12892183 10 17203323394966333930
13132413 78 18338517426327638569
13134695 92 18334853965142457509
13544653 18 18260264106016173370
13583140 156 16056301852463358025
13965767 371 17194075226893465073
14115302 16 17458634427315692958
14178342 30 15984562039325124667
14181834 199 18200321033892988140
14223421 5 14619972408213472715
14787075 74 18201996655638537458
15209289 33 18333169462089381067
15238133 3 17970082054124068157
15848702 151 18413384328287549270
16945 1 18270979984979164965
17349148 13 17775000228375642327
17980427 23 17346878970521321169
1813 80 18341337712586891932
18981168 100 17679309830205087601
200 152 17749384824537234474
20600515 1 18114196211037975412
21069387 34 18342176704283303787
21330990 113 17632017442718452414
22344851 262 17775283863214467948
23175994 123 18259704479971618344
23227448 37 14691135124936587514
23402539 116 18338791230550391010
23419403 2 16879663524568973312
23559900 14 18266451190725613024
2748010 2 17169268346099905499
296302 2 16988846072540719826
298252 57 13984661434431911024
3286 77 18041006188890555867
394222 165 17485938732728376604
81228 2 18050874138104046816
9981440 41 17333070431526482057

> <PUBCHEM_SHAPE_MULTIPOLES>
452.82
7.24
2.08
1.89
0.02
1.41
0.03
-3.53
0.94
0.85
-0.17
-0.25
-0.23
-0.23

> <PUBCHEM_SHAPE_SELFOVERLAP>
978.618

> <PUBCHEM_SHAPE_VOLUME>
244

> <PUBCHEM_COORDINATE_TYPE>
2
5
10

$$$$
