REMARK  Name = 14274616
REMARK  11 active torsions:
REMARK  status: ('A' for Active; 'I' for Inactive)
REMARK    1  A    between atoms: C_1  and  C_2
REMARK    2  A    between atoms: C_1  and  C_13
REMARK    3  A    between atoms: C_2  and  C_3
REMARK    4  A    between atoms: C_3  and  C_4
REMARK    5  A    between atoms: C_4  and  N_5
REMARK    6  A    between atoms: C_4  and  C_10
REMARK    7  A    between atoms: C_10  and  O_11
REMARK    8  A    between atoms: C_13  and  N_14
REMARK    9  A    between atoms: C_15  and  C_21
REMARK   10  A    between atoms: C_16  and  C_20
REMARK   11  A    between atoms: C_21  and  O_22
REMARK                            x       y       z     vdW  Elec       q    Type
REMARK                         _______ _______ _______ _____ _____    ______ ____
ROOT
ATOM      1  C   UNK     1      -0.234  -0.267   0.457  0.00  0.00    +0.022 C 
ENDROOT
BRANCH   1   2
ATOM      2  C   UNK     1      -1.661  -0.369  -0.087  0.00  0.00    +0.000 C 
BRANCH   2   3
ATOM      3  C   UNK     1      -2.667  -0.619   1.044  0.00  0.00    -0.011 C 
BRANCH   3   4
ATOM      4  C   UNK     1      -4.121  -0.786   0.579  0.00  0.00    +0.036 C 
BRANCH   4   5
ATOM      5  N   UNK     1      -4.261  -1.905  -0.351  0.00  0.00    +0.389 N 
ATOM      6  H   UNK     1      -3.913  -2.758   0.088  0.00  0.00    -0.088 HD
ATOM      7  H   UNK     1      -3.724  -1.714  -1.196  0.00  0.00    -0.088 HD
ATOM      8  H   UNK     1      -5.245  -2.026  -0.593  0.00  0.00    -0.088 HD
ENDBRANCH   4   5
BRANCH   4  10
ATOM      9  O   UNK     1      -5.045   0.530  -1.258  0.00  0.00    -0.253 OA
ATOM     10  C   UNK     1      -4.648   0.464  -0.102  0.00  0.00    +0.293 C 
BRANCH  10  11
ATOM     11  O   UNK     1      -4.635   1.540   0.729  0.00  0.00    -0.482 OA
ATOM     12  H   UNK     1      -4.322   1.449   1.608  0.00  0.00    +0.295 HD
ENDBRANCH  10  11
ENDBRANCH   4  10
ENDBRANCH   3   4
ENDBRANCH   2   3
ENDBRANCH   1   2
BRANCH   1  13
ATOM     13  C   UNK     1       0.765   0.021  -0.663  0.00  0.00    +0.095 C 
BRANCH  13  14
ATOM     14  N   UNK     1       2.132   0.132  -0.164  0.00  0.00    -0.286 N 
ATOM     15  C   UNK     1       2.717   1.291   0.255  0.00  0.00    +0.059 C 
ATOM     16  C   UNK     1       3.006  -0.909  -0.051  0.00  0.00    +0.094 C 
ATOM     17  C   UNK     1       4.001   0.986   0.648  0.00  0.00    +0.014 C 
ATOM     18  C   UNK     1       4.184  -0.406   0.455  0.00  0.00    +0.019 C 
BRANCH  16  20
ATOM     19  O   UNK     1       3.492  -3.233  -0.315  0.00  0.00    -0.282 OA
ATOM     20  C   UNK     1       2.718  -2.265  -0.405  0.00  0.00    +0.249 C 
ENDBRANCH  16  20
BRANCH  15  21
ATOM     21  C   UNK     1       2.012   2.589   0.248  0.00  0.00    +0.178 C 
BRANCH  21  22
ATOM     22  O   UNK     1       2.246   3.206  -1.016  0.00  0.00    -0.376 OA
ATOM     23  H   UNK     1       1.793   4.063  -1.047  0.00  0.00    +0.211 HD
ENDBRANCH  21  22
ENDBRANCH  15  21
ENDBRANCH  13  14
ENDBRANCH   1  13
TORSDOF 11
