REMARK  Name = 14274910
REMARK  6 active torsions:
REMARK  status: ('A' for Active; 'I' for Inactive)
REMARK    1  A    between atoms: C_5  and  C_25
REMARK    2  A    between atoms: C_7  and  O_21
REMARK    3  A    between atoms: C_9  and  O_17
REMARK    4  A    between atoms: C_13  and  O_19
REMARK    5  A    between atoms: O_21  and  C_23
REMARK    6  A    between atoms: C_25  and  O_26
REMARK                            x       y       z     vdW  Elec       q    Type
REMARK                         _______ _______ _______ _____ _____    ______ ____
ROOT
ATOM      1  O   UNL     1       1.544   2.666  -0.228  0.00  0.00    -0.351 OA
ATOM      2  O   UNL     1      -0.688   0.301  -1.878  0.00  0.00    -0.349 OA
ATOM      3  C   UNL     1       0.486   0.598   0.711  0.00  0.00    +0.072 C 
ATOM      4  C   UNL     1       0.527   1.662  -0.371  0.00  0.00    +0.151 C 
ATOM      5  C   UNL     1      -0.960  -0.083   0.595  0.00  0.00    +0.064 C 
ATOM      6  C   UNL     1       0.591   0.905  -1.653  0.00  0.00    +0.173 C 
ATOM      7  C   UNL     1       1.598  -0.391   0.163  0.00  0.00    +0.200 C 
ATOM      8  C   UNL     1       0.187   3.128  -0.248  0.00  0.00    +0.172 C 
ATOM      9  C   UNL     1       1.711  -0.102  -1.357  0.00  0.00    +0.180 C 
ATOM     10  C   UNL     1      -1.159  -0.612  -0.869  0.00  0.00    +0.139 C 
ATOM     11  C   UNL     1       0.801   1.119   2.118  0.00  0.00    +0.006 C 
ATOM     12  C   UNL     1      -2.108   0.937   0.897  0.00  0.00    +0.039 C 
ATOM     13  C   UNL     1      -3.529   0.390   0.676  0.00  0.00    +0.129 C 
ATOM     14  C   UNL     1      -2.588  -0.917  -1.229  0.00  0.00    -0.003 C 
ATOM     15  C   UNL     1      -3.659  -0.498  -0.536  0.00  0.00    -0.020 C 
ATOM     16  C   UNL     1      -5.054  -0.861  -0.961  0.00  0.00    +0.029 C 
ENDROOT
BRANCH   9  17
ATOM     17  O   UNL     1       1.599  -1.272  -2.145  0.00  0.00    -0.379 OA
ATOM     18  H   UNL     1       1.676  -1.038  -3.083  0.00  0.00    +0.211 HD
ENDBRANCH   9  17
BRANCH  13  19
ATOM     19  O   UNL     1      -3.946  -0.311   1.847  0.00  0.00    -0.380 OA
ATOM     20  H   UNL     1      -3.858   0.269   2.619  0.00  0.00    +0.211 HD
ENDBRANCH  13  19
BRANCH   7  21
ATOM     21  O   UNL     1       2.864  -0.116   0.763  0.00  0.00    -0.450 OA
BRANCH  21  23
ATOM     22  O   UNL     1       3.850  -1.751  -0.537  0.00  0.00    -0.250 OA
ATOM     23  C   UNL     1       3.906  -0.875   0.315  0.00  0.00    +0.318 C 
ATOM     24  C   UNL     1       5.162  -0.477   1.029  0.00  0.00    +0.121 C 
ENDBRANCH  21  23
ENDBRANCH   7  21
BRANCH   5  25
ATOM     25  C   UNL     1      -1.083  -1.264   1.596  0.00  0.00    +0.140 C 
BRANCH  25  26
ATOM     26  O   UNL     1      -0.052  -2.175   1.304  0.00  0.00    -0.382 OA
ATOM     27  H   UNL     1      -0.102  -2.927   1.915  0.00  0.00    +0.210 HD
ENDBRANCH  25  26
ENDBRANCH   5  25
TORSDOF 6
