REMARK  Name = 142773
REMARK  15 active torsions:
REMARK  status: ('A' for Active; 'I' for Inactive)
REMARK    1  A    between atoms: C_1  and  O_2
REMARK    2  A    between atoms: C_1  and  C_4
REMARK    3  A    between atoms: C_1  and  C_18
REMARK    4  A    between atoms: C_4  and  O_5
REMARK    5  A    between atoms: C_4  and  C_7
REMARK    6  A    between atoms: C_7  and  N_8
REMARK    7  A    between atoms: N_8  and  C_11
REMARK    8  A    between atoms: C_11  and  C_12
REMARK    9  A    between atoms: C_12  and  O_13
REMARK   10  A    between atoms: O_13  and  S_14
REMARK   11  A    between atoms: C_18  and  N_19
REMARK   12  A    between atoms: N_19  and  C_22
REMARK   13  A    between atoms: C_22  and  C_23
REMARK   14  A    between atoms: C_23  and  O_24
REMARK   15  A    between atoms: O_24  and  S_25
REMARK                            x       y       z     vdW  Elec       q    Type
REMARK                         _______ _______ _______ _____ _____    ______ ____
ROOT
ATOM      1  C   UNL     1       0.872   3.334   0.069  0.00  0.00    +0.114 C 
ENDROOT
BRANCH   1   2
ATOM      2  O   UNL     1       0.292   4.227   1.024  0.00  0.00    -0.384 OA
ATOM      3  H   UNL     1      -0.324   4.826   0.574  0.00  0.00    +0.210 HD
ENDBRANCH   1   2
BRANCH   1   4
ATOM      4  C   UNL     1      -0.268   2.619  -0.687  0.00  0.00    +0.114 C 
BRANCH   4   5
ATOM      5  O   UNL     1      -1.067   3.576  -1.386  0.00  0.00    -0.384 OA
ATOM      6  H   UNL     1      -0.502   4.103  -1.973  0.00  0.00    +0.210 HD
ENDBRANCH   4   5
BRANCH   4   7
ATOM      7  C   UNL     1      -1.224   1.827   0.217  0.00  0.00    -0.049 C 
BRANCH   7   8
ATOM      8  N   UNL     1      -2.277   1.141  -0.518  0.00  0.00    +0.387 N 
ATOM      9  H   UNL     1      -1.853   0.502  -1.191  0.00  0.00    -0.084 HD
ATOM     10  H   UNL     1      -2.846   1.838  -0.999  0.00  0.00    -0.084 HD
BRANCH   8  11
ATOM     11  C   UNL     1      -3.134   0.383   0.384  0.00  0.00    -0.046 C 
BRANCH  11  12
ATOM     12  C   UNL     1      -4.204  -0.366  -0.394  0.00  0.00    +0.149 C 
BRANCH  12  13
ATOM     13  O   UNL     1      -5.004  -1.102   0.522  0.00  0.00    -0.244 OA
BRANCH  13  14
ATOM     14  S   UNL     1      -6.236  -2.001  -0.060  0.00  0.00    -0.005 S 
ATOM     15  O   UNL     1      -5.703  -3.111  -0.825  0.00  0.00    -0.072 OA
ATOM     16  O   UNL     1      -7.262  -1.127  -0.590  0.00  0.00    -0.072 OA
ATOM     17  C   UNL     1      -6.794  -2.625   1.504  0.00  0.00    +0.181 C 
ENDBRANCH  13  14
ENDBRANCH  12  13
ENDBRANCH  11  12
ENDBRANCH   8  11
ENDBRANCH   7   8
ENDBRANCH   4   7
ENDBRANCH   1   4
BRANCH   1  18
ATOM     18  C   UNL     1       1.836   2.406   0.821  0.00  0.00    -0.049 C 
BRANCH  18  19
ATOM     19  N   UNL     1       2.520   1.474  -0.065  0.00  0.00    +0.387 N 
ATOM     20  H   UNL     1       3.045   2.000  -0.763  0.00  0.00    -0.084 HD
ATOM     21  H   UNL     1       1.822   0.882  -0.516  0.00  0.00    -0.084 HD
BRANCH  19  22
ATOM     22  C   UNL     1       3.438   0.624   0.681  0.00  0.00    -0.046 C 
BRANCH  22  23
ATOM     23  C   UNL     1       4.180  -0.317  -0.256  0.00  0.00    +0.149 C 
BRANCH  23  24
ATOM     24  O   UNL     1       5.074  -1.113   0.510  0.00  0.00    -0.244 OA
BRANCH  24  25
ATOM     25  S   UNL     1       5.999  -2.215  -0.261  0.00  0.00    -0.005 S 
ATOM     26  O   UNL     1       6.972  -1.532  -1.090  0.00  0.00    -0.072 OA
ATOM     27  O   UNL     1       5.156  -3.273  -0.779  0.00  0.00    -0.072 OA
ATOM     28  C   UNL     1       6.834  -2.829   1.180  0.00  0.00    +0.181 C 
ENDBRANCH  24  25
ENDBRANCH  23  24
ENDBRANCH  22  23
ENDBRANCH  19  22
ENDBRANCH  18  19
ENDBRANCH   1  18
TORSDOF 15
