REMARK  Name = 14282057
REMARK  6 active torsions:
REMARK  status: ('A' for Active; 'I' for Inactive)
REMARK    1  A    between atoms: C_5  and  C_16
REMARK    2  A    between atoms: C_6  and  C_28
REMARK    3  A    between atoms: C_10  and  O_26
REMARK    4  A    between atoms: C_19  and  O_22
REMARK    5  A    between atoms: C_21  and  O_24
REMARK    6  A    between atoms: C_28  and  O_29
REMARK                            x       y       z     vdW  Elec       q    Type
REMARK                         _______ _______ _______ _____ _____    ______ ____
ROOT
ATOM      1  O   UNL     1       0.100  -0.474   0.372  0.00  0.00    -0.465 OA
ATOM      2  O   UNL     1       0.761   2.325   0.333  0.00  0.00    -0.466 OA
ATOM      3  O   UNL     1       2.053  -2.325   0.044  0.00  0.00    -0.418 OA
ATOM      4  O   UNL     1       2.711  -4.513  -0.118  0.00  0.00    -0.244 OA
ATOM      5  C   UNL     1      -0.799   0.538   0.859  0.00  0.00    +0.231 C 
ATOM      6  C   UNL     1      -0.575   1.850   0.090  0.00  0.00    +0.239 C 
ATOM      7  C   UNL     1       1.379  -0.018   0.216  0.00  0.00    +0.210 C 
ATOM      8  C   UNL     1       1.700   1.338   0.207  0.00  0.00    +0.209 C 
ATOM      9  C   UNL     1       2.398  -0.956   0.051  0.00  0.00    +0.186 C 
ATOM     10  C   UNL     1       3.031   1.743   0.078  0.00  0.00    +0.176 C 
ATOM     11  C   UNL     1       3.728  -0.569  -0.095  0.00  0.00    +0.041 C 
ATOM     12  C   UNL     1       4.043   0.792  -0.075  0.00  0.00    +0.043 C 
ATOM     13  C   UNL     1       4.746  -1.593  -0.257  0.00  0.00    +0.010 C 
ATOM     14  C   UNL     1       4.408  -2.885  -0.265  0.00  0.00    +0.082 C 
ATOM     15  C   UNL     1       3.009  -3.324  -0.111  0.00  0.00    +0.346 C 
ENDROOT
BRANCH   5  16
ATOM     16  C   UNL     1      -2.199  -0.018   0.722  0.00  0.00    +0.024 C 
ATOM     17  C   UNL     1      -2.719  -0.293  -0.543  0.00  0.00    +0.039 C 
ATOM     18  C   UNL     1      -2.970  -0.256   1.860  0.00  0.00    +0.003 C 
ATOM     19  C   UNL     1      -4.011  -0.805  -0.669  0.00  0.00    +0.172 C 
ATOM     20  C   UNL     1      -4.261  -0.768   1.733  0.00  0.00    +0.040 C 
ATOM     21  C   UNL     1      -4.781  -1.043   0.469  0.00  0.00    +0.168 C 
BRANCH  19  22
ATOM     22  O   UNL     1      -4.508  -1.070  -1.910  0.00  0.00    -0.468 OA
ATOM     23  C   UNL     1      -5.207  -0.015  -2.567  0.00  0.00    +0.253 C 
ENDBRANCH  19  22
BRANCH  21  24
ATOM     24  O   UNL     1      -6.043  -1.544   0.357  0.00  0.00    -0.503 OA
ATOM     25  H   UNL     1      -6.400  -1.732  -0.488  0.00  0.00    +0.292 HD
ENDBRANCH  21  24
ENDBRANCH   5  16
BRANCH  10  26
ATOM     26  O   UNL     1       3.359   3.066   0.087  0.00  0.00    -0.468 OA
ATOM     27  C   UNL     1       3.379   3.737  -1.171  0.00  0.00    +0.253 C 
ENDBRANCH  10  26
BRANCH   6  28
ATOM     28  C   UNL     1      -1.515   2.967   0.531  0.00  0.00    +0.185 C 
BRANCH  28  29
ATOM     29  O   UNL     1      -1.218   4.116  -0.228  0.00  0.00    -0.378 OA
ATOM     30  H   UNL     1      -1.806   4.841   0.037  0.00  0.00    +0.211 HD
ENDBRANCH  28  29
ENDBRANCH   6  28
TORSDOF 6
