14308796
  -OEChem-03292013303D

 32 34  0     1  0  0  0  0  0999 V2000
   -3.3376   -2.4687    0.0402 F   0  0  0  0  0  0  0  0  0  0  0  0
   -2.2911    0.1863   -0.8884 O   0  0  0  0  0  0  0  0  0  0  0  0
   -4.3679    2.0495   -0.6744 O   0  0  0  0  0  0  0  0  0  0  0  0
   -0.0720    0.2929   -0.0574 N   0  0  0  0  0  0  0  0  0  0  0  0
    1.1627    2.1310    0.2353 N   0  0  0  0  0  0  0  0  0  0  0  0
    1.6955   -1.3641   -0.2431 N   0  0  0  0  0  0  0  0  0  0  0  0
    3.9013   -0.3400   -0.0381 N   0  0  0  0  0  0  0  0  0  0  0  0
    4.2005    2.0097    0.3028 N   0  0  0  0  0  0  0  0  0  0  0  0
    3.6496   -2.6453   -0.3685 N   0  0  0  0  0  0  0  0  0  0  0  0
   -1.2551   -0.5455   -0.2089 C   0  0  1  0  0  0  0  0  0  0  0  0
   -1.8525   -1.0300    1.1027 C   0  0  0  0  0  0  0  0  0  0  0  0
   -3.2835   -1.2749    0.6978 C   0  0  1  0  0  0  0  0  0  0  0  0
   -3.5625   -0.1692   -0.3069 C   0  0  1  0  0  0  0  0  0  0  0  0
   -4.1542    1.0774    0.3344 C   0  0  0  0  0  0  0  0  0  0  0  0
    1.2341   -0.1152   -0.0793 C   0  0  0  0  0  0  0  0  0  0  0  0
   -0.0595    1.6519    0.1340 C   0  0  0  0  0  0  0  0  0  0  0  0
    1.9812    1.0375    0.1040 C   0  0  0  0  0  0  0  0  0  0  0  0
    3.3650    0.8938    0.1218 C   0  0  0  0  0  0  0  0  0  0  0  0
    3.0459   -1.3770   -0.2081 C   0  0  0  0  0  0  0  0  0  0  0  0
   -0.9820   -1.3886   -0.8549 H   0  0  0  0  0  0  0  0  0  0  0  0
   -1.8035   -0.2512    1.8725 H   0  0  0  0  0  0  0  0  0  0  0  0
   -1.3456   -1.9245    1.4757 H   0  0  0  0  0  0  0  0  0  0  0  0
   -3.9871   -1.3225    1.5325 H   0  0  0  0  0  0  0  0  0  0  0  0
   -4.2044   -0.5179   -1.1231 H   0  0  0  0  0  0  0  0  0  0  0  0
   -3.4710    1.5096    1.0726 H   0  0  0  0  0  0  0  0  0  0  0  0
   -5.1114    0.8536    0.8151 H   0  0  0  0  0  0  0  0  0  0  0  0
   -0.9659    2.2386    0.1963 H   0  0  0  0  0  0  0  0  0  0  0  0
   -4.7466    2.8334   -0.2414 H   0  0  0  0  0  0  0  0  0  0  0  0
    3.8028    2.9316    0.4216 H   0  0  0  0  0  0  0  0  0  0  0  0
    5.2029    1.8795    0.3114 H   0  0  0  0  0  0  0  0  0  0  0  0
    4.6572   -2.7214   -0.3517 H   0  0  0  0  0  0  0  0  0  0  0  0
    3.0659   -3.4599   -0.4994 H   0  0  0  0  0  0  0  0  0  0  0  0
  1 12  1  0  0  0  0
  2 10  1  0  0  0  0
  2 13  1  0  0  0  0
  3 14  1  0  0  0  0
  3 28  1  0  0  0  0
  4 10  1  0  0  0  0
  4 15  1  0  0  0  0
  4 16  1  0  0  0  0
  5 16  2  0  0  0  0
  5 17  1  0  0  0  0
  6 15  2  0  0  0  0
  6 19  1  0  0  0  0
  7 18  1  0  0  0  0
  7 19  2  0  0  0  0
  8 18  1  0  0  0  0
  8 29  1  0  0  0  0
  8 30  1  0  0  0  0
  9 19  1  0  0  0  0
  9 31  1  0  0  0  0
  9 32  1  0  0  0  0
 10 11  1  0  0  0  0
 10 20  1  0  0  0  0
 11 12  1  0  0  0  0
 11 21  1  0  0  0  0
 11 22  1  0  0  0  0
 12 13  1  0  0  0  0
 12 23  1  0  0  0  0
 13 14  1  0  0  0  0
 13 24  1  0  0  0  0
 14 25  1  0  0  0  0
 14 26  1  0  0  0  0
 15 17  1  0  0  0  0
 16 27  1  0  0  0  0
 17 18  2  0  0  0  0
M  END
> <PUBCHEM_COMPOUND_CID>
14308796

> <PUBCHEM_CONFORMER_RMSD>
0.6

> <PUBCHEM_CONFORMER_DIVERSEORDER>
4
14
28
9
68
37
31
12
10
22
51
32
26
59
17
66
8
44
42
57
15
64
13
70
53
49
45
33
50
52
48
39
65
18
55
41
71
63
46
43
54
1
16
69
23
24
58
29
30
72
5
20
2
61
21
40
62
11
25
56
6
38
36
19
35
47
3
67
27
34
7
60

> <PUBCHEM_MMFF94_PARTIAL_CHARGES>
24
1 -0.34
10 0.54
12 0.34
13 0.28
14 0.28
15 0.11
16 0.04
17 0.23
18 0.41
19 0.72
2 -0.56
27 0.15
28 0.4
29 0.4
3 -0.68
30 0.4
31 0.4
32 0.4
4 0.05
5 -0.57
6 -0.57
7 -0.62
8 -0.9
9 -0.9

> <PUBCHEM_EFFECTIVE_ROTOR_COUNT>
3

> <PUBCHEM_PHARMACOPHORE_FEATURES>
11
1 2 acceptor
1 3 acceptor
1 3 donor
1 8 cation
1 8 donor
1 9 donor
3 4 5 16 cation
4 6 7 9 19 cation
5 2 10 11 12 13 rings
5 4 5 15 16 17 rings
6 6 7 15 17 18 19 rings

> <PUBCHEM_HEAVY_ATOM_COUNT>
19

> <PUBCHEM_ATOM_DEF_STEREO_COUNT>
0

> <PUBCHEM_ATOM_UDEF_STEREO_COUNT>
3

> <PUBCHEM_BOND_DEF_STEREO_COUNT>
0

> <PUBCHEM_BOND_UDEF_STEREO_COUNT>
0

> <PUBCHEM_ISOTOPIC_ATOM_COUNT>
0

> <PUBCHEM_COMPONENT_COUNT>
1

> <PUBCHEM_CACTVS_TAUTO_COUNT>
9

> <PUBCHEM_CONFORMER_ID>
00DA55BC00000004

> <PUBCHEM_MMFF94_ENERGY>
42.7934

> <PUBCHEM_FEATURE_SELFOVERLAP>
55.958

> <PUBCHEM_SHAPE_FINGERPRINT>
10608611 8 18409164454505856937
1100329 8 16535102590671397099
11405975 8 18335137557616782962
11471102 20 18412541015964989020
116883 192 18125726690678481076
12500047 106 18410007758538883667
12507560 40 18409735075481540755
13296908 3 18410294722114819282
13544592 145 18262520264847039974
13583140 156 17845364612939980537
13675066 3 18187092741064217697
14115302 16 17968955084041992150
14866123 147 17261037623549256714
15042514 8 17402894419680459226
15196674 1 18411138047511971138
15219456 202 18408886256298763483
15375358 24 18408882957906324576
15442244 35 18269560446384524865
16945 1 18270398416485109024
18186145 218 17822287955242492991
19049666 15 18335140912207605267
19591789 44 16539905261577330240
200 152 17987513878979438527
20281475 54 18408325496826187990
20645477 56 18333732429592014285
20645477 70 18202563951840587870
21065198 57 18409730646964193575
21065199 12 18409171047275199923
21421861 104 17751350695250394304
21452121 103 18342727534355967832
221490 88 18409737261588570666
23402539 116 17095791213720389300
23557571 272 17603298250403693468
23559900 14 18339358561829630442
2748010 2 18340761538687732804
296302 2 18409450318791340704
335352 9 18266459793608397559
34934 24 18413383246245836968
3545911 37 18411703201121491793
4214541 1 18410293610171742905
495365 180 17988345014589549904
5104073 3 18410573998052197715
543358 83 18340210691614528376
77779 3 18410013247343622591
8809292 202 18334298630329127179
9709674 26 18334862769941387131

> <PUBCHEM_SHAPE_MULTIPOLES>
342.11
8.67
2.44
0.76
1.43
0.33
0.06
-0.25
-0.23
-0.65
-0.02
0.39
0.05
0.91

> <PUBCHEM_SHAPE_SELFOVERLAP>
745.649

> <PUBCHEM_SHAPE_VOLUME>
188.9

> <PUBCHEM_COORDINATE_TYPE>
2
5
10

$$$$
