REMARK  Name = 14312562
REMARK  9 active torsions:
REMARK  status: ('A' for Active; 'I' for Inactive)
REMARK    1  A    between atoms: O_1  and  C_2
REMARK    2  A    between atoms: O_1  and  C_19
REMARK    3  A    between atoms: C_7  and  O_16
REMARK    4  A    between atoms: C_12  and  C_14
REMARK    5  A    between atoms: C_20  and  O_24
REMARK    6  A    between atoms: C_21  and  O_26
REMARK    7  A    between atoms: C_22  and  O_28
REMARK    8  A    between atoms: C_23  and  C_30
REMARK    9  A    between atoms: C_30  and  O_31
REMARK                            x       y       z     vdW  Elec       q    Type
REMARK                         _______ _______ _______ _____ _____    ______ ____
ROOT
ATOM      1  O   UNL     1      -0.234   0.339  -0.470  0.00  0.00    -0.329 OA
ENDROOT
BRANCH   1   2
ATOM      2  C   UNL     1       0.578   0.194   0.701  0.00  0.00    +0.119 C 
ATOM      3  C   UNL     1       2.696   1.468  -0.198  0.00  0.00    +0.026 C 
ATOM      4  C   UNL     1       0.317   1.388   1.635  0.00  0.00    +0.061 C 
ATOM      5  C   UNL     1       2.314   2.618   0.763  0.00  0.00    +0.034 C 
ATOM      6  C   UNL     1       2.043   0.141   0.251  0.00  0.00    +0.014 C 
ATOM      7  C   UNL     1       0.820   2.707   1.055  0.00  0.00    +0.114 C 
ATOM      8  C   UNL     1       0.107  -1.090   1.410  0.00  0.00    +0.035 C 
ATOM      9  C   UNL     1       4.244   1.375  -0.192  0.00  0.00    +0.005 C 
ATOM     10  C   UNL     1       2.268   1.811  -1.641  0.00  0.00    +0.005 C 
ATOM     11  C   UNL     1       2.666  -1.002   0.109  0.00  0.00    -0.105 C 
ATOM     12  C   UNL     1       3.282  -2.138  -0.030  0.00  0.00    +0.078 C 
BRANCH  12  14
ATOM     13  O   UNL     1       5.014  -1.385  -1.465  0.00  0.00    -0.291 OA
ATOM     14  C   UNL     1       4.639  -2.202  -0.627  0.00  0.00    +0.181 C 
ATOM     15  C   UNL     1       5.544  -3.311  -0.159  0.00  0.00    +0.078 C 
ENDBRANCH  12  14
BRANCH   7  16
ATOM     16  O   UNL     1       0.611   3.751   2.004  0.00  0.00    -0.384 OA
ATOM     17  H   UNL     1      -0.336   3.822   2.203  0.00  0.00    +0.210 HD
ENDBRANCH   7  16
ENDBRANCH   1   2
BRANCH   1  19
ATOM     18  O   UNL     1      -1.998  -0.799   0.548  0.00  0.00    -0.326 OA
ATOM     19  C   UNL     1      -1.619   0.396  -0.132  0.00  0.00    +0.266 C 
ATOM     20  C   UNL     1      -2.415   0.550  -1.428  0.00  0.00    +0.196 C 
ATOM     21  C   UNL     1      -3.919   0.468  -1.170  0.00  0.00    +0.172 C 
ATOM     22  C   UNL     1      -4.267  -0.741  -0.302  0.00  0.00    +0.169 C 
ATOM     23  C   UNL     1      -3.373  -0.795   0.939  0.00  0.00    +0.176 C 
BRANCH  20  24
ATOM     24  O   UNL     1      -2.100   1.820  -1.997  0.00  0.00    -0.378 OA
ATOM     25  H   UNL     1      -1.145   1.873  -2.162  0.00  0.00    +0.211 HD
ENDBRANCH  20  24
BRANCH  21  26
ATOM     26  O   UNL     1      -4.608   0.332  -2.414  0.00  0.00    -0.379 OA
ATOM     27  H   UNL     1      -4.402   1.090  -2.983  0.00  0.00    +0.211 HD
ENDBRANCH  21  26
BRANCH  22  28
ATOM     28  O   UNL     1      -5.631  -0.653   0.104  0.00  0.00    -0.379 OA
ATOM     29  H   UNL     1      -6.200  -0.619  -0.681  0.00  0.00    +0.211 HD
ENDBRANCH  22  28
BRANCH  23  30
ATOM     30  C   UNL     1      -3.621  -2.056   1.760  0.00  0.00    +0.169 C 
BRANCH  30  31
ATOM     31  O   UNL     1      -3.356  -3.184   0.946  0.00  0.00    -0.379 OA
ATOM     32  H   UNL     1      -3.510  -3.994   1.456  0.00  0.00    +0.211 HD
ENDBRANCH  30  31
ENDBRANCH  23  30
ENDBRANCH   1  19
TORSDOF 9
