14312562
  -OEChem-03292013303D

 57 58  0     1  0  0  0  0  0999 V2000
   -0.2340    0.3388   -0.4702 O   0  0  0  0  0  0  0  0  0  0  0  0
   -1.9983   -0.7989    0.5483 O   0  0  0  0  0  0  0  0  0  0  0  0
    0.6108    3.7505    2.0043 O   0  0  0  0  0  0  0  0  0  0  0  0
   -2.0999    1.8201   -1.9974 O   0  0  0  0  0  0  0  0  0  0  0  0
   -4.6084    0.3320   -2.4140 O   0  0  0  0  0  0  0  0  0  0  0  0
   -5.6307   -0.6535    0.1039 O   0  0  0  0  0  0  0  0  0  0  0  0
   -3.3561   -3.1838    0.9459 O   0  0  0  0  0  0  0  0  0  0  0  0
    5.0142   -1.3851   -1.4652 O   0  0  0  0  0  0  0  0  0  0  0  0
    0.5776    0.1938    0.7011 C   0  0  2  0  0  0  0  0  0  0  0  0
    2.6960    1.4676   -0.1983 C   0  0  0  0  0  0  0  0  0  0  0  0
    0.3168    1.3880    1.6350 C   0  0  0  0  0  0  0  0  0  0  0  0
    2.3137    2.6180    0.7628 C   0  0  0  0  0  0  0  0  0  0  0  0
    2.0432    0.1412    0.2505 C   0  0  0  0  0  0  0  0  0  0  0  0
    0.8196    2.7074    1.0554 C   0  0  2  0  0  0  0  0  0  0  0  0
   -1.6193    0.3956   -0.1316 C   0  0  2  0  0  0  0  0  0  0  0  0
    0.1066   -1.0896    1.4096 C   0  0  0  0  0  0  0  0  0  0  0  0
    4.2435    1.3755   -0.1920 C   0  0  0  0  0  0  0  0  0  0  0  0
    2.2682    1.8106   -1.6408 C   0  0  0  0  0  0  0  0  0  0  0  0
   -2.4148    0.5497   -1.4278 C   0  0  1  0  0  0  0  0  0  0  0  0
   -3.9194    0.4681   -1.1700 C   0  0  2  0  0  0  0  0  0  0  0  0
   -4.2673   -0.7413   -0.3021 C   0  0  1  0  0  0  0  0  0  0  0  0
   -3.3726   -0.7949    0.9385 C   0  0  1  0  0  0  0  0  0  0  0  0
    2.6662   -1.0023    0.1092 C   0  0  0  0  0  0  0  0  0  0  0  0
   -3.6211   -2.0561    1.7600 C   0  0  0  0  0  0  0  0  0  0  0  0
    3.2816   -2.1384   -0.0296 C   0  0  0  0  0  0  0  0  0  0  0  0
    4.6394   -2.2022   -0.6267 C   0  0  0  0  0  0  0  0  0  0  0  0
    5.5444   -3.3109   -0.1587 C   0  0  0  0  0  0  0  0  0  0  0  0
    0.8666    1.2125    2.5738 H   0  0  0  0  0  0  0  0  0  0  0  0
   -0.7138    1.4955    1.9846 H   0  0  0  0  0  0  0  0  0  0  0  0
    2.6578    3.5824    0.3645 H   0  0  0  0  0  0  0  0  0  0  0  0
    2.8502    2.5000    1.7160 H   0  0  0  0  0  0  0  0  0  0  0  0
    0.2624    2.9746    0.1516 H   0  0  0  0  0  0  0  0  0  0  0  0
   -1.8441    1.2774    0.4743 H   0  0  0  0  0  0  0  0  0  0  0  0
   -0.6749   -0.9324    2.1626 H   0  0  0  0  0  0  0  0  0  0  0  0
   -0.1075   -1.9232    0.7293 H   0  0  0  0  0  0  0  0  0  0  0  0
    0.9232   -1.4577    2.0495 H   0  0  0  0  0  0  0  0  0  0  0  0
    4.6267    0.9053    0.7205 H   0  0  0  0  0  0  0  0  0  0  0  0
    4.6222    0.8389   -1.0621 H   0  0  0  0  0  0  0  0  0  0  0  0
    4.6888    2.3771   -0.2473 H   0  0  0  0  0  0  0  0  0  0  0  0
    2.7807    2.7125   -1.9959 H   0  0  0  0  0  0  0  0  0  0  0  0
    2.5163    0.9972   -2.3329 H   0  0  0  0  0  0  0  0  0  0  0  0
    1.1944    1.9982   -1.7289 H   0  0  0  0  0  0  0  0  0  0  0  0
   -2.1127   -0.2093   -2.1592 H   0  0  0  0  0  0  0  0  0  0  0  0
   -4.2840    1.3971   -0.7145 H   0  0  0  0  0  0  0  0  0  0  0  0
   -4.1647   -1.6504   -0.9064 H   0  0  0  0  0  0  0  0  0  0  0  0
   -3.5606    0.0686    1.5902 H   0  0  0  0  0  0  0  0  0  0  0  0
   -0.3446    3.8005    2.1786 H   0  0  0  0  0  0  0  0  0  0  0  0
   -4.6531   -2.1073    2.1201 H   0  0  0  0  0  0  0  0  0  0  0  0
   -2.9410   -2.0945    2.6170 H   0  0  0  0  0  0  0  0  0  0  0  0
   -2.3652    2.5098   -1.3652 H   0  0  0  0  0  0  0  0  0  0  0  0
   -5.5584    0.2696   -2.2152 H   0  0  0  0  0  0  0  0  0  0  0  0
   -5.7341    0.1531    0.6371 H   0  0  0  0  0  0  0  0  0  0  0  0
    2.9016   -3.0246    0.4658 H   0  0  0  0  0  0  0  0  0  0  0  0
   -3.5128   -3.9740    1.4905 H   0  0  0  0  0  0  0  0  0  0  0  0
    5.6724   -4.0365   -0.9659 H   0  0  0  0  0  0  0  0  0  0  0  0
    6.5126   -2.8881    0.1232 H   0  0  0  0  0  0  0  0  0  0  0  0
    5.1294   -3.8201    0.7154 H   0  0  0  0  0  0  0  0  0  0  0  0
  1  9  1  0  0  0  0
  1 15  1  0  0  0  0
  2 15  1  0  0  0  0
  2 22  1  0  0  0  0
  3 14  1  0  0  0  0
  3 47  1  0  0  0  0
  4 19  1  0  0  0  0
  4 50  1  0  0  0  0
  5 20  1  0  0  0  0
  5 51  1  0  0  0  0
  6 21  1  0  0  0  0
  6 52  1  0  0  0  0
  7 24  1  0  0  0  0
  7 54  1  0  0  0  0
  8 26  2  0  0  0  0
  9 11  1  0  0  0  0
  9 13  1  0  0  0  0
  9 16  1  0  0  0  0
 10 12  1  0  0  0  0
 10 13  1  0  0  0  0
 10 17  1  0  0  0  0
 10 18  1  0  0  0  0
 11 14  1  0  0  0  0
 11 28  1  0  0  0  0
 11 29  1  0  0  0  0
 12 14  1  0  0  0  0
 12 30  1  0  0  0  0
 12 31  1  0  0  0  0
 13 23  2  0  0  0  0
 14 32  1  0  0  0  0
 15 19  1  0  0  0  0
 15 33  1  0  0  0  0
 16 34  1  0  0  0  0
 16 35  1  0  0  0  0
 16 36  1  0  0  0  0
 17 37  1  0  0  0  0
 17 38  1  0  0  0  0
 17 39  1  0  0  0  0
 18 40  1  0  0  0  0
 18 41  1  0  0  0  0
 18 42  1  0  0  0  0
 19 20  1  0  0  0  0
 19 43  1  0  0  0  0
 20 21  1  0  0  0  0
 20 44  1  0  0  0  0
 21 22  1  0  0  0  0
 21 45  1  0  0  0  0
 22 24  1  0  0  0  0
 22 46  1  0  0  0  0
 23 25  2  0  0  0  0
 24 48  1  0  0  0  0
 24 49  1  0  0  0  0
 25 26  1  0  0  0  0
 25 53  1  0  0  0  0
 26 27  1  0  0  0  0
 27 55  1  0  0  0  0
 27 56  1  0  0  0  0
 27 57  1  0  0  0  0
M  END
> <PUBCHEM_COMPOUND_CID>
14312562

> <PUBCHEM_CONFORMER_RMSD>
0.8

> <PUBCHEM_CONFORMER_DIVERSEORDER>
2
9
12
14
8
7
4
15
10
6
3
11
13
1
5

> <PUBCHEM_MMFF94_PARTIAL_CHARGES>
28
1 -0.56
10 0.14
13 -0.21
14 0.28
15 0.56
19 0.28
2 -0.56
20 0.28
21 0.28
22 0.28
23 -0.13
24 0.28
25 -0.07
26 0.49
27 0.06
3 -0.68
4 -0.68
47 0.4
5 -0.68
50 0.4
51 0.4
52 0.4
53 0.15
54 0.4
6 -0.68
7 -0.68
8 -0.57
9 0.42

> <PUBCHEM_EFFECTIVE_ROTOR_COUNT>
6.2

> <PUBCHEM_PHARMACOPHORE_FEATURES>
16
1 1 acceptor
1 2 acceptor
1 3 acceptor
1 3 donor
1 4 acceptor
1 4 donor
1 5 acceptor
1 5 donor
1 6 acceptor
1 6 donor
1 7 acceptor
1 7 donor
1 8 acceptor
3 10 17 18 hydrophobe
6 2 15 19 20 21 22 rings
6 9 10 11 12 13 14 rings

> <PUBCHEM_HEAVY_ATOM_COUNT>
27

> <PUBCHEM_ATOM_DEF_STEREO_COUNT>
7

> <PUBCHEM_ATOM_UDEF_STEREO_COUNT>
0

> <PUBCHEM_BOND_DEF_STEREO_COUNT>
0

> <PUBCHEM_BOND_UDEF_STEREO_COUNT>
0

> <PUBCHEM_ISOTOPIC_ATOM_COUNT>
0

> <PUBCHEM_COMPONENT_COUNT>
1

> <PUBCHEM_CACTVS_TAUTO_COUNT>
2

> <PUBCHEM_CONFORMER_ID>
00DA647200000002

> <PUBCHEM_MMFF94_ENERGY>
96.8978

> <PUBCHEM_FEATURE_SELFOVERLAP>
81.263

> <PUBCHEM_SHAPE_FINGERPRINT>
10498660 4 17241031163779516685
11370993 144 18410864295693496249
11552529 35 17771070694299263603
1200032 147 15650142102839974437
12236239 1 16486700280778098665
12422481 6 16485865588111789582
12553582 1 18059866030316891286
12623949 98 17980507842042644843
12788726 201 17766553551985277400
13134695 92 18201716275567744200
13224815 77 16951113127552459873
13533116 47 18342177825807883803
13540713 5 18125744309341548792
13544592 145 18261109664896831723
13544653 18 18201152153509847858
13583140 156 18198623435479429583
13692114 37 16266892268589574945
13757389 114 16173990665361120268
13782708 43 18261111906970481187
13911987 19 18051148166119688980
14251757 17 18187081720072699458
14840074 17 17561360678461297166
14866123 147 17693100660680799906
17349148 13 16486972929496653143
17980427 23 12175034637077900515
1813 80 17561091263288490852
18186145 218 18113058224750199009
20645477 70 18413105078193822062
20693207 138 18261108582269596375
20775438 99 17622400190668090631
21033650 10 16805324349044565588
221357 26 18408600336363269525
221490 88 18335427901996670610
22182313 1 18114739433842544091
22393880 68 17822008692432896418
23175994 123 18343302539702106091
23526113 38 18410844469391494536
23536364 44 18191870011470271694
23557571 272 17822286954900202333
23559900 14 18186516613808156589
23598288 3 17631468768878055953
44802255 64 16741187874199248308
46194498 28 17895201059626535366
463206 1 18272085024161922566
5281201 14 18186522119966805573
6287921 2 17828774168056768741
6442390 28 17260191515086890344
6669772 16 17912930775710961900
6823239 73 17749104504321307141
70251023 43 18128795552486199711
7471813 234 18130783426422577184
7970288 3 18201439117181489702
9709674 26 18187641440194903071

> <PUBCHEM_SHAPE_MULTIPOLES>
508.69
10.6
3.59
1.8
1.17
0.11
0.31
-8.6
3.67
-3.61
-1.36
1.39
0.77
2.12

> <PUBCHEM_SHAPE_SELFOVERLAP>
1051.147

> <PUBCHEM_SHAPE_VOLUME>
287.5

> <PUBCHEM_COORDINATE_TYPE>
2
5
10

$$$$
