REMARK  Name = 14345476
REMARK  7 active torsions:
REMARK  status: ('A' for Active; 'I' for Inactive)
REMARK    1  A    between atoms: C_2  and  N_8
REMARK    2  A    between atoms: C_3  and  O_12
REMARK    3  A    between atoms: C_4  and  O_14
REMARK    4  A    between atoms: C_5  and  C_29
REMARK    5  A    between atoms: C_6  and  O_16
REMARK    6  A    between atoms: O_16  and  C_19
REMARK    7  A    between atoms: C_29  and  O_30
REMARK                            x       y       z     vdW  Elec       q    Type
REMARK                         _______ _______ _______ _____ _____    ______ ____
ROOT
ATOM      1  O   UNL     1      -1.556   1.355   0.810  0.00  0.00    -0.317 OA
ATOM      2  C   UNL     1      -2.979  -0.554   0.348  0.00  0.00    +0.172 C 
ATOM      3  C   UNL     1      -3.794   0.274  -0.648  0.00  0.00    +0.164 C 
ATOM      4  C   UNL     1      -3.679   1.767  -0.324  0.00  0.00    +0.169 C 
ATOM      5  C   UNL     1      -2.215   2.187  -0.150  0.00  0.00    +0.177 C 
ATOM      6  C   UNL     1      -1.544  -0.029   0.451  0.00  0.00    +0.309 C 
ENDROOT
BRANCH   2   8
ATOM      7  O   UNL     1      -2.892  -2.818   2.165  0.00  0.00    -0.275 OA
ATOM      8  N   UNL     1      -2.998  -1.958   0.005  0.00  0.00    -0.298 N 
ATOM      9  C   UNL     1      -2.952  -2.970   0.948  0.00  0.00    +0.223 C 
ATOM     10  C   UNL     1      -3.011  -4.338   0.321  0.00  0.00    +0.095 C 
ATOM     11  H   UNL     1      -3.046  -2.206  -0.947  0.00  0.00    +0.150 HD
ENDBRANCH   2   8
BRANCH   3  12
ATOM     12  O   UNL     1      -5.167  -0.112  -0.550  0.00  0.00    -0.380 OA
ATOM     13  H   UNL     1      -5.252  -1.057  -0.754  0.00  0.00    +0.211 HD
ENDBRANCH   3  12
BRANCH   4  14
ATOM     14  O   UNL     1      -4.281   2.497  -1.390  0.00  0.00    -0.379 OA
ATOM     15  H   UNL     1      -5.206   2.221  -1.489  0.00  0.00    +0.211 HD
ENDBRANCH   4  14
BRANCH   6  16
ATOM     16  O   UNL     1      -0.842  -0.257  -0.769  0.00  0.00    -0.451 OA
BRANCH  16  19
ATOM     17  O   UNL     1       3.461   1.347   0.527  0.00  0.00    -0.421 OA
ATOM     18  O   UNL     1       5.515   2.130   1.154  0.00  0.00    -0.244 OA
ATOM     19  C   UNL     1       0.509  -0.455  -0.671  0.00  0.00    +0.144 C 
ATOM     20  C   UNL     1       1.314   0.533  -0.126  0.00  0.00    +0.075 C 
ATOM     21  C   UNL     1       1.067  -1.647  -1.119  0.00  0.00    +0.037 C 
ATOM     22  C   UNL     1       2.689   0.311  -0.035  0.00  0.00    +0.151 C 
ATOM     23  C   UNL     1       3.283  -0.873  -0.475  0.00  0.00    +0.031 C 
ATOM     24  C   UNL     1       2.447  -1.856  -1.022  0.00  0.00    +0.006 C 
ATOM     25  C   UNL     1       4.739  -1.023  -0.341  0.00  0.00    -0.012 C 
ATOM     26  C   UNL     1       5.447  -0.020   0.198  0.00  0.00    +0.078 C 
ATOM     27  C   UNL     1       5.407  -2.284  -0.804  0.00  0.00    +0.031 C 
ATOM     28  C   UNL     1       4.835   1.235   0.667  0.00  0.00    +0.346 C 
ENDBRANCH  16  19
ENDBRANCH   6  16
BRANCH   5  29
ATOM     29  C   UNL     1      -2.088   3.626   0.344  0.00  0.00    +0.169 C 
BRANCH  29  30
ATOM     30  O   UNL     1      -0.713   3.932   0.488  0.00  0.00    -0.379 OA
ATOM     31  H   UNL     1      -0.616   4.844   0.802  0.00  0.00    +0.211 HD
ENDBRANCH  29  30
ENDBRANCH   5  29
TORSDOF 7
