REMARK  Name = 14345430
REMARK  14 active torsions:
REMARK  status: ('A' for Active; 'I' for Inactive)
REMARK    1  A    between atoms: N_1  and  C_5
REMARK    2  A    between atoms: N_1  and  C_15
REMARK    3  A    between atoms: C_5  and  C_6
REMARK    4  A    between atoms: C_6  and  C_7
REMARK    5  A    between atoms: C_7  and  C_8
REMARK    6  A    between atoms: C_8  and  C_9
REMARK    7  A    between atoms: C_9  and  C_12
REMARK    8  A    between atoms: C_15  and  C_16
REMARK    9  A    between atoms: C_16  and  C_17
REMARK   10  A    between atoms: C_17  and  C_18
REMARK   11  A    between atoms: C_18  and  C_19
REMARK   12  A    between atoms: C_19  and  N_20
REMARK   13  A    between atoms: C_19  and  C_25
REMARK   14  A    between atoms: C_25  and  O_26
REMARK                            x       y       z     vdW  Elec       q    Type
REMARK                         _______ _______ _______ _____ _____    ______ ____
ROOT
ATOM      1  N   UNK     1       3.355   0.705  -0.354  0.00  0.00    -0.369 NA
ATOM      2  H   UNK     1       3.135   0.724  -1.314  0.00  0.00    +0.127 HD
ATOM      3  H   UNK     1       3.987   0.738   0.400  0.00  0.00    +0.127 HD
ENDROOT
BRANCH   1   5
ATOM      4  O   UNK     1       3.987  -0.655   1.416  0.00  0.00    -0.277 OA
ATOM      5  C   UNK     1       3.694  -0.506   0.233  0.00  0.00    +0.207 C 
BRANCH   5   6
ATOM      6  C   UNK     1       3.632  -1.651  -0.764  0.00  0.00    +0.083 C 
BRANCH   6   7
ATOM      7  C   UNK     1       2.251  -1.853  -1.383  0.00  0.00    +0.010 C 
BRANCH   7   8
ATOM      8  C   UNK     1       1.195  -2.235  -0.342  0.00  0.00    +0.001 C 
BRANCH   8   9
ATOM      9  C   UNK     1      -0.182  -2.403  -0.985  0.00  0.00    +0.012 C 
BRANCH   9  12
ATOM     10  S   UNK     1      -2.884  -2.865  -0.724  0.00  0.00    -0.083 S 
ATOM     11  S   UNK     1      -3.970  -2.219   0.891  0.00  0.00    -0.082 S 
ATOM     12  C   UNK     1      -1.241  -2.755   0.049  0.00  0.00    +0.059 C 
ATOM     13  C   UNK     1      -1.352  -1.694   1.147  0.00  0.00    +0.024 C 
ATOM     14  C   UNK     1      -2.572  -1.977   2.015  0.00  0.00    +0.070 C 
ENDBRANCH   9  12
ENDBRANCH   8   9
ENDBRANCH   7   8
ENDBRANCH   6   7
ENDBRANCH   5   6
ENDBRANCH   1   5
BRANCH   1  15
ATOM     15  C   UNK     1       3.316   1.937   0.397  0.00  0.00    +0.072 C 
BRANCH  15  16
ATOM     16  C   UNK     1       1.949   2.218   1.013  0.00  0.00    +0.020 C 
BRANCH  16  17
ATOM     17  C   UNK     1       0.807   2.387   0.003  0.00  0.00    +0.000 C 
BRANCH  17  18
ATOM     18  C   UNK     1      -0.531   2.794   0.629  0.00  0.00    -0.011 C 
BRANCH  18  19
ATOM     19  C   UNK     1      -1.636   2.998  -0.415  0.00  0.00    +0.036 C 
BRANCH  19  20
ATOM     20  N   UNK     1      -2.699   3.827   0.160  0.00  0.00    +0.389 N 
ATOM     21  H   UNK     1      -2.311   4.725   0.448  0.00  0.00    -0.088 HD
ATOM     22  H   UNK     1      -3.097   3.353   0.971  0.00  0.00    -0.088 HD
ATOM     23  H   UNK     1      -3.427   3.979  -0.537  0.00  0.00    -0.088 HD
ENDBRANCH  19  20
BRANCH  19  25
ATOM     24  O   UNK     1      -3.190   1.129  -0.241  0.00  0.00    -0.253 OA
ATOM     25  C   UNK     1      -2.265   1.678  -0.825  0.00  0.00    +0.293 C 
BRANCH  25  26
ATOM     26  O   UNK     1      -1.666   1.140  -1.919  0.00  0.00    -0.482 OA
ATOM     27  H   UNK     1      -0.961   1.593  -2.338  0.00  0.00    +0.295 HD
ENDBRANCH  25  26
ENDBRANCH  19  25
ENDBRANCH  18  19
ENDBRANCH  17  18
ENDBRANCH  16  17
ENDBRANCH  15  16
ENDBRANCH   1  15
TORSDOF 14
