REMARK  Name = 14345478
REMARK  7 active torsions:
REMARK  status: ('A' for Active; 'I' for Inactive)
REMARK    1  A    between atoms: C_2  and  O_7
REMARK    2  A    between atoms: C_3  and  O_9
REMARK    3  A    between atoms: C_4  and  O_11
REMARK    4  A    between atoms: C_5  and  C_26
REMARK    5  A    between atoms: C_6  and  O_13
REMARK    6  A    between atoms: O_13  and  C_16
REMARK    7  A    between atoms: C_26  and  O_27
REMARK                            x       y       z     vdW  Elec       q    Type
REMARK                         _______ _______ _______ _____ _____    ______ ____
ROOT
ATOM      1  O   UNL     1      -2.046   0.887   0.616  0.00  0.00    -0.316 OA
ATOM      2  C   UNL     1      -4.089  -0.876  -0.386  0.00  0.00    +0.173 C 
ATOM      3  C   UNL     1      -4.231   0.647  -0.454  0.00  0.00    +0.169 C 
ATOM      4  C   UNL     1      -3.163  -1.269   0.766  0.00  0.00    +0.210 C 
ATOM      5  C   UNL     1      -2.847   1.309  -0.499  0.00  0.00    +0.177 C 
ATOM      6  C   UNL     1      -1.829  -0.526   0.664  0.00  0.00    +0.318 C 
ENDROOT
BRANCH   2   7
ATOM      7  O   UNL     1      -5.366  -1.476  -0.188  0.00  0.00    -0.379 OA
ATOM      8  H   UNL     1      -5.956  -1.229  -0.917  0.00  0.00    +0.211 HD
ENDBRANCH   2   7
BRANCH   3   9
ATOM      9  O   UNL     1      -4.928   1.114   0.704  0.00  0.00    -0.379 OA
ATOM     10  H   UNL     1      -5.805   0.702   0.741  0.00  0.00    +0.211 HD
ENDBRANCH   3   9
BRANCH   4  11
ATOM     11  O   UNL     1      -2.923  -2.672   0.750  0.00  0.00    -0.377 OA
ATOM     12  H   UNL     1      -3.767  -3.145   0.815  0.00  0.00    +0.211 HD
ENDBRANCH   4  11
BRANCH   6  13
ATOM     13  O   UNL     1      -1.093  -0.990  -0.467  0.00  0.00    -0.450 OA
BRANCH  13  16
ATOM     14  O   UNL     1       2.927   1.497   0.181  0.00  0.00    -0.421 OA
ATOM     15  O   UNL     1       4.845   2.702   0.493  0.00  0.00    -0.244 OA
ATOM     16  C   UNL     1       0.271  -0.963  -0.364  0.00  0.00    +0.144 C 
ATOM     17  C   UNL     1       0.923   0.242  -0.145  0.00  0.00    +0.075 C 
ATOM     18  C   UNL     1       0.996  -2.143  -0.478  0.00  0.00    +0.037 C 
ATOM     19  C   UNL     1       3.075  -0.919  -0.152  0.00  0.00    +0.031 C 
ATOM     20  C   UNL     1       2.316   0.247  -0.042  0.00  0.00    +0.151 C 
ATOM     21  C   UNL     1       2.392  -2.122  -0.373  0.00  0.00    +0.006 C 
ATOM     22  C   UNL     1       4.536  -0.820  -0.031  0.00  0.00    -0.012 C 
ATOM     23  C   UNL     1       5.090   0.382   0.181  0.00  0.00    +0.078 C 
ATOM     24  C   UNL     1       5.381  -2.055  -0.145  0.00  0.00    +0.031 C 
ATOM     25  C   UNL     1       4.303   1.620   0.299  0.00  0.00    +0.346 C 
ENDBRANCH  13  16
ENDBRANCH   6  13
BRANCH   5  26
ATOM     26  C   UNL     1      -2.928   2.831  -0.447  0.00  0.00    +0.169 C 
BRANCH  26  27
ATOM     27  O   UNL     1      -1.613   3.354  -0.482  0.00  0.00    -0.379 OA
ATOM     28  H   UNL     1      -1.650   4.323  -0.449  0.00  0.00    +0.211 HD
ENDBRANCH  26  27
ENDBRANCH   5  26
TORSDOF 7
