MODEL 1
REMARK VINA RESULT:      -8.1      0.000      0.000
REMARK  4 active torsions:
REMARK  status: ('A' for Active; 'I' for Inactive)
REMARK    1  A    between atoms: C_11  and  N_14 
REMARK    2  A    between atoms: C_13  and  C_21 
REMARK       I    between atoms: N_14  and  C_15 
REMARK    3  A    between atoms: C_15  and  C_16 
REMARK    4  A    between atoms: C_16  and  C_17 
ROOT
HETATM    1  C   UNK     0      -2.572  -1.712   8.704  0.00  0.00     0.008 A 
HETATM    2  C   UNK     0      -3.106  -2.261   7.520  0.00  0.00     0.001 A 
HETATM    3  C   UNK     0      -2.588  -1.887   6.262  0.00  0.00     0.001 A 
HETATM    4  C   UNK     0      -1.539  -0.951   6.173  0.00  0.00     0.013 A 
HETATM    5  C   UNK     0      -1.019  -0.404   7.363  0.00  0.00    -0.019 A 
HETATM    6  C   UNK     0      -1.522  -0.779   8.612  0.00  0.00    -0.043 A 
HETATM    7  C   UNK     0      -0.002   0.521   7.571  0.00  0.00    -0.016 A 
HETATM    8  C   UNK     0       0.142   0.747   8.945  0.00  0.00    -0.032 A 
HETATM    9  C   UNK     0      -0.823  -0.082   9.705  0.00  0.00     0.080 A 
HETATM   10  C   UNK     0       0.821   1.166   6.632  0.00  0.00     0.042 A 
HETATM   11  C   UNK     0       1.819   2.063   7.078  0.00  0.00     0.036 A 
HETATM   12  C   UNK     0       1.969   2.282   8.471  0.00  0.00     0.042 A 
HETATM   13  C   UNK     0       1.133   1.644   9.427  0.00  0.00    -0.016 A 
ENDROOT
BRANCH  13  14
HETATM   14  C   UNK     0       1.308   1.899  10.815  0.00  0.00    -0.023 A 
HETATM   15  C   UNK     0       2.168   1.093  11.601  0.00  0.00     0.029 A 
HETATM   16  C   UNK     0       2.342   1.384  12.966  0.00  0.00     0.088 A 
HETATM   17  N   UNK     0       1.672   2.420  13.529  0.00  0.00    -0.375 N 
HETATM   18  C   UNK     0       0.819   3.204  12.820  0.00  0.00     0.088 A 
HETATM   19  HN  UNK     0       1.813   2.618  14.520  1.00  0.00     0.164 HD
HETATM   20  C   UNK     0       0.616   2.959  11.448  0.00  0.00     0.029 A 
ENDBRANCH  13  14
BRANCH  11  21
HETATM   21  N   UNK     0       2.694   2.688   6.228  0.00  0.00    -0.327 N 
HETATM   22  C   UNK     0       3.577   3.693   6.508  0.00  0.00     0.223 C 
HETATM   23  O   UNK     0       3.814   4.073   7.680  0.00  0.00    -0.273 OA
HETATM   24  H   UNK     0       2.696   2.368   5.311  0.00  0.00     0.169 HD
BRANCH  22  25
HETATM   25  C   UNK     0       4.298   4.353   5.398  0.00  0.00     0.118 C 
BRANCH  25  26
HETATM   26  C   UNK     0       5.722   4.784   5.827  0.00  0.00     0.124 C 
HETATM   27 Cl   UNK     0       5.979   6.503   5.550  0.00  0.00    -0.130 Cl
ENDBRANCH  25  26
ENDBRANCH  22  25
ENDBRANCH  11  21
TORSDOF 4
ENDMDL
MODEL 2
REMARK VINA RESULT:      -8.0      4.656      7.180
REMARK  4 active torsions:
REMARK  status: ('A' for Active; 'I' for Inactive)
REMARK    1  A    between atoms: C_11  and  N_14 
REMARK    2  A    between atoms: C_13  and  C_21 
REMARK       I    between atoms: N_14  and  C_15 
REMARK    3  A    between atoms: C_15  and  C_16 
REMARK    4  A    between atoms: C_16  and  C_17 
ROOT
HETATM    1  C   UNK     0       2.434   2.706   8.737  0.00  0.00     0.008 A 
HETATM    2  C   UNK     0       3.025   3.215   7.562  0.00  0.00     0.001 A 
HETATM    3  C   UNK     0       2.554   2.813   6.293  0.00  0.00     0.001 A 
HETATM    4  C   UNK     0       1.494   1.889   6.187  0.00  0.00     0.013 A 
HETATM    5  C   UNK     0       0.917   1.385   7.368  0.00  0.00    -0.019 A 
HETATM    6  C   UNK     0       1.373   1.787   8.626  0.00  0.00    -0.043 A 
HETATM    7  C   UNK     0      -0.122   0.480   7.559  0.00  0.00    -0.016 A 
HETATM    8  C   UNK     0      -0.327   0.295   8.932  0.00  0.00    -0.032 A 
HETATM    9  C   UNK     0       0.619   1.132   9.709  0.00  0.00     0.080 A 
HETATM   10  C   UNK     0      -0.916  -0.179   6.605  0.00  0.00     0.042 A 
HETATM   11  C   UNK     0      -1.946  -1.048   7.034  0.00  0.00     0.036 A 
HETATM   12  C   UNK     0      -2.156  -1.226   8.424  0.00  0.00     0.042 A 
HETATM   13  C   UNK     0      -1.351  -0.573   9.396  0.00  0.00    -0.016 A 
ENDROOT
BRANCH  13  14
HETATM   14  C   UNK     0      -1.587  -0.786  10.782  0.00  0.00    -0.023 A 
HETATM   15  C   UNK     0      -2.468   0.051  11.509  0.00  0.00     0.029 A 
HETATM   16  C   UNK     0      -2.704  -0.198  12.872  0.00  0.00     0.088 A 
HETATM   17  N   UNK     0      -2.071  -1.225  13.492  0.00  0.00    -0.375 N 
HETATM   18  C   UNK     0      -1.199  -2.039  12.842  0.00  0.00     0.088 A 
HETATM   19  HN  UNK     0      -2.256  -1.393  14.481  1.00  0.00     0.164 HD
HETATM   20  C   UNK     0      -0.936  -1.836  11.474  0.00  0.00     0.029 A 
ENDBRANCH  13  14
BRANCH  11  21
HETATM   21  N   UNK     0      -2.794  -1.684   6.165  0.00  0.00    -0.327 N 
HETATM   22  C   UNK     0      -3.242  -2.975   6.209  0.00  0.00     0.223 C 
HETATM   23  O   UNK     0      -3.040  -3.723   7.195  0.00  0.00    -0.273 OA
HETATM   24  H   UNK     0      -3.130  -1.146   5.430  0.00  0.00     0.169 HD
BRANCH  22  25
HETATM   25  C   UNK     0      -4.007  -3.515   5.064  0.00  0.00     0.118 C 
BRANCH  25  26
HETATM   26  C   UNK     0      -5.380  -4.071   5.515  0.00  0.00     0.124 C 
HETATM   27 Cl   UNK     0      -5.805  -5.524   4.617  0.00  0.00    -0.130 Cl
ENDBRANCH  25  26
ENDBRANCH  22  25
ENDBRANCH  11  21
TORSDOF 4
ENDMDL
MODEL 3
REMARK VINA RESULT:      -8.0      3.264      7.085
REMARK  4 active torsions:
REMARK  status: ('A' for Active; 'I' for Inactive)
REMARK    1  A    between atoms: C_11  and  N_14 
REMARK    2  A    between atoms: C_13  and  C_21 
REMARK       I    between atoms: N_14  and  C_15 
REMARK    3  A    between atoms: C_15  and  C_16 
REMARK    4  A    between atoms: C_16  and  C_17 
ROOT
HETATM    1  C   UNK     0       6.850   6.013   6.796  0.00  0.00     0.008 A 
HETATM    2  C   UNK     0       6.782   6.629   5.529  0.00  0.00     0.001 A 
HETATM    3  C   UNK     0       5.711   6.347   4.654  0.00  0.00     0.001 A 
HETATM    4  C   UNK     0       4.703   5.437   5.032  0.00  0.00     0.013 A 
HETATM    5  C   UNK     0       4.786   4.824   6.297  0.00  0.00    -0.019 A 
HETATM    6  C   UNK     0       5.839   5.107   7.171  0.00  0.00    -0.043 A 
HETATM    7  C   UNK     0       3.948   3.905   6.920  0.00  0.00    -0.016 A 
HETATM    8  C   UNK     0       4.465   3.593   8.184  0.00  0.00    -0.032 A 
HETATM    9  C   UNK     0       5.713   4.354   8.430  0.00  0.00     0.080 A 
HETATM   10  C   UNK     0       2.749   3.338   6.458  0.00  0.00     0.042 A 
HETATM   11  C   UNK     0       2.042   2.432   7.283  0.00  0.00     0.036 A 
HETATM   12  C   UNK     0       2.562   2.125   8.565  0.00  0.00     0.042 A 
HETATM   13  C   UNK     0       3.781   2.685   9.036  0.00  0.00    -0.016 A 
ENDROOT
BRANCH  13  14
HETATM   14  C   UNK     0       4.276   2.344  10.325  0.00  0.00    -0.023 A 
HETATM   15  C   UNK     0       3.884   3.075  11.473  0.00  0.00     0.029 A 
HETATM   16  C   UNK     0       4.368   2.699  12.738  0.00  0.00     0.088 A 
HETATM   17  N   UNK     0       5.223   1.652  12.854  0.00  0.00    -0.375 N 
HETATM   18  C   UNK     0       5.645   0.938  11.779  0.00  0.00     0.088 A 
HETATM   19  HN  UNK     0       5.562   1.392  13.780  1.00  0.00     0.164 HD
HETATM   20  C   UNK     0       5.183   1.270  10.490  0.00  0.00     0.029 A 
ENDBRANCH  13  14
BRANCH  11  21
HETATM   21  N   UNK     0       0.840   1.880   6.924  0.00  0.00    -0.327 N 
HETATM   22  C   UNK     0       0.528   0.559   6.763  0.00  0.00     0.223 C 
HETATM   23  O   UNK     0       1.311  -0.363   7.098  0.00  0.00    -0.273 OA
HETATM   24  H   UNK     0       0.112   2.506   6.777  0.00  0.00     0.169 HD
BRANCH  22  25
HETATM   25  C   UNK     0      -0.784   0.189   6.188  0.00  0.00     0.118 C 
BRANCH  25  26
HETATM   26  C   UNK     0      -1.609  -0.674   7.174  0.00  0.00     0.124 C 
HETATM   27 Cl   UNK     0      -2.438  -1.981   6.336  0.00  0.00    -0.130 Cl
ENDBRANCH  25  26
ENDBRANCH  22  25
ENDBRANCH  11  21
TORSDOF 4
ENDMDL
MODEL 4
REMARK VINA RESULT:      -7.6      5.168      7.532
REMARK  4 active torsions:
REMARK  status: ('A' for Active; 'I' for Inactive)
REMARK    1  A    between atoms: C_11  and  N_14 
REMARK    2  A    between atoms: C_13  and  C_21 
REMARK       I    between atoms: N_14  and  C_15 
REMARK    3  A    between atoms: C_15  and  C_16 
REMARK    4  A    between atoms: C_16  and  C_17 
ROOT
HETATM    1  C   UNK     0       1.370   1.620   8.876  0.00  0.00     0.008 A 
HETATM    2  C   UNK     0       1.851   1.883   7.576  0.00  0.00     0.001 A 
HETATM    3  C   UNK     0       1.221   1.308   6.452  0.00  0.00     0.001 A 
HETATM    4  C   UNK     0       0.110   0.456   6.616  0.00  0.00     0.013 A 
HETATM    5  C   UNK     0      -0.356   0.197   7.920  0.00  0.00    -0.019 A 
HETATM    6  C   UNK     0       0.259   0.771   9.036  0.00  0.00    -0.043 A 
HETATM    7  C   UNK     0      -1.412  -0.589   8.370  0.00  0.00    -0.016 A 
HETATM    8  C   UNK     0      -1.470  -0.527   9.767  0.00  0.00    -0.032 A 
HETATM    9  C   UNK     0      -0.401   0.360  10.286  0.00  0.00     0.080 A 
HETATM   10  C   UNK     0      -2.340  -1.341   7.630  0.00  0.00     0.042 A 
HETATM   11  C   UNK     0      -3.358  -2.054   8.306  0.00  0.00     0.036 A 
HETATM   12  C   UNK     0      -3.420  -1.981   9.720  0.00  0.00     0.042 A 
HETATM   13  C   UNK     0      -2.478  -1.232  10.477  0.00  0.00    -0.016 A 
ENDROOT
BRANCH  13  14
HETATM   14  C   UNK     0      -2.568  -1.194  11.896  0.00  0.00    -0.023 A 
HETATM   15  C   UNK     0      -2.201  -2.314  12.680  0.00  0.00     0.029 A 
HETATM   16  C   UNK     0      -2.275  -2.240  14.082  0.00  0.00     0.088 A 
HETATM   17  N   UNK     0      -2.717  -1.104  14.678  0.00  0.00    -0.375 N 
HETATM   18  C   UNK     0      -3.103  -0.014  13.966  0.00  0.00     0.088 A 
HETATM   19  HN  UNK     0      -2.761  -1.068  15.696  1.00  0.00     0.164 HD
HETATM   20  C   UNK     0      -3.040  -0.036  12.559  0.00  0.00     0.029 A 
ENDBRANCH  13  14
BRANCH  11  21
HETATM   21  N   UNK     0      -4.330  -2.765   7.652  0.00  0.00    -0.327 N 
HETATM   22  C   UNK     0      -4.194  -3.588   6.569  0.00  0.00     0.223 C 
HETATM   23  O   UNK     0      -3.074  -3.929   6.120  0.00  0.00    -0.273 OA
HETATM   24  H   UNK     0      -5.229  -2.685   8.011  0.00  0.00     0.169 HD
BRANCH  22  25
HETATM   25  C   UNK     0      -5.406  -4.113   5.903  0.00  0.00     0.118 C 
BRANCH  25  26
HETATM   26  C   UNK     0      -5.056  -4.814   4.567  0.00  0.00     0.124 C 
HETATM   27 Cl   UNK     0      -6.158  -6.146   4.239  0.00  0.00    -0.130 Cl
ENDBRANCH  25  26
ENDBRANCH  22  25
ENDBRANCH  11  21
TORSDOF 4
ENDMDL
MODEL 5
REMARK VINA RESULT:      -7.4      3.716      6.783
REMARK  4 active torsions:
REMARK  status: ('A' for Active; 'I' for Inactive)
REMARK    1  A    between atoms: C_11  and  N_14 
REMARK    2  A    between atoms: C_13  and  C_21 
REMARK       I    between atoms: N_14  and  C_15 
REMARK    3  A    between atoms: C_15  and  C_16 
REMARK    4  A    between atoms: C_16  and  C_17 
ROOT
HETATM    1  C   UNK     0      -3.189  -3.501  13.084  0.00  0.00     0.008 A 
HETATM    2  C   UNK     0      -2.463  -3.049  14.205  0.00  0.00     0.001 A 
HETATM    3  C   UNK     0      -1.493  -2.032  14.066  0.00  0.00     0.001 A 
HETATM    4  C   UNK     0      -1.231  -1.466  12.802  0.00  0.00     0.013 A 
HETATM    5  C   UNK     0      -1.959  -1.932  11.689  0.00  0.00    -0.019 A 
HETATM    6  C   UNK     0      -2.927  -2.931  11.823  0.00  0.00    -0.043 A 
HETATM    7  C   UNK     0      -1.910  -1.560  10.350  0.00  0.00    -0.016 A 
HETATM    8  C   UNK     0      -2.835  -2.323   9.626  0.00  0.00    -0.032 A 
HETATM    9  C   UNK     0      -3.555  -3.250  10.531  0.00  0.00     0.080 A 
HETATM   10  C   UNK     0      -1.119  -0.581   9.726  0.00  0.00     0.042 A 
HETATM   11  C   UNK     0      -1.256  -0.355   8.336  0.00  0.00     0.036 A 
HETATM   12  C   UNK     0      -2.200  -1.122   7.608  0.00  0.00     0.042 A 
HETATM   13  C   UNK     0      -2.996  -2.122   8.229  0.00  0.00    -0.016 A 
ENDROOT
BRANCH  13  14
HETATM   14  C   UNK     0      -3.924  -2.878   7.461  0.00  0.00    -0.023 A 
HETATM   15  C   UNK     0      -5.181  -3.250   7.996  0.00  0.00     0.029 A 
HETATM   16  C   UNK     0      -6.090  -3.975   7.206  0.00  0.00     0.088 A 
HETATM   17  N   UNK     0      -5.753  -4.334   5.942  0.00  0.00    -0.375 N 
HETATM   18  C   UNK     0      -4.550  -4.021   5.395  0.00  0.00     0.088 A 
HETATM   19  HN  UNK     0      -6.426  -4.857   5.382  1.00  0.00     0.164 HD
HETATM   20  C   UNK     0      -3.607  -3.289   6.143  0.00  0.00     0.029 A 
ENDBRANCH  13  14
BRANCH  11  21
HETATM   21  N   UNK     0      -0.559   0.617   7.667  0.00  0.00    -0.327 N 
HETATM   22  C   UNK     0       0.545   0.476   6.874  0.00  0.00     0.223 C 
HETATM   23  O   UNK     0       0.979  -0.646   6.519  0.00  0.00    -0.273 OA
HETATM   24  H   UNK     0      -0.900   1.523   7.758  0.00  0.00     0.169 HD
BRANCH  22  25
HETATM   25  C   UNK     0       1.254   1.684   6.397  0.00  0.00     0.118 C 
BRANCH  25  26
HETATM   26  C   UNK     0       2.045   2.362   7.542  0.00  0.00     0.124 C 
HETATM   27 Cl   UNK     0       2.571   3.978   7.082  0.00  0.00    -0.130 Cl
ENDBRANCH  25  26
ENDBRANCH  22  25
ENDBRANCH  11  21
TORSDOF 4
ENDMDL
MODEL 6
REMARK VINA RESULT:      -7.4      1.392      1.590
REMARK  4 active torsions:
REMARK  status: ('A' for Active; 'I' for Inactive)
REMARK    1  A    between atoms: C_11  and  N_14 
REMARK    2  A    between atoms: C_13  and  C_21 
REMARK       I    between atoms: N_14  and  C_15 
REMARK    3  A    between atoms: C_15  and  C_16 
REMARK    4  A    between atoms: C_16  and  C_17 
ROOT
HETATM    1  C   UNK     0      -2.799  -1.859   8.504  0.00  0.00     0.008 A 
HETATM    2  C   UNK     0      -2.963  -2.180   7.141  0.00  0.00     0.001 A 
HETATM    3  C   UNK     0      -2.131  -1.594   6.162  0.00  0.00     0.001 A 
HETATM    4  C   UNK     0      -1.134  -0.672   6.536  0.00  0.00     0.013 A 
HETATM    5  C   UNK     0      -0.984  -0.354   7.900  0.00  0.00    -0.019 A 
HETATM    6  C   UNK     0      -1.799  -0.939   8.873  0.00  0.00    -0.043 A 
HETATM    7  C   UNK     0      -0.100   0.506   8.543  0.00  0.00    -0.016 A 
HETATM    8  C   UNK     0      -0.350   0.480   9.920  0.00  0.00    -0.032 A 
HETATM    9  C   UNK     0      -1.457  -0.459  10.223  0.00  0.00     0.080 A 
HETATM   10  C   UNK     0       0.927   1.296   7.999  0.00  0.00     0.042 A 
HETATM   11  C   UNK     0       1.729   2.086   8.857  0.00  0.00     0.036 A 
HETATM   12  C   UNK     0       1.479   2.050  10.251  0.00  0.00     0.042 A 
HETATM   13  C   UNK     0       0.435   1.262  10.808  0.00  0.00    -0.016 A 
ENDROOT
BRANCH  13  14
HETATM   14  C   UNK     0       0.209   1.263  12.213  0.00  0.00    -0.023 A 
HETATM   15  C   UNK     0       0.877   0.344  13.059  0.00  0.00     0.029 A 
HETATM   16  C   UNK     0       0.655   0.384  14.446  0.00  0.00     0.088 A 
HETATM   17  N   UNK     0      -0.213   1.286  14.968  0.00  0.00    -0.375 N 
HETATM   18  C   UNK     0      -0.894   2.170  14.194  0.00  0.00     0.088 A 
HETATM   19  HN  UNK     0      -0.360   1.302  15.977  1.00  0.00     0.164 HD
HETATM   20  C   UNK     0      -0.701   2.176  12.799  0.00  0.00     0.029 A 
ENDBRANCH  13  14
BRANCH  11  21
HETATM   21  N   UNK     0       2.781   2.840   8.407  0.00  0.00    -0.327 N 
HETATM   22  C   UNK     0       2.957   3.400   7.173  0.00  0.00     0.223 C 
HETATM   23  O   UNK     0       2.048   3.420   6.308  0.00  0.00    -0.273 OA
HETATM   24  H   UNK     0       3.487   3.010   9.052  0.00  0.00     0.169 HD
BRANCH  22  25
HETATM   25  C   UNK     0       4.257   4.021   6.838  0.00  0.00     0.118 C 
BRANCH  25  26
HETATM   26  C   UNK     0       4.333   4.397   5.338  0.00  0.00     0.124 C 
HETATM   27 Cl   UNK     0       5.265   5.870   5.096  0.00  0.00    -0.130 Cl
ENDBRANCH  25  26
ENDBRANCH  22  25
ENDBRANCH  11  21
TORSDOF 4
ENDMDL
MODEL 7
REMARK VINA RESULT:      -7.1      3.625      5.370
REMARK  4 active torsions:
REMARK  status: ('A' for Active; 'I' for Inactive)
REMARK    1  A    between atoms: C_11  and  N_14 
REMARK    2  A    between atoms: C_13  and  C_21 
REMARK       I    between atoms: N_14  and  C_15 
REMARK    3  A    between atoms: C_15  and  C_16 
REMARK    4  A    between atoms: C_16  and  C_17 
ROOT
HETATM    1  C   UNK     0      -5.972  -4.367   7.095  0.00  0.00     0.008 A 
HETATM    2  C   UNK     0      -5.850  -4.639   5.716  0.00  0.00     0.001 A 
HETATM    3  C   UNK     0      -4.821  -4.041   4.958  0.00  0.00     0.001 A 
HETATM    4  C   UNK     0      -3.910  -3.156   5.567  0.00  0.00     0.013 A 
HETATM    5  C   UNK     0      -4.046  -2.887   6.944  0.00  0.00    -0.019 A 
HETATM    6  C   UNK     0      -5.057  -3.484   7.701  0.00  0.00    -0.043 A 
HETATM    7  C   UNK     0      -3.303  -2.071   7.790  0.00  0.00    -0.016 A 
HETATM    8  C   UNK     0      -3.839  -2.137   9.081  0.00  0.00    -0.032 A 
HETATM    9  C   UNK     0      -5.000  -3.058   9.109  0.00  0.00     0.080 A 
HETATM   10  C   UNK     0      -2.171  -1.288   7.504  0.00  0.00     0.042 A 
HETATM   11  C   UNK     0      -1.556  -0.548   8.541  0.00  0.00     0.036 A 
HETATM   12  C   UNK     0      -2.095  -0.623   9.849  0.00  0.00     0.042 A 
HETATM   13  C   UNK     0      -3.246  -1.404  10.144  0.00  0.00    -0.016 A 
ENDROOT
BRANCH  13  14
HETATM   14  C   UNK     0      -3.763  -1.445  11.468  0.00  0.00    -0.023 A 
HETATM   15  C   UNK     0      -3.266  -2.371  12.417  0.00  0.00     0.029 A 
HETATM   16  C   UNK     0      -3.777  -2.372  13.727  0.00  0.00     0.088 A 
HETATM   17  N   UNK     0      -4.758  -1.502  14.072  0.00  0.00    -0.375 N 
HETATM   18  C   UNK     0      -5.283  -0.613  13.190  0.00  0.00     0.088 A 
HETATM   19  HN  UNK     0      -5.115  -1.515  15.027  1.00  0.00     0.164 HD
HETATM   20  C   UNK     0      -4.799  -0.566  11.868  0.00  0.00     0.029 A 
ENDBRANCH  13  14
BRANCH  11  21
HETATM   21  N   UNK     0      -0.420   0.196   8.352  0.00  0.00    -0.327 N 
HETATM   22  C   UNK     0       0.215   0.491   7.178  0.00  0.00     0.223 C 
HETATM   23  O   UNK     0      -0.287   0.230   6.058  0.00  0.00    -0.273 OA
HETATM   24  H   UNK     0      -0.021   0.572   9.153  0.00  0.00     0.169 HD
BRANCH  22  25
HETATM   25  C   UNK     0       1.536   1.155   7.216  0.00  0.00     0.118 C 
BRANCH  25  26
HETATM   26  C   UNK     0       1.717   1.978   8.515  0.00  0.00     0.124 C 
HETATM   27 Cl   UNK     0       2.919   1.245   9.571  0.00  0.00    -0.130 Cl
ENDBRANCH  25  26
ENDBRANCH  22  25
ENDBRANCH  11  21
TORSDOF 4
ENDMDL
MODEL 8
REMARK VINA RESULT:      -7.1      3.674      6.716
REMARK  4 active torsions:
REMARK  status: ('A' for Active; 'I' for Inactive)
REMARK    1  A    between atoms: C_11  and  N_14 
REMARK    2  A    between atoms: C_13  and  C_21 
REMARK       I    between atoms: N_14  and  C_15 
REMARK    3  A    between atoms: C_15  and  C_16 
REMARK    4  A    between atoms: C_16  and  C_17 
ROOT
HETATM    1  C   UNK     0       0.705   3.735  13.530  0.00  0.00     0.008 A 
HETATM    2  C   UNK     0      -0.262   3.325  14.472  0.00  0.00     0.001 A 
HETATM    3  C   UNK     0      -1.177   2.298  14.156  0.00  0.00     0.001 A 
HETATM    4  C   UNK     0      -1.143   1.678  12.890  0.00  0.00     0.013 A 
HETATM    5  C   UNK     0      -0.176   2.101  11.957  0.00  0.00    -0.019 A 
HETATM    6  C   UNK     0       0.738   3.111  12.268  0.00  0.00    -0.043 A 
HETATM    7  C   UNK     0       0.084   1.674  10.659  0.00  0.00    -0.016 A 
HETATM    8  C   UNK     0       1.153   2.411  10.137  0.00  0.00    -0.032 A 
HETATM    9  C   UNK     0       1.649   3.379  11.143  0.00  0.00     0.080 A 
HETATM   10  C   UNK     0      -0.546   0.665   9.911  0.00  0.00     0.042 A 
HETATM   11  C   UNK     0      -0.093   0.382   8.601  0.00  0.00     0.036 A 
HETATM   12  C   UNK     0       0.996   1.123   8.078  0.00  0.00     0.042 A 
HETATM   13  C   UNK     0       1.631   2.153   8.824  0.00  0.00    -0.016 A 
ENDROOT
BRANCH  13  14
HETATM   14  C   UNK     0       2.714   2.882   8.259  0.00  0.00    -0.023 A 
HETATM   15  C   UNK     0       2.639   3.396   6.941  0.00  0.00     0.029 A 
HETATM   16  C   UNK     0       3.714   4.134   6.418  0.00  0.00     0.088 A 
HETATM   17  N   UNK     0       4.827   4.335   7.167  0.00  0.00    -0.375 N 
HETATM   18  C   UNK     0       4.954   3.841   8.425  0.00  0.00     0.088 A 
HETATM   19  HN  UNK     0       5.596   4.876   6.771  1.00  0.00     0.164 HD
HETATM   20  C   UNK     0       3.901   3.101   8.998  0.00  0.00     0.029 A 
ENDBRANCH  13  14
BRANCH  11  21
HETATM   21  N   UNK     0      -0.621  -0.622   7.831  0.00  0.00    -0.327 N 
HETATM   22  C   UNK     0      -1.427  -0.513   6.732  0.00  0.00     0.223 C 
HETATM   23  O   UNK     0      -1.661   0.586   6.176  0.00  0.00    -0.273 OA
HETATM   24  H   UNK     0      -0.382  -1.527   8.091  0.00  0.00     0.169 HD
BRANCH  22  25
HETATM   25  C   UNK     0      -2.039  -1.732   6.160  0.00  0.00     0.118 C 
BRANCH  25  26
HETATM   26  C   UNK     0      -3.167  -2.278   7.069  0.00  0.00     0.124 C 
HETATM   27 Cl   UNK     0      -3.815  -3.789   6.442  0.00  0.00    -0.130 Cl
ENDBRANCH  25  26
ENDBRANCH  22  25
ENDBRANCH  11  21
TORSDOF 4
ENDMDL
MODEL 9
REMARK VINA RESULT:      -6.9      3.219      6.498
REMARK  4 active torsions:
REMARK  status: ('A' for Active; 'I' for Inactive)
REMARK    1  A    between atoms: C_11  and  N_14 
REMARK    2  A    between atoms: C_13  and  C_21 
REMARK       I    between atoms: N_14  and  C_15 
REMARK    3  A    between atoms: C_15  and  C_16 
REMARK    4  A    between atoms: C_16  and  C_17 
ROOT
HETATM    1  C   UNK     0       5.717   5.002   7.912  0.00  0.00     0.008 A 
HETATM    2  C   UNK     0       5.796   5.373   6.554  0.00  0.00     0.001 A 
HETATM    3  C   UNK     0       4.879   4.853   5.616  0.00  0.00     0.001 A 
HETATM    4  C   UNK     0       3.880   3.946   6.024  0.00  0.00     0.013 A 
HETATM    5  C   UNK     0       3.816   3.578   7.382  0.00  0.00    -0.019 A 
HETATM    6  C   UNK     0       4.715   4.098   8.316  0.00  0.00    -0.043 A 
HETATM    7  C   UNK     0       2.950   2.720   8.053  0.00  0.00    -0.016 A 
HETATM    8  C   UNK     0       3.297   2.683   9.409  0.00  0.00    -0.032 A 
HETATM    9  C   UNK     0       4.453   3.575   9.668  0.00  0.00     0.080 A 
HETATM   10  C   UNK     0       1.863   1.984   7.554  0.00  0.00     0.042 A 
HETATM   11  C   UNK     0       1.097   1.185   8.436  0.00  0.00     0.036 A 
HETATM   12  C   UNK     0       1.445   1.157   9.809  0.00  0.00     0.042 A 
HETATM   13  C   UNK     0       2.551   1.890  10.321  0.00  0.00    -0.016 A 
ENDROOT
BRANCH  13  14
HETATM   14  C   UNK     0       2.874   1.826  11.704  0.00  0.00    -0.023 A 
HETATM   15  C   UNK     0       2.226   2.664  12.644  0.00  0.00     0.029 A 
HETATM   16  C   UNK     0       2.546   2.561  14.009  0.00  0.00     0.088 A 
HETATM   17  N   UNK     0       3.489   1.677  14.419  0.00  0.00    -0.375 N 
HETATM   18  C   UNK     0       4.154   0.871  13.552  0.00  0.00     0.088 A 
HETATM   19  HN  UNK     0       3.706   1.614  15.414  1.00  0.00     0.164 HD
HETATM   20  C   UNK     0       3.864   0.929  12.175  0.00  0.00     0.029 A 
ENDBRANCH  13  14
BRANCH  11  21
HETATM   21  N   UNK     0      -0.008   0.481   8.034  0.00  0.00    -0.327 N 
HETATM   22  C   UNK     0      -1.007  -0.043   8.806  0.00  0.00     0.223 C 
HETATM   23  O   UNK     0      -1.114   0.212  10.030  0.00  0.00    -0.273 OA
HETATM   24  H   UNK     0      -0.101   0.348   7.077  0.00  0.00     0.169 HD
BRANCH  22  25
HETATM   25  C   UNK     0      -2.013  -0.931   8.185  0.00  0.00     0.118 C 
BRANCH  25  26
HETATM   26  C   UNK     0      -1.932  -0.880   6.639  0.00  0.00     0.124 C 
HETATM   27 Cl   UNK     0      -2.529  -2.371   5.920  0.00  0.00    -0.130 Cl
ENDBRANCH  25  26
ENDBRANCH  22  25
ENDBRANCH  11  21
TORSDOF 4
ENDMDL
