MODEL 1
REMARK VINA RESULT:      -8.0      0.000      0.000
REMARK  4 active torsions:
REMARK  status: ('A' for Active; 'I' for Inactive)
REMARK    1  A    between atoms: C_11  and  N_19 
REMARK    2  A    between atoms: C_13  and  C_14 
REMARK       I    between atoms: N_19  and  C_21 
REMARK    3  A    between atoms: C_21  and  C_22 
REMARK    4  A    between atoms: C_22  and  C_23 
ROOT
HETATM    1  C   UNK     0      -3.214  -2.263   8.548  0.00  0.00     0.008 A 
HETATM    2  C   UNK     0      -3.682  -2.861   7.360  0.00  0.00     0.001 A 
HETATM    3  C   UNK     0      -3.111  -2.515   6.116  0.00  0.00     0.001 A 
HETATM    4  C   UNK     0      -2.063  -1.574   6.048  0.00  0.00     0.013 A 
HETATM    5  C   UNK     0      -1.598  -0.993   7.244  0.00  0.00    -0.019 A 
HETATM    6  C   UNK     0      -2.172  -1.322   8.472  0.00  0.00    -0.043 A 
HETATM    7  C   UNK     0      -0.579  -0.079   7.478  0.00  0.00    -0.016 A 
HETATM    8  C   UNK     0      -0.512   0.196   8.852  0.00  0.00    -0.031 A 
HETATM    9  C   UNK     0      -1.554  -0.571   9.572  0.00  0.00     0.080 A 
HETATM   10  C   UNK     0       0.309   0.509   6.563  0.00  0.00     0.042 A 
HETATM   11  C   UNK     0       1.295   1.403   7.036  0.00  0.00     0.036 A 
HETATM   12  C   UNK     0       1.375   1.654   8.428  0.00  0.00     0.043 A 
HETATM   13  C   UNK     0       0.480   1.072   9.366  0.00  0.00    -0.009 A 
ENDROOT
BRANCH  13  14
HETATM   14  C   UNK     0       0.619   1.378  10.753  0.00  0.00     0.015 A 
HETATM   15  C   UNK     0       0.260   2.548  11.446  0.00  0.00     0.020 A 
HETATM   16  C   UNK     0       0.534   2.568  12.824  0.00  0.00     0.008 A 
HETATM   17  C   UNK     0       1.150   1.420  13.320  0.00  0.00     0.050 A 
HETATM   18  S   UNK     0       1.342   0.328  11.965  0.00  0.00    -0.101 SA
ENDBRANCH  13  14
BRANCH  11  19
HETATM   19  N   UNK     0       2.208   2.042   6.241  0.00  0.00    -0.327 N 
HETATM   20  C   UNK     0       2.820   3.248   6.438  0.00  0.00     0.223 C 
HETATM   21  O   UNK     0       2.627   3.950   7.459  0.00  0.00    -0.273 OA
HETATM   22  H   UNK     0       2.489   1.555   5.450  0.00  0.00     0.169 HD
BRANCH  20  23
HETATM   23  C   UNK     0       3.791   3.739   5.438  0.00  0.00     0.118 C 
BRANCH  23  24
HETATM   24  C   UNK     0       4.927   4.558   6.092  0.00  0.00     0.124 C 
HETATM   25 Cl   UNK     0       5.388   5.911   5.062  0.00  0.00    -0.130 Cl
ENDBRANCH  23  24
ENDBRANCH  20  23
ENDBRANCH  11  19
TORSDOF 4
ENDMDL
MODEL 2
REMARK VINA RESULT:      -7.8      3.339      7.334
REMARK  4 active torsions:
REMARK  status: ('A' for Active; 'I' for Inactive)
REMARK    1  A    between atoms: C_11  and  N_19 
REMARK    2  A    between atoms: C_13  and  C_14 
REMARK       I    between atoms: N_19  and  C_21 
REMARK    3  A    between atoms: C_21  and  C_22 
REMARK    4  A    between atoms: C_22  and  C_23 
ROOT
HETATM    1  C   UNK     0       6.576   5.873   6.850  0.00  0.00     0.008 A 
HETATM    2  C   UNK     0       6.490   6.497   5.589  0.00  0.00     0.001 A 
HETATM    3  C   UNK     0       5.430   6.186   4.710  0.00  0.00     0.001 A 
HETATM    4  C   UNK     0       4.441   5.253   5.086  0.00  0.00     0.013 A 
HETATM    5  C   UNK     0       4.533   4.645   6.354  0.00  0.00    -0.019 A 
HETATM    6  C   UNK     0       5.589   4.940   7.216  0.00  0.00    -0.043 A 
HETATM    7  C   UNK     0       3.703   3.731   6.989  0.00  0.00    -0.016 A 
HETATM    8  C   UNK     0       4.236   3.423   8.250  0.00  0.00    -0.031 A 
HETATM    9  C   UNK     0       5.499   4.166   8.460  0.00  0.00     0.080 A 
HETATM   10  C   UNK     0       2.497   3.172   6.540  0.00  0.00     0.042 A 
HETATM   11  C   UNK     0       1.800   2.272   7.378  0.00  0.00     0.036 A 
HETATM   12  C   UNK     0       2.329   1.987   8.660  0.00  0.00     0.043 A 
HETATM   13  C   UNK     0       3.552   2.541   9.127  0.00  0.00    -0.009 A 
ENDROOT
BRANCH  13  14
HETATM   14  C   UNK     0       4.025   2.201  10.430  0.00  0.00     0.015 A 
HETATM   15  C   UNK     0       3.570   2.645  11.685  0.00  0.00     0.020 A 
HETATM   16  C   UNK     0       4.246   2.142  12.809  0.00  0.00     0.008 A 
HETATM   17  C   UNK     0       5.302   1.279  12.526  0.00  0.00     0.050 A 
HETATM   18  S   UNK     0       5.375   1.130  10.783  0.00  0.00    -0.101 SA
ENDBRANCH  13  14
BRANCH  11  19
HETATM   19  N   UNK     0       0.622   1.658   7.047  0.00  0.00    -0.327 N 
HETATM   20  C   UNK     0       0.396   0.347   6.737  0.00  0.00     0.223 C 
HETATM   21  O   UNK     0       1.302  -0.520   6.749  0.00  0.00    -0.273 OA
HETATM   22  H   UNK     0      -0.167   2.223   7.074  0.00  0.00     0.169 HD
BRANCH  20  23
HETATM   23  C   UNK     0      -0.977  -0.096   6.419  0.00  0.00     0.118 C 
BRANCH  23  24
HETATM   24  C   UNK     0      -1.833  -0.278   7.692  0.00  0.00     0.124 C 
HETATM   25 Cl   UNK     0      -2.539  -1.891   7.741  0.00  0.00    -0.130 Cl
ENDBRANCH  23  24
ENDBRANCH  20  23
ENDBRANCH  11  19
TORSDOF 4
ENDMDL
MODEL 3
REMARK VINA RESULT:      -7.6      3.622      5.702
REMARK  4 active torsions:
REMARK  status: ('A' for Active; 'I' for Inactive)
REMARK    1  A    between atoms: C_11  and  N_19 
REMARK    2  A    between atoms: C_13  and  C_14 
REMARK       I    between atoms: N_19  and  C_21 
REMARK    3  A    between atoms: C_21  and  C_22 
REMARK    4  A    between atoms: C_22  and  C_23 
ROOT
HETATM    1  C   UNK     0      -7.048  -5.212   6.366  0.00  0.00     0.008 A 
HETATM    2  C   UNK     0      -6.744  -5.758   5.102  0.00  0.00     0.001 A 
HETATM    3  C   UNK     0      -5.561  -5.382   4.429  0.00  0.00     0.001 A 
HETATM    4  C   UNK     0      -4.667  -4.462   5.015  0.00  0.00     0.013 A 
HETATM    5  C   UNK     0      -4.978  -3.933   6.283  0.00  0.00    -0.019 A 
HETATM    6  C   UNK     0      -6.154  -4.291   6.942  0.00  0.00    -0.043 A 
HETATM    7  C   UNK     0      -4.283  -3.049   7.098  0.00  0.00    -0.016 A 
HETATM    8  C   UNK     0      -5.021  -2.824   8.269  0.00  0.00    -0.031 A 
HETATM    9  C   UNK     0      -6.285  -3.593   8.226  0.00  0.00     0.080 A 
HETATM   10  C   UNK     0      -3.032  -2.449   6.886  0.00  0.00     0.042 A 
HETATM   11  C   UNK     0      -2.501  -1.593   7.876  0.00  0.00     0.036 A 
HETATM   12  C   UNK     0      -3.238  -1.392   9.069  0.00  0.00     0.043 A 
HETATM   13  C   UNK     0      -4.509  -1.987   9.296  0.00  0.00    -0.009 A 
ENDROOT
BRANCH  13  14
HETATM   14  C   UNK     0      -5.195  -1.733  10.521  0.00  0.00     0.015 A 
HETATM   15  C   UNK     0      -6.396  -1.036  10.740  0.00  0.00     0.020 A 
HETATM   16  C   UNK     0      -6.827  -0.933  12.073  0.00  0.00     0.008 A 
HETATM   17  C   UNK     0      -5.985  -1.524  13.012  0.00  0.00     0.050 A 
HETATM   18  S   UNK     0      -4.649  -2.220  12.121  0.00  0.00    -0.101 SA
ENDBRANCH  13  14
BRANCH  11  19
HETATM   19  N   UNK     0      -1.298  -0.946   7.780  0.00  0.00    -0.327 N 
HETATM   20  C   UNK     0      -0.755  -0.303   6.704  0.00  0.00     0.223 C 
HETATM   21  O   UNK     0      -1.350  -0.193   5.606  0.00  0.00    -0.273 OA
HETATM   22  H   UNK     0      -0.777  -0.906   8.598  0.00  0.00     0.169 HD
BRANCH  20  23
HETATM   23  C   UNK     0       0.569   0.340   6.837  0.00  0.00     0.118 C 
BRANCH  23  24
HETATM   24  C   UNK     0       0.863   0.758   8.295  0.00  0.00     0.124 C 
HETATM   25 Cl   UNK     0       2.272   1.813   8.367  0.00  0.00    -0.130 Cl
ENDBRANCH  23  24
ENDBRANCH  20  23
ENDBRANCH  11  19
TORSDOF 4
ENDMDL
MODEL 4
REMARK VINA RESULT:      -7.2      4.444      6.862
REMARK  4 active torsions:
REMARK  status: ('A' for Active; 'I' for Inactive)
REMARK    1  A    between atoms: C_11  and  N_19 
REMARK    2  A    between atoms: C_13  and  C_14 
REMARK       I    between atoms: N_19  and  C_21 
REMARK    3  A    between atoms: C_21  and  C_22 
REMARK    4  A    between atoms: C_22  and  C_23 
ROOT
HETATM    1  C   UNK     0       2.114   2.229   8.893  0.00  0.00     0.008 A 
HETATM    2  C   UNK     0       2.514   2.684   7.619  0.00  0.00     0.001 A 
HETATM    3  C   UNK     0       1.876   2.199   6.457  0.00  0.00     0.001 A 
HETATM    4  C   UNK     0       0.828   1.260   6.556  0.00  0.00     0.013 A 
HETATM    5  C   UNK     0       0.432   0.822   7.835  0.00  0.00    -0.019 A 
HETATM    6  C   UNK     0       1.072   1.288   8.984  0.00  0.00    -0.043 A 
HETATM    7  C   UNK     0      -0.569  -0.056   8.229  0.00  0.00    -0.016 A 
HETATM    8  C   UNK     0      -0.559  -0.170   9.627  0.00  0.00    -0.031 A 
HETATM    9  C   UNK     0       0.519   0.672  10.195  0.00  0.00     0.080 A 
HETATM   10  C   UNK     0      -1.505  -0.741   7.439  0.00  0.00     0.042 A 
HETATM   11  C   UNK     0      -2.460  -1.572   8.066  0.00  0.00     0.036 A 
HETATM   12  C   UNK     0      -2.462  -1.661   9.479  0.00  0.00     0.043 A 
HETATM   13  C   UNK     0      -1.518  -0.977  10.293  0.00  0.00    -0.009 A 
ENDROOT
BRANCH  13  14
HETATM   14  C   UNK     0      -1.579  -1.121  11.712  0.00  0.00     0.015 A 
HETATM   15  C   UNK     0      -2.051  -0.215  12.678  0.00  0.00     0.020 A 
HETATM   16  C   UNK     0      -1.974  -0.632  14.018  0.00  0.00     0.008 A 
HETATM   17  C   UNK     0      -1.413  -1.892  14.212  0.00  0.00     0.050 A 
HETATM   18  S   UNK     0      -1.014  -2.515  12.625  0.00  0.00    -0.101 SA
ENDBRANCH  13  14
BRANCH  11  19
HETATM   19  N   UNK     0      -3.415  -2.296   7.402  0.00  0.00    -0.327 N 
HETATM   20  C   UNK     0      -3.352  -2.860   6.160  0.00  0.00     0.223 C 
HETATM   21  O   UNK     0      -2.328  -2.806   5.439  0.00  0.00    -0.273 OA
HETATM   22  H   UNK     0      -4.233  -2.463   7.897  0.00  0.00     0.169 HD
BRANCH  20  23
HETATM   23  C   UNK     0      -4.516  -3.614   5.648  0.00  0.00     0.118 C 
BRANCH  23  24
HETATM   24  C   UNK     0      -5.530  -3.938   6.767  0.00  0.00     0.124 C 
HETATM   25 Cl   UNK     0      -6.968  -4.705   6.098  0.00  0.00    -0.130 Cl
ENDBRANCH  23  24
ENDBRANCH  20  23
ENDBRANCH  11  19
TORSDOF 4
ENDMDL
MODEL 5
REMARK VINA RESULT:      -7.1      5.256      7.692
REMARK  4 active torsions:
REMARK  status: ('A' for Active; 'I' for Inactive)
REMARK    1  A    between atoms: C_11  and  N_19 
REMARK    2  A    between atoms: C_13  and  C_14 
REMARK       I    between atoms: N_19  and  C_21 
REMARK    3  A    between atoms: C_21  and  C_22 
REMARK    4  A    between atoms: C_22  and  C_23 
ROOT
HETATM    1  C   UNK     0       0.600   1.045   9.171  0.00  0.00     0.008 A 
HETATM    2  C   UNK     0       1.279   1.267   7.955  0.00  0.00     0.001 A 
HETATM    3  C   UNK     0       0.833   0.649   6.767  0.00  0.00     0.001 A 
HETATM    4  C   UNK     0      -0.299  -0.192   6.780  0.00  0.00     0.013 A 
HETATM    5  C   UNK     0      -0.975  -0.396   7.999  0.00  0.00    -0.019 A 
HETATM    6  C   UNK     0      -0.526   0.202   9.177  0.00  0.00    -0.043 A 
HETATM    7  C   UNK     0      -2.113  -1.133   8.299  0.00  0.00    -0.016 A 
HETATM    8  C   UNK     0      -2.383  -1.026   9.671  0.00  0.00    -0.031 A 
HETATM    9  C   UNK     0      -1.359  -0.179  10.324  0.00  0.00     0.080 A 
HETATM   10  C   UNK     0      -2.940  -1.871   7.438  0.00  0.00     0.042 A 
HETATM   11  C   UNK     0      -4.074  -2.528   7.967  0.00  0.00     0.036 A 
HETATM   12  C   UNK     0      -4.357  -2.393   9.348  0.00  0.00     0.043 A 
HETATM   13  C   UNK     0      -3.526  -1.654  10.233  0.00  0.00    -0.009 A 
ENDROOT
BRANCH  13  14
HETATM   14  C   UNK     0      -3.873  -1.568  11.615  0.00  0.00     0.015 A 
HETATM   15  C   UNK     0      -3.139  -1.975  12.744  0.00  0.00     0.020 A 
HETATM   16  C   UNK     0      -3.749  -1.774  13.993  0.00  0.00     0.008 A 
HETATM   17  C   UNK     0      -5.023  -1.212  13.944  0.00  0.00     0.050 A 
HETATM   18  S   UNK     0      -5.388  -0.942  12.253  0.00  0.00    -0.101 SA
ENDBRANCH  13  14
BRANCH  11  19
HETATM   19  N   UNK     0      -4.947  -3.282   7.230  0.00  0.00    -0.327 N 
HETATM   20  C   UNK     0      -4.727  -3.948   6.058  0.00  0.00     0.223 C 
HETATM   21  O   UNK     0      -3.609  -3.976   5.491  0.00  0.00    -0.273 OA
HETATM   22  H   UNK     0      -5.833  -3.390   7.612  0.00  0.00     0.169 HD
BRANCH  20  23
HETATM   23  C   UNK     0      -5.830  -4.715   5.443  0.00  0.00     0.118 C 
BRANCH  23  24
HETATM   24  C   UNK     0      -5.366  -5.483   4.185  0.00  0.00     0.124 C 
HETATM   25 Cl   UNK     0      -6.578  -6.665   3.696  0.00  0.00    -0.130 Cl
ENDBRANCH  23  24
ENDBRANCH  20  23
ENDBRANCH  11  19
TORSDOF 4
ENDMDL
MODEL 6
REMARK VINA RESULT:      -7.0      4.472      7.083
REMARK  4 active torsions:
REMARK  status: ('A' for Active; 'I' for Inactive)
REMARK    1  A    between atoms: C_11  and  N_19 
REMARK    2  A    between atoms: C_13  and  C_14 
REMARK       I    between atoms: N_19  and  C_21 
REMARK    3  A    between atoms: C_21  and  C_22 
REMARK    4  A    between atoms: C_22  and  C_23 
ROOT
HETATM    1  C   UNK     0       2.708   1.802   8.809  0.00  0.00     0.008 A 
HETATM    2  C   UNK     0       1.664   1.239   8.047  0.00  0.00     0.001 A 
HETATM    3  C   UNK     0       1.411   1.698   6.736  0.00  0.00     0.001 A 
HETATM    4  C   UNK     0       2.205   2.717   6.170  0.00  0.00     0.013 A 
HETATM    5  C   UNK     0       3.252   3.262   6.938  0.00  0.00    -0.019 A 
HETATM    6  C   UNK     0       3.492   2.822   8.240  0.00  0.00    -0.043 A 
HETATM    7  C   UNK     0       4.194   4.236   6.635  0.00  0.00    -0.016 A 
HETATM    8  C   UNK     0       5.026   4.436   7.747  0.00  0.00    -0.031 A 
HETATM    9  C   UNK     0       4.605   3.553   8.858  0.00  0.00     0.080 A 
HETATM   10  C   UNK     0       4.383   4.940   5.435  0.00  0.00     0.042 A 
HETATM   11  C   UNK     0       5.436   5.878   5.344  0.00  0.00     0.036 A 
HETATM   12  C   UNK     0       6.289   6.054   6.461  0.00  0.00     0.043 A 
HETATM   13  C   UNK     0       6.108   5.353   7.684  0.00  0.00    -0.009 A 
ENDROOT
BRANCH  13  14
HETATM   14  C   UNK     0       7.005   5.589   8.769  0.00  0.00     0.015 A 
HETATM   15  C   UNK     0       8.299   5.082   8.979  0.00  0.00     0.020 A 
HETATM   16  C   UNK     0       8.946   5.484  10.159  0.00  0.00     0.008 A 
HETATM   17  C   UNK     0       8.201   6.325  10.983  0.00  0.00     0.050 A 
HETATM   18  S   UNK     0       6.667   6.585  10.179  0.00  0.00    -0.101 SA
ENDBRANCH  13  14
BRANCH  11  19
HETATM   19  N   UNK     0       5.713   6.629   4.233  0.00  0.00    -0.327 N 
HETATM   20  C   UNK     0       6.851   7.318   3.927  0.00  0.00     0.223 C 
HETATM   21  O   UNK     0       7.865   7.321   4.666  0.00  0.00    -0.273 OA
HETATM   22  H   UNK     0       5.021   6.642   3.553  0.00  0.00     0.169 HD
BRANCH  20  23
HETATM   23  C   UNK     0       6.929   8.059   2.650  0.00  0.00     0.118 C 
BRANCH  23  24
HETATM   24  C   UNK     0       8.386   8.409   2.275  0.00  0.00     0.124 C 
HETATM   25 Cl   UNK     0       8.491  10.060   1.668  0.00  0.00    -0.130 Cl
ENDBRANCH  23  24
ENDBRANCH  20  23
ENDBRANCH  11  19
TORSDOF 4
ENDMDL
MODEL 7
REMARK VINA RESULT:      -7.0      4.555      6.881
REMARK  4 active torsions:
REMARK  status: ('A' for Active; 'I' for Inactive)
REMARK    1  A    between atoms: C_11  and  N_19 
REMARK    2  A    between atoms: C_13  and  C_14 
REMARK       I    between atoms: N_19  and  C_21 
REMARK    3  A    between atoms: C_21  and  C_22 
REMARK    4  A    between atoms: C_22  and  C_23 
ROOT
HETATM    1  C   UNK     0      -4.300  -3.938   5.082  0.00  0.00     0.008 A 
HETATM    2  C   UNK     0      -5.491  -4.692   5.106  0.00  0.00     0.001 A 
HETATM    3  C   UNK     0      -6.326  -4.669   6.245  0.00  0.00     0.001 A 
HETATM    4  C   UNK     0      -5.982  -3.887   7.368  0.00  0.00     0.013 A 
HETATM    5  C   UNK     0      -4.794  -3.131   7.325  0.00  0.00    -0.019 A 
HETATM    6  C   UNK     0      -3.960  -3.166   6.207  0.00  0.00    -0.043 A 
HETATM    7  C   UNK     0      -4.231  -2.265   8.253  0.00  0.00    -0.016 A 
HETATM    8  C   UNK     0      -3.027  -1.760   7.741  0.00  0.00    -0.031 A 
HETATM    9  C   UNK     0      -2.768  -2.332   6.400  0.00  0.00     0.080 A 
HETATM   10  C   UNK     0      -4.722  -1.874   9.509  0.00  0.00     0.042 A 
HETATM   11  C   UNK     0      -3.983  -0.949  10.281  0.00  0.00     0.036 A 
HETATM   12  C   UNK     0      -2.783  -0.421   9.745  0.00  0.00     0.043 A 
HETATM   13  C   UNK     0      -2.269  -0.812   8.478  0.00  0.00    -0.009 A 
ENDROOT
BRANCH  13  14
HETATM   14  C   UNK     0      -1.049  -0.240   8.009  0.00  0.00     0.015 A 
HETATM   15  C   UNK     0      -0.546  -0.170   6.697  0.00  0.00     0.020 A 
HETATM   16  C   UNK     0       0.706   0.448   6.539  0.00  0.00     0.008 A 
HETATM   17  C   UNK     0       1.297   0.894   7.719  0.00  0.00     0.050 A 
HETATM   18  S   UNK     0       0.185   0.507   9.015  0.00  0.00    -0.101 SA
ENDBRANCH  13  14
BRANCH  11  19
HETATM   19  N   UNK     0      -4.355  -0.500  11.519  0.00  0.00    -0.327 N 
HETATM   20  C   UNK     0      -3.989  -0.972  12.747  0.00  0.00     0.223 C 
HETATM   21  O   UNK     0      -3.185  -1.923  12.898  0.00  0.00    -0.273 OA
HETATM   22  H   UNK     0      -4.926   0.285  11.526  0.00  0.00     0.169 HD
BRANCH  20  23
HETATM   23  C   UNK     0      -4.513  -0.315  13.962  0.00  0.00     0.118 C 
BRANCH  23  24
HETATM   24  C   UNK     0      -4.216   1.201  13.971  0.00  0.00     0.124 C 
HETATM   25 Cl   UNK     0      -2.488   1.496  13.796  0.00  0.00    -0.130 Cl
ENDBRANCH  23  24
ENDBRANCH  20  23
ENDBRANCH  11  19
TORSDOF 4
ENDMDL
MODEL 8
REMARK VINA RESULT:      -6.9      3.491      7.310
REMARK  4 active torsions:
REMARK  status: ('A' for Active; 'I' for Inactive)
REMARK    1  A    between atoms: C_11  and  N_19 
REMARK    2  A    between atoms: C_13  and  C_14 
REMARK       I    between atoms: N_19  and  C_21 
REMARK    3  A    between atoms: C_21  and  C_22 
REMARK    4  A    between atoms: C_22  and  C_23 
ROOT
HETATM    1  C   UNK     0       3.581   3.845   5.703  0.00  0.00     0.008 A 
HETATM    2  C   UNK     0       4.731   4.630   5.926  0.00  0.00     0.001 A 
HETATM    3  C   UNK     0       5.304   4.705   7.214  0.00  0.00     0.001 A 
HETATM    4  C   UNK     0       4.737   3.991   8.290  0.00  0.00     0.013 A 
HETATM    5  C   UNK     0       3.595   3.202   8.051  0.00  0.00    -0.019 A 
HETATM    6  C   UNK     0       3.018   3.140   6.782  0.00  0.00    -0.043 A 
HETATM    7  C   UNK     0       2.857   2.384   8.897  0.00  0.00    -0.016 A 
HETATM    8  C   UNK     0       1.796   1.814   8.178  0.00  0.00    -0.031 A 
HETATM    9  C   UNK     0       1.822   2.289   6.776  0.00  0.00     0.080 A 
HETATM   10  C   UNK     0       3.074   2.090  10.252  0.00  0.00     0.042 A 
HETATM   11  C   UNK     0       2.199   1.199  10.913  0.00  0.00     0.036 A 
HETATM   12  C   UNK     0       1.147   0.605  10.174  0.00  0.00     0.043 A 
HETATM   13  C   UNK     0       0.911   0.897   8.803  0.00  0.00    -0.009 A 
ENDROOT
BRANCH  13  14
HETATM   14  C   UNK     0      -0.175   0.264   8.127  0.00  0.00     0.015 A 
HETATM   15  C   UNK     0      -0.401   0.122   6.746  0.00  0.00     0.020 A 
HETATM   16  C   UNK     0      -1.579  -0.547   6.370  0.00  0.00     0.008 A 
HETATM   17  C   UNK     0      -2.383  -0.965   7.429  0.00  0.00     0.050 A 
HETATM   18  S   UNK     0      -1.565  -0.486   8.901  0.00  0.00    -0.101 SA
ENDBRANCH  13  14
BRANCH  11  19
HETATM   19  N   UNK     0       2.304   0.843  12.231  0.00  0.00    -0.327 N 
HETATM   20  C   UNK     0       1.787   1.467  13.330  0.00  0.00     0.223 C 
HETATM   21  O   UNK     0       1.077   2.498  13.256  0.00  0.00    -0.273 OA
HETATM   22  H   UNK     0       2.777   0.013  12.404  0.00  0.00     0.169 HD
BRANCH  20  23
HETATM   23  C   UNK     0       2.023   0.888  14.669  0.00  0.00     0.118 C 
BRANCH  23  24
HETATM   24  C   UNK     0       1.658  -0.613  14.721  0.00  0.00     0.124 C 
HETATM   25 Cl   UNK     0      -0.038  -0.854  14.311  0.00  0.00    -0.130 Cl
ENDBRANCH  23  24
ENDBRANCH  20  23
ENDBRANCH  11  19
TORSDOF 4
ENDMDL
MODEL 9
REMARK VINA RESULT:      -6.7      4.286      7.550
REMARK  4 active torsions:
REMARK  status: ('A' for Active; 'I' for Inactive)
REMARK    1  A    between atoms: C_11  and  N_19 
REMARK    2  A    between atoms: C_13  and  C_14 
REMARK       I    between atoms: N_19  and  C_21 
REMARK    3  A    between atoms: C_21  and  C_22 
REMARK    4  A    between atoms: C_22  and  C_23 
ROOT
HETATM    1  C   UNK     0       1.964   2.251   6.138  0.00  0.00     0.008 A 
HETATM    2  C   UNK     0       2.921   3.186   6.581  0.00  0.00     0.001 A 
HETATM    3  C   UNK     0       3.064   3.462   7.958  0.00  0.00     0.001 A 
HETATM    4  C   UNK     0       2.256   2.801   8.907  0.00  0.00     0.013 A 
HETATM    5  C   UNK     0       1.311   1.861   8.451  0.00  0.00    -0.019 A 
HETATM    6  C   UNK     0       1.158   1.599   7.089  0.00  0.00    -0.043 A 
HETATM    7  C   UNK     0       0.419   1.054   9.145  0.00  0.00    -0.016 A 
HETATM    8  C   UNK     0      -0.320   0.289   8.230  0.00  0.00    -0.031 A 
HETATM    9  C   UNK     0       0.096   0.616   6.847  0.00  0.00     0.080 A 
HETATM   10  C   UNK     0       0.234   0.930  10.531  0.00  0.00     0.042 A 
HETATM   11  C   UNK     0      -0.725   0.014  11.019  0.00  0.00     0.036 A 
HETATM   12  C   UNK     0      -1.447  -0.775  10.091  0.00  0.00     0.043 A 
HETATM   13  C   UNK     0      -1.275  -0.657   8.685  0.00  0.00    -0.009 A 
ENDROOT
BRANCH  13  14
HETATM   14  C   UNK     0      -2.045  -1.482   7.812  0.00  0.00     0.015 A 
HETATM   15  C   UNK     0      -2.063  -1.517   6.406  0.00  0.00     0.020 A 
HETATM   16  C   UNK     0      -2.944  -2.437   5.813  0.00  0.00     0.008 A 
HETATM   17  C   UNK     0      -3.706  -3.185   6.708  0.00  0.00     0.050 A 
HETATM   18  S   UNK     0      -3.235  -2.675   8.316  0.00  0.00    -0.101 SA
ENDBRANCH  13  14
BRANCH  11  19
HETATM   19  N   UNK     0      -1.000  -0.188  12.345  0.00  0.00    -0.327 N 
HETATM   20  C   UNK     0      -0.494  -1.133  13.191  0.00  0.00     0.223 C 
HETATM   21  O   UNK     0       0.370  -1.970  12.837  0.00  0.00    -0.273 OA
HETATM   22  H   UNK     0      -1.609   0.452  12.749  0.00  0.00     0.169 HD
BRANCH  20  23
HETATM   23  C   UNK     0      -0.935  -1.153  14.602  0.00  0.00     0.118 C 
BRANCH  23  24
HETATM   24  C   UNK     0      -2.324  -0.500  14.781  0.00  0.00     0.124 C 
HETATM   25 Cl   UNK     0      -3.601  -1.616  14.305  0.00  0.00    -0.130 Cl
ENDBRANCH  23  24
ENDBRANCH  20  23
ENDBRANCH  11  19
TORSDOF 4
ENDMDL
