MODEL 1
REMARK VINA RESULT:      -8.5      0.000      0.000
REMARK  4 active torsions:
REMARK  status: ('A' for Active; 'I' for Inactive)
REMARK    1  A    between atoms: C_11  and  N_14 
REMARK    2  A    between atoms: C_13  and  C_21 
REMARK       I    between atoms: N_14  and  C_15 
REMARK    3  A    between atoms: C_15  and  C_16 
REMARK    4  A    between atoms: C_16  and  C_17 
ROOT
HETATM    1  C   UNK     0       1.410   1.930   9.056  0.00  0.00     0.016 A 
HETATM    2  C   UNK     0       2.157   2.479   7.992  0.00  0.00     0.001 A 
HETATM    3  C   UNK     0       1.917   2.069   6.661  0.00  0.00     0.001 A 
HETATM    4  C   UNK     0       0.920   1.112   6.374  0.00  0.00     0.013 A 
HETATM    5  C   UNK     0       0.172   0.580   7.443  0.00  0.00    -0.011 A 
HETATM    6  C   UNK     0       0.419   0.975   8.760  0.00  0.00     0.026 A 
HETATM    7  C   UNK     0      -0.865  -0.354   7.473  0.00  0.00    -0.008 A 
HETATM    8  C   UNK     0      -1.234  -0.572   8.806  0.00  0.00     0.037 A 
HETATM    9  C   UNK     0      -0.447   0.278   9.605  0.00  0.00     0.195 A 
HETATM   10  C   UNK     0      -1.516  -1.008   6.416  0.00  0.00     0.043 A 
HETATM   11  C   UNK     0      -2.553  -1.927   6.701  0.00  0.00     0.036 A 
HETATM   12  C   UNK     0      -2.903  -2.159   8.054  0.00  0.00     0.043 A 
HETATM   13  C   UNK     0      -2.252  -1.502   9.132  0.00  0.00    -0.009 A 
HETATM   14  O   UNK     0      -0.503   0.426  10.847  0.00  0.00    -0.287 OA
ENDROOT
BRANCH  13  15
HETATM   15  C   UNK     0      -2.619  -1.797  10.475  0.00  0.00    -0.022 A 
HETATM   16  C   UNK     0      -3.654  -1.079  11.122  0.00  0.00     0.029 A 
HETATM   17  C   UNK     0      -3.985  -1.385  12.454  0.00  0.00     0.088 A 
HETATM   18  N   UNK     0      -3.304  -2.357  13.113  0.00  0.00    -0.375 N 
HETATM   19  C   UNK     0      -2.304  -3.067  12.533  0.00  0.00     0.088 A 
HETATM   20  HN  UNK     0      -3.554  -2.561  14.081  1.00  0.00     0.164 HD
HETATM   21  C   UNK     0      -1.942  -2.807  11.199  0.00  0.00     0.029 A 
ENDBRANCH  13  15
BRANCH  11  22
HETATM   22  N   UNK     0      -3.265  -2.594   5.740  0.00  0.00    -0.327 N 
HETATM   23  C   UNK     0      -4.269  -3.504   5.915  0.00  0.00     0.223 C 
HETATM   24  O   UNK     0      -4.735  -3.786   7.044  0.00  0.00    -0.273 OA
HETATM   25  H   UNK     0      -3.044  -2.374   4.821  0.00  0.00     0.169 HD
BRANCH  23  26
HETATM   26  C   UNK     0      -4.870  -4.163   4.736  0.00  0.00     0.118 C 
BRANCH  26  27
HETATM   27  C   UNK     0      -6.188  -4.896   5.087  0.00  0.00     0.124 C 
HETATM   28 Cl   UNK     0      -6.373  -6.364   4.133  0.00  0.00    -0.130 Cl
ENDBRANCH  26  27
ENDBRANCH  23  26
ENDBRANCH  11  22
TORSDOF 4
ENDMDL
MODEL 2
REMARK VINA RESULT:      -8.3      4.147      6.922
REMARK  4 active torsions:
REMARK  status: ('A' for Active; 'I' for Inactive)
REMARK    1  A    between atoms: C_11  and  N_14 
REMARK    2  A    between atoms: C_13  and  C_21 
REMARK       I    between atoms: N_14  and  C_15 
REMARK    3  A    between atoms: C_15  and  C_16 
REMARK    4  A    between atoms: C_16  and  C_17 
ROOT
HETATM    1  C   UNK     0      -3.612  -2.741   8.340  0.00  0.00     0.016 A 
HETATM    2  C   UNK     0      -4.070  -3.242   7.103  0.00  0.00     0.001 A 
HETATM    3  C   UNK     0      -3.480  -2.812   5.893  0.00  0.00     0.001 A 
HETATM    4  C   UNK     0      -2.418  -1.883   5.903  0.00  0.00     0.013 A 
HETATM    5  C   UNK     0      -1.961  -1.400   7.145  0.00  0.00    -0.011 A 
HETATM    6  C   UNK     0      -2.553  -1.814   8.340  0.00  0.00     0.026 A 
HETATM    7  C   UNK     0      -0.943  -0.502   7.470  0.00  0.00    -0.008 A 
HETATM    8  C   UNK     0      -0.929  -0.324   8.859  0.00  0.00     0.037 A 
HETATM    9  C   UNK     0      -1.919  -1.164   9.401  0.00  0.00     0.195 A 
HETATM   10  C   UNK     0      -0.021   0.153   6.638  0.00  0.00     0.043 A 
HETATM   11  C   UNK     0       0.930   1.031   7.211  0.00  0.00     0.036 A 
HETATM   12  C   UNK     0       0.921   1.222   8.614  0.00  0.00     0.043 A 
HETATM   13  C   UNK     0      -0.006   0.564   9.466  0.00  0.00    -0.009 A 
HETATM   14  O   UNK     0      -2.193  -1.340  10.610  0.00  0.00    -0.287 OA
ENDROOT
BRANCH  13  15
HETATM   15  C   UNK     0       0.006   0.819  10.866  0.00  0.00    -0.022 A 
HETATM   16  C   UNK     0      -0.844   1.798  11.436  0.00  0.00     0.029 A 
HETATM   17  C   UNK     0      -0.799   2.037  12.821  0.00  0.00     0.088 A 
HETATM   18  N   UNK     0       0.064   1.336  13.599  0.00  0.00    -0.375 N 
HETATM   19  C   UNK     0       0.897   0.391  13.095  0.00  0.00     0.088 A 
HETATM   20  HN  UNK     0       0.087   1.527  14.601  1.00  0.00     0.164 HD
HETATM   21  C   UNK     0       0.884   0.107  11.718  0.00  0.00     0.029 A 
ENDBRANCH  13  15
BRANCH  11  22
HETATM   22  N   UNK     0       1.885   1.693   6.488  0.00  0.00    -0.327 N 
HETATM   23  C   UNK     0       2.385   2.948   6.702  0.00  0.00     0.223 C 
HETATM   24  O   UNK     0       2.063   3.641   7.695  0.00  0.00    -0.273 OA
HETATM   25  H   UNK     0       2.270   1.202   5.745  0.00  0.00     0.169 HD
BRANCH  23  26
HETATM   26  C   UNK     0       3.375   3.509   5.759  0.00  0.00     0.118 C 
BRANCH  26  27
HETATM   27  C   UNK     0       4.481   4.312   6.485  0.00  0.00     0.124 C 
HETATM   28 Cl   UNK     0       5.142   5.569   5.444  0.00  0.00    -0.130 Cl
ENDBRANCH  26  27
ENDBRANCH  23  26
ENDBRANCH  11  22
TORSDOF 4
ENDMDL
MODEL 3
REMARK VINA RESULT:      -8.1      4.189      6.801
REMARK  4 active torsions:
REMARK  status: ('A' for Active; 'I' for Inactive)
REMARK    1  A    between atoms: C_11  and  N_14 
REMARK    2  A    between atoms: C_13  and  C_21 
REMARK       I    between atoms: N_14  and  C_15 
REMARK    3  A    between atoms: C_15  and  C_16 
REMARK    4  A    between atoms: C_16  and  C_17 
ROOT
HETATM    1  C   UNK     0       6.299   6.016   6.980  0.00  0.00     0.016 A 
HETATM    2  C   UNK     0       6.354   6.575   5.686  0.00  0.00     0.001 A 
HETATM    3  C   UNK     0       5.452   6.154   4.683  0.00  0.00     0.001 A 
HETATM    4  C   UNK     0       4.474   5.175   4.964  0.00  0.00     0.013 A 
HETATM    5  C   UNK     0       4.419   4.634   6.263  0.00  0.00    -0.011 A 
HETATM    6  C   UNK     0       5.321   5.040   7.250  0.00  0.00     0.026 A 
HETATM    7  C   UNK     0       3.575   3.680   6.834  0.00  0.00    -0.008 A 
HETATM    8  C   UNK     0       3.976   3.460   8.157  0.00  0.00     0.037 A 
HETATM    9  C   UNK     0       5.051   4.330   8.421  0.00  0.00     0.195 A 
HETATM   10  C   UNK     0       2.475   3.008   6.280  0.00  0.00     0.043 A 
HETATM   11  C   UNK     0       1.766   2.069   7.067  0.00  0.00     0.036 A 
HETATM   12  C   UNK     0       2.194   1.836   8.398  0.00  0.00     0.043 A 
HETATM   13  C   UNK     0       3.305   2.512   8.969  0.00  0.00    -0.009 A 
HETATM   14  O   UNK     0       5.660   4.482   9.504  0.00  0.00    -0.287 OA
ENDROOT
BRANCH  13  15
HETATM   15  C   UNK     0       3.714   2.216  10.300  0.00  0.00    -0.022 A 
HETATM   16  C   UNK     0       4.767   1.304  10.552  0.00  0.00     0.029 A 
HETATM   17  C   UNK     0       5.139   1.021  11.878  0.00  0.00     0.088 A 
HETATM   18  N   UNK     0       4.480   1.614  12.906  0.00  0.00    -0.375 N 
HETATM   19  C   UNK     0       3.463   2.491  12.710  0.00  0.00     0.088 A 
HETATM   20  HN  UNK     0       4.760   1.392  13.861  1.00  0.00     0.164 HD
HETATM   21  C   UNK     0       3.060   2.816  11.402  0.00  0.00     0.029 A 
ENDBRANCH  13  15
BRANCH  11  22
HETATM   22  N   UNK     0       0.666   1.384   6.627  0.00  0.00    -0.327 N 
HETATM   23  C   UNK     0      -0.115   0.505   7.326  0.00  0.00     0.223 C 
HETATM   24  O   UNK     0       0.052   0.279   8.547  0.00  0.00    -0.273 OA
HETATM   25  H   UNK     0       0.393   1.563   5.713  0.00  0.00     0.169 HD
BRANCH  23  26
HETATM   26  C   UNK     0      -1.230  -0.183   6.642  0.00  0.00     0.118 C 
BRANCH  26  27
HETATM   27  C   UNK     0      -2.023  -1.102   7.602  0.00  0.00     0.124 C 
HETATM   28 Cl   UNK     0      -2.797  -2.419   6.727  0.00  0.00    -0.130 Cl
ENDBRANCH  26  27
ENDBRANCH  23  26
ENDBRANCH  11  22
TORSDOF 4
ENDMDL
MODEL 4
REMARK VINA RESULT:      -7.1      3.094      6.554
REMARK  4 active torsions:
REMARK  status: ('A' for Active; 'I' for Inactive)
REMARK    1  A    between atoms: C_11  and  N_14 
REMARK    2  A    between atoms: C_13  and  C_21 
REMARK       I    between atoms: N_14  and  C_15 
REMARK    3  A    between atoms: C_15  and  C_16 
REMARK    4  A    between atoms: C_16  and  C_17 
ROOT
HETATM    1  C   UNK     0      -6.173  -4.642   7.339  0.00  0.00     0.016 A 
HETATM    2  C   UNK     0      -6.393  -5.019   5.998  0.00  0.00     0.001 A 
HETATM    3  C   UNK     0      -5.592  -4.487   4.962  0.00  0.00     0.001 A 
HETATM    4  C   UNK     0      -4.552  -3.578   5.255  0.00  0.00     0.013 A 
HETATM    5  C   UNK     0      -4.334  -3.218   6.599  0.00  0.00    -0.011 A 
HETATM    6  C   UNK     0      -5.135  -3.733   7.621  0.00  0.00     0.026 A 
HETATM    7  C   UNK     0      -3.396  -2.369   7.189  0.00  0.00    -0.008 A 
HETATM    8  C   UNK     0      -3.639  -2.321   8.567  0.00  0.00     0.037 A 
HETATM    9  C   UNK     0      -4.710  -3.194   8.836  0.00  0.00     0.195 A 
HETATM   10  C   UNK     0      -2.339  -1.654   6.606  0.00  0.00     0.043 A 
HETATM   11  C   UNK     0      -1.513  -0.846   7.423  0.00  0.00     0.036 A 
HETATM   12  C   UNK     0      -1.781  -0.786   8.813  0.00  0.00     0.043 A 
HETATM   13  C   UNK     0      -2.847  -1.507   9.415  0.00  0.00    -0.009 A 
HETATM   14  O   UNK     0      -5.201  -3.478   9.953  0.00  0.00    -0.287 OA
ENDROOT
BRANCH  13  15
HETATM   15  C   UNK     0      -3.094  -1.384  10.811  0.00  0.00    -0.022 A 
HETATM   16  C   UNK     0      -2.421  -2.208  11.744  0.00  0.00     0.029 A 
HETATM   17  C   UNK     0      -2.696  -2.072  13.117  0.00  0.00     0.088 A 
HETATM   18  N   UNK     0      -3.612  -1.161  13.535  0.00  0.00    -0.375 N 
HETATM   19  C   UNK     0      -4.282  -0.354  12.675  0.00  0.00     0.088 A 
HETATM   20  HN  UNK     0      -3.803  -1.081  14.534  1.00  0.00     0.164 HD
HETATM   21  C   UNK     0      -4.035  -0.443  11.293  0.00  0.00     0.029 A 
ENDBRANCH  13  15
BRANCH  11  22
HETATM   22  N   UNK     0      -0.443  -0.133   6.954  0.00  0.00    -0.327 N 
HETATM   23  C   UNK     0       0.351   0.745   7.638  0.00  0.00     0.223 C 
HETATM   24  O   UNK     0       0.230   0.943   8.870  0.00  0.00    -0.273 OA
HETATM   25  H   UNK     0      -0.205  -0.288   6.026  0.00  0.00     0.169 HD
BRANCH  23  26
HETATM   26  C   UNK     0       1.425   1.467   6.924  0.00  0.00     0.118 C 
BRANCH  26  27
HETATM   27  C   UNK     0       2.171   2.461   7.847  0.00  0.00     0.124 C 
HETATM   28 Cl   UNK     0       2.376   4.024   7.062  0.00  0.00    -0.130 Cl
ENDBRANCH  26  27
ENDBRANCH  23  26
ENDBRANCH  11  22
TORSDOF 4
ENDMDL
MODEL 5
REMARK VINA RESULT:      -7.1      5.576      8.683
REMARK  4 active torsions:
REMARK  status: ('A' for Active; 'I' for Inactive)
REMARK    1  A    between atoms: C_11  and  N_14 
REMARK    2  A    between atoms: C_13  and  C_21 
REMARK       I    between atoms: N_14  and  C_15 
REMARK    3  A    between atoms: C_15  and  C_16 
REMARK    4  A    between atoms: C_16  and  C_17 
ROOT
HETATM    1  C   UNK     0      -0.981  -0.147   9.249  0.00  0.00     0.016 A 
HETATM    2  C   UNK     0      -1.413  -0.611   7.988  0.00  0.00     0.001 A 
HETATM    3  C   UNK     0      -0.755  -0.195   6.808  0.00  0.00     0.001 A 
HETATM    4  C   UNK     0       0.349   0.682   6.873  0.00  0.00     0.013 A 
HETATM    5  C   UNK     0       0.778   1.128   8.138  0.00  0.00    -0.011 A 
HETATM    6  C   UNK     0       0.119   0.728   9.303  0.00  0.00     0.026 A 
HETATM    7  C   UNK     0       1.824   1.972   8.516  0.00  0.00    -0.008 A 
HETATM    8  C   UNK     0       1.791   2.132   9.907  0.00  0.00     0.037 A 
HETATM    9  C   UNK     0       0.740   1.334  10.397  0.00  0.00     0.195 A 
HETATM   10  C   UNK     0       2.807   2.592   7.730  0.00  0.00     0.043 A 
HETATM   11  C   UNK     0       3.775   3.416   8.352  0.00  0.00     0.036 A 
HETATM   12  C   UNK     0       3.720   3.591   9.757  0.00  0.00     0.043 A 
HETATM   13  C   UNK     0       2.729   2.967  10.562  0.00  0.00    -0.009 A 
HETATM   14  O   UNK     0       0.411   1.156  11.592  0.00  0.00    -0.287 OA
ENDROOT
BRANCH  13  15
HETATM   15  C   UNK     0       2.697   3.204  11.965  0.00  0.00    -0.022 A 
HETATM   16  C   UNK     0       3.457   2.407  12.855  0.00  0.00     0.029 A 
HETATM   17  C   UNK     0       3.394   2.656  14.238  0.00  0.00     0.088 A 
HETATM   18  N   UNK     0       2.599   3.650  14.710  0.00  0.00    -0.375 N 
HETATM   19  C   UNK     0       1.852   4.436  13.893  0.00  0.00     0.088 A 
HETATM   20  HN  UNK     0       2.561   3.812  15.716  1.00  0.00     0.164 HD
HETATM   21  C   UNK     0       1.888   4.234  12.501  0.00  0.00     0.029 A 
ENDBRANCH  13  15
BRANCH  11  22
HETATM   22  N   UNK     0       4.789   4.041   7.676  0.00  0.00    -0.327 N 
HETATM   23  C   UNK     0       4.814   4.430   6.366  0.00  0.00     0.223 C 
HETATM   24  O   UNK     0       3.817   4.326   5.613  0.00  0.00    -0.273 OA
HETATM   25  H   UNK     0       5.578   4.254   8.199  0.00  0.00     0.169 HD
BRANCH  23  26
HETATM   26  C   UNK     0       6.041   5.037   5.808  0.00  0.00     0.118 C 
BRANCH  26  27
HETATM   27  C   UNK     0       5.975   6.583   5.802  0.00  0.00     0.124 C 
HETATM   28 Cl   UNK     0       6.508   7.236   4.256  0.00  0.00    -0.130 Cl
ENDBRANCH  26  27
ENDBRANCH  23  26
ENDBRANCH  11  22
TORSDOF 4
ENDMDL
MODEL 6
REMARK VINA RESULT:      -6.8     18.634     22.672
REMARK  4 active torsions:
REMARK  status: ('A' for Active; 'I' for Inactive)
REMARK    1  A    between atoms: C_11  and  N_14 
REMARK    2  A    between atoms: C_13  and  C_21 
REMARK       I    between atoms: N_14  and  C_15 
REMARK    3  A    between atoms: C_15  and  C_16 
REMARK    4  A    between atoms: C_16  and  C_17 
ROOT
HETATM    1  C   UNK     0       8.417  14.581  -7.895  0.00  0.00     0.016 A 
HETATM    2  C   UNK     0       8.824  13.459  -8.648  0.00  0.00     0.001 A 
HETATM    3  C   UNK     0       9.181  12.253  -8.004  0.00  0.00     0.001 A 
HETATM    4  C   UNK     0       9.127  12.149  -6.597  0.00  0.00     0.013 A 
HETATM    5  C   UNK     0       8.707  13.271  -5.856  0.00  0.00    -0.011 A 
HETATM    6  C   UNK     0       8.368  14.467  -6.493  0.00  0.00     0.026 A 
HETATM    7  C   UNK     0       8.544  13.465  -4.483  0.00  0.00    -0.008 A 
HETATM    8  C   UNK     0       8.147  14.790  -4.262  0.00  0.00     0.037 A 
HETATM    9  C   UNK     0       8.014  15.405  -5.521  0.00  0.00     0.195 A 
HETATM   10  C   UNK     0       8.703  12.561  -3.423  0.00  0.00     0.043 A 
HETATM   11  C   UNK     0       8.479  13.000  -2.096  0.00  0.00     0.036 A 
HETATM   12  C   UNK     0       8.100  14.348  -1.880  0.00  0.00     0.043 A 
HETATM   13  C   UNK     0       7.936  15.272  -2.947  0.00  0.00    -0.009 A 
HETATM   14  O   UNK     0       7.627  16.571  -5.763  0.00  0.00    -0.287 OA
ENDROOT
BRANCH  13  15
HETATM   15  C   UNK     0       7.587  16.624  -2.672  0.00  0.00    -0.022 A 
HETATM   16  C   UNK     0       6.245  17.065  -2.771  0.00  0.00     0.029 A 
HETATM   17  C   UNK     0       5.934  18.411  -2.507  0.00  0.00     0.088 A 
HETATM   18  N   UNK     0       6.922  19.279  -2.170  0.00  0.00    -0.375 N 
HETATM   19  C   UNK     0       8.221  18.900  -2.067  0.00  0.00     0.088 A 
HETATM   20  HN  UNK     0       6.679  20.253  -1.988  1.00  0.00     0.164 HD
HETATM   21  C   UNK     0       8.583  17.563  -2.311  0.00  0.00     0.029 A 
ENDBRANCH  13  15
BRANCH  11  22
HETATM   22  N   UNK     0       8.581  12.188  -0.999  0.00  0.00    -0.327 N 
HETATM   23  C   UNK     0       7.667  11.287  -0.529  0.00  0.00     0.223 C 
HETATM   24  O   UNK     0       6.601  11.029  -1.137  0.00  0.00    -0.273 OA
HETATM   25  H   UNK     0       9.417  12.243  -0.507  0.00  0.00     0.169 HD
BRANCH  23  26
HETATM   26  C   UNK     0       7.945  10.548   0.721  0.00  0.00     0.118 C 
BRANCH  26  27
HETATM   27  C   UNK     0       9.444  10.596   1.104  0.00  0.00     0.124 C 
HETATM   28 Cl   UNK     0      10.336   9.280   0.348  0.00  0.00    -0.130 Cl
ENDBRANCH  26  27
ENDBRANCH  23  26
ENDBRANCH  11  22
TORSDOF 4
ENDMDL
MODEL 7
REMARK VINA RESULT:      -6.8     14.423     19.696
REMARK  4 active torsions:
REMARK  status: ('A' for Active; 'I' for Inactive)
REMARK    1  A    between atoms: C_11  and  N_14 
REMARK    2  A    between atoms: C_13  and  C_21 
REMARK       I    between atoms: N_14  and  C_15 
REMARK    3  A    between atoms: C_15  and  C_16 
REMARK    4  A    between atoms: C_16  and  C_17 
ROOT
HETATM    1  C   UNK     0      -7.438 -14.655  -8.562  0.00  0.00     0.016 A 
HETATM    2  C   UNK     0      -7.703 -13.502  -9.331  0.00  0.00     0.001 A 
HETATM    3  C   UNK     0      -8.060 -12.287  -8.703  0.00  0.00     0.001 A 
HETATM    4  C   UNK     0      -8.148 -12.205  -7.297  0.00  0.00     0.013 A 
HETATM    5  C   UNK     0      -7.868 -13.360  -6.538  0.00  0.00    -0.011 A 
HETATM    6  C   UNK     0      -7.529 -14.564  -7.160  0.00  0.00     0.026 A 
HETATM    7  C   UNK     0      -7.860 -13.582  -5.160  0.00  0.00    -0.008 A 
HETATM    8  C   UNK     0      -7.560 -14.929  -4.925  0.00  0.00     0.037 A 
HETATM    9  C   UNK     0      -7.329 -15.533  -6.176  0.00  0.00     0.195 A 
HETATM   10  C   UNK     0      -8.079 -12.685  -4.104  0.00  0.00     0.043 A 
HETATM   11  C   UNK     0      -8.020 -13.154  -2.770  0.00  0.00     0.036 A 
HETATM   12  C   UNK     0      -7.738 -14.524  -2.543  0.00  0.00     0.043 A 
HETATM   13  C   UNK     0      -7.513 -15.441  -3.605  0.00  0.00    -0.009 A 
HETATM   14  O   UNK     0      -6.982 -16.716  -6.399  0.00  0.00    -0.287 OA
ENDROOT
BRANCH  13  15
HETATM   15  C   UNK     0      -7.269 -16.814  -3.322  0.00  0.00    -0.022 A 
HETATM   16  C   UNK     0      -8.339 -17.712  -3.095  0.00  0.00     0.029 A 
HETATM   17  C   UNK     0      -8.065 -19.061  -2.804  0.00  0.00     0.088 A 
HETATM   18  N   UNK     0      -6.779 -19.489  -2.733  0.00  0.00    -0.375 N 
HETATM   19  C   UNK     0      -5.723 -18.662  -2.941  0.00  0.00     0.088 A 
HETATM   20  HN  UNK     0      -6.599 -20.469  -2.515  1.00  0.00     0.164 HD
HETATM   21  C   UNK     0      -5.944 -17.306  -3.245  0.00  0.00     0.029 A 
ENDBRANCH  13  15
BRANCH  11  22
HETATM   22  N   UNK     0      -8.192 -12.353  -1.674  0.00  0.00    -0.327 N 
HETATM   23  C   UNK     0      -7.387 -11.339  -1.236  0.00  0.00     0.223 C 
HETATM   24  O   UNK     0      -6.381 -10.952  -1.878  0.00  0.00    -0.273 OA
HETATM   25  H   UNK     0      -8.998 -12.510  -1.157  0.00  0.00     0.169 HD
BRANCH  23  26
HETATM   26  C   UNK     0      -7.720 -10.631   0.018  0.00  0.00     0.118 C 
BRANCH  26  27
HETATM   27  C   UNK     0      -8.743  -9.493  -0.210  0.00  0.00     0.124 C 
HETATM   28 Cl   UNK     0      -8.336  -8.072   0.748  0.00  0.00    -0.130 Cl
ENDBRANCH  26  27
ENDBRANCH  23  26
ENDBRANCH  11  22
TORSDOF 4
ENDMDL
MODEL 8
REMARK VINA RESULT:      -6.7      4.512      7.333
REMARK  4 active torsions:
REMARK  status: ('A' for Active; 'I' for Inactive)
REMARK    1  A    between atoms: C_11  and  N_14 
REMARK    2  A    between atoms: C_13  and  C_21 
REMARK       I    between atoms: N_14  and  C_15 
REMARK    3  A    between atoms: C_15  and  C_16 
REMARK    4  A    between atoms: C_16  and  C_17 
ROOT
HETATM    1  C   UNK     0      -3.073  -2.341   8.329  0.00  0.00     0.016 A 
HETATM    2  C   UNK     0      -3.362  -2.687   6.992  0.00  0.00     0.001 A 
HETATM    3  C   UNK     0      -2.675  -2.064   5.925  0.00  0.00     0.001 A 
HETATM    4  C   UNK     0      -1.683  -1.093   6.181  0.00  0.00     0.013 A 
HETATM    5  C   UNK     0      -1.395  -0.765   7.521  0.00  0.00    -0.011 A 
HETATM    6  C   UNK     0      -2.084  -1.371   8.574  0.00  0.00     0.026 A 
HETATM    7  C   UNK     0      -0.479   0.129   8.078  0.00  0.00    -0.008 A 
HETATM    8  C   UNK     0      -0.625   0.112   9.470  0.00  0.00     0.037 A 
HETATM    9  C   UNK     0      -1.611  -0.845   9.778  0.00  0.00     0.195 A 
HETATM   10  C   UNK     0       0.481   0.938   7.452  0.00  0.00     0.043 A 
HETATM   11  C   UNK     0       1.306   1.775   8.242  0.00  0.00     0.036 A 
HETATM   12  C   UNK     0       1.134   1.768   9.648  0.00  0.00     0.043 A 
HETATM   13  C   UNK     0       0.166   0.952  10.292  0.00  0.00    -0.009 A 
HETATM   14  O   UNK     0      -2.001  -1.201  10.913  0.00  0.00    -0.287 OA
ENDROOT
BRANCH  13  15
HETATM   15  C   UNK     0       0.011   1.009  11.706  0.00  0.00    -0.022 A 
HETATM   16  C   UNK     0       0.791   0.190  12.557  0.00  0.00     0.029 A 
HETATM   17  C   UNK     0       0.606   0.259  13.950  0.00  0.00     0.088 A 
HETATM   18  N   UNK     0      -0.326   1.100  14.466  0.00  0.00    -0.375 N 
HETATM   19  C   UNK     0      -1.096   1.901  13.687  0.00  0.00     0.088 A 
HETATM   20  HN  UNK     0      -0.451   1.133  15.478  1.00  0.00     0.164 HD
HETATM   21  C   UNK     0      -0.942   1.877  12.289  0.00  0.00     0.029 A 
ENDBRANCH  13  15
BRANCH  11  22
HETATM   22  N   UNK     0       2.288   2.579   7.728  0.00  0.00    -0.327 N 
HETATM   23  C   UNK     0       3.427   3.016   8.344  0.00  0.00     0.223 C 
HETATM   24  O   UNK     0       3.761   2.637   9.492  0.00  0.00    -0.273 OA
HETATM   25  H   UNK     0       2.170   2.853   6.804  0.00  0.00     0.169 HD
BRANCH  23  26
HETATM   26  C   UNK     0       4.335   3.938   7.630  0.00  0.00     0.118 C 
BRANCH  26  27
HETATM   27  C   UNK     0       5.722   4.033   8.310  0.00  0.00     0.124 C 
HETATM   28 Cl   UNK     0       5.908   5.563   9.162  0.00  0.00    -0.130 Cl
ENDBRANCH  26  27
ENDBRANCH  23  26
ENDBRANCH  11  22
TORSDOF 4
ENDMDL
MODEL 9
REMARK VINA RESULT:      -6.7     18.524     22.581
REMARK  4 active torsions:
REMARK  status: ('A' for Active; 'I' for Inactive)
REMARK    1  A    between atoms: C_11  and  N_14 
REMARK    2  A    between atoms: C_13  and  C_21 
REMARK       I    between atoms: N_14  and  C_15 
REMARK    3  A    between atoms: C_15  and  C_16 
REMARK    4  A    between atoms: C_16  and  C_17 
ROOT
HETATM    1  C   UNK     0       8.854  13.162  -8.841  0.00  0.00     0.016 A 
HETATM    2  C   UNK     0       9.771  12.173  -9.255  0.00  0.00     0.001 A 
HETATM    3  C   UNK     0      10.405  11.341  -8.305  0.00  0.00     0.001 A 
HETATM    4  C   UNK     0      10.125  11.479  -6.929  0.00  0.00     0.013 A 
HETATM    5  C   UNK     0       9.197  12.462  -6.529  0.00  0.00    -0.011 A 
HETATM    6  C   UNK     0       8.581  13.294  -7.466  0.00  0.00     0.026 A 
HETATM    7  C   UNK     0       8.717  12.822  -5.268  0.00  0.00    -0.008 A 
HETATM    8  C   UNK     0       7.838  13.902  -5.416  0.00  0.00     0.037 A 
HETATM    9  C   UNK     0       7.736  14.177  -6.792  0.00  0.00     0.195 A 
HETATM   10  C   UNK     0       8.982  12.259  -4.011  0.00  0.00     0.043 A 
HETATM   11  C   UNK     0       8.367  12.808  -2.860  0.00  0.00     0.036 A 
HETATM   12  C   UNK     0       7.497  13.915  -3.017  0.00  0.00     0.043 A 
HETATM   13  C   UNK     0       7.220  14.492  -4.285  0.00  0.00    -0.009 A 
HETATM   14  O   UNK     0       7.012  15.034  -7.347  0.00  0.00    -0.287 OA
ENDROOT
BRANCH  13  15
HETATM   15  C   UNK     0       6.366  15.626  -4.382  0.00  0.00    -0.022 A 
HETATM   16  C   UNK     0       4.975  15.473  -4.599  0.00  0.00     0.029 A 
HETATM   17  C   UNK     0       4.158  16.613  -4.704  0.00  0.00     0.088 A 
HETATM   18  N   UNK     0       4.709  17.850  -4.608  0.00  0.00    -0.375 N 
HETATM   19  C   UNK     0       6.037  18.042  -4.404  0.00  0.00     0.088 A 
HETATM   20  HN  UNK     0       4.102  18.665  -4.693  1.00  0.00     0.164 HD
HETATM   21  C   UNK     0       6.895  16.934  -4.281  0.00  0.00     0.029 A 
ENDBRANCH  13  15
BRANCH  11  22
HETATM   22  N   UNK     0       8.542  12.313  -1.596  0.00  0.00    -0.327 N 
HETATM   23  C   UNK     0       7.691  11.522  -0.876  0.00  0.00     0.223 C 
HETATM   24  O   UNK     0       6.626  11.065  -1.356  0.00  0.00    -0.273 OA
HETATM   25  H   UNK     0       9.384  12.533  -1.168  0.00  0.00     0.169 HD
BRANCH  23  26
HETATM   26  C   UNK     0       8.040  11.146   0.510  0.00  0.00     0.118 C 
BRANCH  26  27
HETATM   27  C   UNK     0       8.990   9.925   0.560  0.00  0.00     0.124 C 
HETATM   28 Cl   UNK     0       8.276   8.601   1.477  0.00  0.00    -0.130 Cl
ENDBRANCH  26  27
ENDBRANCH  23  26
ENDBRANCH  11  22
TORSDOF 4
ENDMDL
