MODEL 1
REMARK VINA RESULT:      -7.8      0.000      0.000
REMARK  2 active torsions:
REMARK  status: ('A' for Active; 'I' for Inactive)
REMARK    1  A    between atoms: C_10  and  C_17 
REMARK    2  A    between atoms: C_12  and  N_14 
ROOT
HETATM    1  C   UNK     0       5.948   5.253   7.487  0.00  0.00     0.013 A 
HETATM    2  C   UNK     0       6.208   5.981   6.307  0.00  0.00     0.001 A 
HETATM    3  C   UNK     0       5.391   5.815   5.168  0.00  0.00     0.001 A 
HETATM    4  C   UNK     0       4.306   4.913   5.191  0.00  0.00     0.008 A 
HETATM    5  C   UNK     0       4.054   4.189   6.373  0.00  0.00    -0.043 A 
HETATM    6  C   UNK     0       4.862   4.357   7.502  0.00  0.00    -0.019 A 
HETATM    7  C   UNK     0       2.987   3.211   6.618  0.00  0.00     0.080 A 
HETATM    8  C   UNK     0       3.258   2.838   8.023  0.00  0.00    -0.032 A 
HETATM    9  C   UNK     0       4.386   3.516   8.506  0.00  0.00    -0.016 A 
HETATM   10  C   UNK     0       2.564   1.909   8.840  0.00  0.00    -0.016 A 
HETATM   11  C   UNK     0       3.079   1.656  10.137  0.00  0.00     0.042 A 
HETATM   12  C   UNK     0       4.236   2.316  10.609  0.00  0.00     0.027 A 
HETATM   13  C   UNK     0       4.886   3.271   9.798  0.00  0.00     0.042 A 
ENDROOT
BRANCH  10  14
HETATM   14  C   UNK     0       1.413   1.216   8.373  0.00  0.00    -0.023 A 
HETATM   15  C   UNK     0       0.391   0.837   9.272  0.00  0.00     0.029 A 
HETATM   16  C   UNK     0      -0.720   0.112   8.803  0.00  0.00     0.090 A 
HETATM   17  N   UNK     0      -0.834  -0.236   7.484  0.00  0.00    -0.371 N 
HETATM   18  C   UNK     0       0.137   0.138   6.593  0.00  0.00     0.090 A 
HETATM   19  C   UNK     0      -1.990  -0.969   7.028  0.00  0.00     0.154 C 
HETATM   20  C   UNK     0       1.261   0.874   7.011  0.00  0.00     0.029 A 
ENDBRANCH  10  14
BRANCH  12  21
HETATM   21  N   UNK     0       4.735   2.020  11.827  0.00  0.00    -0.399 N 
HETATM   22  H   UNK     0       5.695   2.035  11.977  0.00  0.00     0.156 HD
HETATM   23  H   UNK     0       4.137   1.799  12.558  0.00  0.00     0.156 HD
ENDBRANCH  12  21
TORSDOF 2
ENDMDL
MODEL 2
REMARK VINA RESULT:      -7.7      2.686      4.769
REMARK  2 active torsions:
REMARK  status: ('A' for Active; 'I' for Inactive)
REMARK    1  A    between atoms: C_10  and  C_17 
REMARK    2  A    between atoms: C_12  and  N_14 
ROOT
HETATM    1  C   UNK     0       2.082   2.631   8.931  0.00  0.00     0.013 A 
HETATM    2  C   UNK     0       2.851   3.286   7.947  0.00  0.00     0.001 A 
HETATM    3  C   UNK     0       2.657   3.001   6.578  0.00  0.00     0.001 A 
HETATM    4  C   UNK     0       1.695   2.051   6.176  0.00  0.00     0.008 A 
HETATM    5  C   UNK     0       0.931   1.400   7.164  0.00  0.00    -0.043 A 
HETATM    6  C   UNK     0       1.122   1.686   8.520  0.00  0.00    -0.019 A 
HETATM    7  C   UNK     0      -0.117   0.391   6.971  0.00  0.00     0.080 A 
HETATM    8  C   UNK     0      -0.524   0.131   8.370  0.00  0.00    -0.032 A 
HETATM    9  C   UNK     0       0.244   0.895   9.259  0.00  0.00    -0.016 A 
HETATM   10  C   UNK     0      -1.508  -0.771   8.850  0.00  0.00    -0.016 A 
HETATM   11  C   UNK     0      -1.650  -0.907  10.255  0.00  0.00     0.042 A 
HETATM   12  C   UNK     0      -0.850  -0.160  11.149  0.00  0.00     0.027 A 
HETATM   13  C   UNK     0       0.091   0.766  10.652  0.00  0.00     0.042 A 
ENDROOT
BRANCH  10  14
HETATM   14  C   UNK     0      -2.304  -1.551   7.966  0.00  0.00    -0.023 A 
HETATM   15  C   UNK     0      -3.393  -2.303   8.457  0.00  0.00     0.029 A 
HETATM   16  C   UNK     0      -4.144  -3.105   7.578  0.00  0.00     0.090 A 
HETATM   17  N   UNK     0      -3.839  -3.172   6.245  0.00  0.00    -0.371 N 
HETATM   18  C   UNK     0      -2.798  -2.435   5.745  0.00  0.00     0.090 A 
HETATM   19  C   UNK     0      -4.633  -3.992   5.363  0.00  0.00     0.154 C 
HETATM   20  C   UNK     0      -2.025  -1.610   6.582  0.00  0.00     0.029 A 
ENDBRANCH  10  14
BRANCH  12  21
HETATM   21  N   UNK     0      -0.969  -0.345  12.479  0.00  0.00    -0.399 N 
HETATM   22  H   UNK     0      -1.828  -0.589  12.862  0.00  0.00     0.156 HD
HETATM   23  H   UNK     0      -0.197  -0.242  13.057  0.00  0.00     0.156 HD
ENDBRANCH  12  21
TORSDOF 2
ENDMDL
MODEL 3
REMARK VINA RESULT:      -7.7      3.266      6.377
REMARK  2 active torsions:
REMARK  status: ('A' for Active; 'I' for Inactive)
REMARK    1  A    between atoms: C_10  and  C_17 
REMARK    2  A    between atoms: C_12  and  N_14 
ROOT
HETATM    1  C   UNK     0       1.312   1.563   6.550  0.00  0.00     0.013 A 
HETATM    2  C   UNK     0       2.294   2.504   6.925  0.00  0.00     0.001 A 
HETATM    3  C   UNK     0       2.483   2.838   8.284  0.00  0.00     0.001 A 
HETATM    4  C   UNK     0       1.688   2.240   9.285  0.00  0.00     0.008 A 
HETATM    5  C   UNK     0       0.710   1.302   8.901  0.00  0.00    -0.043 A 
HETATM    6  C   UNK     0       0.525   0.969   7.555  0.00  0.00    -0.019 A 
HETATM    7  C   UNK     0      -0.216   0.562   9.768  0.00  0.00     0.080 A 
HETATM    8  C   UNK     0      -0.952  -0.249   8.773  0.00  0.00    -0.032 A 
HETATM    9  C   UNK     0      -0.504   0.034   7.475  0.00  0.00    -0.016 A 
HETATM   10  C   UNK     0      -2.003  -1.176   8.994  0.00  0.00    -0.016 A 
HETATM   11  C   UNK     0      -2.614  -1.765   7.857  0.00  0.00     0.042 A 
HETATM   12  C   UNK     0      -2.182  -1.452   6.548  0.00  0.00     0.027 A 
HETATM   13  C   UNK     0      -1.104  -0.563   6.351  0.00  0.00     0.042 A 
ENDROOT
BRANCH  10  14
HETATM   14  C   UNK     0      -2.467  -1.483  10.302  0.00  0.00    -0.023 A 
HETATM   15  C   UNK     0      -1.848  -2.499  11.063  0.00  0.00     0.029 A 
HETATM   16  C   UNK     0      -2.347  -2.824  12.338  0.00  0.00     0.090 A 
HETATM   17  N   UNK     0      -3.429  -2.169  12.862  0.00  0.00    -0.371 N 
HETATM   18  C   UNK     0      -4.033  -1.167  12.148  0.00  0.00     0.090 A 
HETATM   19  C   UNK     0      -3.913  -2.512  14.177  0.00  0.00     0.154 C 
HETATM   20  C   UNK     0      -3.563  -0.800  10.874  0.00  0.00     0.029 A 
ENDBRANCH  10  14
BRANCH  12  21
HETATM   21  N   UNK     0      -2.813  -1.987   5.482  0.00  0.00    -0.399 N 
HETATM   22  H   UNK     0      -3.182  -1.409   4.794  0.00  0.00     0.156 HD
HETATM   23  H   UNK     0      -2.893  -2.949   5.396  0.00  0.00     0.156 HD
ENDBRANCH  12  21
TORSDOF 2
ENDMDL
MODEL 4
REMARK VINA RESULT:      -7.7      3.928     10.125
REMARK  2 active torsions:
REMARK  status: ('A' for Active; 'I' for Inactive)
REMARK    1  A    between atoms: C_10  and  C_17 
REMARK    2  A    between atoms: C_12  and  N_14 
ROOT
HETATM    1  C   UNK     0      -6.655  -4.837   6.775  0.00  0.00     0.013 A 
HETATM    2  C   UNK     0      -6.778  -5.576   5.579  0.00  0.00     0.001 A 
HETATM    3  C   UNK     0      -5.821  -5.438   4.550  0.00  0.00     0.001 A 
HETATM    4  C   UNK     0      -4.733  -4.554   4.700  0.00  0.00     0.008 A 
HETATM    5  C   UNK     0      -4.617  -3.819   5.896  0.00  0.00    -0.043 A 
HETATM    6  C   UNK     0      -5.564  -3.959   6.916  0.00  0.00    -0.019 A 
HETATM    7  C   UNK     0      -3.572  -2.856   6.262  0.00  0.00     0.080 A 
HETATM    8  C   UNK     0      -4.011  -2.460   7.618  0.00  0.00    -0.032 A 
HETATM    9  C   UNK     0      -5.202  -3.113   7.963  0.00  0.00    -0.016 A 
HETATM   10  C   UNK     0      -3.407  -1.532   8.505  0.00  0.00    -0.016 A 
HETATM   11  C   UNK     0      -4.076  -1.253   9.725  0.00  0.00     0.042 A 
HETATM   12  C   UNK     0      -5.295  -1.889  10.055  0.00  0.00     0.027 A 
HETATM   13  C   UNK     0      -5.855  -2.843   9.180  0.00  0.00     0.042 A 
ENDROOT
BRANCH  10  14
HETATM   14  C   UNK     0      -2.195  -0.864   8.179  0.00  0.00    -0.023 A 
HETATM   15  C   UNK     0      -1.274  -0.515   9.191  0.00  0.00     0.029 A 
HETATM   16  C   UNK     0      -0.100   0.186   8.859  0.00  0.00     0.090 A 
HETATM   17  N   UNK     0       0.172   0.539   7.564  0.00  0.00    -0.371 N 
HETATM   18  C   UNK     0      -0.699   0.194   6.565  0.00  0.00     0.090 A 
HETATM   19  C   UNK     0       1.389   1.247   7.250  0.00  0.00     0.154 C 
HETATM   20  C   UNK     0      -1.881  -0.517   6.846  0.00  0.00     0.029 A 
ENDBRANCH  10  14
BRANCH  12  21
HETATM   21  N   UNK     0      -5.937  -1.569  11.197  0.00  0.00    -0.399 N 
HETATM   22  H   UNK     0      -6.689  -2.104  11.500  0.00  0.00     0.156 HD
HETATM   23  H   UNK     0      -5.645  -0.808  11.723  0.00  0.00     0.156 HD
ENDBRANCH  12  21
TORSDOF 2
ENDMDL
MODEL 5
REMARK VINA RESULT:      -7.7      3.070      7.106
REMARK  2 active torsions:
REMARK  status: ('A' for Active; 'I' for Inactive)
REMARK    1  A    between atoms: C_10  and  C_17 
REMARK    2  A    between atoms: C_12  and  N_14 
ROOT
HETATM    1  C   UNK     0      -1.774  -1.097   6.560  0.00  0.00     0.013 A 
HETATM    2  C   UNK     0      -2.792  -2.025   6.863  0.00  0.00     0.001 A 
HETATM    3  C   UNK     0      -3.132  -2.304   8.205  0.00  0.00     0.001 A 
HETATM    4  C   UNK     0      -2.452  -1.664   9.262  0.00  0.00     0.008 A 
HETATM    5  C   UNK     0      -1.435  -0.740   8.951  0.00  0.00    -0.043 A 
HETATM    6  C   UNK     0      -1.102  -0.461   7.621  0.00  0.00    -0.019 A 
HETATM    7  C   UNK     0      -0.610   0.037   9.884  0.00  0.00     0.080 A 
HETATM    8  C   UNK     0       0.233   0.810   8.945  0.00  0.00    -0.032 A 
HETATM    9  C   UNK     0      -0.068   0.473   7.618  0.00  0.00    -0.016 A 
HETATM   10  C   UNK     0       1.254   1.747   9.243  0.00  0.00    -0.016 A 
HETATM   11  C   UNK     0       1.989   2.292   8.158  0.00  0.00     0.042 A 
HETATM   12  C   UNK     0       1.705   1.924   6.823  0.00  0.00     0.027 A 
HETATM   13  C   UNK     0       0.654   1.025   6.544  0.00  0.00     0.042 A 
ENDROOT
BRANCH  10  14
HETATM   14  C   UNK     0       1.571   2.109  10.582  0.00  0.00    -0.023 A 
HETATM   15  C   UNK     0       0.921   3.198  11.203  0.00  0.00     0.029 A 
HETATM   16  C   UNK     0       1.277   3.573  12.512  0.00  0.00     0.090 A 
HETATM   17  N   UNK     0       2.249   2.898  13.202  0.00  0.00    -0.371 N 
HETATM   18  C   UNK     0       2.878   1.828  12.624  0.00  0.00     0.090 A 
HETATM   19  C   UNK     0       2.586   3.295  14.547  0.00  0.00     0.154 C 
HETATM   20  C   UNK     0       2.549   1.408  11.322  0.00  0.00     0.029 A 
ENDBRANCH  10  14
BRANCH  12  21
HETATM   21  N   UNK     0       2.451   2.417   5.813  0.00  0.00    -0.399 N 
HETATM   22  H   UNK     0       2.073   2.494   4.921  0.00  0.00     0.156 HD
HETATM   23  H   UNK     0       3.363   2.702   5.976  0.00  0.00     0.156 HD
ENDBRANCH  12  21
TORSDOF 2
ENDMDL
MODEL 6
REMARK VINA RESULT:      -7.6      3.070      7.462
REMARK  2 active torsions:
REMARK  status: ('A' for Active; 'I' for Inactive)
REMARK    1  A    between atoms: C_10  and  C_17 
REMARK    2  A    between atoms: C_12  and  N_14 
ROOT
HETATM    1  C   UNK     0       2.110   2.636   6.235  0.00  0.00     0.013 A 
HETATM    2  C   UNK     0       1.371   1.643   6.910  0.00  0.00     0.001 A 
HETATM    3  C   UNK     0       1.711   1.269   8.229  0.00  0.00     0.001 A 
HETATM    4  C   UNK     0       2.799   1.879   8.887  0.00  0.00     0.008 A 
HETATM    5  C   UNK     0       3.533   2.870   8.205  0.00  0.00    -0.043 A 
HETATM    6  C   UNK     0       3.193   3.242   6.900  0.00  0.00    -0.019 A 
HETATM    7  C   UNK     0       4.688   3.631   8.696  0.00  0.00     0.080 A 
HETATM    8  C   UNK     0       4.974   4.498   7.532  0.00  0.00    -0.032 A 
HETATM    9  C   UNK     0       4.087   4.225   6.482  0.00  0.00    -0.016 A 
HETATM   10  C   UNK     0       5.999   5.467   7.385  0.00  0.00    -0.016 A 
HETATM   11  C   UNK     0       6.125   6.110   6.126  0.00  0.00     0.042 A 
HETATM   12  C   UNK     0       5.249   5.808   5.058  0.00  0.00     0.027 A 
HETATM   13  C   UNK     0       4.207   4.875   5.239  0.00  0.00     0.042 A 
ENDROOT
BRANCH  10  14
HETATM   14  C   UNK     0       6.906   5.765   8.440  0.00  0.00    -0.023 A 
HETATM   15  C   UNK     0       6.448   6.385   9.623  0.00  0.00     0.029 A 
HETATM   16  C   UNK     0       7.364   6.715  10.640  0.00  0.00     0.090 A 
HETATM   17  N   UNK     0       8.700   6.445  10.505  0.00  0.00    -0.371 N 
HETATM   18  C   UNK     0       9.160   5.827   9.373  0.00  0.00     0.090 A 
HETATM   19  C   UNK     0       9.615   6.782  11.568  0.00  0.00     0.154 C 
HETATM   20  C   UNK     0       8.282   5.468   8.334  0.00  0.00     0.029 A 
ENDBRANCH  10  14
BRANCH  12  21
HETATM   21  N   UNK     0       5.421   6.396   3.857  0.00  0.00    -0.399 N 
HETATM   22  H   UNK     0       4.726   6.967   3.490  0.00  0.00     0.156 HD
HETATM   23  H   UNK     0       6.241   6.255   3.358  0.00  0.00     0.156 HD
ENDBRANCH  12  21
TORSDOF 2
ENDMDL
MODEL 7
REMARK VINA RESULT:      -7.6      1.981      6.660
REMARK  2 active torsions:
REMARK  status: ('A' for Active; 'I' for Inactive)
REMARK    1  A    between atoms: C_10  and  C_17 
REMARK    2  A    between atoms: C_12  and  N_14 
ROOT
HETATM    1  C   UNK     0      -2.410  -1.491   8.907  0.00  0.00     0.013 A 
HETATM    2  C   UNK     0      -3.088  -2.175   7.876  0.00  0.00     0.001 A 
HETATM    3  C   UNK     0      -2.727  -1.974   6.525  0.00  0.00     0.001 A 
HETATM    4  C   UNK     0      -1.688  -1.081   6.188  0.00  0.00     0.008 A 
HETATM    5  C   UNK     0      -1.018  -0.401   7.224  0.00  0.00    -0.043 A 
HETATM    6  C   UNK     0      -1.374  -0.603   8.562  0.00  0.00    -0.019 A 
HETATM    7  C   UNK     0       0.085   0.560   7.102  0.00  0.00     0.080 A 
HETATM    8  C   UNK     0       0.339   0.885   8.523  0.00  0.00    -0.032 A 
HETATM    9  C   UNK     0      -0.556   0.198   9.355  0.00  0.00    -0.016 A 
HETATM   10  C   UNK     0       1.296   1.780   9.066  0.00  0.00    -0.016 A 
HETATM   11  C   UNK     0       1.282   1.990  10.469  0.00  0.00     0.042 A 
HETATM   12  C   UNK     0       0.357   1.321  11.302  0.00  0.00     0.027 A 
HETATM   13  C   UNK     0      -0.557   0.400  10.748  0.00  0.00     0.042 A 
ENDROOT
BRANCH  10  14
HETATM   14  C   UNK     0       2.218   2.482   8.241  0.00  0.00    -0.023 A 
HETATM   15  C   UNK     0       3.314   3.166   8.812  0.00  0.00     0.029 A 
HETATM   16  C   UNK     0       4.192   3.894   7.988  0.00  0.00     0.090 A 
HETATM   17  N   UNK     0       4.006   3.952   6.632  0.00  0.00    -0.371 N 
HETATM   18  C   UNK     0       2.960   3.280   6.057  0.00  0.00     0.090 A 
HETATM   19  C   UNK     0       4.928   4.695   5.809  0.00  0.00     0.154 C 
HETATM   20  C   UNK     0       2.062   2.530   6.838  0.00  0.00     0.029 A 
ENDBRANCH  10  14
BRANCH  12  21
HETATM   21  N   UNK     0       0.330   1.577  12.626  0.00  0.00    -0.399 N 
HETATM   22  H   UNK     0       0.263   0.846  13.262  0.00  0.00     0.156 HD
HETATM   23  H   UNK     0       0.386   2.490  12.947  0.00  0.00     0.156 HD
ENDBRANCH  12  21
TORSDOF 2
ENDMDL
MODEL 8
REMARK VINA RESULT:      -7.3      5.796     12.390
REMARK  2 active torsions:
REMARK  status: ('A' for Active; 'I' for Inactive)
REMARK    1  A    between atoms: C_10  and  C_17 
REMARK    2  A    between atoms: C_12  and  N_14 
ROOT
HETATM    1  C   UNK     0      -9.079  -5.506   7.125  0.00  0.00     0.013 A 
HETATM    2  C   UNK     0     -10.012  -5.416   8.179  0.00  0.00     0.001 A 
HETATM    3  C   UNK     0      -9.727  -4.642   9.325  0.00  0.00     0.001 A 
HETATM    4  C   UNK     0      -8.501  -3.953   9.435  0.00  0.00     0.008 A 
HETATM    5  C   UNK     0      -7.574  -4.048   8.379  0.00  0.00    -0.043 A 
HETATM    6  C   UNK     0      -7.859  -4.813   7.242  0.00  0.00    -0.019 A 
HETATM    7  C   UNK     0      -6.253  -3.416   8.282  0.00  0.00     0.080 A 
HETATM    8  C   UNK     0      -5.806  -3.889   6.954  0.00  0.00    -0.032 A 
HETATM    9  C   UNK     0      -6.769  -4.730   6.378  0.00  0.00    -0.016 A 
HETATM   10  C   UNK     0      -4.583  -3.623   6.287  0.00  0.00    -0.016 A 
HETATM   11  C   UNK     0      -4.350  -4.274   5.048  0.00  0.00     0.042 A 
HETATM   12  C   UNK     0      -5.309  -5.147   4.487  0.00  0.00     0.027 A 
HETATM   13  C   UNK     0      -6.539  -5.364   5.143  0.00  0.00     0.042 A 
ENDROOT
BRANCH  10  14
HETATM   14  C   UNK     0      -3.595  -2.767   6.849  0.00  0.00    -0.023 A 
HETATM   15  C   UNK     0      -3.490  -2.617   8.249  0.00  0.00     0.029 A 
HETATM   16  C   UNK     0      -2.537  -1.732   8.789  0.00  0.00     0.090 A 
HETATM   17  N   UNK     0      -1.703  -1.009   7.978  0.00  0.00    -0.371 N 
HETATM   18  C   UNK     0      -1.777  -1.155   6.618  0.00  0.00     0.090 A 
HETATM   19  C   UNK     0      -0.728  -0.118   8.558  0.00  0.00     0.154 C 
HETATM   20  C   UNK     0      -2.705  -2.035   6.032  0.00  0.00     0.029 A 
ENDBRANCH  10  14
BRANCH  12  21
HETATM   21  N   UNK     0      -5.043  -5.793   3.333  0.00  0.00    -0.399 N 
HETATM   22  H   UNK     0      -4.355  -5.457   2.734  0.00  0.00     0.156 HD
HETATM   23  H   UNK     0      -5.531  -6.598   3.101  0.00  0.00     0.156 HD
ENDBRANCH  12  21
TORSDOF 2
ENDMDL
MODEL 9
REMARK VINA RESULT:      -7.2      7.910     11.151
REMARK  2 active torsions:
REMARK  status: ('A' for Active; 'I' for Inactive)
REMARK    1  A    between atoms: C_10  and  C_17 
REMARK    2  A    between atoms: C_12  and  N_14 
ROOT
HETATM    1  C   UNK     0      -5.078  -5.001   4.507  0.00  0.00     0.013 A 
HETATM    2  C   UNK     0      -6.026  -5.960   4.092  0.00  0.00     0.001 A 
HETATM    3  C   UNK     0      -7.116  -6.298   4.924  0.00  0.00     0.001 A 
HETATM    4  C   UNK     0      -7.268  -5.686   6.185  0.00  0.00     0.008 A 
HETATM    5  C   UNK     0      -6.317  -4.730   6.594  0.00  0.00    -0.043 A 
HETATM    6  C   UNK     0      -5.240  -4.394   5.767  0.00  0.00    -0.019 A 
HETATM    7  C   UNK     0      -6.284  -3.975   7.852  0.00  0.00     0.080 A 
HETATM    8  C   UNK     0      -5.071  -3.150   7.658  0.00  0.00    -0.032 A 
HETATM    9  C   UNK     0      -4.467  -3.440   6.427  0.00  0.00    -0.016 A 
HETATM   10  C   UNK     0      -4.496  -2.204   8.545  0.00  0.00    -0.016 A 
HETATM   11  C   UNK     0      -3.268  -1.604   8.165  0.00  0.00     0.042 A 
HETATM   12  C   UNK     0      -2.644  -1.924   6.937  0.00  0.00     0.027 A 
HETATM   13  C   UNK     0      -3.256  -2.833   6.048  0.00  0.00     0.042 A 
ENDROOT
BRANCH  10  14
HETATM   14  C   UNK     0      -5.096  -1.889   9.795  0.00  0.00    -0.023 A 
HETATM   15  C   UNK     0      -4.629  -2.489  10.986  0.00  0.00     0.029 A 
HETATM   16  C   UNK     0      -5.262  -2.202  12.210  0.00  0.00     0.090 A 
HETATM   17  N   UNK     0      -6.329  -1.345  12.272  0.00  0.00    -0.371 N 
HETATM   18  C   UNK     0      -6.785  -0.739  11.131  0.00  0.00     0.090 A 
HETATM   19  C   UNK     0      -6.951  -1.059  13.541  0.00  0.00     0.154 C 
HETATM   20  C   UNK     0      -6.178  -0.986   9.886  0.00  0.00     0.029 A 
ENDBRANCH  10  14
BRANCH  12  21
HETATM   21  N   UNK     0      -1.452  -1.378   6.622  0.00  0.00    -0.399 N 
HETATM   22  H   UNK     0      -1.112  -0.623   7.131  0.00  0.00     0.156 HD
HETATM   23  H   UNK     0      -0.927  -1.742   5.892  0.00  0.00     0.156 HD
ENDBRANCH  12  21
TORSDOF 2
ENDMDL
