MODEL 1
REMARK VINA RESULT:      -6.6      0.000      0.000
REMARK  4 active torsions:
REMARK  status: ('A' for Active; 'I' for Inactive)
REMARK    1  A    between atoms: C_11  and  N_14 
REMARK    2  A    between atoms: C_13  and  C_21 
REMARK       I    between atoms: N_14  and  C_15 
REMARK    3  A    between atoms: C_15  and  C_16 
REMARK    4  A    between atoms: C_16  and  C_17 
ROOT
HETATM    1  C   UNK     0      -8.066  11.317  -0.365  0.00  0.00     0.008 A 
HETATM    2  C   UNK     0      -8.662  11.585  -1.616  0.00  0.00     0.001 A 
HETATM    3  C   UNK     0      -9.179  10.532  -2.401  0.00  0.00     0.001 A 
HETATM    4  C   UNK     0      -9.096   9.200  -1.949  0.00  0.00     0.013 A 
HETATM    5  C   UNK     0      -8.494   8.945  -0.702  0.00  0.00    -0.019 A 
HETATM    6  C   UNK     0      -7.988   9.984   0.083  0.00  0.00    -0.043 A 
HETATM    7  C   UNK     0      -8.280   7.751  -0.020  0.00  0.00    -0.016 A 
HETATM    8  C   UNK     0      -7.634   8.022   1.192  0.00  0.00    -0.032 A 
HETATM    9  C   UNK     0      -7.411   9.479   1.340  0.00  0.00     0.080 A 
HETATM   10  C   UNK     0      -8.635   6.442  -0.386  0.00  0.00     0.042 A 
HETATM   11  C   UNK     0      -8.336   5.368   0.485  0.00  0.00     0.036 A 
HETATM   12  C   UNK     0      -7.689   5.646   1.716  0.00  0.00     0.042 A 
HETATM   13  C   UNK     0      -7.317   6.967   2.088  0.00  0.00    -0.016 A 
ENDROOT
BRANCH  13  14
HETATM   14  C   UNK     0      -6.660   7.202   3.327  0.00  0.00    -0.023 A 
HETATM   15  C   UNK     0      -5.260   7.410   3.383  0.00  0.00     0.029 A 
HETATM   16  C   UNK     0      -4.641   7.666   4.618  0.00  0.00     0.088 A 
HETATM   17  N   UNK     0      -5.380   7.694   5.755  0.00  0.00    -0.375 N 
HETATM   18  C   UNK     0      -6.721   7.477   5.754  0.00  0.00     0.088 A 
HETATM   19  HN  UNK     0      -4.914   7.884   6.642  1.00  0.00     0.164 HD
HETATM   20  C   UNK     0      -7.390   7.223   4.541  0.00  0.00     0.029 A 
ENDBRANCH  13  14
BRANCH  11  21
HETATM   21  N   UNK     0      -8.697   4.073   0.223  0.00  0.00    -0.327 N 
HETATM   22  C   UNK     0      -8.330   3.288  -0.835  0.00  0.00     0.223 C 
HETATM   23  O   UNK     0      -7.443   3.632  -1.652  0.00  0.00    -0.273 OA
HETATM   24  H   UNK     0      -9.278   3.653   0.878  0.00  0.00     0.169 HD
BRANCH  22  25
HETATM   25  C   UNK     0      -8.986   1.975  -1.024  0.00  0.00     0.118 C 
BRANCH  25  26
HETATM   26  C   UNK     0      -8.322   1.174  -2.170  0.00  0.00     0.124 C 
HETATM   27 Cl   UNK     0      -7.398  -0.187  -1.544  0.00  0.00    -0.130 Cl
ENDBRANCH  25  26
ENDBRANCH  22  25
ENDBRANCH  11  21
TORSDOF 4
ENDMDL
MODEL 2
REMARK VINA RESULT:      -6.3      3.165      6.064
REMARK  4 active torsions:
REMARK  status: ('A' for Active; 'I' for Inactive)
REMARK    1  A    between atoms: C_11  and  N_14 
REMARK    2  A    between atoms: C_13  and  C_21 
REMARK       I    between atoms: N_14  and  C_15 
REMARK    3  A    between atoms: C_15  and  C_16 
REMARK    4  A    between atoms: C_16  and  C_17 
ROOT
HETATM    1  C   UNK     0      -9.727   9.647  -2.823  0.00  0.00     0.008 A 
HETATM    2  C   UNK     0      -9.622  11.054  -2.787  0.00  0.00     0.001 A 
HETATM    3  C   UNK     0      -9.011  11.697  -1.690  0.00  0.00     0.001 A 
HETATM    4  C   UNK     0      -8.509  10.942  -0.610  0.00  0.00     0.013 A 
HETATM    5  C   UNK     0      -8.626   9.539  -0.655  0.00  0.00    -0.019 A 
HETATM    6  C   UNK     0      -9.222   8.897  -1.744  0.00  0.00    -0.043 A 
HETATM    7  C   UNK     0      -8.227   8.563   0.251  0.00  0.00    -0.016 A 
HETATM    8  C   UNK     0      -8.571   7.301  -0.248  0.00  0.00    -0.032 A 
HETATM    9  C   UNK     0      -9.228   7.434  -1.570  0.00  0.00     0.080 A 
HETATM   10  C   UNK     0      -7.561   8.708   1.480  0.00  0.00     0.042 A 
HETATM   11  C   UNK     0      -7.228   7.558   2.234  0.00  0.00     0.036 A 
HETATM   12  C   UNK     0      -7.570   6.282   1.721  0.00  0.00     0.042 A 
HETATM   13  C   UNK     0      -8.253   6.126   0.485  0.00  0.00    -0.016 A 
ENDROOT
BRANCH  13  14
HETATM   14  C   UNK     0      -8.588   4.828   0.010  0.00  0.00    -0.023 A 
HETATM   15  C   UNK     0      -9.608   4.066   0.630  0.00  0.00     0.029 A 
HETATM   16  C   UNK     0      -9.936   2.796   0.124  0.00  0.00     0.088 A 
HETATM   17  N   UNK     0      -9.262   2.296  -0.942  0.00  0.00    -0.375 N 
HETATM   18  C   UNK     0      -8.261   2.981  -1.553  0.00  0.00     0.088 A 
HETATM   19  HN  UNK     0      -9.516   1.374  -1.297  1.00  0.00     0.164 HD
HETATM   20  C   UNK     0      -7.899   4.260  -1.089  0.00  0.00     0.029 A 
ENDBRANCH  13  14
BRANCH  11  21
HETATM   21  N   UNK     0      -6.533   7.616   3.414  0.00  0.00    -0.327 N 
HETATM   22  C   UNK     0      -5.182   7.712   3.598  0.00  0.00     0.223 C 
HETATM   23  O   UNK     0      -4.388   7.930   2.652  0.00  0.00    -0.273 OA
HETATM   24  H   UNK     0      -7.069   7.599   4.223  0.00  0.00     0.169 HD
BRANCH  22  25
HETATM   25  C   UNK     0      -4.626   7.572   4.962  0.00  0.00     0.118 C 
BRANCH  25  26
HETATM   26  C   UNK     0      -4.657   8.919   5.725  0.00  0.00     0.124 C 
HETATM   27 Cl   UNK     0      -3.163   9.819   5.489  0.00  0.00    -0.130 Cl
ENDBRANCH  25  26
ENDBRANCH  22  25
ENDBRANCH  11  21
TORSDOF 4
ENDMDL
MODEL 3
REMARK VINA RESULT:      -6.3     12.294     16.402
REMARK  4 active torsions:
REMARK  status: ('A' for Active; 'I' for Inactive)
REMARK    1  A    between atoms: C_11  and  N_14 
REMARK    2  A    between atoms: C_13  and  C_21 
REMARK       I    between atoms: N_14  and  C_15 
REMARK    3  A    between atoms: C_15  and  C_16 
REMARK    4  A    between atoms: C_16  and  C_17 
ROOT
HETATM    1  C   UNK     0       3.459  -1.942  11.833  0.00  0.00     0.008 A 
HETATM    2  C   UNK     0       4.649  -2.097  12.575  0.00  0.00     0.001 A 
HETATM    3  C   UNK     0       5.785  -1.317  12.274  0.00  0.00     0.001 A 
HETATM    4  C   UNK     0       5.748  -0.382  11.220  0.00  0.00     0.013 A 
HETATM    5  C   UNK     0       4.556  -0.241  10.483  0.00  0.00    -0.019 A 
HETATM    6  C   UNK     0       3.425  -1.005  10.783  0.00  0.00    -0.043 A 
HETATM    7  C   UNK     0       4.241   0.588   9.412  0.00  0.00    -0.016 A 
HETATM    8  C   UNK     0       2.917   0.353   9.021  0.00  0.00    -0.032 A 
HETATM    9  C   UNK     0       2.304  -0.684   9.884  0.00  0.00     0.080 A 
HETATM   10  C   UNK     0       5.035   1.553   8.769  0.00  0.00     0.042 A 
HETATM   11  C   UNK     0       4.491   2.307   7.702  0.00  0.00     0.036 A 
HETATM   12  C   UNK     0       3.148   2.072   7.315  0.00  0.00     0.042 A 
HETATM   13  C   UNK     0       2.341   1.091   7.952  0.00  0.00    -0.016 A 
ENDROOT
BRANCH  13  14
HETATM   14  C   UNK     0       1.001   0.879   7.527  0.00  0.00    -0.023 A 
HETATM   15  C   UNK     0       0.702  -0.040   6.490  0.00  0.00     0.029 A 
HETATM   16  C   UNK     0      -0.634  -0.249   6.107  0.00  0.00     0.088 A 
HETATM   17  N   UNK     0      -1.631   0.443   6.715  0.00  0.00    -0.375 N 
HETATM   18  C   UNK     0      -1.389   1.351   7.696  0.00  0.00     0.088 A 
HETATM   19  HN  UNK     0      -2.594   0.276   6.426  1.00  0.00     0.164 HD
HETATM   20  C   UNK     0      -0.068   1.591   8.121  0.00  0.00     0.029 A 
ENDBRANCH  13  14
BRANCH  11  21
HETATM   21  N   UNK     0       5.184   3.300   7.062  0.00  0.00    -0.327 N 
HETATM   22  C   UNK     0       6.533   3.519   7.048  0.00  0.00     0.223 C 
HETATM   23  O   UNK     0       7.353   2.693   7.518  0.00  0.00    -0.273 OA
HETATM   24  H   UNK     0       4.651   3.923   6.541  0.00  0.00     0.169 HD
BRANCH  22  25
HETATM   25  C   UNK     0       7.059   4.763   6.445  0.00  0.00     0.118 C 
BRANCH  25  26
HETATM   26  C   UNK     0       6.283   5.138   5.159  0.00  0.00     0.124 C 
HETATM   27 Cl   UNK     0       7.345   5.878   3.967  0.00  0.00    -0.130 Cl
ENDBRANCH  25  26
ENDBRANCH  22  25
ENDBRANCH  11  21
TORSDOF 4
ENDMDL
MODEL 4
REMARK VINA RESULT:      -6.2     19.145     20.899
REMARK  4 active torsions:
REMARK  status: ('A' for Active; 'I' for Inactive)
REMARK    1  A    between atoms: C_11  and  N_14 
REMARK    2  A    between atoms: C_13  and  C_21 
REMARK       I    between atoms: N_14  and  C_15 
REMARK    3  A    between atoms: C_15  and  C_16 
REMARK    4  A    between atoms: C_16  and  C_17 
ROOT
HETATM    1  C   UNK     0      14.996   3.079  -0.513  0.00  0.00     0.008 A 
HETATM    2  C   UNK     0      15.789   4.245  -0.566  0.00  0.00     0.001 A 
HETATM    3  C   UNK     0      15.500   5.263  -1.500  0.00  0.00     0.001 A 
HETATM    4  C   UNK     0      14.423   5.121  -2.398  0.00  0.00     0.013 A 
HETATM    5  C   UNK     0      13.643   3.950  -2.339  0.00  0.00    -0.019 A 
HETATM    6  C   UNK     0      13.919   2.943  -1.410  0.00  0.00    -0.043 A 
HETATM    7  C   UNK     0      12.541   3.551  -3.088  0.00  0.00    -0.016 A 
HETATM    8  C   UNK     0      12.117   2.291  -2.648  0.00  0.00    -0.032 A 
HETATM    9  C   UNK     0      12.973   1.821  -1.533  0.00  0.00     0.080 A 
HETATM   10  C   UNK     0      11.873   4.231  -4.119  0.00  0.00     0.042 A 
HETATM   11  C   UNK     0      10.744   3.636  -4.731  0.00  0.00     0.036 A 
HETATM   12  C   UNK     0      10.312   2.365  -4.277  0.00  0.00     0.042 A 
HETATM   13  C   UNK     0      10.989   1.665  -3.242  0.00  0.00    -0.016 A 
ENDROOT
BRANCH  13  14
HETATM   14  C   UNK     0      10.530   0.386  -2.823  0.00  0.00    -0.023 A 
HETATM   15  C   UNK     0      11.350  -0.762  -2.950  0.00  0.00     0.029 A 
HETATM   16  C   UNK     0      10.880  -2.009  -2.503  0.00  0.00     0.088 A 
HETATM   17  N   UNK     0       9.636  -2.115  -1.973  0.00  0.00    -0.375 N 
HETATM   18  C   UNK     0       8.805  -1.047  -1.854  0.00  0.00     0.088 A 
HETATM   19  HN  UNK     0       9.313  -3.027  -1.652  1.00  0.00     0.164 HD
HETATM   20  C   UNK     0       9.232   0.226  -2.280  0.00  0.00     0.029 A 
ENDBRANCH  13  14
BRANCH  11  21
HETATM   21  N   UNK     0      10.009   4.260  -5.705  0.00  0.00    -0.327 N 
HETATM   22  C   UNK     0      10.345   4.476  -7.012  0.00  0.00     0.223 C 
HETATM   23  O   UNK     0      11.358   3.959  -7.541  0.00  0.00    -0.273 OA
HETATM   24  H   UNK     0       9.132   4.578  -5.436  0.00  0.00     0.169 HD
BRANCH  22  25
HETATM   25  C   UNK     0       9.480   5.338  -7.848  0.00  0.00     0.118 C 
BRANCH  25  26
HETATM   26  C   UNK     0       8.035   5.392  -7.296  0.00  0.00     0.124 C 
HETATM   27 Cl   UNK     0       6.873   5.695  -8.582  0.00  0.00    -0.130 Cl
ENDBRANCH  25  26
ENDBRANCH  22  25
ENDBRANCH  11  21
TORSDOF 4
ENDMDL
MODEL 5
REMARK VINA RESULT:      -6.2      1.060      1.467
REMARK  4 active torsions:
REMARK  status: ('A' for Active; 'I' for Inactive)
REMARK    1  A    between atoms: C_11  and  N_14 
REMARK    2  A    between atoms: C_13  and  C_21 
REMARK       I    between atoms: N_14  and  C_15 
REMARK    3  A    between atoms: C_15  and  C_16 
REMARK    4  A    between atoms: C_16  and  C_17 
ROOT
HETATM    1  C   UNK     0      -8.078  11.368  -0.254  0.00  0.00     0.008 A 
HETATM    2  C   UNK     0      -8.680  11.591  -1.510  0.00  0.00     0.001 A 
HETATM    3  C   UNK     0      -9.145  10.504  -2.282  0.00  0.00     0.001 A 
HETATM    4  C   UNK     0      -9.002   9.184  -1.812  0.00  0.00     0.013 A 
HETATM    5  C   UNK     0      -8.392   8.974  -0.559  0.00  0.00    -0.019 A 
HETATM    6  C   UNK     0      -7.939  10.047   0.213  0.00  0.00    -0.043 A 
HETATM    7  C   UNK     0      -8.126   7.801   0.139  0.00  0.00    -0.016 A 
HETATM    8  C   UNK     0      -7.497   8.118   1.349  0.00  0.00    -0.032 A 
HETATM    9  C   UNK     0      -7.343   9.586   1.479  0.00  0.00     0.080 A 
HETATM   10  C   UNK     0      -8.418   6.472  -0.210  0.00  0.00     0.042 A 
HETATM   11  C   UNK     0      -8.071   5.425   0.677  0.00  0.00     0.036 A 
HETATM   12  C   UNK     0      -7.443   5.750   1.905  0.00  0.00     0.042 A 
HETATM   13  C   UNK     0      -7.135   7.091   2.261  0.00  0.00    -0.016 A 
ENDROOT
BRANCH  13  14
HETATM   14  C   UNK     0      -6.494   7.374   3.499  0.00  0.00    -0.023 A 
HETATM   15  C   UNK     0      -7.234   7.441   4.704  0.00  0.00     0.029 A 
HETATM   16  C   UNK     0      -6.571   7.697   5.917  0.00  0.00     0.088 A 
HETATM   17  N   UNK     0      -5.230   7.899   5.928  0.00  0.00    -0.375 N 
HETATM   18  C   UNK     0      -4.483   7.868   4.794  0.00  0.00     0.088 A 
HETATM   19  HN  UNK     0      -4.766   8.080   6.818  1.00  0.00     0.164 HD
HETATM   20  C   UNK     0      -5.099   7.608   3.554  0.00  0.00     0.029 A 
ENDBRANCH  13  14
BRANCH  11  21
HETATM   21  N   UNK     0      -8.370   4.111   0.431  0.00  0.00    -0.327 N 
HETATM   22  C   UNK     0      -9.474   3.405   0.820  0.00  0.00     0.223 C 
HETATM   23  O   UNK     0     -10.473   3.954   1.344  0.00  0.00    -0.273 OA
HETATM   24  H   UNK     0      -7.721   3.620  -0.099  0.00  0.00     0.169 HD
BRANCH  22  25
HETATM   25  C   UNK     0      -9.510   1.942   0.607  0.00  0.00     0.118 C 
BRANCH  25  26
HETATM   26  C   UNK     0      -9.416   1.588  -0.897  0.00  0.00     0.124 C 
HETATM   27 Cl   UNK     0      -8.018   0.572  -1.226  0.00  0.00    -0.130 Cl
ENDBRANCH  25  26
ENDBRANCH  22  25
ENDBRANCH  11  21
TORSDOF 4
ENDMDL
MODEL 6
REMARK VINA RESULT:      -6.1     19.990     22.517
REMARK  4 active torsions:
REMARK  status: ('A' for Active; 'I' for Inactive)
REMARK    1  A    between atoms: C_11  and  N_14 
REMARK    2  A    between atoms: C_13  and  C_21 
REMARK       I    between atoms: N_14  and  C_15 
REMARK    3  A    between atoms: C_15  and  C_16 
REMARK    4  A    between atoms: C_16  and  C_17 
ROOT
HETATM    1  C   UNK     0      13.909  -7.456   5.185  0.00  0.00     0.008 A 
HETATM    2  C   UNK     0      15.025  -7.380   4.326  0.00  0.00     0.001 A 
HETATM    3  C   UNK     0      14.952  -6.647   3.122  0.00  0.00     0.001 A 
HETATM    4  C   UNK     0      13.759  -5.990   2.759  0.00  0.00     0.013 A 
HETATM    5  C   UNK     0      12.650  -6.078   3.623  0.00  0.00    -0.019 A 
HETATM    6  C   UNK     0      12.719  -6.796   4.820  0.00  0.00    -0.043 A 
HETATM    7  C   UNK     0      11.371  -5.541   3.521  0.00  0.00    -0.016 A 
HETATM    8  C   UNK     0      10.621  -5.917   4.641  0.00  0.00    -0.032 A 
HETATM    9  C   UNK     0      11.444  -6.744   5.555  0.00  0.00     0.080 A 
HETATM   10  C   UNK     0      10.827  -4.723   2.515  0.00  0.00     0.042 A 
HETATM   11  C   UNK     0       9.493  -4.267   2.632  0.00  0.00     0.036 A 
HETATM   12  C   UNK     0       8.739  -4.643   3.772  0.00  0.00     0.042 A 
HETATM   13  C   UNK     0       9.278  -5.478   4.789  0.00  0.00    -0.016 A 
ENDROOT
BRANCH  13  14
HETATM   14  C   UNK     0       8.486  -5.841   5.912  0.00  0.00    -0.023 A 
HETATM   15  C   UNK     0       7.490  -6.843   5.809  0.00  0.00     0.029 A 
HETATM   16  C   UNK     0       6.739  -7.200   6.942  0.00  0.00     0.088 A 
HETATM   17  N   UNK     0       6.954  -6.571   8.125  0.00  0.00    -0.375 N 
HETATM   18  C   UNK     0       7.881  -5.588   8.265  0.00  0.00     0.088 A 
HETATM   19  HN  UNK     0       6.401  -6.845   8.937  1.00  0.00     0.164 HD
HETATM   20  C   UNK     0       8.665  -5.199   7.161  0.00  0.00     0.029 A 
ENDBRANCH  13  14
BRANCH  11  21
HETATM   21  N   UNK     0       8.911  -3.426   1.721  0.00  0.00    -0.327 N 
HETATM   22  C   UNK     0       9.204  -2.115   1.469  0.00  0.00     0.223 C 
HETATM   23  O   UNK     0      10.205  -1.543   1.962  0.00  0.00    -0.273 OA
HETATM   24  H   UNK     0       8.207  -3.813   1.174  0.00  0.00     0.169 HD
BRANCH  22  25
HETATM   25  C   UNK     0       8.324  -1.336   0.570  0.00  0.00     0.118 C 
BRANCH  25  26
HETATM   26  C   UNK     0       9.149  -0.484  -0.427  0.00  0.00     0.124 C 
HETATM   27 Cl   UNK     0       8.696  -0.835  -2.091  0.00  0.00    -0.130 Cl
ENDBRANCH  25  26
ENDBRANCH  22  25
ENDBRANCH  11  21
TORSDOF 4
ENDMDL
MODEL 7
REMARK VINA RESULT:      -6.1      2.043      5.281
REMARK  4 active torsions:
REMARK  status: ('A' for Active; 'I' for Inactive)
REMARK    1  A    between atoms: C_11  and  N_14 
REMARK    2  A    between atoms: C_13  and  C_21 
REMARK       I    between atoms: N_14  and  C_15 
REMARK    3  A    between atoms: C_15  and  C_16 
REMARK    4  A    between atoms: C_16  and  C_17 
ROOT
HETATM    1  C   UNK     0      -6.611   9.499   3.209  0.00  0.00     0.008 A 
HETATM    2  C   UNK     0      -5.961   8.813   4.255  0.00  0.00     0.001 A 
HETATM    3  C   UNK     0      -5.902   7.402   4.258  0.00  0.00     0.001 A 
HETATM    4  C   UNK     0      -6.504   6.663   3.220  0.00  0.00     0.013 A 
HETATM    5  C   UNK     0      -7.156   7.360   2.184  0.00  0.00    -0.019 A 
HETATM    6  C   UNK     0      -7.209   8.756   2.172  0.00  0.00    -0.043 A 
HETATM    7  C   UNK     0      -7.823   6.896   1.055  0.00  0.00    -0.016 A 
HETATM    8  C   UNK     0      -8.307   7.989   0.325  0.00  0.00    -0.032 A 
HETATM    9  C   UNK     0      -7.937   9.258   0.994  0.00  0.00     0.080 A 
HETATM   10  C   UNK     0      -8.015   5.576   0.613  0.00  0.00     0.042 A 
HETATM   11  C   UNK     0      -8.712   5.339  -0.595  0.00  0.00     0.036 A 
HETATM   12  C   UNK     0      -9.194   6.447  -1.335  0.00  0.00     0.042 A 
HETATM   13  C   UNK     0      -9.014   7.785  -0.890  0.00  0.00    -0.016 A 
ENDROOT
BRANCH  13  14
HETATM   14  C   UNK     0      -9.522   8.869  -1.657  0.00  0.00    -0.023 A 
HETATM   15  C   UNK     0     -10.917   9.070  -1.802  0.00  0.00     0.029 A 
HETATM   16  C   UNK     0     -11.391  10.165  -2.544  0.00  0.00     0.088 A 
HETATM   17  N   UNK     0     -10.515  11.014  -3.137  0.00  0.00    -0.375 N 
HETATM   18  C   UNK     0      -9.170  10.847  -3.047  0.00  0.00     0.088 A 
HETATM   19  HN  UNK     0     -10.877  11.804  -3.669  1.00  0.00     0.164 HD
HETATM   20  C   UNK     0      -8.644   9.770  -2.308  0.00  0.00     0.029 A 
ENDBRANCH  13  14
BRANCH  11  21
HETATM   21  N   UNK     0      -8.893   4.085  -1.116  0.00  0.00    -0.327 N 
HETATM   22  C   UNK     0      -8.075   3.394  -1.966  0.00  0.00     0.223 C 
HETATM   23  O   UNK     0      -6.921   3.790  -2.259  0.00  0.00    -0.273 OA
HETATM   24  H   UNK     0      -9.699   3.621  -0.837  0.00  0.00     0.169 HD
BRANCH  22  25
HETATM   25  C   UNK     0      -8.551   2.124  -2.557  0.00  0.00     0.118 C 
BRANCH  25  26
HETATM   26  C   UNK     0      -8.761   1.040  -1.472  0.00  0.00     0.124 C 
HETATM   27 Cl   UNK     0      -7.430  -0.111  -1.456  0.00  0.00    -0.130 Cl
ENDBRANCH  25  26
ENDBRANCH  22  25
ENDBRANCH  11  21
TORSDOF 4
ENDMDL
MODEL 8
REMARK VINA RESULT:      -6.0      3.384      6.835
REMARK  4 active torsions:
REMARK  status: ('A' for Active; 'I' for Inactive)
REMARK    1  A    between atoms: C_11  and  N_14 
REMARK    2  A    between atoms: C_13  and  C_21 
REMARK       I    between atoms: N_14  and  C_15 
REMARK    3  A    between atoms: C_15  and  C_16 
REMARK    4  A    between atoms: C_16  and  C_17 
ROOT
HETATM    1  C   UNK     0     -10.778   2.481   4.806  0.00  0.00     0.008 A 
HETATM    2  C   UNK     0     -11.211   1.260   5.364  0.00  0.00     0.001 A 
HETATM    3  C   UNK     0     -11.171   0.072   4.602  0.00  0.00     0.001 A 
HETATM    4  C   UNK     0     -10.709   0.095   3.271  0.00  0.00     0.013 A 
HETATM    5  C   UNK     0     -10.286   1.322   2.723  0.00  0.00    -0.019 A 
HETATM    6  C   UNK     0     -10.314   2.498   3.476  0.00  0.00    -0.043 A 
HETATM    7  C   UNK     0      -9.791   1.633   1.461  0.00  0.00    -0.016 A 
HETATM    8  C   UNK     0      -9.511   3.003   1.401  0.00  0.00    -0.032 A 
HETATM    9  C   UNK     0      -9.823   3.649   2.698  0.00  0.00     0.080 A 
HETATM   10  C   UNK     0      -9.551   0.786   0.366  0.00  0.00     0.042 A 
HETATM   11  C   UNK     0      -9.015   1.324  -0.828  0.00  0.00     0.036 A 
HETATM   12  C   UNK     0      -8.724   2.711  -0.883  0.00  0.00     0.042 A 
HETATM   13  C   UNK     0      -8.974   3.576   0.217  0.00  0.00    -0.016 A 
ENDROOT
BRANCH  13  14
HETATM   14  C   UNK     0      -8.679   4.963   0.118  0.00  0.00    -0.023 A 
HETATM   15  C   UNK     0      -9.387   5.798  -0.781  0.00  0.00     0.029 A 
HETATM   16  C   UNK     0      -9.092   7.171  -0.840  0.00  0.00     0.088 A 
HETATM   17  N   UNK     0      -8.117   7.689  -0.052  0.00  0.00    -0.375 N 
HETATM   18  C   UNK     0      -7.395   6.924   0.807  0.00  0.00     0.088 A 
HETATM   19  HN  UNK     0      -7.918   8.688  -0.106  1.00  0.00     0.164 HD
HETATM   20  C   UNK     0      -7.657   5.544   0.908  0.00  0.00     0.029 A 
ENDBRANCH  13  14
BRANCH  11  21
HETATM   21  N   UNK     0      -8.704   0.555  -1.918  0.00  0.00    -0.327 N 
HETATM   22  C   UNK     0      -7.533  -0.094  -2.193  0.00  0.00     0.223 C 
HETATM   23  O   UNK     0      -6.607  -0.195  -1.352  0.00  0.00    -0.273 OA
HETATM   24  H   UNK     0      -9.411   0.446  -2.576  0.00  0.00     0.169 HD
BRANCH  22  25
HETATM   25  C   UNK     0      -7.345  -0.718  -3.521  0.00  0.00     0.118 C 
BRANCH  25  26
HETATM   26  C   UNK     0      -8.295  -1.925  -3.717  0.00  0.00     0.124 C 
HETATM   27 Cl   UNK     0      -7.822  -3.280  -2.698  0.00  0.00    -0.130 Cl
ENDBRANCH  25  26
ENDBRANCH  22  25
ENDBRANCH  11  21
TORSDOF 4
ENDMDL
MODEL 9
REMARK VINA RESULT:      -6.0      6.369     11.635
REMARK  4 active torsions:
REMARK  status: ('A' for Active; 'I' for Inactive)
REMARK    1  A    between atoms: C_11  and  N_14 
REMARK    2  A    between atoms: C_13  and  C_21 
REMARK       I    between atoms: N_14  and  C_15 
REMARK    3  A    between atoms: C_15  and  C_16 
REMARK    4  A    between atoms: C_16  and  C_17 
ROOT
HETATM    1  C   UNK     0      -9.360  -0.208 -11.227  0.00  0.00     0.008 A 
HETATM    2  C   UNK     0      -9.690   0.955 -11.953  0.00  0.00     0.001 A 
HETATM    3  C   UNK     0      -9.951   2.168 -11.280  0.00  0.00     0.001 A 
HETATM    4  C   UNK     0      -9.897   2.228  -9.873  0.00  0.00     0.013 A 
HETATM    5  C   UNK     0      -9.572   1.058  -9.159  0.00  0.00    -0.019 A 
HETATM    6  C   UNK     0      -9.304  -0.143  -9.821  0.00  0.00    -0.043 A 
HETATM    7  C   UNK     0      -9.448   0.831  -7.793  0.00  0.00    -0.016 A 
HETATM    8  C   UNK     0      -9.110  -0.511  -7.578  0.00  0.00    -0.032 A 
HETATM    9  C   UNK     0      -8.988  -1.223  -8.871  0.00  0.00     0.080 A 
HETATM   10  C   UNK     0      -9.593   1.731  -6.724  0.00  0.00     0.042 A 
HETATM   11  C   UNK     0      -9.394   1.278  -5.398  0.00  0.00     0.036 A 
HETATM   12  C   UNK     0      -9.043  -0.078  -5.184  0.00  0.00     0.042 A 
HETATM   13  C   UNK     0      -8.905  -0.998  -6.259  0.00  0.00    -0.016 A 
ENDROOT
BRANCH  13  14
HETATM   14  C   UNK     0      -8.562  -2.354  -6.001  0.00  0.00    -0.023 A 
HETATM   15  C   UNK     0      -9.556  -3.361  -5.954  0.00  0.00     0.029 A 
HETATM   16  C   UNK     0      -9.186  -4.698  -5.723  0.00  0.00     0.088 A 
HETATM   17  N   UNK     0      -7.882  -5.016  -5.526  0.00  0.00    -0.375 N 
HETATM   18  C   UNK     0      -6.898  -4.080  -5.538  0.00  0.00     0.088 A 
HETATM   19  HN  UNK     0      -7.632  -5.991  -5.363  1.00  0.00     0.164 HD
HETATM   20  C   UNK     0      -7.216  -2.729  -5.773  0.00  0.00     0.029 A 
ENDBRANCH  13  14
BRANCH  11  21
HETATM   21  N   UNK     0      -9.465   2.107  -4.309  0.00  0.00    -0.327 N 
HETATM   22  C   UNK     0      -8.449   2.771  -3.681  0.00  0.00     0.223 C 
HETATM   23  O   UNK     0      -7.288   2.825  -4.153  0.00  0.00    -0.273 OA
HETATM   24  H   UNK     0     -10.353   2.253  -3.944  0.00  0.00     0.169 HD
BRANCH  22  25
HETATM   25  C   UNK     0      -8.719   3.468  -2.404  0.00  0.00     0.118 C 
BRANCH  25  26
HETATM   26  C   UNK     0      -9.211   2.482  -1.316  0.00  0.00     0.124 C 
HETATM   27 Cl   UNK     0      -8.226   1.023  -1.287  0.00  0.00    -0.130 Cl
ENDBRANCH  25  26
ENDBRANCH  22  25
ENDBRANCH  11  21
TORSDOF 4
ENDMDL
