MODEL 1
REMARK VINA RESULT:      -6.5      0.000      0.000
REMARK  4 active torsions:
REMARK  status: ('A' for Active; 'I' for Inactive)
REMARK    1  A    between atoms: C_11  and  N_14 
REMARK    2  A    between atoms: C_13  and  C_21 
REMARK       I    between atoms: N_14  and  C_15 
REMARK    3  A    between atoms: C_15  and  C_16 
REMARK    4  A    between atoms: C_16  and  C_17 
ROOT
HETATM    1  C   UNK     0      -8.260  11.482  -0.372  0.00  0.00     0.016 A 
HETATM    2  C   UNK     0      -8.810  11.790  -1.635  0.00  0.00     0.001 A 
HETATM    3  C   UNK     0      -9.225  10.758  -2.507  0.00  0.00     0.001 A 
HETATM    4  C   UNK     0      -9.105   9.404  -2.125  0.00  0.00     0.013 A 
HETATM    5  C   UNK     0      -8.566   9.110  -0.857  0.00  0.00    -0.011 A 
HETATM    6  C   UNK     0      -8.143  10.130  -0.001  0.00  0.00     0.026 A 
HETATM    7  C   UNK     0      -8.337   7.896  -0.208  0.00  0.00    -0.008 A 
HETATM    8  C   UNK     0      -7.735   8.155   1.029  0.00  0.00     0.037 A 
HETATM    9  C   UNK     0      -7.638   9.552   1.166  0.00  0.00     0.195 A 
HETATM   10  C   UNK     0      -8.636   6.587  -0.618  0.00  0.00     0.043 A 
HETATM   11  C   UNK     0      -8.300   5.501   0.226  0.00  0.00     0.036 A 
HETATM   12  C   UNK     0      -7.670   5.772   1.465  0.00  0.00     0.043 A 
HETATM   13  C   UNK     0      -7.364   7.093   1.891  0.00  0.00    -0.009 A 
HETATM   14  O   UNK     0      -7.206  10.195   2.150  0.00  0.00    -0.287 OA
ENDROOT
BRANCH  13  15
HETATM   15  C   UNK     0      -6.698   7.307   3.130  0.00  0.00    -0.022 A 
HETATM   16  C   UNK     0      -5.299   7.519   3.178  0.00  0.00     0.029 A 
HETATM   17  C   UNK     0      -4.667   7.714   4.419  0.00  0.00     0.088 A 
HETATM   18  N   UNK     0      -5.400   7.687   5.562  0.00  0.00    -0.375 N 
HETATM   19  C   UNK     0      -6.742   7.484   5.562  0.00  0.00     0.088 A 
HETATM   20  HN  UNK     0      -4.924   7.824   6.453  1.00  0.00     0.164 HD
HETATM   21  C   UNK     0      -7.422   7.294   4.346  0.00  0.00     0.029 A 
ENDBRANCH  13  15
BRANCH  11  22
HETATM   22  N   UNK     0      -8.574   4.194  -0.073  0.00  0.00    -0.327 N 
HETATM   23  C   UNK     0      -8.078   3.442  -1.101  0.00  0.00     0.223 C 
HETATM   24  O   UNK     0      -7.199   3.871  -1.886  0.00  0.00    -0.273 OA
HETATM   25  H   UNK     0      -9.178   3.738   0.536  0.00  0.00     0.169 HD
BRANCH  23  26
HETATM   26  C   UNK     0      -8.554   2.056  -1.288  0.00  0.00     0.118 C 
BRANCH  26  27
HETATM   27  C   UNK     0      -8.754   1.705  -2.782  0.00  0.00     0.124 C 
HETATM   28 Cl   UNK     0      -8.066   0.130  -3.163  0.00  0.00    -0.130 Cl
ENDBRANCH  26  27
ENDBRANCH  23  26
ENDBRANCH  11  22
TORSDOF 4
ENDMDL
MODEL 2
REMARK VINA RESULT:      -6.3      3.160      6.098
REMARK  4 active torsions:
REMARK  status: ('A' for Active; 'I' for Inactive)
REMARK    1  A    between atoms: C_11  and  N_14 
REMARK    2  A    between atoms: C_13  and  C_21 
REMARK       I    between atoms: N_14  and  C_15 
REMARK    3  A    between atoms: C_15  and  C_16 
REMARK    4  A    between atoms: C_16  and  C_17 
ROOT
HETATM    1  C   UNK     0      -9.645   9.665  -2.806  0.00  0.00     0.016 A 
HETATM    2  C   UNK     0      -9.455  11.062  -2.846  0.00  0.00     0.001 A 
HETATM    3  C   UNK     0      -8.824  11.731  -1.773  0.00  0.00     0.001 A 
HETATM    4  C   UNK     0      -8.366  11.012  -0.649  0.00  0.00     0.013 A 
HETATM    5  C   UNK     0      -8.549   9.615  -0.626  0.00  0.00    -0.011 A 
HETATM    6  C   UNK     0      -9.186   8.955  -1.680  0.00  0.00     0.026 A 
HETATM    7  C   UNK     0      -8.201   8.651   0.322  0.00  0.00    -0.008 A 
HETATM    8  C   UNK     0      -8.656   7.403  -0.119  0.00  0.00     0.037 A 
HETATM    9  C   UNK     0      -9.248   7.593  -1.382  0.00  0.00     0.195 A 
HETATM   10  C   UNK     0      -7.500   8.791   1.530  0.00  0.00     0.043 A 
HETATM   11  C   UNK     0      -7.267   7.650   2.334  0.00  0.00     0.036 A 
HETATM   12  C   UNK     0      -7.752   6.394   1.890  0.00  0.00     0.043 A 
HETATM   13  C   UNK     0      -8.461   6.241   0.669  0.00  0.00    -0.009 A 
HETATM   14  O   UNK     0      -9.731   6.719  -2.138  0.00  0.00    -0.287 OA
ENDROOT
BRANCH  13  15
HETATM   15  C   UNK     0      -8.956   4.963   0.286  0.00  0.00    -0.022 A 
HETATM   16  C   UNK     0     -10.183   4.475   0.798  0.00  0.00     0.029 A 
HETATM   17  C   UNK     0     -10.640   3.202   0.412  0.00  0.00     0.088 A 
HETATM   18  N   UNK     0      -9.898   2.447  -0.437  0.00  0.00    -0.375 N 
HETATM   19  C   UNK     0      -8.716   2.874  -0.949  0.00  0.00     0.088 A 
HETATM   20  HN  UNK     0     -10.242   1.523  -0.701  1.00  0.00     0.164 HD
HETATM   21  C   UNK     0      -8.220   4.144  -0.602  0.00  0.00     0.029 A 
ENDBRANCH  13  15
BRANCH  11  22
HETATM   22  N   UNK     0      -6.572   7.679   3.513  0.00  0.00    -0.327 N 
HETATM   23  C   UNK     0      -5.217   7.718   3.691  0.00  0.00     0.223 C 
HETATM   24  O   UNK     0      -4.414   7.820   2.734  0.00  0.00    -0.273 OA
HETATM   25  H   UNK     0      -7.109   7.698   4.321  0.00  0.00     0.169 HD
BRANCH  23  26
HETATM   26  C   UNK     0      -4.659   7.679   5.059  0.00  0.00     0.118 C 
BRANCH  26  27
HETATM   27  C   UNK     0      -4.630   9.080   5.716  0.00  0.00     0.124 C 
HETATM   28 Cl   UNK     0      -3.120   9.915   5.364  0.00  0.00    -0.130 Cl
ENDBRANCH  26  27
ENDBRANCH  23  26
ENDBRANCH  11  22
TORSDOF 4
ENDMDL
MODEL 3
REMARK VINA RESULT:      -6.2     20.079     22.664
REMARK  4 active torsions:
REMARK  status: ('A' for Active; 'I' for Inactive)
REMARK    1  A    between atoms: C_11  and  N_14 
REMARK    2  A    between atoms: C_13  and  C_21 
REMARK       I    between atoms: N_14  and  C_15 
REMARK    3  A    between atoms: C_15  and  C_16 
REMARK    4  A    between atoms: C_16  and  C_17 
ROOT
HETATM    1  C   UNK     0      13.810  -7.432   4.922  0.00  0.00     0.016 A 
HETATM    2  C   UNK     0      14.891  -7.403   4.015  0.00  0.00     0.001 A 
HETATM    3  C   UNK     0      14.790  -6.688   2.801  0.00  0.00     0.001 A 
HETATM    4  C   UNK     0      13.610  -5.984   2.479  0.00  0.00     0.013 A 
HETATM    5  C   UNK     0      12.542  -6.009   3.398  0.00  0.00    -0.011 A 
HETATM    6  C   UNK     0      12.637  -6.728   4.592  0.00  0.00     0.026 A 
HETATM    7  C   UNK     0      11.280  -5.414   3.366  0.00  0.00    -0.008 A 
HETATM    8  C   UNK     0      10.575  -5.794   4.515  0.00  0.00     0.037 A 
HETATM    9  C   UNK     0      11.436  -6.594   5.290  0.00  0.00     0.195 A 
HETATM   10  C   UNK     0      10.717  -4.552   2.413  0.00  0.00     0.043 A 
HETATM   11  C   UNK     0       9.398  -4.073   2.603  0.00  0.00     0.036 A 
HETATM   12  C   UNK     0       8.685  -4.482   3.756  0.00  0.00     0.043 A 
HETATM   13  C   UNK     0       9.246  -5.353   4.728  0.00  0.00    -0.009 A 
HETATM   14  O   UNK     0      11.206  -7.092   6.416  0.00  0.00    -0.287 OA
ENDROOT
BRANCH  13  15
HETATM   15  C   UNK     0       8.473  -5.761   5.852  0.00  0.00    -0.022 A 
HETATM   16  C   UNK     0       8.625  -5.127   7.109  0.00  0.00     0.029 A 
HETATM   17  C   UNK     0       7.857  -5.561   8.204  0.00  0.00     0.088 A 
HETATM   18  N   UNK     0       6.986  -6.590   8.052  0.00  0.00    -0.375 N 
HETATM   19  C   UNK     0       6.810  -7.228   6.867  0.00  0.00     0.088 A 
HETATM   20  HN  UNK     0       6.441  -6.896   8.859  1.00  0.00     0.164 HD
HETATM   21  C   UNK     0       7.547  -6.824   5.738  0.00  0.00     0.029 A 
ENDBRANCH  13  15
BRANCH  11  22
HETATM   22  N   UNK     0       8.773  -3.208   1.745  0.00  0.00    -0.327 N 
HETATM   23  C   UNK     0       9.147  -1.938   1.407  0.00  0.00     0.223 C 
HETATM   24  O   UNK     0      10.218  -1.422   1.807  0.00  0.00    -0.273 OA
HETATM   25  H   UNK     0       7.977  -3.549   1.305  0.00  0.00     0.169 HD
BRANCH  23  26
HETATM   26  C   UNK     0       8.291  -1.140   0.504  0.00  0.00     0.118 C 
BRANCH  26  27
HETATM   27  C   UNK     0       9.120  -0.364  -0.548  0.00  0.00     0.124 C 
HETATM   28 Cl   UNK     0       8.652  -0.815  -2.184  0.00  0.00    -0.130 Cl
ENDBRANCH  26  27
ENDBRANCH  23  26
ENDBRANCH  11  22
TORSDOF 4
ENDMDL
MODEL 4
REMARK VINA RESULT:      -6.1      1.998      5.054
REMARK  4 active torsions:
REMARK  status: ('A' for Active; 'I' for Inactive)
REMARK    1  A    between atoms: C_11  and  N_14 
REMARK    2  A    between atoms: C_13  and  C_21 
REMARK       I    between atoms: N_14  and  C_15 
REMARK    3  A    between atoms: C_15  and  C_16 
REMARK    4  A    between atoms: C_16  and  C_17 
ROOT
HETATM    1  C   UNK     0      -6.643   9.550   3.352  0.00  0.00     0.016 A 
HETATM    2  C   UNK     0      -6.072   8.864   4.446  0.00  0.00     0.001 A 
HETATM    3  C   UNK     0      -6.088   7.452   4.494  0.00  0.00     0.001 A 
HETATM    4  C   UNK     0      -6.667   6.705   3.446  0.00  0.00     0.013 A 
HETATM    5  C   UNK     0      -7.222   7.400   2.353  0.00  0.00    -0.011 A 
HETATM    6  C   UNK     0      -7.219   8.796   2.312  0.00  0.00     0.026 A 
HETATM    7  C   UNK     0      -7.842   6.948   1.187  0.00  0.00    -0.008 A 
HETATM    8  C   UNK     0      -8.261   8.057   0.443  0.00  0.00     0.037 A 
HETATM    9  C   UNK     0      -7.848   9.210   1.137  0.00  0.00     0.195 A 
HETATM   10  C   UNK     0      -8.046   5.638   0.728  0.00  0.00     0.043 A 
HETATM   11  C   UNK     0      -8.712   5.429  -0.504  0.00  0.00     0.036 A 
HETATM   12  C   UNK     0      -9.153   6.558  -1.238  0.00  0.00     0.043 A 
HETATM   13  C   UNK     0      -8.950   7.888  -0.784  0.00  0.00    -0.009 A 
HETATM   14  O   UNK     0      -7.982  10.403   0.782  0.00  0.00    -0.287 OA
ENDROOT
BRANCH  13  15
HETATM   15  C   UNK     0      -9.444   8.985  -1.544  0.00  0.00    -0.022 A 
HETATM   16  C   UNK     0      -8.590   9.721  -2.400  0.00  0.00     0.029 A 
HETATM   17  C   UNK     0      -9.104  10.809  -3.128  0.00  0.00     0.088 A 
HETATM   18  N   UNK     0     -10.411  11.152  -2.998  0.00  0.00    -0.375 N 
HETATM   19  C   UNK     0     -11.264  10.476  -2.187  0.00  0.00     0.088 A 
HETATM   20  HN  UNK     0     -10.765  11.947  -3.529  1.00  0.00     0.164 HD
HETATM   21  C   UNK     0     -10.801   9.374  -1.445  0.00  0.00     0.029 A 
ENDBRANCH  13  15
BRANCH  11  22
HETATM   22  N   UNK     0      -8.934   4.193  -1.048  0.00  0.00    -0.327 N 
HETATM   23  C   UNK     0      -8.078   3.437  -1.800  0.00  0.00     0.223 C 
HETATM   24  O   UNK     0      -6.892   3.778  -2.018  0.00  0.00    -0.273 OA
HETATM   25  H   UNK     0      -9.798   3.795  -0.856  0.00  0.00     0.169 HD
BRANCH  23  26
HETATM   26  C   UNK     0      -8.538   2.145  -2.352  0.00  0.00     0.118 C 
BRANCH  26  27
HETATM   27  C   UNK     0      -8.594   1.038  -1.272  0.00  0.00     0.124 C 
HETATM   28 Cl   UNK     0      -7.314  -0.148  -1.511  0.00  0.00    -0.130 Cl
ENDBRANCH  26  27
ENDBRANCH  23  26
ENDBRANCH  11  22
TORSDOF 4
ENDMDL
MODEL 5
REMARK VINA RESULT:      -6.1      7.106     10.797
REMARK  4 active torsions:
REMARK  status: ('A' for Active; 'I' for Inactive)
REMARK    1  A    between atoms: C_11  and  N_14 
REMARK    2  A    between atoms: C_13  and  C_21 
REMARK       I    between atoms: N_14  and  C_15 
REMARK    3  A    between atoms: C_15  and  C_16 
REMARK    4  A    between atoms: C_16  and  C_17 
ROOT
HETATM    1  C   UNK     0      -8.687   0.992  -0.995  0.00  0.00     0.016 A 
HETATM    2  C   UNK     0      -8.832   2.293  -0.467  0.00  0.00     0.001 A 
HETATM    3  C   UNK     0      -8.974   3.405  -1.327  0.00  0.00     0.001 A 
HETATM    4  C   UNK     0      -8.985   3.231  -2.728  0.00  0.00     0.013 A 
HETATM    5  C   UNK     0      -8.853   1.927  -3.244  0.00  0.00    -0.011 A 
HETATM    6  C   UNK     0      -8.698   0.829  -2.393  0.00  0.00     0.026 A 
HETATM    7  C   UNK     0      -8.839   1.447  -4.555  0.00  0.00    -0.008 A 
HETATM    8  C   UNK     0      -8.633   0.062  -4.523  0.00  0.00     0.037 A 
HETATM    9  C   UNK     0      -8.570  -0.323  -3.171  0.00  0.00     0.195 A 
HETATM   10  C   UNK     0      -9.012   2.135  -5.765  0.00  0.00     0.043 A 
HETATM   11  C   UNK     0      -8.953   1.419  -6.985  0.00  0.00     0.036 A 
HETATM   12  C   UNK     0      -8.721   0.022  -6.944  0.00  0.00     0.043 A 
HETATM   13  C   UNK     0      -8.546  -0.685  -5.724  0.00  0.00    -0.009 A 
HETATM   14  O   UNK     0      -8.448  -1.482  -2.712  0.00  0.00    -0.287 OA
ENDROOT
BRANCH  13  15
HETATM   15  C   UNK     0      -8.280  -2.082  -5.741  0.00  0.00    -0.022 A 
HETATM   16  C   UNK     0      -6.953  -2.571  -5.800  0.00  0.00     0.029 A 
HETATM   17  C   UNK     0      -6.723  -3.958  -5.829  0.00  0.00     0.088 A 
HETATM   18  N   UNK     0      -7.774  -4.817  -5.812  0.00  0.00    -0.375 N 
HETATM   19  C   UNK     0      -9.061  -4.393  -5.759  0.00  0.00     0.088 A 
HETATM   20  HN  UNK     0      -7.588  -5.820  -5.840  1.00  0.00     0.164 HD
HETATM   21  C   UNK     0      -9.344  -3.015  -5.717  0.00  0.00     0.029 A 
ENDBRANCH  13  15
BRANCH  11  22
HETATM   22  N   UNK     0      -9.136   1.995  -8.214  0.00  0.00    -0.327 N 
HETATM   23  C   UNK     0     -10.269   2.006  -8.979  0.00  0.00     0.223 C 
HETATM   24  O   UNK     0     -11.358   1.532  -8.578  0.00  0.00    -0.273 OA
HETATM   25  H   UNK     0      -8.373   2.474  -8.574  0.00  0.00     0.169 HD
BRANCH  23  26
HETATM   26  C   UNK     0     -10.239   2.633 -10.317  0.00  0.00     0.118 C 
BRANCH  26  27
HETATM   27  C   UNK     0      -9.269   1.906 -11.279  0.00  0.00     0.124 C 
HETATM   28 Cl   UNK     0      -9.433   0.158 -11.146  0.00  0.00    -0.130 Cl
ENDBRANCH  26  27
ENDBRANCH  23  26
ENDBRANCH  11  22
TORSDOF 4
ENDMDL
MODEL 6
REMARK VINA RESULT:      -6.1      6.255     10.214
REMARK  4 active torsions:
REMARK  status: ('A' for Active; 'I' for Inactive)
REMARK    1  A    between atoms: C_11  and  N_14 
REMARK    2  A    between atoms: C_13  and  C_21 
REMARK       I    between atoms: N_14  and  C_15 
REMARK    3  A    between atoms: C_15  and  C_16 
REMARK    4  A    between atoms: C_16  and  C_17 
ROOT
HETATM    1  C   UNK     0      -7.176  -1.931  -5.912  0.00  0.00     0.016 A 
HETATM    2  C   UNK     0      -6.925  -3.293  -6.187  0.00  0.00     0.001 A 
HETATM    3  C   UNK     0      -7.289  -4.291  -5.255  0.00  0.00     0.001 A 
HETATM    4  C   UNK     0      -7.917  -3.944  -4.039  0.00  0.00     0.013 A 
HETATM    5  C   UNK     0      -8.174  -2.583  -3.782  0.00  0.00    -0.011 A 
HETATM    6  C   UNK     0      -7.802  -1.595  -4.697  0.00  0.00     0.026 A 
HETATM    7  C   UNK     0      -8.778  -1.944  -2.698  0.00  0.00    -0.008 A 
HETATM    8  C   UNK     0      -8.744  -0.561  -2.916  0.00  0.00     0.037 A 
HETATM    9  C   UNK     0      -8.156  -0.349  -4.177  0.00  0.00     0.195 A 
HETATM   10  C   UNK     0      -9.368  -2.490  -1.548  0.00  0.00     0.043 A 
HETATM   11  C   UNK     0      -9.921  -1.626  -0.573  0.00  0.00     0.036 A 
HETATM   12  C   UNK     0      -9.861  -0.227  -0.792  0.00  0.00     0.043 A 
HETATM   13  C   UNK     0      -9.267   0.337  -1.953  0.00  0.00    -0.009 A 
HETATM   14  O   UNK     0      -7.988   0.744  -4.766  0.00  0.00    -0.287 OA
ENDROOT
BRANCH  13  15
HETATM   15  C   UNK     0      -9.203   1.750  -2.106  0.00  0.00    -0.022 A 
HETATM   16  C   UNK     0     -10.263   2.466  -2.712  0.00  0.00     0.029 A 
HETATM   17  C   UNK     0     -10.164   3.861  -2.862  0.00  0.00     0.088 A 
HETATM   18  N   UNK     0      -9.050   4.508  -2.437  0.00  0.00    -0.375 N 
HETATM   19  C   UNK     0      -8.009   3.862  -1.854  0.00  0.00     0.088 A 
HETATM   20  HN  UNK     0      -8.993   5.519  -2.560  1.00  0.00     0.164 HD
HETATM   21  C   UNK     0      -8.063   2.468  -1.671  0.00  0.00     0.029 A 
ENDBRANCH  13  15
BRANCH  11  22
HETATM   22  N   UNK     0     -10.541  -2.062   0.567  0.00  0.00    -0.327 N 
HETATM   23  C   UNK     0     -11.853  -2.409   0.733  0.00  0.00     0.223 C 
HETATM   24  O   UNK     0     -12.666  -2.446  -0.221  0.00  0.00    -0.273 OA
HETATM   25  H   UNK     0      -9.972  -2.160   1.347  0.00  0.00     0.169 HD
BRANCH  23  26
HETATM   26  C   UNK     0     -12.341  -2.797   2.072  0.00  0.00     0.118 C 
BRANCH  26  27
HETATM   27  C   UNK     0     -11.829  -1.842   3.178  0.00  0.00     0.124 C 
HETATM   28 Cl   UNK     0     -11.064  -2.738   4.486  0.00  0.00    -0.130 Cl
ENDBRANCH  26  27
ENDBRANCH  23  26
ENDBRANCH  11  22
TORSDOF 4
ENDMDL
MODEL 7
REMARK VINA RESULT:      -6.1      6.372     11.935
REMARK  4 active torsions:
REMARK  status: ('A' for Active; 'I' for Inactive)
REMARK    1  A    between atoms: C_11  and  N_14 
REMARK    2  A    between atoms: C_13  and  C_21 
REMARK       I    between atoms: N_14  and  C_15 
REMARK    3  A    between atoms: C_15  and  C_16 
REMARK    4  A    between atoms: C_16  and  C_17 
ROOT
HETATM    1  C   UNK     0      -9.235  -0.406 -11.311  0.00  0.00     0.016 A 
HETATM    2  C   UNK     0      -9.614   0.710 -12.089  0.00  0.00     0.001 A 
HETATM    3  C   UNK     0      -9.977   1.926 -11.468  0.00  0.00     0.001 A 
HETATM    4  C   UNK     0      -9.958   2.048 -10.062  0.00  0.00     0.013 A 
HETATM    5  C   UNK     0      -9.566   0.932  -9.297  0.00  0.00    -0.011 A 
HETATM    6  C   UNK     0      -9.221  -0.275  -9.910  0.00  0.00     0.026 A 
HETATM    7  C   UNK     0      -9.441   0.753  -7.918  0.00  0.00    -0.008 A 
HETATM    8  C   UNK     0      -9.060  -0.571  -7.671  0.00  0.00     0.037 A 
HETATM    9  C   UNK     0      -8.899  -1.203  -8.918  0.00  0.00     0.195 A 
HETATM   10  C   UNK     0      -9.619   1.672  -6.873  0.00  0.00     0.043 A 
HETATM   11  C   UNK     0      -9.433   1.247  -5.536  0.00  0.00     0.036 A 
HETATM   12  C   UNK     0      -9.070  -0.101  -5.294  0.00  0.00     0.043 A 
HETATM   13  C   UNK     0      -8.886  -1.039  -6.345  0.00  0.00    -0.009 A 
HETATM   14  O   UNK     0      -8.515  -2.375  -9.136  0.00  0.00    -0.287 OA
ENDROOT
BRANCH  13  15
HETATM   15  C   UNK     0      -8.556  -2.391  -6.045  0.00  0.00    -0.022 A 
HETATM   16  C   UNK     0      -9.563  -3.378  -5.929  0.00  0.00     0.029 A 
HETATM   17  C   UNK     0      -9.207  -4.702  -5.618  0.00  0.00     0.088 A 
HETATM   18  N   UNK     0      -7.903  -5.022  -5.420  0.00  0.00    -0.375 N 
HETATM   19  C   UNK     0      -6.905  -4.107  -5.518  0.00  0.00     0.088 A 
HETATM   20  HN  UNK     0      -7.663  -5.986  -5.190  1.00  0.00     0.164 HD
HETATM   21  C   UNK     0      -7.208  -2.771  -5.838  0.00  0.00     0.029 A 
ENDBRANCH  13  15
BRANCH  11  22
HETATM   22  N   UNK     0      -9.557   2.074  -4.451  0.00  0.00    -0.327 N 
HETATM   23  C   UNK     0      -8.568   2.744  -3.786  0.00  0.00     0.223 C 
HETATM   24  O   UNK     0      -7.375   2.741  -4.170  0.00  0.00    -0.273 OA
HETATM   25  H   UNK     0     -10.461   2.219  -4.131  0.00  0.00     0.169 HD
BRANCH  23  26
HETATM   26  C   UNK     0      -8.907   3.542  -2.588  0.00  0.00     0.118 C 
BRANCH  26  27
HETATM   27  C   UNK     0      -8.402   2.878  -1.285  0.00  0.00     0.124 C 
HETATM   28 Cl   UNK     0      -8.375   1.123  -1.434  0.00  0.00    -0.130 Cl
ENDBRANCH  26  27
ENDBRANCH  23  26
ENDBRANCH  11  22
TORSDOF 4
ENDMDL
MODEL 8
REMARK VINA RESULT:      -6.0     19.206     20.996
REMARK  4 active torsions:
REMARK  status: ('A' for Active; 'I' for Inactive)
REMARK    1  A    between atoms: C_11  and  N_14 
REMARK    2  A    between atoms: C_13  and  C_21 
REMARK       I    between atoms: N_14  and  C_15 
REMARK    3  A    between atoms: C_15  and  C_16 
REMARK    4  A    between atoms: C_16  and  C_17 
ROOT
HETATM    1  C   UNK     0      14.946   3.091  -0.461  0.00  0.00     0.016 A 
HETATM    2  C   UNK     0      15.793   4.217  -0.537  0.00  0.00     0.001 A 
HETATM    3  C   UNK     0      15.592   5.200  -1.532  0.00  0.00     0.001 A 
HETATM    4  C   UNK     0      14.535   5.076  -2.459  0.00  0.00     0.013 A 
HETATM    5  C   UNK     0      13.688   3.954  -2.365  0.00  0.00    -0.011 A 
HETATM    6  C   UNK     0      13.896   2.975  -1.390  0.00  0.00     0.026 A 
HETATM    7  C   UNK     0      12.576   3.569  -3.116  0.00  0.00    -0.008 A 
HETATM    8  C   UNK     0      12.118   2.334  -2.638  0.00  0.00     0.037 A 
HETATM    9  C   UNK     0      12.930   1.979  -1.545  0.00  0.00     0.195 A 
HETATM   10  C   UNK     0      11.930   4.231  -4.171  0.00  0.00     0.043 A 
HETATM   11  C   UNK     0      10.805   3.630  -4.784  0.00  0.00     0.036 A 
HETATM   12  C   UNK     0      10.364   2.370  -4.309  0.00  0.00     0.043 A 
HETATM   13  C   UNK     0      11.009   1.691  -3.241  0.00  0.00    -0.009 A 
HETATM   14  O   UNK     0      12.819   0.973  -0.807  0.00  0.00    -0.287 OA
ENDROOT
BRANCH  13  15
HETATM   15  C   UNK     0      10.546   0.411  -2.826  0.00  0.00    -0.022 A 
HETATM   16  C   UNK     0      11.317  -0.753  -3.060  0.00  0.00     0.029 A 
HETATM   17  C   UNK     0      10.826  -2.006  -2.650  0.00  0.00     0.088 A 
HETATM   18  N   UNK     0       9.614  -2.092  -2.045  0.00  0.00    -0.375 N 
HETATM   19  C   UNK     0       8.841  -1.003  -1.804  0.00  0.00     0.088 A 
HETATM   20  HN  UNK     0       9.272  -3.010  -1.760  1.00  0.00     0.164 HD
HETATM   21  C   UNK     0       9.292   0.275  -2.185  0.00  0.00     0.029 A 
ENDBRANCH  13  15
BRANCH  11  22
HETATM   22  N   UNK     0      10.093   4.208  -5.800  0.00  0.00    -0.327 N 
HETATM   23  C   UNK     0      10.493   4.435  -7.087  0.00  0.00     0.223 C 
HETATM   24  O   UNK     0      11.598   4.038  -7.529  0.00  0.00    -0.273 OA
HETATM   25  H   UNK     0       9.183   4.468  -5.584  0.00  0.00     0.169 HD
BRANCH  23  26
HETATM   26  C   UNK     0       9.588   5.138  -8.020  0.00  0.00     0.118 C 
BRANCH  26  27
HETATM   27  C   UNK     0       8.193   5.389  -7.399  0.00  0.00     0.124 C 
HETATM   28 Cl   UNK     0       7.057   5.983  -8.607  0.00  0.00    -0.130 Cl
ENDBRANCH  26  27
ENDBRANCH  23  26
ENDBRANCH  11  22
TORSDOF 4
ENDMDL
MODEL 9
REMARK VINA RESULT:      -6.0      3.643      6.763
REMARK  4 active torsions:
REMARK  status: ('A' for Active; 'I' for Inactive)
REMARK    1  A    between atoms: C_11  and  N_14 
REMARK    2  A    between atoms: C_13  and  C_21 
REMARK       I    between atoms: N_14  and  C_15 
REMARK    3  A    between atoms: C_15  and  C_16 
REMARK    4  A    between atoms: C_16  and  C_17 
ROOT
HETATM    1  C   UNK     0     -10.632   2.485   4.898  0.00  0.00     0.016 A 
HETATM    2  C   UNK     0     -11.098   1.265   5.434  0.00  0.00     0.001 A 
HETATM    3  C   UNK     0     -11.127   0.097   4.640  0.00  0.00     0.001 A 
HETATM    4  C   UNK     0     -10.682   0.129   3.301  0.00  0.00     0.013 A 
HETATM    5  C   UNK     0     -10.206   1.349   2.781  0.00  0.00    -0.011 A 
HETATM    6  C   UNK     0     -10.191   2.507   3.562  0.00  0.00     0.026 A 
HETATM    7  C   UNK     0      -9.700   1.684   1.524  0.00  0.00    -0.008 A 
HETATM    8  C   UNK     0      -9.410   3.054   1.508  0.00  0.00     0.037 A 
HETATM    9  C   UNK     0      -9.695   3.559   2.790  0.00  0.00     0.195 A 
HETATM   10  C   UNK     0      -9.460   0.872   0.405  0.00  0.00     0.043 A 
HETATM   11  C   UNK     0      -8.936   1.451  -0.775  0.00  0.00     0.036 A 
HETATM   12  C   UNK     0      -8.668   2.842  -0.789  0.00  0.00     0.043 A 
HETATM   13  C   UNK     0      -8.906   3.674   0.338  0.00  0.00    -0.009 A 
HETATM   14  O   UNK     0      -9.523   4.728   3.205  0.00  0.00    -0.287 OA
ENDROOT
BRANCH  13  15
HETATM   15  C   UNK     0      -8.652   5.072   0.259  0.00  0.00    -0.022 A 
HETATM   16  C   UNK     0      -7.501   5.638   0.859  0.00  0.00     0.029 A 
HETATM   17  C   UNK     0      -7.285   7.025   0.776  0.00  0.00     0.088 A 
HETATM   18  N   UNK     0      -8.184   7.812   0.132  0.00  0.00    -0.375 N 
HETATM   19  C   UNK     0      -9.300   7.312  -0.455  0.00  0.00     0.088 A 
HETATM   20  HN  UNK     0      -8.013   8.817   0.087  1.00  0.00     0.164 HD
HETATM   21  C   UNK     0      -9.558   5.929  -0.409  0.00  0.00     0.029 A 
ENDBRANCH  13  15
BRANCH  11  22
HETATM   22  N   UNK     0      -8.643   0.739  -1.906  0.00  0.00    -0.327 N 
HETATM   23  C   UNK     0      -7.530  -0.012  -2.165  0.00  0.00     0.223 C 
HETATM   24  O   UNK     0      -6.636  -0.210  -1.308  0.00  0.00    -0.273 OA
HETATM   25  H   UNK     0      -9.321   0.749  -2.601  0.00  0.00     0.169 HD
BRANCH  23  26
HETATM   26  C   UNK     0      -7.376  -0.657  -3.486  0.00  0.00     0.118 C 
BRANCH  26  27
HETATM   27  C   UNK     0      -7.818   0.272  -4.643  0.00  0.00     0.124 C 
HETATM   28 Cl   UNK     0      -7.359  -0.396  -6.206  0.00  0.00    -0.130 Cl
ENDBRANCH  26  27
ENDBRANCH  23  26
ENDBRANCH  11  22
TORSDOF 4
ENDMDL
