MODEL 1
REMARK VINA RESULT:      -6.4      0.000      0.000
REMARK  2 active torsions:
REMARK  status: ('A' for Active; 'I' for Inactive)
REMARK    1  A    between atoms: C_10  and  C_17 
REMARK    2  A    between atoms: C_12  and  N_14 
ROOT
HETATM    1  C   UNK     0      -7.169  -3.802  -6.395  0.00  0.00     0.013 A 
HETATM    2  C   UNK     0      -6.982  -3.518  -7.764  0.00  0.00     0.001 A 
HETATM    3  C   UNK     0      -7.248  -2.227  -8.271  0.00  0.00     0.001 A 
HETATM    4  C   UNK     0      -7.711  -1.205  -7.416  0.00  0.00     0.008 A 
HETATM    5  C   UNK     0      -7.896  -1.496  -6.051  0.00  0.00    -0.043 A 
HETATM    6  C   UNK     0      -7.629  -2.775  -5.549  0.00  0.00    -0.019 A 
HETATM    7  C   UNK     0      -8.360  -0.591  -4.993  0.00  0.00     0.080 A 
HETATM    8  C   UNK     0      -8.322  -1.485  -3.814  0.00  0.00    -0.032 A 
HETATM    9  C   UNK     0      -7.908  -2.773  -4.183  0.00  0.00    -0.016 A 
HETATM   10  C   UNK     0      -8.672  -1.192  -2.472  0.00  0.00    -0.016 A 
HETATM   11  C   UNK     0      -8.636  -2.254  -1.532  0.00  0.00     0.042 A 
HETATM   12  C   UNK     0      -8.251  -3.559  -1.915  0.00  0.00     0.027 A 
HETATM   13  C   UNK     0      -7.861  -3.821  -3.246  0.00  0.00     0.042 A 
ENDROOT
BRANCH  10  14
HETATM   14  C   UNK     0      -9.087   0.109  -2.074  0.00  0.00    -0.023 A 
HETATM   15  C   UNK     0     -10.457   0.455  -2.071  0.00  0.00     0.029 A 
HETATM   16  C   UNK     0     -10.850   1.760  -1.718  0.00  0.00     0.090 A 
HETATM   17  N   UNK     0      -9.924   2.708  -1.373  0.00  0.00    -0.371 N 
HETATM   18  C   UNK     0      -8.593   2.388  -1.352  0.00  0.00     0.090 A 
HETATM   19  C   UNK     0     -10.355   4.035  -1.004  0.00  0.00     0.154 C 
HETATM   20  C   UNK     0      -8.153   1.094  -1.685  0.00  0.00     0.029 A 
ENDBRANCH  10  14
BRANCH  12  21
HETATM   21  N   UNK     0      -8.274  -4.562  -1.014  0.00  0.00    -0.399 N 
HETATM   22  H   UNK     0      -9.009  -4.634  -0.383  0.00  0.00     0.156 HD
HETATM   23  H   UNK     0      -7.561  -5.220  -0.999  0.00  0.00     0.156 HD
ENDBRANCH  12  21
TORSDOF 2
ENDMDL
MODEL 2
REMARK VINA RESULT:      -6.1      2.125      6.067
REMARK  2 active torsions:
REMARK  status: ('A' for Active; 'I' for Inactive)
REMARK    1  A    between atoms: C_10  and  C_17 
REMARK    2  A    between atoms: C_12  and  N_14 
ROOT
HETATM    1  C   UNK     0      -8.402   1.173  -1.612  0.00  0.00     0.013 A 
HETATM    2  C   UNK     0      -8.414   2.561  -1.869  0.00  0.00     0.001 A 
HETATM    3  C   UNK     0      -8.424   3.044  -3.196  0.00  0.00     0.001 A 
HETATM    4  C   UNK     0      -8.416   2.146  -4.283  0.00  0.00     0.008 A 
HETATM    5  C   UNK     0      -8.403   0.762  -4.019  0.00  0.00    -0.043 A 
HETATM    6  C   UNK     0      -8.396   0.285  -2.704  0.00  0.00    -0.019 A 
HETATM    7  C   UNK     0      -8.398  -0.339  -4.989  0.00  0.00     0.080 A 
HETATM    8  C   UNK     0      -8.400  -1.513  -4.089  0.00  0.00    -0.032 A 
HETATM    9  C   UNK     0      -8.375  -1.108  -2.747  0.00  0.00    -0.016 A 
HETATM   10  C   UNK     0      -8.386  -2.889  -4.433  0.00  0.00    -0.016 A 
HETATM   11  C   UNK     0      -8.297  -3.833  -3.377  0.00  0.00     0.042 A 
HETATM   12  C   UNK     0      -8.239  -3.420  -2.027  0.00  0.00     0.027 A 
HETATM   13  C   UNK     0      -8.300  -2.048  -1.703  0.00  0.00     0.042 A 
ENDROOT
BRANCH  10  14
HETATM   14  C   UNK     0      -8.418  -3.323  -5.787  0.00  0.00    -0.023 A 
HETATM   15  C   UNK     0      -9.644  -3.656  -6.404  0.00  0.00     0.029 A 
HETATM   16  C   UNK     0      -9.655  -4.127  -7.730  0.00  0.00     0.090 A 
HETATM   17  N   UNK     0      -8.494  -4.270  -8.441  0.00  0.00    -0.371 N 
HETATM   18  C   UNK     0      -7.296  -3.934  -7.867  0.00  0.00     0.090 A 
HETATM   19  C   UNK     0      -8.535  -4.742  -9.803  0.00  0.00     0.154 C 
HETATM   20  C   UNK     0      -7.235  -3.448  -6.548  0.00  0.00     0.029 A 
ENDBRANCH  10  14
BRANCH  12  21
HETATM   21  N   UNK     0      -8.103  -4.335  -1.045  0.00  0.00    -0.399 N 
HETATM   22  H   UNK     0      -8.608  -4.243  -0.220  0.00  0.00     0.156 HD
HETATM   23  H   UNK     0      -7.506  -5.091  -1.162  0.00  0.00     0.156 HD
ENDBRANCH  12  21
TORSDOF 2
ENDMDL
MODEL 3
REMARK VINA RESULT:      -5.9      3.112      5.800
REMARK  2 active torsions:
REMARK  status: ('A' for Active; 'I' for Inactive)
REMARK    1  A    between atoms: C_10  and  C_17 
REMARK    2  A    between atoms: C_12  and  N_14 
ROOT
HETATM    1  C   UNK     0      -7.757  -3.739  -3.087  0.00  0.00     0.013 A 
HETATM    2  C   UNK     0      -8.172  -3.446  -1.771  0.00  0.00     0.001 A 
HETATM    3  C   UNK     0      -8.912  -2.275  -1.497  0.00  0.00     0.001 A 
HETATM    4  C   UNK     0      -9.241  -1.379  -2.536  0.00  0.00     0.008 A 
HETATM    5  C   UNK     0      -8.822  -1.678  -3.847  0.00  0.00    -0.043 A 
HETATM    6  C   UNK     0      -8.092  -2.840  -4.117  0.00  0.00    -0.019 A 
HETATM    7  C   UNK     0      -9.057  -0.896  -5.066  0.00  0.00     0.080 A 
HETATM    8  C   UNK     0      -8.390  -1.743  -6.081  0.00  0.00    -0.032 A 
HETATM    9  C   UNK     0      -7.811  -2.870  -5.482  0.00  0.00    -0.016 A 
HETATM   10  C   UNK     0      -8.262  -1.514  -7.475  0.00  0.00    -0.016 A 
HETATM   11  C   UNK     0      -7.491  -2.437  -8.228  0.00  0.00     0.042 A 
HETATM   12  C   UNK     0      -6.881  -3.555  -7.614  0.00  0.00     0.027 A 
HETATM   13  C   UNK     0      -7.057  -3.789  -6.234  0.00  0.00     0.042 A 
ENDROOT
BRANCH  10  14
HETATM   14  C   UNK     0      -8.848  -0.381  -8.105  0.00  0.00    -0.023 A 
HETATM   15  C   UNK     0      -9.280  -0.452  -9.447  0.00  0.00     0.029 A 
HETATM   16  C   UNK     0      -9.816   0.690 -10.072  0.00  0.00     0.090 A 
HETATM   17  N   UNK     0      -9.928   1.878  -9.399  0.00  0.00    -0.371 N 
HETATM   18  C   UNK     0      -9.532   1.962  -8.091  0.00  0.00     0.090 A 
HETATM   19  C   UNK     0     -10.493   3.030 -10.059  0.00  0.00     0.154 C 
HETATM   20  C   UNK     0      -9.001   0.844  -7.420  0.00  0.00     0.029 A 
ENDBRANCH  10  14
BRANCH  12  21
HETATM   21  N   UNK     0      -6.110  -4.388  -8.342  0.00  0.00    -0.399 N 
HETATM   22  H   UNK     0      -5.897  -5.274  -8.005  0.00  0.00     0.156 HD
HETATM   23  H   UNK     0      -5.773  -4.109  -9.208  0.00  0.00     0.156 HD
ENDBRANCH  12  21
TORSDOF 2
ENDMDL
MODEL 4
REMARK VINA RESULT:      -5.8      2.564      4.246
REMARK  2 active torsions:
REMARK  status: ('A' for Active; 'I' for Inactive)
REMARK    1  A    between atoms: C_10  and  C_17 
REMARK    2  A    between atoms: C_12  and  N_14 
ROOT
HETATM    1  C   UNK     0      -7.472  -1.774  -5.025  0.00  0.00     0.013 A 
HETATM    2  C   UNK     0      -7.222  -3.139  -5.277  0.00  0.00     0.001 A 
HETATM    3  C   UNK     0      -7.458  -4.107  -4.276  0.00  0.00     0.001 A 
HETATM    4  C   UNK     0      -7.941  -3.722  -3.009  0.00  0.00     0.008 A 
HETATM    5  C   UNK     0      -8.188  -2.357  -2.765  0.00  0.00    -0.043 A 
HETATM    6  C   UNK     0      -7.957  -1.398  -3.757  0.00  0.00    -0.019 A 
HETATM    7  C   UNK     0      -8.692  -1.740  -1.531  0.00  0.00     0.080 A 
HETATM    8  C   UNK     0      -8.740  -0.314  -1.924  0.00  0.00    -0.032 A 
HETATM    9  C   UNK     0      -8.277  -0.146  -3.236  0.00  0.00    -0.016 A 
HETATM   10  C   UNK     0      -9.140   0.802  -1.146  0.00  0.00    -0.016 A 
HETATM   11  C   UNK     0      -9.008   2.091  -1.724  0.00  0.00     0.042 A 
HETATM   12  C   UNK     0      -8.510   2.259  -3.036  0.00  0.00     0.027 A 
HETATM   13  C   UNK     0      -8.160   1.133  -3.810  0.00  0.00     0.042 A 
ENDROOT
BRANCH  10  14
HETATM   14  C   UNK     0      -9.619   0.655   0.185  0.00  0.00    -0.023 A 
HETATM   15  C   UNK     0     -10.676  -0.237   0.471  0.00  0.00     0.029 A 
HETATM   16  C   UNK     0     -11.171  -0.340   1.785  0.00  0.00     0.090 A 
HETATM   17  N   UNK     0     -10.644   0.413   2.800  0.00  0.00    -0.371 N 
HETATM   18  C   UNK     0      -9.605   1.270   2.547  0.00  0.00     0.090 A 
HETATM   19  C   UNK     0     -11.161   0.279   4.140  0.00  0.00     0.154 C 
HETATM   20  C   UNK     0      -9.070   1.398   1.253  0.00  0.00     0.029 A 
ENDBRANCH  10  14
BRANCH  12  21
HETATM   21  N   UNK     0      -8.347   3.498  -3.544  0.00  0.00    -0.399 N 
HETATM   22  H   UNK     0      -8.594   4.277  -3.018  0.00  0.00     0.156 HD
HETATM   23  H   UNK     0      -7.975   3.616  -4.432  0.00  0.00     0.156 HD
ENDBRANCH  12  21
TORSDOF 2
ENDMDL
MODEL 5
REMARK VINA RESULT:      -5.8      2.074      6.357
REMARK  2 active torsions:
REMARK  status: ('A' for Active; 'I' for Inactive)
REMARK    1  A    between atoms: C_10  and  C_17 
REMARK    2  A    between atoms: C_12  and  N_14 
ROOT
HETATM    1  C   UNK     0      -9.237   2.883   0.617  0.00  0.00     0.013 A 
HETATM    2  C   UNK     0      -8.761   4.211   0.594  0.00  0.00     0.001 A 
HETATM    3  C   UNK     0      -8.111   4.720  -0.551  0.00  0.00     0.001 A 
HETATM    4  C   UNK     0      -7.921   3.905  -1.686  0.00  0.00     0.008 A 
HETATM    5  C   UNK     0      -8.397   2.580  -1.656  0.00  0.00    -0.043 A 
HETATM    6  C   UNK     0      -9.045   2.078  -0.522  0.00  0.00    -0.019 A 
HETATM    7  C   UNK     0      -8.312   1.569  -2.717  0.00  0.00     0.080 A 
HETATM    8  C   UNK     0      -8.996   0.424  -2.076  0.00  0.00    -0.032 A 
HETATM    9  C   UNK     0      -9.394   0.752  -0.773  0.00  0.00    -0.016 A 
HETATM   10  C   UNK     0      -9.228  -0.872  -2.602  0.00  0.00    -0.016 A 
HETATM   11  C   UNK     0      -9.830  -1.834  -1.750  0.00  0.00     0.042 A 
HETATM   12  C   UNK     0     -10.200  -1.509  -0.425  0.00  0.00     0.027 A 
HETATM   13  C   UNK     0     -10.002  -0.200   0.065  0.00  0.00     0.042 A 
ENDROOT
BRANCH  10  14
HETATM   14  C   UNK     0      -8.839  -1.225  -3.924  0.00  0.00    -0.023 A 
HETATM   15  C   UNK     0      -7.629  -1.914  -4.155  0.00  0.00     0.029 A 
HETATM   16  C   UNK     0      -7.234  -2.217  -5.472  0.00  0.00     0.090 A 
HETATM   17  N   UNK     0      -8.007  -1.853  -6.543  0.00  0.00    -0.371 N 
HETATM   18  C   UNK     0      -9.193  -1.200  -6.339  0.00  0.00     0.090 A 
HETATM   19  C   UNK     0      -7.586  -2.186  -7.882  0.00  0.00     0.154 C 
HETATM   20  C   UNK     0      -9.635  -0.887  -5.041  0.00  0.00     0.029 A 
ENDBRANCH  10  14
BRANCH  12  21
HETATM   21  N   UNK     0     -10.723  -2.454   0.382  0.00  0.00    -0.399 N 
HETATM   22  H   UNK     0     -11.671  -2.663   0.337  0.00  0.00     0.156 HD
HETATM   23  H   UNK     0     -10.154  -2.934   1.004  0.00  0.00     0.156 HD
ENDBRANCH  12  21
TORSDOF 2
ENDMDL
MODEL 6
REMARK VINA RESULT:      -5.8     11.829     13.204
REMARK  2 active torsions:
REMARK  status: ('A' for Active; 'I' for Inactive)
REMARK    1  A    between atoms: C_10  and  C_17 
REMARK    2  A    between atoms: C_12  and  N_14 
ROOT
HETATM    1  C   UNK     0      -4.502   4.367 -13.451  0.00  0.00     0.013 A 
HETATM    2  C   UNK     0      -4.732   5.645 -12.898  0.00  0.00     0.001 A 
HETATM    3  C   UNK     0      -3.830   6.192 -11.959  0.00  0.00     0.001 A 
HETATM    4  C   UNK     0      -2.690   5.466 -11.556  0.00  0.00     0.008 A 
HETATM    5  C   UNK     0      -2.468   4.191 -12.112  0.00  0.00    -0.043 A 
HETATM    6  C   UNK     0      -3.360   3.651 -13.045  0.00  0.00    -0.019 A 
HETATM    7  C   UNK     0      -1.355   3.273 -11.841  0.00  0.00     0.080 A 
HETATM    8  C   UNK     0      -1.694   2.142 -12.733  0.00  0.00    -0.032 A 
HETATM    9  C   UNK     0      -2.896   2.389 -13.411  0.00  0.00    -0.016 A 
HETATM   10  C   UNK     0      -0.994   0.922 -12.916  0.00  0.00    -0.016 A 
HETATM   11  C   UNK     0      -1.576  -0.052 -13.767  0.00  0.00     0.042 A 
HETATM   12  C   UNK     0      -2.805   0.187 -14.423  0.00  0.00     0.027 A 
HETATM   13  C   UNK     0      -3.464   1.425 -14.264  0.00  0.00     0.042 A 
ENDROOT
BRANCH  10  14
HETATM   14  C   UNK     0       0.231   0.653 -12.245  0.00  0.00    -0.023 A 
HETATM   15  C   UNK     0       1.466   0.876 -12.892  0.00  0.00     0.029 A 
HETATM   16  C   UNK     0       2.669   0.563 -12.231  0.00  0.00     0.090 A 
HETATM   17  N   UNK     0       2.667   0.044 -10.964  0.00  0.00    -0.371 N 
HETATM   18  C   UNK     0       1.480  -0.162 -10.312  0.00  0.00     0.090 A 
HETATM   19  C   UNK     0       3.914  -0.257 -10.305  0.00  0.00     0.154 C 
HETATM   20  C   UNK     0       0.252   0.146 -10.927  0.00  0.00     0.029 A 
ENDBRANCH  10  14
BRANCH  12  21
HETATM   21  N   UNK     0      -3.363  -0.775 -15.186  0.00  0.00    -0.399 N 
HETATM   22  H   UNK     0      -2.992  -0.979 -16.061  0.00  0.00     0.156 HD
HETATM   23  H   UNK     0      -4.131  -1.271 -14.862  0.00  0.00     0.156 HD
ENDBRANCH  12  21
TORSDOF 2
ENDMDL
MODEL 7
REMARK VINA RESULT:      -5.7      2.552      4.372
REMARK  2 active torsions:
REMARK  status: ('A' for Active; 'I' for Inactive)
REMARK    1  A    between atoms: C_10  and  C_17 
REMARK    2  A    between atoms: C_12  and  N_14 
ROOT
HETATM    1  C   UNK     0      -7.420  -0.855  -3.697  0.00  0.00     0.013 A 
HETATM    2  C   UNK     0      -7.060  -1.223  -5.010  0.00  0.00     0.001 A 
HETATM    3  C   UNK     0      -7.220  -0.314  -6.078  0.00  0.00     0.001 A 
HETATM    4  C   UNK     0      -7.749   0.973  -5.848  0.00  0.00     0.008 A 
HETATM    5  C   UNK     0      -8.108   1.333  -4.534  0.00  0.00    -0.043 A 
HETATM    6  C   UNK     0      -7.945   0.432  -3.476  0.00  0.00    -0.019 A 
HETATM    7  C   UNK     0      -8.667   2.608  -4.072  0.00  0.00     0.080 A 
HETATM    8  C   UNK     0      -8.800   2.353  -2.620  0.00  0.00    -0.032 A 
HETATM    9  C   UNK     0      -8.386   1.050  -2.307  0.00  0.00    -0.016 A 
HETATM   10  C   UNK     0      -9.300   3.218  -1.614  0.00  0.00    -0.016 A 
HETATM   11  C   UNK     0      -9.412   2.704  -0.296  0.00  0.00     0.042 A 
HETATM   12  C   UNK     0      -9.026   1.378   0.009  0.00  0.00     0.027 A 
HETATM   13  C   UNK     0      -8.488   0.548  -0.997  0.00  0.00     0.042 A 
ENDROOT
BRANCH  10  14
HETATM   14  C   UNK     0      -9.717   4.546  -1.907  0.00  0.00    -0.023 A 
HETATM   15  C   UNK     0     -10.789   4.779  -2.796  0.00  0.00     0.029 A 
HETATM   16  C   UNK     0     -11.162   6.099  -3.112  0.00  0.00     0.090 A 
HETATM   17  N   UNK     0     -10.503   7.170  -2.571  0.00  0.00    -0.371 N 
HETATM   18  C   UNK     0      -9.472   6.965  -1.692  0.00  0.00     0.090 A 
HETATM   19  C   UNK     0     -10.913   8.513  -2.902  0.00  0.00     0.154 C 
HETATM   20  C   UNK     0      -9.071   5.664  -1.337  0.00  0.00     0.029 A 
ENDBRANCH  10  14
BRANCH  12  21
HETATM   21  N   UNK     0      -9.190   0.897   1.258  0.00  0.00    -0.399 N 
HETATM   22  H   UNK     0      -8.829   0.027   1.496  0.00  0.00     0.156 HD
HETATM   23  H   UNK     0      -9.663   1.421   1.924  0.00  0.00     0.156 HD
ENDBRANCH  12  21
TORSDOF 2
ENDMDL
MODEL 8
REMARK VINA RESULT:      -5.7     19.916     20.851
REMARK  2 active torsions:
REMARK  status: ('A' for Active; 'I' for Inactive)
REMARK    1  A    between atoms: C_10  and  C_17 
REMARK    2  A    between atoms: C_12  and  N_14 
ROOT
HETATM    1  C   UNK     0      10.904  -0.312  -0.158  0.00  0.00     0.013 A 
HETATM    2  C   UNK     0       9.793  -1.142   0.103  0.00  0.00     0.001 A 
HETATM    3  C   UNK     0       8.748  -1.257  -0.839  0.00  0.00     0.001 A 
HETATM    4  C   UNK     0       8.796  -0.538  -2.051  0.00  0.00     0.008 A 
HETATM    5  C   UNK     0       9.907   0.290  -2.304  0.00  0.00    -0.043 A 
HETATM    6  C   UNK     0      10.944   0.400  -1.371  0.00  0.00    -0.019 A 
HETATM    7  C   UNK     0      10.162   1.116  -3.490  0.00  0.00     0.080 A 
HETATM    8  C   UNK     0      11.473   1.711  -3.148  0.00  0.00    -0.032 A 
HETATM    9  C   UNK     0      11.894   1.285  -1.880  0.00  0.00    -0.016 A 
HETATM   10  C   UNK     0      12.253   2.622  -3.904  0.00  0.00    -0.016 A 
HETATM   11  C   UNK     0      13.442   3.123  -3.313  0.00  0.00     0.042 A 
HETATM   12  C   UNK     0      13.846   2.716  -2.021  0.00  0.00     0.027 A 
HETATM   13  C   UNK     0      13.080   1.773  -1.303  0.00  0.00     0.042 A 
ENDROOT
BRANCH  10  14
HETATM   14  C   UNK     0      11.850   3.062  -5.195  0.00  0.00    -0.023 A 
HETATM   15  C   UNK     0      12.231   2.343  -6.348  0.00  0.00     0.029 A 
HETATM   16  C   UNK     0      11.863   2.815  -7.622  0.00  0.00     0.090 A 
HETATM   17  N   UNK     0      11.135   3.966  -7.768  0.00  0.00    -0.371 N 
HETATM   18  C   UNK     0      10.739   4.668  -6.660  0.00  0.00     0.090 A 
HETATM   19  C   UNK     0      10.760   4.420  -9.084  0.00  0.00     0.154 C 
HETATM   20  C   UNK     0      11.073   4.230  -5.366  0.00  0.00     0.029 A 
ENDBRANCH  10  14
BRANCH  12  21
HETATM   21  N   UNK     0      14.953   3.245  -1.461  0.00  0.00    -0.399 N 
HETATM   22  H   UNK     0      15.567   2.678  -0.966  0.00  0.00     0.156 HD
HETATM   23  H   UNK     0      15.144   4.192  -1.557  0.00  0.00     0.156 HD
ENDBRANCH  12  21
TORSDOF 2
ENDMDL
MODEL 9
REMARK VINA RESULT:      -5.7     13.089     15.308
REMARK  2 active torsions:
REMARK  status: ('A' for Active; 'I' for Inactive)
REMARK    1  A    between atoms: C_10  and  C_17 
REMARK    2  A    between atoms: C_12  and  N_14 
ROOT
HETATM    1  C   UNK     0       3.079  -0.050 -11.634  0.00  0.00     0.013 A 
HETATM    2  C   UNK     0       1.892   0.572 -12.078  0.00  0.00     0.001 A 
HETATM    3  C   UNK     0       0.704  -0.177 -12.225  0.00  0.00     0.001 A 
HETATM    4  C   UNK     0       0.687  -1.557 -11.936  0.00  0.00     0.008 A 
HETATM    5  C   UNK     0       1.876  -2.170 -11.494  0.00  0.00    -0.043 A 
HETATM    6  C   UNK     0       3.053  -1.427 -11.346  0.00  0.00    -0.019 A 
HETATM    7  C   UNK     0       2.083  -3.578 -11.136  0.00  0.00     0.080 A 
HETATM    8  C   UNK     0       3.511  -3.569 -10.750  0.00  0.00    -0.032 A 
HETATM    9  C   UNK     0       4.058  -2.288 -10.908  0.00  0.00    -0.016 A 
HETATM   10  C   UNK     0       4.314  -4.652 -10.310  0.00  0.00    -0.016 A 
HETATM   11  C   UNK     0       5.693  -4.405 -10.086  0.00  0.00     0.042 A 
HETATM   12  C   UNK     0       6.247  -3.119 -10.279  0.00  0.00     0.027 A 
HETATM   13  C   UNK     0       5.423  -2.043 -10.672  0.00  0.00     0.042 A 
ENDROOT
BRANCH  10  14
HETATM   14  C   UNK     0       3.778  -5.958 -10.135  0.00  0.00    -0.023 A 
HETATM   15  C   UNK     0       3.164  -6.324  -8.917  0.00  0.00     0.029 A 
HETATM   16  C   UNK     0       2.680  -7.634  -8.742  0.00  0.00     0.090 A 
HETATM   17  N   UNK     0       2.791  -8.568  -9.737  0.00  0.00    -0.371 N 
HETATM   18  C   UNK     0       3.366  -8.228 -10.932  0.00  0.00     0.090 A 
HETATM   19  C   UNK     0       2.274  -9.900  -9.536  0.00  0.00     0.154 C 
HETATM   20  C   UNK     0       3.855  -6.929 -11.159  0.00  0.00     0.029 A 
ENDBRANCH  10  14
BRANCH  12  21
HETATM   21  N   UNK     0       7.571  -2.921 -10.108  0.00  0.00    -0.399 N 
HETATM   22  H   UNK     0       7.895  -2.447  -9.325  0.00  0.00     0.156 HD
HETATM   23  H   UNK     0       8.202  -3.258 -10.763  0.00  0.00     0.156 HD
ENDBRANCH  12  21
TORSDOF 2
ENDMDL
