MODEL 1
REMARK VINA RESULT:      -6.3      0.000      0.000
REMARK  4 active torsions:
REMARK  status: ('A' for Active; 'I' for Inactive)
REMARK    1  A    between atoms: C_11  and  N_19 
REMARK    2  A    between atoms: C_13  and  C_14 
REMARK       I    between atoms: N_19  and  C_21 
REMARK    3  A    between atoms: C_21  and  C_22 
REMARK    4  A    between atoms: C_22  and  C_23 
ROOT
HETATM    1  C   UNK     0      -9.606   9.571  -2.813  0.00  0.00     0.008 A 
HETATM    2  C   UNK     0      -9.494  10.976  -2.784  0.00  0.00     0.001 A 
HETATM    3  C   UNK     0      -8.917  11.621  -1.669  0.00  0.00     0.001 A 
HETATM    4  C   UNK     0      -8.438  10.869  -0.576  0.00  0.00     0.013 A 
HETATM    5  C   UNK     0      -8.546   9.466  -0.624  0.00  0.00    -0.019 A 
HETATM    6  C   UNK     0      -9.131   8.827  -1.718  0.00  0.00    -0.043 A 
HETATM    7  C   UNK     0      -8.141   8.489   0.276  0.00  0.00    -0.016 A 
HETATM    8  C   UNK     0      -8.484   7.226  -0.228  0.00  0.00    -0.031 A 
HETATM    9  C   UNK     0      -9.168   7.371  -1.534  0.00  0.00     0.080 A 
HETATM   10  C   UNK     0      -7.468   8.638   1.499  0.00  0.00     0.042 A 
HETATM   11  C   UNK     0      -7.129   7.487   2.245  0.00  0.00     0.036 A 
HETATM   12  C   UNK     0      -7.454   6.213   1.716  0.00  0.00     0.043 A 
HETATM   13  C   UNK     0      -8.140   6.046   0.482  0.00  0.00    -0.009 A 
ENDROOT
BRANCH  13  14
HETATM   14  C   UNK     0      -8.438   4.730   0.018  0.00  0.00     0.015 A 
HETATM   15  C   UNK     0      -8.049   4.100  -1.178  0.00  0.00     0.020 A 
HETATM   16  C   UNK     0      -8.511   2.787  -1.372  0.00  0.00     0.008 A 
HETATM   17  C   UNK     0      -9.318   2.288  -0.351  0.00  0.00     0.050 A 
HETATM   18  S   UNK     0      -9.441   3.551   0.854  0.00  0.00    -0.101 SA
ENDBRANCH  13  14
BRANCH  11  19
HETATM   19  N   UNK     0      -6.482   7.506   3.451  0.00  0.00    -0.327 N 
HETATM   20  C   UNK     0      -5.155   7.697   3.709  0.00  0.00     0.223 C 
HETATM   21  O   UNK     0      -4.313   7.925   2.807  0.00  0.00    -0.273 OA
HETATM   22  H   UNK     0      -7.050   7.409   4.233  0.00  0.00     0.169 HD
BRANCH  20  23
HETATM   23  C   UNK     0      -4.679   7.687   5.108  0.00  0.00     0.118 C 
BRANCH  23  24
HETATM   24  C   UNK     0      -4.706   9.099   5.735  0.00  0.00     0.124 C 
HETATM   25 Cl   UNK     0      -3.187   9.939   5.437  0.00  0.00    -0.130 Cl
ENDBRANCH  23  24
ENDBRANCH  20  23
ENDBRANCH  11  19
TORSDOF 4
ENDMDL
MODEL 2
REMARK VINA RESULT:      -6.2      3.650      5.971
REMARK  4 active torsions:
REMARK  status: ('A' for Active; 'I' for Inactive)
REMARK    1  A    between atoms: C_11  and  N_19 
REMARK    2  A    between atoms: C_13  and  C_14 
REMARK       I    between atoms: N_19  and  C_21 
REMARK    3  A    between atoms: C_21  and  C_22 
REMARK    4  A    between atoms: C_22  and  C_23 
ROOT
HETATM    1  C   UNK     0      -8.586  11.366  -0.846  0.00  0.00     0.008 A 
HETATM    2  C   UNK     0      -9.274  11.616  -2.051  0.00  0.00     0.001 A 
HETATM    3  C   UNK     0      -9.739  10.543  -2.841  0.00  0.00     0.001 A 
HETATM    4  C   UNK     0      -9.527   9.210  -2.433  0.00  0.00     0.013 A 
HETATM    5  C   UNK     0      -8.848   8.975  -1.221  0.00  0.00    -0.019 A 
HETATM    6  C   UNK     0      -8.374  10.034  -0.447  0.00  0.00    -0.043 A 
HETATM    7  C   UNK     0      -8.531   7.791  -0.568  0.00  0.00    -0.016 A 
HETATM    8  C   UNK     0      -7.835   8.088   0.613  0.00  0.00    -0.031 A 
HETATM    9  C   UNK     0      -7.670   9.553   0.748  0.00  0.00     0.080 A 
HETATM   10  C   UNK     0      -8.836   6.471  -0.934  0.00  0.00     0.042 A 
HETATM   11  C   UNK     0      -8.430   5.411  -0.093  0.00  0.00     0.036 A 
HETATM   12  C   UNK     0      -7.753   5.719   1.112  0.00  0.00     0.043 A 
HETATM   13  C   UNK     0      -7.431   7.050   1.494  0.00  0.00    -0.009 A 
ENDROOT
BRANCH  13  14
HETATM   14  C   UNK     0      -6.741   7.282   2.721  0.00  0.00     0.015 A 
HETATM   15  C   UNK     0      -5.427   7.738   2.931  0.00  0.00     0.020 A 
HETATM   16  C   UNK     0      -5.012   7.858   4.267  0.00  0.00     0.008 A 
HETATM   17  C   UNK     0      -5.961   7.485   5.216  0.00  0.00     0.050 A 
HETATM   18  S   UNK     0      -7.391   6.998   4.331  0.00  0.00    -0.101 SA
ENDBRANCH  13  14
BRANCH  11  19
HETATM   19  N   UNK     0      -8.661   4.086  -0.347  0.00  0.00    -0.327 N 
HETATM   20  C   UNK     0      -8.103   3.287  -1.304  0.00  0.00     0.223 C 
HETATM   21  O   UNK     0      -7.225   3.692  -2.102  0.00  0.00    -0.273 OA
HETATM   22  H   UNK     0      -9.277   3.644   0.259  0.00  0.00     0.169 HD
BRANCH  20  23
HETATM   23  C   UNK     0      -8.503   1.866  -1.385  0.00  0.00     0.118 C 
BRANCH  23  24
HETATM   24  C   UNK     0      -8.574   1.370  -2.847  0.00  0.00     0.124 C 
HETATM   25 Cl   UNK     0      -7.735  -0.169  -3.021  0.00  0.00    -0.130 Cl
ENDBRANCH  23  24
ENDBRANCH  20  23
ENDBRANCH  11  19
TORSDOF 4
ENDMDL
MODEL 3
REMARK VINA RESULT:      -5.9     20.191     21.385
REMARK  4 active torsions:
REMARK  status: ('A' for Active; 'I' for Inactive)
REMARK    1  A    between atoms: C_11  and  N_19 
REMARK    2  A    between atoms: C_13  and  C_14 
REMARK       I    between atoms: N_19  and  C_21 
REMARK    3  A    between atoms: C_21  and  C_22 
REMARK    4  A    between atoms: C_22  and  C_23 
ROOT
HETATM    1  C   UNK     0      12.265   3.229  -6.797  0.00  0.00     0.008 A 
HETATM    2  C   UNK     0      11.310   4.260  -6.903  0.00  0.00     0.001 A 
HETATM    3  C   UNK     0      10.240   4.338  -5.987  0.00  0.00     0.001 A 
HETATM    4  C   UNK     0      10.116   3.390  -4.950  0.00  0.00     0.013 A 
HETATM    5  C   UNK     0      11.083   2.371  -4.848  0.00  0.00    -0.019 A 
HETATM    6  C   UNK     0      12.133   2.283  -5.763  0.00  0.00    -0.043 A 
HETATM    7  C   UNK     0      11.229   1.340  -3.930  0.00  0.00    -0.016 A 
HETATM    8  C   UNK     0      12.358   0.578  -4.266  0.00  0.00    -0.031 A 
HETATM    9  C   UNK     0      12.994   1.127  -5.485  0.00  0.00     0.080 A 
HETATM   10  C   UNK     0      10.446   1.043  -2.803  0.00  0.00     0.042 A 
HETATM   11  C   UNK     0      10.801  -0.054  -1.986  0.00  0.00     0.036 A 
HETATM   12  C   UNK     0      11.958  -0.801  -2.315  0.00  0.00     0.043 A 
HETATM   13  C   UNK     0      12.758  -0.517  -3.455  0.00  0.00    -0.009 A 
ENDROOT
BRANCH  13  14
HETATM   14  C   UNK     0      13.907  -1.319  -3.725  0.00  0.00     0.015 A 
HETATM   15  C   UNK     0      13.996  -2.542  -4.415  0.00  0.00     0.020 A 
HETATM   16  C   UNK     0      15.275  -3.113  -4.513  0.00  0.00     0.008 A 
HETATM   17  C   UNK     0      16.293  -2.394  -3.890  0.00  0.00     0.050 A 
HETATM   18  S   UNK     0      15.548  -0.967  -3.199  0.00  0.00    -0.101 SA
ENDBRANCH  13  14
BRANCH  11  19
HETATM   19  N   UNK     0      10.112  -0.445  -0.869  0.00  0.00    -0.327 N 
HETATM   20  C   UNK     0       8.879  -1.025  -0.783  0.00  0.00     0.223 C 
HETATM   21  O   UNK     0       8.193  -1.319  -1.791  0.00  0.00    -0.273 OA
HETATM   22  H   UNK     0      10.580  -0.329  -0.027  0.00  0.00     0.169 HD
BRANCH  20  23
HETATM   23  C   UNK     0       8.334  -1.374   0.546  0.00  0.00     0.118 C 
BRANCH  23  24
HETATM   24  C   UNK     0       9.363  -2.140   1.407  0.00  0.00     0.124 C 
HETATM   25 Cl   UNK     0       8.573  -3.418   2.327  0.00  0.00    -0.130 Cl
ENDBRANCH  23  24
ENDBRANCH  20  23
ENDBRANCH  11  19
TORSDOF 4
ENDMDL
MODEL 4
REMARK VINA RESULT:      -5.9     20.430     22.705
REMARK  4 active torsions:
REMARK  status: ('A' for Active; 'I' for Inactive)
REMARK    1  A    between atoms: C_11  and  N_19 
REMARK    2  A    between atoms: C_13  and  C_14 
REMARK       I    between atoms: N_19  and  C_21 
REMARK    3  A    between atoms: C_21  and  C_22 
REMARK    4  A    between atoms: C_22  and  C_23 
ROOT
HETATM    1  C   UNK     0       2.253 -12.779  -4.990  0.00  0.00     0.008 A 
HETATM    2  C   UNK     0       0.951 -13.062  -5.451  0.00  0.00     0.001 A 
HETATM    3  C   UNK     0       0.346 -12.242  -6.428  0.00  0.00     0.001 A 
HETATM    4  C   UNK     0       1.039 -11.135  -6.959  0.00  0.00     0.013 A 
HETATM    5  C   UNK     0       2.344 -10.870  -6.498  0.00  0.00    -0.019 A 
HETATM    6  C   UNK     0       2.936 -11.670  -5.521  0.00  0.00    -0.043 A 
HETATM    7  C   UNK     0       3.256  -9.886  -6.857  0.00  0.00    -0.016 A 
HETATM    8  C   UNK     0       4.425 -10.041  -6.098  0.00  0.00    -0.031 A 
HETATM    9  C   UNK     0       4.277 -11.187  -5.171  0.00  0.00     0.080 A 
HETATM   10  C   UNK     0       3.133  -8.879  -7.827  0.00  0.00     0.042 A 
HETATM   11  C   UNK     0       4.213  -7.994  -8.043  0.00  0.00     0.036 A 
HETATM   12  C   UNK     0       5.401  -8.174  -7.293  0.00  0.00     0.043 A 
HETATM   13  C   UNK     0       5.539  -9.185  -6.303  0.00  0.00    -0.009 A 
ENDROOT
BRANCH  13  14
HETATM   14  C   UNK     0       6.765  -9.300  -5.582  0.00  0.00     0.015 A 
HETATM   15  C   UNK     0       7.079  -8.859  -4.285  0.00  0.00     0.020 A 
HETATM   16  C   UNK     0       8.389  -9.104  -3.840  0.00  0.00     0.008 A 
HETATM   17  C   UNK     0       9.217  -9.739  -4.763  0.00  0.00     0.050 A 
HETATM   18  S   UNK     0       8.249 -10.018  -6.196  0.00  0.00    -0.101 SA
ENDBRANCH  13  14
BRANCH  11  19
HETATM   19  N   UNK     0       4.208  -6.970  -8.952  0.00  0.00    -0.327 N 
HETATM   20  C   UNK     0       3.709  -5.706  -8.816  0.00  0.00     0.223 C 
HETATM   21  O   UNK     0       3.186  -5.292  -7.755  0.00  0.00    -0.273 OA
HETATM   22  H   UNK     0       4.654  -7.156  -9.794  0.00  0.00     0.169 HD
BRANCH  20  23
HETATM   23  C   UNK     0       3.827  -4.756  -9.942  0.00  0.00     0.118 C 
BRANCH  23  24
HETATM   24  C   UNK     0       5.139  -4.959 -10.733  0.00  0.00     0.124 C 
HETATM   25 Cl   UNK     0       6.515  -4.346  -9.820  0.00  0.00    -0.130 Cl
ENDBRANCH  23  24
ENDBRANCH  20  23
ENDBRANCH  11  19
TORSDOF 4
ENDMDL
MODEL 5
REMARK VINA RESULT:      -5.8     18.064     20.300
REMARK  4 active torsions:
REMARK  status: ('A' for Active; 'I' for Inactive)
REMARK    1  A    between atoms: C_11  and  N_19 
REMARK    2  A    between atoms: C_13  and  C_14 
REMARK       I    between atoms: N_19  and  C_21 
REMARK    3  A    between atoms: C_21  and  C_22 
REMARK    4  A    between atoms: C_22  and  C_23 
ROOT
HETATM    1  C   UNK     0       2.248   0.905 -12.833  0.00  0.00     0.008 A 
HETATM    2  C   UNK     0       0.857   1.107 -12.727  0.00  0.00     0.001 A 
HETATM    3  C   UNK     0       0.022   0.078 -12.240  0.00  0.00     0.001 A 
HETATM    4  C   UNK     0       0.570  -1.161 -11.847  0.00  0.00     0.013 A 
HETATM    5  C   UNK     0       1.963  -1.345 -11.948  0.00  0.00    -0.019 A 
HETATM    6  C   UNK     0       2.787  -0.335 -12.445  0.00  0.00    -0.043 A 
HETATM    7  C   UNK     0       2.766  -2.427 -11.613  0.00  0.00    -0.016 A 
HETATM    8  C   UNK     0       4.102  -2.121 -11.913  0.00  0.00    -0.031 A 
HETATM    9  C   UNK     0       4.191  -0.761 -12.492  0.00  0.00     0.080 A 
HETATM   10  C   UNK     0       2.401  -3.654 -11.038  0.00  0.00     0.042 A 
HETATM   11  C   UNK     0       3.403  -4.610 -10.756  0.00  0.00     0.036 A 
HETATM   12  C   UNK     0       4.753  -4.283 -11.035  0.00  0.00     0.043 A 
HETATM   13  C   UNK     0       5.138  -3.047 -11.623  0.00  0.00    -0.009 A 
ENDROOT
BRANCH  13  14
HETATM   14  C   UNK     0       6.518  -2.792 -11.881  0.00  0.00     0.015 A 
HETATM   15  C   UNK     0       7.579  -2.633 -10.971  0.00  0.00     0.020 A 
HETATM   16  C   UNK     0       8.844  -2.375 -11.523  0.00  0.00     0.008 A 
HETATM   17  C   UNK     0       8.875  -2.289 -12.914  0.00  0.00     0.050 A 
HETATM   18  S   UNK     0       7.238  -2.568 -13.470  0.00  0.00    -0.101 SA
ENDBRANCH  13  14
BRANCH  11  19
HETATM   19  N   UNK     0       3.169  -5.841 -10.206  0.00  0.00    -0.327 N 
HETATM   20  C   UNK     0       3.020  -6.177  -8.890  0.00  0.00     0.223 C 
HETATM   21  O   UNK     0       3.050  -5.332  -7.964  0.00  0.00    -0.273 OA
HETATM   22  H   UNK     0       3.056  -6.568 -10.839  0.00  0.00     0.169 HD
BRANCH  20  23
HETATM   23  C   UNK     0       2.761  -7.587  -8.528  0.00  0.00     0.118 C 
BRANCH  23  24
HETATM   24  C   UNK     0       4.031  -8.288  -7.997  0.00  0.00     0.124 C 
HETATM   25 Cl   UNK     0       3.606  -9.568  -6.864  0.00  0.00    -0.130 Cl
ENDBRANCH  23  24
ENDBRANCH  20  23
ENDBRANCH  11  19
TORSDOF 4
ENDMDL
MODEL 6
REMARK VINA RESULT:      -5.8      5.323      9.157
REMARK  4 active torsions:
REMARK  status: ('A' for Active; 'I' for Inactive)
REMARK    1  A    between atoms: C_11  and  N_19 
REMARK    2  A    between atoms: C_13  and  C_14 
REMARK       I    between atoms: N_19  and  C_21 
REMARK    3  A    between atoms: C_21  and  C_22 
REMARK    4  A    between atoms: C_22  and  C_23 
ROOT
HETATM    1  C   UNK     0     -11.015   2.100   4.727  0.00  0.00     0.008 A 
HETATM    2  C   UNK     0     -11.481   0.848   5.179  0.00  0.00     0.001 A 
HETATM    3  C   UNK     0     -11.440  -0.277   4.328  0.00  0.00     0.001 A 
HETATM    4  C   UNK     0     -10.928  -0.165   3.018  0.00  0.00     0.013 A 
HETATM    5  C   UNK     0     -10.456   1.089   2.583  0.00  0.00    -0.019 A 
HETATM    6  C   UNK     0     -10.511   2.206   3.418  0.00  0.00    -0.043 A 
HETATM    7  C   UNK     0      -9.883   1.481   1.381  0.00  0.00    -0.016 A 
HETATM    8  C   UNK     0      -9.588   2.851   1.435  0.00  0.00    -0.031 A 
HETATM    9  C   UNK     0     -10.000   3.406   2.745  0.00  0.00     0.080 A 
HETATM   10  C   UNK     0      -9.580   0.704   0.252  0.00  0.00     0.042 A 
HETATM   11  C   UNK     0      -8.966   1.318  -0.863  0.00  0.00     0.036 A 
HETATM   12  C   UNK     0      -8.645   2.695  -0.791  0.00  0.00     0.043 A 
HETATM   13  C   UNK     0      -8.950   3.497   0.343  0.00  0.00    -0.009 A 
ENDROOT
BRANCH  13  14
HETATM   14  C   UNK     0      -8.602   4.881   0.339  0.00  0.00     0.015 A 
HETATM   15  C   UNK     0      -7.523   5.528   0.967  0.00  0.00     0.020 A 
HETATM   16  C   UNK     0      -7.442   6.920   0.795  0.00  0.00     0.008 A 
HETATM   17  C   UNK     0      -8.465   7.481   0.034  0.00  0.00     0.050 A 
HETATM   18  S   UNK     0      -9.507   6.162  -0.456  0.00  0.00    -0.101 SA
ENDBRANCH  13  14
BRANCH  11  19
HETATM   19  N   UNK     0      -8.632   0.668  -2.021  0.00  0.00    -0.327 N 
HETATM   20  C   UNK     0      -7.515  -0.066  -2.300  0.00  0.00     0.223 C 
HETATM   21  O   UNK     0      -6.609  -0.274  -1.457  0.00  0.00    -0.273 OA
HETATM   22  H   UNK     0      -9.298   0.701  -2.727  0.00  0.00     0.169 HD
BRANCH  20  23
HETATM   23  C   UNK     0      -7.373  -0.692  -3.631  0.00  0.00     0.118 C 
BRANCH  23  24
HETATM   24  C   UNK     0      -8.342  -1.881  -3.815  0.00  0.00     0.124 C 
HETATM   25 Cl   UNK     0      -7.678  -3.342  -3.090  0.00  0.00    -0.130 Cl
ENDBRANCH  23  24
ENDBRANCH  20  23
ENDBRANCH  11  19
TORSDOF 4
ENDMDL
MODEL 7
REMARK VINA RESULT:      -5.8     19.463     21.433
REMARK  4 active torsions:
REMARK  status: ('A' for Active; 'I' for Inactive)
REMARK    1  A    between atoms: C_11  and  N_19 
REMARK    2  A    between atoms: C_13  and  C_14 
REMARK       I    between atoms: N_19  and  C_21 
REMARK    3  A    between atoms: C_21  and  C_22 
REMARK    4  A    between atoms: C_22  and  C_23 
ROOT
HETATM    1  C   UNK     0      11.391  -0.886  -1.055  0.00  0.00     0.008 A 
HETATM    2  C   UNK     0      10.235  -1.691  -1.106  0.00  0.00     0.001 A 
HETATM    3  C   UNK     0       9.148  -1.325  -1.929  0.00  0.00     0.001 A 
HETATM    4  C   UNK     0       9.208  -0.154  -2.714  0.00  0.00     0.013 A 
HETATM    5  C   UNK     0      10.374   0.634  -2.662  0.00  0.00    -0.019 A 
HETATM    6  C   UNK     0      11.443   0.282  -1.837  0.00  0.00    -0.043 A 
HETATM    7  C   UNK     0      10.718   1.799  -3.336  0.00  0.00    -0.016 A 
HETATM    8  C   UNK     0      11.998   2.206  -2.929  0.00  0.00    -0.031 A 
HETATM    9  C   UNK     0      12.530   1.264  -1.918  0.00  0.00     0.080 A 
HETATM   10  C   UNK     0       9.989   2.509  -4.302  0.00  0.00     0.042 A 
HETATM   11  C   UNK     0      10.555   3.668  -4.879  0.00  0.00     0.036 A 
HETATM   12  C   UNK     0      11.859   4.058  -4.484  0.00  0.00     0.043 A 
HETATM   13  C   UNK     0      12.608   3.352  -3.503  0.00  0.00    -0.009 A 
ENDROOT
BRANCH  13  14
HETATM   14  C   UNK     0      13.914   3.809  -3.153  0.00  0.00     0.015 A 
HETATM   15  C   UNK     0      14.308   4.652  -2.099  0.00  0.00     0.020 A 
HETATM   16  C   UNK     0      15.679   4.943  -2.009  0.00  0.00     0.008 A 
HETATM   17  C   UNK     0      16.471   4.368  -3.001  0.00  0.00     0.050 A 
HETATM   18  S   UNK     0      15.396   3.439  -4.025  0.00  0.00    -0.101 SA
ENDBRANCH  13  14
BRANCH  11  19
HETATM   19  N   UNK     0       9.939   4.447  -5.821  0.00  0.00    -0.327 N 
HETATM   20  C   UNK     0      10.235   4.583  -7.147  0.00  0.00     0.223 C 
HETATM   21  O   UNK     0      11.155   3.940  -7.708  0.00  0.00    -0.273 OA
HETATM   22  H   UNK     0       9.162   4.940  -5.513  0.00  0.00     0.169 HD
BRANCH  20  23
HETATM   23  C   UNK     0       9.416   5.484  -7.984  0.00  0.00     0.118 C 
BRANCH  23  24
HETATM   24  C   UNK     0       7.980   5.635  -7.433  0.00  0.00     0.124 C 
HETATM   25 Cl   UNK     0       6.825   5.813  -8.751  0.00  0.00    -0.130 Cl
ENDBRANCH  23  24
ENDBRANCH  20  23
ENDBRANCH  11  19
TORSDOF 4
ENDMDL
MODEL 8
REMARK VINA RESULT:      -5.8      3.819      6.943
REMARK  4 active torsions:
REMARK  status: ('A' for Active; 'I' for Inactive)
REMARK    1  A    between atoms: C_11  and  N_19 
REMARK    2  A    between atoms: C_13  and  C_14 
REMARK       I    between atoms: N_19  and  C_21 
REMARK    3  A    between atoms: C_21  and  C_22 
REMARK    4  A    between atoms: C_22  and  C_23 
ROOT
HETATM    1  C   UNK     0      -6.546   9.659   3.629  0.00  0.00     0.008 A 
HETATM    2  C   UNK     0      -5.945   8.945   4.685  0.00  0.00     0.001 A 
HETATM    3  C   UNK     0      -5.949   7.533   4.683  0.00  0.00     0.001 A 
HETATM    4  C   UNK     0      -6.547   6.821   3.622  0.00  0.00     0.013 A 
HETATM    5  C   UNK     0      -7.134   7.548   2.568  0.00  0.00    -0.019 A 
HETATM    6  C   UNK     0      -7.145   8.943   2.577  0.00  0.00    -0.043 A 
HETATM    7  C   UNK     0      -7.756   7.122   1.402  0.00  0.00    -0.016 A 
HETATM    8  C   UNK     0      -8.185   8.241   0.672  0.00  0.00    -0.031 A 
HETATM    9  C   UNK     0      -7.839   9.483   1.401  0.00  0.00     0.080 A 
HETATM   10  C   UNK     0      -7.947   5.814   0.930  0.00  0.00     0.042 A 
HETATM   11  C   UNK     0      -8.592   5.617  -0.312  0.00  0.00     0.036 A 
HETATM   12  C   UNK     0      -8.997   6.752  -1.057  0.00  0.00     0.043 A 
HETATM   13  C   UNK     0      -8.815   8.082  -0.589  0.00  0.00    -0.009 A 
ENDROOT
BRANCH  13  14
HETATM   14  C   UNK     0      -9.256   9.175  -1.394  0.00  0.00     0.015 A 
HETATM   15  C   UNK     0      -8.505  10.035  -2.215  0.00  0.00     0.020 A 
HETATM   16  C   UNK     0      -9.219  11.042  -2.886  0.00  0.00     0.008 A 
HETATM   17  C   UNK     0     -10.588  11.067  -2.628  0.00  0.00     0.050 A 
HETATM   18  S   UNK     0     -10.914   9.752  -1.519  0.00  0.00    -0.101 SA
ENDBRANCH  13  14
BRANCH  11  19
HETATM   19  N   UNK     0      -8.842   4.392  -0.871  0.00  0.00    -0.327 N 
HETATM   20  C   UNK     0      -8.028   3.627  -1.658  0.00  0.00     0.223 C 
HETATM   21  O   UNK     0      -6.858   3.965  -1.958  0.00  0.00    -0.273 OA
HETATM   22  H   UNK     0      -9.699   3.996  -0.647  0.00  0.00     0.169 HD
BRANCH  20  23
HETATM   23  C   UNK     0      -8.513   2.319  -2.144  0.00  0.00     0.118 C 
BRANCH  23  24
HETATM   24  C   UNK     0      -8.950   2.380  -3.624  0.00  0.00     0.124 C 
HETATM   25 Cl   UNK     0      -7.864   1.428  -4.633  0.00  0.00    -0.130 Cl
ENDBRANCH  23  24
ENDBRANCH  20  23
ENDBRANCH  11  19
TORSDOF 4
ENDMDL
MODEL 9
REMARK VINA RESULT:      -5.7      5.419      9.366
REMARK  4 active torsions:
REMARK  status: ('A' for Active; 'I' for Inactive)
REMARK    1  A    between atoms: C_11  and  N_19 
REMARK    2  A    between atoms: C_13  and  C_14 
REMARK       I    between atoms: N_19  and  C_21 
REMARK    3  A    between atoms: C_21  and  C_22 
REMARK    4  A    between atoms: C_22  and  C_23 
ROOT
HETATM    1  C   UNK     0      -8.532  -3.272  -4.795  0.00  0.00     0.008 A 
HETATM    2  C   UNK     0      -8.144  -4.068  -3.698  0.00  0.00     0.001 A 
HETATM    3  C   UNK     0      -7.908  -3.477  -2.438  0.00  0.00     0.001 A 
HETATM    4  C   UNK     0      -8.064  -2.086  -2.260  0.00  0.00     0.013 A 
HETATM    5  C   UNK     0      -8.463  -1.305  -3.362  0.00  0.00    -0.019 A 
HETATM    6  C   UNK     0      -8.681  -1.886  -4.612  0.00  0.00    -0.043 A 
HETATM    7  C   UNK     0      -8.720   0.055  -3.471  0.00  0.00    -0.016 A 
HETATM    8  C   UNK     0      -9.082   0.352  -4.793  0.00  0.00    -0.031 A 
HETATM    9  C   UNK     0      -9.053  -0.880  -5.614  0.00  0.00     0.080 A 
HETATM   10  C   UNK     0      -8.679   1.044  -2.476  0.00  0.00     0.042 A 
HETATM   11  C   UNK     0      -9.008   2.376  -2.814  0.00  0.00     0.036 A 
HETATM   12  C   UNK     0      -9.401   2.664  -4.144  0.00  0.00     0.043 A 
HETATM   13  C   UNK     0      -9.441   1.674  -5.164  0.00  0.00    -0.009 A 
ENDROOT
BRANCH  13  14
HETATM   14  C   UNK     0      -9.840   2.042  -6.484  0.00  0.00     0.015 A 
HETATM   15  C   UNK     0      -9.305   1.639  -7.720  0.00  0.00     0.020 A 
HETATM   16  C   UNK     0      -9.903   2.183  -8.869  0.00  0.00     0.008 A 
HETATM   17  C   UNK     0     -10.945   3.076  -8.626  0.00  0.00     0.050 A 
HETATM   18  S   UNK     0     -11.129   3.169  -6.887  0.00  0.00    -0.101 SA
ENDBRANCH  13  14
BRANCH  11  19
HETATM   19  N   UNK     0      -8.997   3.426  -1.935  0.00  0.00    -0.327 N 
HETATM   20  C   UNK     0      -7.927   4.107  -1.428  0.00  0.00     0.223 C 
HETATM   21  O   UNK     0      -6.743   3.856  -1.756  0.00  0.00    -0.273 OA
HETATM   22  H   UNK     0      -9.869   3.755  -1.665  0.00  0.00     0.169 HD
BRANCH  20  23
HETATM   23  C   UNK     0      -8.159   5.226  -0.491  0.00  0.00     0.118 C 
BRANCH  23  24
HETATM   24  C   UNK     0      -8.240   4.742   0.975  0.00  0.00     0.124 C 
HETATM   25 Cl   UNK     0      -7.345   5.825   2.036  0.00  0.00    -0.130 Cl
ENDBRANCH  23  24
ENDBRANCH  20  23
ENDBRANCH  11  19
TORSDOF 4
ENDMDL
