MODEL 1
REMARK VINA RESULT:      -7.1      0.000      0.000
REMARK  4 active torsions:
REMARK  status: ('A' for Active; 'I' for Inactive)
REMARK    1  A    between atoms: C_11  and  N_14 
REMARK    2  A    between atoms: C_13  and  C_21 
REMARK       I    between atoms: N_14  and  C_15 
REMARK    3  A    between atoms: C_15  and  C_16 
REMARK    4  A    between atoms: C_16  and  C_17 
ROOT
HETATM    1  C   UNK     0      -1.137  -7.118  -9.739  0.00  0.00     0.016 A 
HETATM    2  C   UNK     0      -0.942  -8.515  -9.727  0.00  0.00     0.001 A 
HETATM    3  C   UNK     0      -1.639  -9.329  -8.806  0.00  0.00     0.001 A 
HETATM    4  C   UNK     0      -2.549  -8.759  -7.890  0.00  0.00     0.013 A 
HETATM    5  C   UNK     0      -2.746  -7.364  -7.920  0.00  0.00    -0.011 A 
HETATM    6  C   UNK     0      -2.046  -6.558  -8.821  0.00  0.00     0.026 A 
HETATM    7  C   UNK     0      -3.571  -6.530  -7.163  0.00  0.00    -0.008 A 
HETATM    8  C   UNK     0      -3.354  -5.205  -7.561  0.00  0.00     0.037 A 
HETATM    9  C   UNK     0      -2.420  -5.229  -8.614  0.00  0.00     0.195 A 
HETATM   10  C   UNK     0      -4.505  -6.853  -6.168  0.00  0.00     0.043 A 
HETATM   11  C   UNK     0      -5.230  -5.816  -5.533  0.00  0.00     0.036 A 
HETATM   12  C   UNK     0      -4.988  -4.476  -5.927  0.00  0.00     0.043 A 
HETATM   13  C   UNK     0      -4.045  -4.138  -6.934  0.00  0.00    -0.009 A 
HETATM   14  O   UNK     0      -1.997  -4.258  -9.282  0.00  0.00    -0.287 OA
ENDROOT
BRANCH  13  15
HETATM   15  C   UNK     0      -3.814  -2.774  -7.267  0.00  0.00    -0.022 A 
HETATM   16  C   UNK     0      -4.590  -2.125  -8.258  0.00  0.00     0.029 A 
HETATM   17  C   UNK     0      -4.329  -0.780  -8.574  0.00  0.00     0.088 A 
HETATM   18  N   UNK     0      -3.330  -0.118  -7.938  0.00  0.00    -0.375 N 
HETATM   19  C   UNK     0      -2.560  -0.701  -6.985  0.00  0.00     0.088 A 
HETATM   20  HN  UNK     0      -3.151   0.856  -8.185  1.00  0.00     0.164 HD
HETATM   21  C   UNK     0      -2.788  -2.042  -6.624  0.00  0.00     0.029 A 
ENDBRANCH  13  15
BRANCH  11  22
HETATM   22  N   UNK     0      -6.181  -6.031  -4.573  0.00  0.00    -0.327 N 
HETATM   23  C   UNK     0      -6.028  -6.003  -3.214  0.00  0.00     0.223 C 
HETATM   24  O   UNK     0      -4.949  -5.677  -2.664  0.00  0.00    -0.273 OA
HETATM   25  H   UNK     0      -7.080  -6.200  -4.897  0.00  0.00     0.169 HD
BRANCH  23  26
HETATM   26  C   UNK     0      -7.177  -6.329  -2.343  0.00  0.00     0.118 C 
BRANCH  26  27
HETATM   27  C   UNK     0      -8.499  -6.436  -3.140  0.00  0.00     0.124 C 
HETATM   28 Cl   UNK     0      -9.192  -4.845  -3.438  0.00  0.00    -0.130 Cl
ENDBRANCH  26  27
ENDBRANCH  23  26
ENDBRANCH  11  22
TORSDOF 4
ENDMDL
MODEL 2
REMARK VINA RESULT:      -6.8      3.419      6.717
REMARK  4 active torsions:
REMARK  status: ('A' for Active; 'I' for Inactive)
REMARK    1  A    between atoms: C_11  and  N_14 
REMARK    2  A    between atoms: C_13  and  C_21 
REMARK       I    between atoms: N_14  and  C_15 
REMARK    3  A    between atoms: C_15  and  C_16 
REMARK    4  A    between atoms: C_16  and  C_17 
ROOT
HETATM    1  C   UNK     0      -5.011  -1.680  -7.249  0.00  0.00     0.016 A 
HETATM    2  C   UNK     0      -4.413  -1.053  -8.363  0.00  0.00     0.001 A 
HETATM    3  C   UNK     0      -3.552  -1.778  -9.217  0.00  0.00     0.001 A 
HETATM    4  C   UNK     0      -3.283  -3.143  -8.975  0.00  0.00     0.013 A 
HETATM    5  C   UNK     0      -3.896  -3.761  -7.867  0.00  0.00    -0.011 A 
HETATM    6  C   UNK     0      -4.737  -3.040  -7.015  0.00  0.00     0.026 A 
HETATM    7  C   UNK     0      -3.835  -5.070  -7.387  0.00  0.00    -0.008 A 
HETATM    8  C   UNK     0      -4.599  -5.155  -6.217  0.00  0.00     0.037 A 
HETATM    9  C   UNK     0      -5.181  -3.892  -6.002  0.00  0.00     0.195 A 
HETATM   10  C   UNK     0      -3.173  -6.190  -7.913  0.00  0.00     0.043 A 
HETATM   11  C   UNK     0      -3.258  -7.429  -7.235  0.00  0.00     0.036 A 
HETATM   12  C   UNK     0      -4.015  -7.500  -6.039  0.00  0.00     0.043 A 
HETATM   13  C   UNK     0      -4.690  -6.373  -5.498  0.00  0.00    -0.009 A 
HETATM   14  O   UNK     0      -5.976  -3.563  -5.092  0.00  0.00    -0.287 OA
ENDROOT
BRANCH  13  15
HETATM   15  C   UNK     0      -5.407  -6.490  -4.275  0.00  0.00    -0.022 A 
HETATM   16  C   UNK     0      -4.805  -6.144  -3.041  0.00  0.00     0.029 A 
HETATM   17  C   UNK     0      -5.535  -6.284  -1.847  0.00  0.00     0.088 A 
HETATM   18  N   UNK     0      -6.806  -6.759  -1.884  0.00  0.00    -0.375 N 
HETATM   19  C   UNK     0      -7.421  -7.105  -3.044  0.00  0.00     0.088 A 
HETATM   20  HN  UNK     0      -7.318  -6.859  -1.008  1.00  0.00     0.164 HD
HETATM   21  C   UNK     0      -6.737  -6.974  -4.266  0.00  0.00     0.029 A 
ENDBRANCH  13  15
BRANCH  11  22
HETATM   22  N   UNK     0      -2.672  -8.583  -7.681  0.00  0.00    -0.327 N 
HETATM   23  C   UNK     0      -3.173  -9.495  -8.568  0.00  0.00     0.223 C 
HETATM   24  O   UNK     0      -4.259  -9.322  -9.171  0.00  0.00    -0.273 OA
HETATM   25  H   UNK     0      -1.780  -8.762  -7.344  0.00  0.00     0.169 HD
BRANCH  23  26
HETATM   26  C   UNK     0      -2.402 -10.718  -8.872  0.00  0.00     0.118 C 
BRANCH  26  27
HETATM   27  C   UNK     0      -0.952 -10.398  -9.309  0.00  0.00     0.124 C 
HETATM   28 Cl   UNK     0      -0.929  -9.283 -10.671  0.00  0.00    -0.130 Cl
ENDBRANCH  26  27
ENDBRANCH  23  26
ENDBRANCH  11  22
TORSDOF 4
ENDMDL
MODEL 3
REMARK VINA RESULT:      -6.7      2.508      5.686
REMARK  4 active torsions:
REMARK  status: ('A' for Active; 'I' for Inactive)
REMARK    1  A    between atoms: C_11  and  N_14 
REMARK    2  A    between atoms: C_13  and  C_21 
REMARK       I    between atoms: N_14  and  C_15 
REMARK    3  A    between atoms: C_15  and  C_16 
REMARK    4  A    between atoms: C_16  and  C_17 
ROOT
HETATM    1  C   UNK     0      -2.732 -10.460  -6.943  0.00  0.00     0.016 A 
HETATM    2  C   UNK     0      -1.945 -10.693  -8.091  0.00  0.00     0.001 A 
HETATM    3  C   UNK     0      -1.650  -9.639  -8.984  0.00  0.00     0.001 A 
HETATM    4  C   UNK     0      -2.128  -8.334  -8.737  0.00  0.00     0.013 A 
HETATM    5  C   UNK     0      -2.901  -8.111  -7.580  0.00  0.00    -0.011 A 
HETATM    6  C   UNK     0      -3.205  -9.156  -6.705  0.00  0.00     0.026 A 
HETATM    7  C   UNK     0      -3.492  -6.953  -7.072  0.00  0.00    -0.008 A 
HETATM    8  C   UNK     0      -4.197  -7.283  -5.908  0.00  0.00     0.037 A 
HETATM    9  C   UNK     0      -3.995  -8.656  -5.668  0.00  0.00     0.195 A 
HETATM   10  C   UNK     0      -3.440  -5.634  -7.547  0.00  0.00     0.043 A 
HETATM   11  C   UNK     0      -4.133  -4.616  -6.849  0.00  0.00     0.036 A 
HETATM   12  C   UNK     0      -4.863  -4.964  -5.686  0.00  0.00     0.043 A 
HETATM   13  C   UNK     0      -4.922  -6.296  -5.195  0.00  0.00    -0.009 A 
HETATM   14  O   UNK     0      -4.411  -9.331  -4.700  0.00  0.00    -0.287 OA
ENDROOT
BRANCH  13  15
HETATM   15  C   UNK     0      -5.698  -6.598  -4.041  0.00  0.00    -0.022 A 
HETATM   16  C   UNK     0      -7.031  -7.060  -4.160  0.00  0.00     0.029 A 
HETATM   17  C   UNK     0      -7.778  -7.337  -3.001  0.00  0.00     0.088 A 
HETATM   18  N   UNK     0      -7.220  -7.148  -1.778  0.00  0.00    -0.375 N 
HETATM   19  C   UNK     0      -5.948  -6.704  -1.617  0.00  0.00     0.088 A 
HETATM   20  HN  UNK     0      -7.779  -7.348  -0.948  1.00  0.00     0.164 HD
HETATM   21  C   UNK     0      -5.156  -6.423  -2.746  0.00  0.00     0.029 A 
ENDBRANCH  13  15
BRANCH  11  22
HETATM   22  N   UNK     0      -4.121  -3.298  -7.217  0.00  0.00    -0.327 N 
HETATM   23  C   UNK     0      -3.205  -2.338  -6.885  0.00  0.00     0.223 C 
HETATM   24  O   UNK     0      -2.166  -2.596  -6.232  0.00  0.00    -0.273 OA
HETATM   25  H   UNK     0      -4.838  -3.016  -7.807  0.00  0.00     0.169 HD
BRANCH  23  26
HETATM   26  C   UNK     0      -3.409  -0.946  -7.337  0.00  0.00     0.118 C 
BRANCH  26  27
HETATM   27  C   UNK     0      -4.422  -0.856  -8.503  0.00  0.00     0.124 C 
HETATM   28 Cl   UNK     0      -3.671  -1.299 -10.033  0.00  0.00    -0.130 Cl
ENDBRANCH  26  27
ENDBRANCH  23  26
ENDBRANCH  11  22
TORSDOF 4
ENDMDL
MODEL 4
REMARK VINA RESULT:      -6.5      2.983      6.803
REMARK  4 active torsions:
REMARK  status: ('A' for Active; 'I' for Inactive)
REMARK    1  A    between atoms: C_11  and  N_14 
REMARK    2  A    between atoms: C_13  and  C_21 
REMARK       I    between atoms: N_14  and  C_15 
REMARK    3  A    between atoms: C_15  and  C_16 
REMARK    4  A    between atoms: C_16  and  C_17 
ROOT
HETATM    1  C   UNK     0      -6.614  -8.351  -3.388  0.00  0.00     0.016 A 
HETATM    2  C   UNK     0      -7.172  -7.726  -2.252  0.00  0.00     0.001 A 
HETATM    3  C   UNK     0      -7.101  -6.323  -2.098  0.00  0.00     0.001 A 
HETATM    4  C   UNK     0      -6.480  -5.524  -3.082  0.00  0.00     0.013 A 
HETATM    5  C   UNK     0      -5.938  -6.158  -4.218  0.00  0.00    -0.011 A 
HETATM    6  C   UNK     0      -5.996  -7.546  -4.363  0.00  0.00     0.026 A 
HETATM    7  C   UNK     0      -5.287  -5.645  -5.341  0.00  0.00    -0.008 A 
HETATM    8  C   UNK     0      -4.902  -6.712  -6.162  0.00  0.00     0.037 A 
HETATM    9  C   UNK     0      -5.369  -7.896  -5.560  0.00  0.00     0.195 A 
HETATM   10  C   UNK     0      -5.026  -4.314  -5.698  0.00  0.00     0.043 A 
HETATM   11  C   UNK     0      -4.337  -4.041  -6.905  0.00  0.00     0.036 A 
HETATM   12  C   UNK     0      -3.931  -5.128  -7.717  0.00  0.00     0.043 A 
HETATM   13  C   UNK     0      -4.191  -6.480  -7.366  0.00  0.00    -0.009 A 
HETATM   14  O   UNK     0      -5.277  -9.064  -6.002  0.00  0.00    -0.287 OA
ENDROOT
BRANCH  13  15
HETATM   15  C   UNK     0      -3.731  -7.536  -8.201  0.00  0.00    -0.022 A 
HETATM   16  C   UNK     0      -2.475  -8.149  -7.974  0.00  0.00     0.029 A 
HETATM   17  C   UNK     0      -2.042  -9.181  -8.825  0.00  0.00     0.088 A 
HETATM   18  N   UNK     0      -2.823  -9.574  -9.863  0.00  0.00    -0.375 N 
HETATM   19  C   UNK     0      -4.031  -9.012 -10.119  0.00  0.00     0.088 A 
HETATM   20  HN  UNK     0      -2.489 -10.320 -10.473  1.00  0.00     0.164 HD
HETATM   21  C   UNK     0      -4.515  -7.983  -9.291  0.00  0.00     0.029 A 
ENDBRANCH  13  15
BRANCH  11  22
HETATM   22  N   UNK     0      -4.060  -2.777  -7.353  0.00  0.00    -0.327 N 
HETATM   23  C   UNK     0      -3.137  -1.894  -6.865  0.00  0.00     0.223 C 
HETATM   24  O   UNK     0      -2.336  -2.193  -5.948  0.00  0.00    -0.273 OA
HETATM   25  H   UNK     0      -4.565  -2.482  -8.127  0.00  0.00     0.169 HD
BRANCH  23  26
HETATM   26  C   UNK     0      -3.038  -0.542  -7.456  0.00  0.00     0.118 C 
BRANCH  26  27
HETATM   27  C   UNK     0      -2.015  -0.488  -8.616  0.00  0.00     0.124 C 
HETATM   28 Cl   UNK     0      -1.378  -2.089  -8.977  0.00  0.00    -0.130 Cl
ENDBRANCH  26  27
ENDBRANCH  23  26
ENDBRANCH  11  22
TORSDOF 4
ENDMDL
MODEL 5
REMARK VINA RESULT:      -6.5     13.108     14.028
REMARK  4 active torsions:
REMARK  status: ('A' for Active; 'I' for Inactive)
REMARK    1  A    between atoms: C_11  and  N_14 
REMARK    2  A    between atoms: C_13  and  C_21 
REMARK       I    between atoms: N_14  and  C_15 
REMARK    3  A    between atoms: C_15  and  C_16 
REMARK    4  A    between atoms: C_16  and  C_17 
ROOT
HETATM    1  C   UNK     0       9.355  -1.576  -6.935  0.00  0.00     0.016 A 
HETATM    2  C   UNK     0      10.100  -2.753  -6.709  0.00  0.00     0.001 A 
HETATM    3  C   UNK     0      10.375  -3.186  -5.393  0.00  0.00     0.001 A 
HETATM    4  C   UNK     0       9.902  -2.454  -4.283  0.00  0.00     0.013 A 
HETATM    5  C   UNK     0       9.148  -1.288  -4.521  0.00  0.00    -0.011 A 
HETATM    6  C   UNK     0       8.888  -0.852  -5.822  0.00  0.00     0.026 A 
HETATM    7  C   UNK     0       8.548  -0.380  -3.646  0.00  0.00    -0.008 A 
HETATM    8  C   UNK     0       7.953   0.641  -4.399  0.00  0.00     0.037 A 
HETATM    9  C   UNK     0       8.146   0.329  -5.758  0.00  0.00     0.195 A 
HETATM   10  C   UNK     0       8.473  -0.396  -2.245  0.00  0.00     0.043 A 
HETATM   11  C   UNK     0       7.802   0.653  -1.573  0.00  0.00     0.036 A 
HETATM   12  C   UNK     0       7.223   1.693  -2.342  0.00  0.00     0.043 A 
HETATM   13  C   UNK     0       7.292   1.720  -3.761  0.00  0.00    -0.009 A 
HETATM   14  O   UNK     0       7.723   0.960  -6.753  0.00  0.00    -0.287 OA
ENDROOT
BRANCH  13  15
HETATM   15  C   UNK     0       6.724   2.806  -4.483  0.00  0.00    -0.022 A 
HETATM   16  C   UNK     0       7.386   4.055  -4.559  0.00  0.00     0.029 A 
HETATM   17  C   UNK     0       6.793   5.115  -5.269  0.00  0.00     0.088 A 
HETATM   18  N   UNK     0       5.587   4.936  -5.865  0.00  0.00    -0.375 N 
HETATM   19  C   UNK     0       4.916   3.758  -5.814  0.00  0.00     0.088 A 
HETATM   20  HN  UNK     0       5.169   5.718  -6.370  1.00  0.00     0.164 HD
HETATM   21  C   UNK     0       5.472   2.664  -5.126  0.00  0.00     0.029 A 
ENDBRANCH  13  15
BRANCH  11  22
HETATM   22  N   UNK     0       7.652   0.712  -0.214  0.00  0.00    -0.327 N 
HETATM   23  C   UNK     0       8.390   1.430   0.685  0.00  0.00     0.223 C 
HETATM   24  O   UNK     0       9.290   2.229   0.333  0.00  0.00    -0.273 OA
HETATM   25  H   UNK     0       6.915   0.198   0.154  0.00  0.00     0.169 HD
BRANCH  23  26
HETATM   26  C   UNK     0       8.104   1.305   2.130  0.00  0.00     0.118 C 
BRANCH  26  27
HETATM   27  C   UNK     0       7.853  -0.163   2.548  0.00  0.00     0.124 C 
HETATM   28 Cl   UNK     0       6.640  -0.263   3.820  0.00  0.00    -0.130 Cl
ENDBRANCH  26  27
ENDBRANCH  23  26
ENDBRANCH  11  22
TORSDOF 4
ENDMDL
MODEL 6
REMARK VINA RESULT:      -6.4      1.858      4.897
REMARK  4 active torsions:
REMARK  status: ('A' for Active; 'I' for Inactive)
REMARK    1  A    between atoms: C_11  and  N_14 
REMARK    2  A    between atoms: C_13  and  C_21 
REMARK       I    between atoms: N_14  and  C_15 
REMARK    3  A    between atoms: C_15  and  C_16 
REMARK    4  A    between atoms: C_16  and  C_17 
ROOT
HETATM    1  C   UNK     0      -1.704  -1.951  -9.386  0.00  0.00     0.016 A 
HETATM    2  C   UNK     0      -1.828  -0.590  -9.034  0.00  0.00     0.001 A 
HETATM    3  C   UNK     0      -2.712  -0.193  -8.006  0.00  0.00     0.001 A 
HETATM    4  C   UNK     0      -3.477  -1.152  -7.307  0.00  0.00     0.013 A 
HETATM    5  C   UNK     0      -3.335  -2.509  -7.658  0.00  0.00    -0.011 A 
HETATM    6  C   UNK     0      -2.472  -2.900  -8.685  0.00  0.00     0.026 A 
HETATM    7  C   UNK     0      -3.936  -3.663  -7.153  0.00  0.00    -0.008 A 
HETATM    8  C   UNK     0      -3.482  -4.764  -7.889  0.00  0.00     0.037 A 
HETATM    9  C   UNK     0      -2.549  -4.286  -8.828  0.00  0.00     0.195 A 
HETATM   10  C   UNK     0      -4.835  -3.815  -6.086  0.00  0.00     0.043 A 
HETATM   11  C   UNK     0      -5.313  -5.106  -5.759  0.00  0.00     0.036 A 
HETATM   12  C   UNK     0      -4.866  -6.211  -6.525  0.00  0.00     0.043 A 
HETATM   13  C   UNK     0      -3.955  -6.069  -7.606  0.00  0.00    -0.009 A 
HETATM   14  O   UNK     0      -1.874  -4.957  -9.642  0.00  0.00    -0.287 OA
ENDROOT
BRANCH  13  15
HETATM   15  C   UNK     0      -3.565  -7.208  -8.364  0.00  0.00    -0.022 A 
HETATM   16  C   UNK     0      -4.263  -7.574  -9.540  0.00  0.00     0.029 A 
HETATM   17  C   UNK     0      -3.862  -8.713 -10.261  0.00  0.00     0.088 A 
HETATM   18  N   UNK     0      -2.818  -9.459  -9.819  0.00  0.00    -0.375 N 
HETATM   19  C   UNK     0      -2.123  -9.147  -8.696  0.00  0.00     0.088 A 
HETATM   20  HN  UNK     0      -2.545 -10.285 -10.352  1.00  0.00     0.164 HD
HETATM   21  C   UNK     0      -2.478  -8.011  -7.945  0.00  0.00     0.029 A 
ENDBRANCH  13  15
BRANCH  11  22
HETATM   22  N   UNK     0      -6.169  -5.360  -4.721  0.00  0.00    -0.327 N 
HETATM   23  C   UNK     0      -5.860  -5.778  -3.457  0.00  0.00     0.223 C 
HETATM   24  O   UNK     0      -4.678  -5.905  -3.059  0.00  0.00    -0.273 OA
HETATM   25  H   UNK     0      -7.109  -5.199  -4.899  0.00  0.00     0.169 HD
BRANCH  23  26
HETATM   26  C   UNK     0      -6.946  -6.059  -2.495  0.00  0.00     0.118 C 
BRANCH  26  27
HETATM   27  C   UNK     0      -8.282  -6.388  -3.205  0.00  0.00     0.124 C 
HETATM   28 Cl   UNK     0      -9.360  -4.996  -3.206  0.00  0.00    -0.130 Cl
ENDBRANCH  26  27
ENDBRANCH  23  26
ENDBRANCH  11  22
TORSDOF 4
ENDMDL
MODEL 7
REMARK VINA RESULT:      -6.3      5.035      8.439
REMARK  4 active torsions:
REMARK  status: ('A' for Active; 'I' for Inactive)
REMARK    1  A    between atoms: C_11  and  N_14 
REMARK    2  A    between atoms: C_13  and  C_21 
REMARK       I    between atoms: N_14  and  C_15 
REMARK    3  A    between atoms: C_15  and  C_16 
REMARK    4  A    between atoms: C_16  and  C_17 
ROOT
HETATM    1  C   UNK     0      -2.621  -3.422  -7.018  0.00  0.00     0.016 A 
HETATM    2  C   UNK     0      -3.907  -3.663  -6.489  0.00  0.00     0.001 A 
HETATM    3  C   UNK     0      -4.973  -2.776  -6.760  0.00  0.00     0.001 A 
HETATM    4  C   UNK     0      -4.771  -1.639  -7.572  0.00  0.00     0.013 A 
HETATM    5  C   UNK     0      -3.486  -1.415  -8.106  0.00  0.00    -0.011 A 
HETATM    6  C   UNK     0      -2.429  -2.285  -7.826  0.00  0.00     0.026 A 
HETATM    7  C   UNK     0      -2.992  -0.407  -8.934  0.00  0.00    -0.008 A 
HETATM    8  C   UNK     0      -1.623  -0.623  -9.135  0.00  0.00     0.037 A 
HETATM    9  C   UNK     0      -1.281  -1.811  -8.462  0.00  0.00     0.195 A 
HETATM   10  C   UNK     0      -3.659   0.671  -9.535  0.00  0.00     0.043 A 
HETATM   11  C   UNK     0      -2.931   1.576 -10.345  0.00  0.00     0.036 A 
HETATM   12  C   UNK     0      -1.542   1.362 -10.523  0.00  0.00     0.043 A 
HETATM   13  C   UNK     0      -0.856   0.273  -9.921  0.00  0.00    -0.009 A 
HETATM   14  O   UNK     0      -0.166  -2.380  -8.437  0.00  0.00    -0.287 OA
ENDROOT
BRANCH  13  15
HETATM   15  C   UNK     0       0.548   0.125 -10.104  0.00  0.00    -0.022 A 
HETATM   16  C   UNK     0       1.068  -0.512 -11.257  0.00  0.00     0.029 A 
HETATM   17  C   UNK     0       2.459  -0.656 -11.404  0.00  0.00     0.088 A 
HETATM   18  N   UNK     0       3.291  -0.195 -10.436  0.00  0.00    -0.375 N 
HETATM   19  C   UNK     0       2.836   0.418  -9.314  0.00  0.00     0.088 A 
HETATM   20  HN  UNK     0       4.297  -0.314 -10.556  1.00  0.00     0.164 HD
HETATM   21  C   UNK     0       1.453   0.596  -9.125  0.00  0.00     0.029 A 
ENDBRANCH  13  15
BRANCH  11  22
HETATM   22  N   UNK     0      -3.496   2.639 -10.994  0.00  0.00    -0.327 N 
HETATM   23  C   UNK     0      -4.036   2.670 -12.250  0.00  0.00     0.223 C 
HETATM   24  O   UNK     0      -4.154   1.643 -12.958  0.00  0.00    -0.273 OA
HETATM   25  H   UNK     0      -3.540   3.468 -10.491  0.00  0.00     0.169 HD
BRANCH  23  26
HETATM   26  C   UNK     0      -4.542   3.947 -12.796  0.00  0.00     0.118 C 
BRANCH  26  27
HETATM   27  C   UNK     0      -5.365   4.741 -11.753  0.00  0.00     0.124 C 
HETATM   28 Cl   UNK     0      -6.870   3.912 -11.368  0.00  0.00    -0.130 Cl
ENDBRANCH  26  27
ENDBRANCH  23  26
ENDBRANCH  11  22
TORSDOF 4
ENDMDL
MODEL 8
REMARK VINA RESULT:      -6.3      2.176      5.172
REMARK  4 active torsions:
REMARK  status: ('A' for Active; 'I' for Inactive)
REMARK    1  A    between atoms: C_11  and  N_14 
REMARK    2  A    between atoms: C_13  and  C_21 
REMARK       I    between atoms: N_14  and  C_15 
REMARK    3  A    between atoms: C_15  and  C_16 
REMARK    4  A    between atoms: C_16  and  C_17 
ROOT
HETATM    1  C   UNK     0      -2.940  -2.394  -9.567  0.00  0.00     0.016 A 
HETATM    2  C   UNK     0      -3.211  -1.022  -9.377  0.00  0.00     0.001 A 
HETATM    3  C   UNK     0      -4.028  -0.595  -8.306  0.00  0.00     0.001 A 
HETATM    4  C   UNK     0      -4.578  -1.532  -7.405  0.00  0.00     0.013 A 
HETATM    5  C   UNK     0      -4.289  -2.897  -7.598  0.00  0.00    -0.011 A 
HETATM    6  C   UNK     0      -3.493  -3.321  -8.665  0.00  0.00     0.026 A 
HETATM    7  C   UNK     0      -4.671  -4.033  -6.882  0.00  0.00    -0.008 A 
HETATM    8  C   UNK     0      -4.150  -5.163  -7.524  0.00  0.00     0.037 A 
HETATM    9  C   UNK     0      -3.394  -4.712  -8.623  0.00  0.00     0.195 A 
HETATM   10  C   UNK     0      -5.423  -4.142  -5.703  0.00  0.00     0.043 A 
HETATM   11  C   UNK     0      -5.684  -5.423  -5.161  0.00  0.00     0.036 A 
HETATM   12  C   UNK     0      -5.172  -6.562  -5.830  0.00  0.00     0.043 A 
HETATM   13  C   UNK     0      -4.408  -6.464  -7.024  0.00  0.00    -0.009 A 
HETATM   14  O   UNK     0      -2.723  -5.404  -9.423  0.00  0.00    -0.287 OA
ENDROOT
BRANCH  13  15
HETATM   15  C   UNK     0      -3.948  -7.642  -7.676  0.00  0.00    -0.022 A 
HETATM   16  C   UNK     0      -2.710  -8.233  -7.324  0.00  0.00     0.029 A 
HETATM   17  C   UNK     0      -2.275  -9.389  -7.995  0.00  0.00     0.088 A 
HETATM   18  N   UNK     0      -3.038  -9.924  -8.982  0.00  0.00    -0.375 N 
HETATM   19  C   UNK     0      -4.229  -9.389  -9.354  0.00  0.00     0.088 A 
HETATM   20  HN  UNK     0      -2.704 -10.759  -9.463  1.00  0.00     0.164 HD
HETATM   21  C   UNK     0      -4.713  -8.238  -8.706  0.00  0.00     0.029 A 
ENDBRANCH  13  15
BRANCH  11  22
HETATM   22  N   UNK     0      -6.383  -5.631  -4.003  0.00  0.00    -0.327 N 
HETATM   23  C   UNK     0      -5.889  -5.901  -2.756  0.00  0.00     0.223 C 
HETATM   24  O   UNK     0      -4.661  -5.906  -2.505  0.00  0.00    -0.273 OA
HETATM   25  H   UNK     0      -7.348  -5.554  -4.071  0.00  0.00     0.169 HD
BRANCH  23  26
HETATM   26  C   UNK     0      -6.824  -6.158  -1.641  0.00  0.00     0.118 C 
BRANCH  26  27
HETATM   27  C   UNK     0      -6.731  -7.616  -1.128  0.00  0.00     0.124 C 
HETATM   28 Cl   UNK     0      -6.698  -8.759  -2.467  0.00  0.00    -0.130 Cl
ENDBRANCH  26  27
ENDBRANCH  23  26
ENDBRANCH  11  22
TORSDOF 4
ENDMDL
MODEL 9
REMARK VINA RESULT:      -6.3     13.092     14.983
REMARK  4 active torsions:
REMARK  status: ('A' for Active; 'I' for Inactive)
REMARK    1  A    between atoms: C_11  and  N_14 
REMARK    2  A    between atoms: C_13  and  C_21 
REMARK       I    between atoms: N_14  and  C_15 
REMARK    3  A    between atoms: C_15  and  C_16 
REMARK    4  A    between atoms: C_16  and  C_17 
ROOT
HETATM    1  C   UNK     0       5.582   3.373  -5.400  0.00  0.00     0.016 A 
HETATM    2  C   UNK     0       5.067   3.419  -6.713  0.00  0.00     0.001 A 
HETATM    3  C   UNK     0       5.376   2.399  -7.641  0.00  0.00     0.001 A 
HETATM    4  C   UNK     0       6.196   1.313  -7.267  0.00  0.00     0.013 A 
HETATM    5  C   UNK     0       6.694   1.271  -5.950  0.00  0.00    -0.011 A 
HETATM    6  C   UNK     0       6.400   2.287  -5.037  0.00  0.00     0.026 A 
HETATM    7  C   UNK     0       7.503   0.340  -5.296  0.00  0.00    -0.008 A 
HETATM    8  C   UNK     0       7.748   0.795  -3.994  0.00  0.00     0.037 A 
HETATM    9  C   UNK     0       7.037   1.998  -3.828  0.00  0.00     0.195 A 
HETATM   10  C   UNK     0       8.021  -0.880  -5.756  0.00  0.00     0.043 A 
HETATM   11  C   UNK     0       8.830  -1.660  -4.895  0.00  0.00     0.036 A 
HETATM   12  C   UNK     0       9.091  -1.180  -3.587  0.00  0.00     0.043 A 
HETATM   13  C   UNK     0       8.570   0.053  -3.111  0.00  0.00    -0.009 A 
HETATM   14  O   UNK     0       6.949   2.696  -2.792  0.00  0.00    -0.287 OA
ENDROOT
BRANCH  13  15
HETATM   15  C   UNK     0       8.892   0.505  -1.800  0.00  0.00    -0.022 A 
HETATM   16  C   UNK     0      10.024   1.324  -1.570  0.00  0.00     0.029 A 
HETATM   17  C   UNK     0      10.324   1.744  -0.262  0.00  0.00     0.088 A 
HETATM   18  N   UNK     0       9.535   1.352   0.771  0.00  0.00    -0.375 N 
HETATM   19  C   UNK     0       8.443   0.565   0.596  0.00  0.00     0.088 A 
HETATM   20  HN  UNK     0       9.771   1.661   1.714  1.00  0.00     0.164 HD
HETATM   21  C   UNK     0       8.094   0.127  -0.695  0.00  0.00     0.029 A 
ENDBRANCH  13  15
BRANCH  11  22
HETATM   22  N   UNK     0       9.358  -2.874  -5.241  0.00  0.00    -0.327 N 
HETATM   23  C   UNK     0      10.549  -3.129  -5.863  0.00  0.00     0.223 C 
HETATM   24  O   UNK     0      11.377  -2.226  -6.129  0.00  0.00    -0.273 OA
HETATM   25  H   UNK     0       8.833  -3.651  -4.992  0.00  0.00     0.169 HD
BRANCH  23  26
HETATM   26  C   UNK     0      10.909  -4.520  -6.209  0.00  0.00     0.118 C 
BRANCH  26  27
HETATM   27  C   UNK     0      10.739  -5.481  -5.008  0.00  0.00     0.124 C 
HETATM   28 Cl   UNK     0      10.229  -7.080  -5.540  0.00  0.00    -0.130 Cl
ENDBRANCH  26  27
ENDBRANCH  23  26
ENDBRANCH  11  22
TORSDOF 4
ENDMDL
