MODEL 1
REMARK VINA RESULT:      -6.6      0.000      0.000
REMARK  4 active torsions:
REMARK  status: ('A' for Active; 'I' for Inactive)
REMARK    1  A    between atoms: C_11  and  N_19 
REMARK    2  A    between atoms: C_13  and  C_14 
REMARK       I    between atoms: N_19  and  C_21 
REMARK    3  A    between atoms: C_21  and  C_22 
REMARK    4  A    between atoms: C_22  and  C_23 
ROOT
HETATM    1  C   UNK     0      -0.983  -7.488  -9.681  0.00  0.00     0.008 A 
HETATM    2  C   UNK     0      -0.946  -8.895  -9.596  0.00  0.00     0.001 A 
HETATM    3  C   UNK     0      -1.759  -9.575  -8.664  0.00  0.00     0.001 A 
HETATM    4  C   UNK     0      -2.624  -8.857  -7.812  0.00  0.00     0.013 A 
HETATM    5  C   UNK     0      -2.659  -7.453  -7.915  0.00  0.00    -0.019 A 
HETATM    6  C   UNK     0      -1.844  -6.778  -8.824  0.00  0.00    -0.043 A 
HETATM    7  C   UNK     0      -3.420  -6.508  -7.239  0.00  0.00    -0.016 A 
HETATM    8  C   UNK     0      -3.080  -5.227  -7.699  0.00  0.00    -0.031 A 
HETATM    9  C   UNK     0      -2.023  -5.324  -8.731  0.00  0.00     0.080 A 
HETATM   10  C   UNK     0      -4.410  -6.704  -6.264  0.00  0.00     0.042 A 
HETATM   11  C   UNK     0      -5.081  -5.582  -5.726  0.00  0.00     0.036 A 
HETATM   12  C   UNK     0      -4.752  -4.294  -6.215  0.00  0.00     0.043 A 
HETATM   13  C   UNK     0      -3.748  -4.079  -7.198  0.00  0.00    -0.009 A 
ENDROOT
BRANCH  13  14
HETATM   14  C   UNK     0      -3.468  -2.749  -7.636  0.00  0.00     0.015 A 
HETATM   15  C   UNK     0      -2.968  -1.658  -6.904  0.00  0.00     0.020 A 
HETATM   16  C   UNK     0      -2.805  -0.453  -7.608  0.00  0.00     0.008 A 
HETATM   17  C   UNK     0      -3.184  -0.497  -8.948  0.00  0.00     0.050 A 
HETATM   18  S   UNK     0      -3.733  -2.130  -9.261  0.00  0.00    -0.101 SA
ENDBRANCH  13  14
BRANCH  11  19
HETATM   19  N   UNK     0      -6.055  -5.646  -4.767  0.00  0.00    -0.327 N 
HETATM   20  C   UNK     0      -5.918  -5.763  -3.413  0.00  0.00     0.223 C 
HETATM   21  O   UNK     0      -4.802  -5.797  -2.842  0.00  0.00    -0.273 OA
HETATM   22  H   UNK     0      -6.966  -5.558  -5.089  0.00  0.00     0.169 HD
BRANCH  20  23
HETATM   23  C   UNK     0      -7.127  -5.804  -2.564  0.00  0.00     0.118 C 
BRANCH  23  24
HETATM   24  C   UNK     0      -8.394  -6.142  -3.380  0.00  0.00     0.124 C 
HETATM   25 Cl   UNK     0      -9.534  -4.799  -3.342  0.00  0.00    -0.130 Cl
ENDBRANCH  23  24
ENDBRANCH  20  23
ENDBRANCH  11  19
TORSDOF 4
ENDMDL
MODEL 2
REMARK VINA RESULT:      -6.5      3.117      5.514
REMARK  4 active torsions:
REMARK  status: ('A' for Active; 'I' for Inactive)
REMARK    1  A    between atoms: C_11  and  N_19 
REMARK    2  A    between atoms: C_13  and  C_14 
REMARK       I    between atoms: N_19  and  C_21 
REMARK    3  A    between atoms: C_21  and  C_22 
REMARK    4  A    between atoms: C_22  and  C_23 
ROOT
HETATM    1  C   UNK     0      -2.662 -10.471  -6.978  0.00  0.00     0.008 A 
HETATM    2  C   UNK     0      -1.832 -10.687  -8.097  0.00  0.00     0.001 A 
HETATM    3  C   UNK     0      -1.513  -9.620  -8.964  0.00  0.00     0.001 A 
HETATM    4  C   UNK     0      -2.015  -8.325  -8.719  0.00  0.00     0.013 A 
HETATM    5  C   UNK     0      -2.834  -8.121  -7.591  0.00  0.00    -0.019 A 
HETATM    6  C   UNK     0      -3.163  -9.178  -6.742  0.00  0.00    -0.043 A 
HETATM    7  C   UNK     0      -3.433  -6.971  -7.094  0.00  0.00    -0.016 A 
HETATM    8  C   UNK     0      -4.162  -7.292  -5.940  0.00  0.00    -0.031 A 
HETATM    9  C   UNK     0      -4.052  -8.741  -5.659  0.00  0.00     0.080 A 
HETATM   10  C   UNK     0      -3.357  -5.655  -7.579  0.00  0.00     0.042 A 
HETATM   11  C   UNK     0      -4.035  -4.626  -6.888  0.00  0.00     0.036 A 
HETATM   12  C   UNK     0      -4.746  -4.952  -5.708  0.00  0.00     0.043 A 
HETATM   13  C   UNK     0      -4.838  -6.280  -5.208  0.00  0.00    -0.009 A 
ENDROOT
BRANCH  13  14
HETATM   14  C   UNK     0      -5.579  -6.532  -4.015  0.00  0.00     0.015 A 
HETATM   15  C   UNK     0      -5.228  -6.272  -2.678  0.00  0.00     0.020 A 
HETATM   16  C   UNK     0      -6.166  -6.645  -1.701  0.00  0.00     0.008 A 
HETATM   17  C   UNK     0      -7.322  -7.249  -2.192  0.00  0.00     0.050 A 
HETATM   18  S   UNK     0      -7.161  -7.298  -3.935  0.00  0.00    -0.101 SA
ENDBRANCH  13  14
BRANCH  11  19
HETATM   19  N   UNK     0      -4.042  -3.311  -7.268  0.00  0.00    -0.327 N 
HETATM   20  C   UNK     0      -3.267  -2.283  -6.811  0.00  0.00     0.223 C 
HETATM   21  O   UNK     0      -2.370  -2.439  -5.948  0.00  0.00    -0.273 OA
HETATM   22  H   UNK     0      -4.654  -3.085  -7.986  0.00  0.00     0.169 HD
BRANCH  20  23
HETATM   23  C   UNK     0      -3.446  -0.932  -7.381  0.00  0.00     0.118 C 
BRANCH  23  24
HETATM   24  C   UNK     0      -4.349  -0.950  -8.635  0.00  0.00     0.124 C 
HETATM   25 Cl   UNK     0      -4.018   0.444  -9.659  0.00  0.00    -0.130 Cl
ENDBRANCH  23  24
ENDBRANCH  20  23
ENDBRANCH  11  19
TORSDOF 4
ENDMDL
MODEL 3
REMARK VINA RESULT:      -6.4      3.548      6.603
REMARK  4 active torsions:
REMARK  status: ('A' for Active; 'I' for Inactive)
REMARK    1  A    between atoms: C_11  and  N_19 
REMARK    2  A    between atoms: C_13  and  C_14 
REMARK       I    between atoms: N_19  and  C_21 
REMARK    3  A    between atoms: C_21  and  C_22 
REMARK    4  A    between atoms: C_22  and  C_23 
ROOT
HETATM    1  C   UNK     0      -4.686  -0.939  -8.063  0.00  0.00     0.008 A 
HETATM    2  C   UNK     0      -4.074  -0.485  -9.250  0.00  0.00     0.001 A 
HETATM    3  C   UNK     0      -3.257  -1.352 -10.007  0.00  0.00     0.001 A 
HETATM    4  C   UNK     0      -3.048  -2.683  -9.590  0.00  0.00     0.013 A 
HETATM    5  C   UNK     0      -3.673  -3.127  -8.408  0.00  0.00    -0.019 A 
HETATM    6  C   UNK     0      -4.468  -2.266  -7.650  0.00  0.00    -0.043 A 
HETATM    7  C   UNK     0      -3.671  -4.368  -7.785  0.00  0.00    -0.016 A 
HETATM    8  C   UNK     0      -4.446  -4.300  -6.618  0.00  0.00    -0.031 A 
HETATM    9  C   UNK     0      -4.986  -2.931  -6.448  0.00  0.00     0.080 A 
HETATM   10  C   UNK     0      -3.051  -5.559  -8.192  0.00  0.00     0.042 A 
HETATM   11  C   UNK     0      -3.208  -6.722  -7.405  0.00  0.00     0.036 A 
HETATM   12  C   UNK     0      -4.015  -6.654  -6.243  0.00  0.00     0.043 A 
HETATM   13  C   UNK     0      -4.644  -5.453  -5.814  0.00  0.00    -0.009 A 
ENDROOT
BRANCH  13  14
HETATM   14  C   UNK     0      -5.438  -5.461  -4.628  0.00  0.00     0.015 A 
HETATM   15  C   UNK     0      -6.571  -4.692  -4.311  0.00  0.00     0.020 A 
HETATM   16  C   UNK     0      -7.143  -4.910  -3.046  0.00  0.00     0.008 A 
HETATM   17  C   UNK     0      -6.488  -5.856  -2.259  0.00  0.00     0.050 A 
HETATM   18  S   UNK     0      -5.142  -6.453  -3.206  0.00  0.00    -0.101 SA
ENDBRANCH  13  14
BRANCH  11  19
HETATM   19  N   UNK     0      -2.647  -7.937  -7.694  0.00  0.00    -0.327 N 
HETATM   20  C   UNK     0      -3.143  -8.948  -8.467  0.00  0.00     0.223 C 
HETATM   21  O   UNK     0      -4.237  -8.866  -9.074  0.00  0.00    -0.273 OA
HETATM   22  H   UNK     0      -1.758  -8.085  -7.332  0.00  0.00     0.169 HD
BRANCH  20  23
HETATM   23  C   UNK     0      -2.346 -10.179  -8.648  0.00  0.00     0.118 C 
BRANCH  23  24
HETATM   24  C   UNK     0      -0.935  -9.877  -9.202  0.00  0.00     0.124 C 
HETATM   25 Cl   UNK     0      -1.032  -8.797 -10.590  0.00  0.00    -0.130 Cl
ENDBRANCH  23  24
ENDBRANCH  20  23
ENDBRANCH  11  19
TORSDOF 4
ENDMDL
MODEL 4
REMARK VINA RESULT:      -6.3      1.735      5.035
REMARK  4 active torsions:
REMARK  status: ('A' for Active; 'I' for Inactive)
REMARK    1  A    between atoms: C_11  and  N_19 
REMARK    2  A    between atoms: C_13  and  C_14 
REMARK       I    between atoms: N_19  and  C_21 
REMARK    3  A    between atoms: C_21  and  C_22 
REMARK    4  A    between atoms: C_22  and  C_23 
ROOT
HETATM    1  C   UNK     0      -3.454  -2.264  -9.337  0.00  0.00     0.008 A 
HETATM    2  C   UNK     0      -4.061  -1.068  -8.904  0.00  0.00     0.001 A 
HETATM    3  C   UNK     0      -4.852  -1.053  -7.735  0.00  0.00     0.001 A 
HETATM    4  C   UNK     0      -5.037  -2.231  -6.982  0.00  0.00     0.013 A 
HETATM    5  C   UNK     0      -4.415  -3.417  -7.420  0.00  0.00    -0.019 A 
HETATM    6  C   UNK     0      -3.647  -3.437  -8.585  0.00  0.00    -0.043 A 
HETATM    7  C   UNK     0      -4.399  -4.693  -6.874  0.00  0.00    -0.016 A 
HETATM    8  C   UNK     0      -3.638  -5.537  -7.696  0.00  0.00    -0.031 A 
HETATM    9  C   UNK     0      -3.129  -4.781  -8.864  0.00  0.00     0.080 A 
HETATM   10  C   UNK     0      -4.989  -5.154  -5.686  0.00  0.00     0.042 A 
HETATM   11  C   UNK     0      -4.816  -6.505  -5.310  0.00  0.00     0.036 A 
HETATM   12  C   UNK     0      -4.023  -7.345  -6.130  0.00  0.00     0.043 A 
HETATM   13  C   UNK     0      -3.424  -6.894  -7.338  0.00  0.00    -0.009 A 
ENDROOT
BRANCH  13  14
HETATM   14  C   UNK     0      -2.644  -7.802  -8.116  0.00  0.00     0.015 A 
HETATM   15  C   UNK     0      -2.687  -9.207  -8.153  0.00  0.00     0.020 A 
HETATM   16  C   UNK     0      -1.778  -9.839  -9.017  0.00  0.00     0.008 A 
HETATM   17  C   UNK     0      -0.931  -8.979  -9.714  0.00  0.00     0.050 A 
HETATM   18  S   UNK     0      -1.360  -7.352  -9.231  0.00  0.00    -0.101 SA
ENDBRANCH  13  14
BRANCH  11  19
HETATM   19  N   UNK     0      -5.348  -7.071  -4.182  0.00  0.00    -0.327 N 
HETATM   20  C   UNK     0      -5.272  -6.638  -2.889  0.00  0.00     0.223 C 
HETATM   21  O   UNK     0      -4.691  -5.577  -2.560  0.00  0.00    -0.273 OA
HETATM   22  H   UNK     0      -5.885  -7.867  -4.326  0.00  0.00     0.169 HD
BRANCH  20  23
HETATM   23  C   UNK     0      -5.942  -7.415  -1.825  0.00  0.00     0.118 C 
BRANCH  23  24
HETATM   24  C   UNK     0      -7.481  -7.325  -1.927  0.00  0.00     0.124 C 
HETATM   25 Cl   UNK     0      -8.058  -5.793  -1.278  0.00  0.00    -0.130 Cl
ENDBRANCH  23  24
ENDBRANCH  20  23
ENDBRANCH  11  19
TORSDOF 4
ENDMDL
MODEL 5
REMARK VINA RESULT:      -6.3      3.162      6.214
REMARK  4 active torsions:
REMARK  status: ('A' for Active; 'I' for Inactive)
REMARK    1  A    between atoms: C_11  and  N_19 
REMARK    2  A    between atoms: C_13  and  C_14 
REMARK       I    between atoms: N_19  and  C_21 
REMARK    3  A    between atoms: C_21  and  C_22 
REMARK    4  A    between atoms: C_22  and  C_23 
ROOT
HETATM    1  C   UNK     0      -4.877  -9.050  -3.512  0.00  0.00     0.008 A 
HETATM    2  C   UNK     0      -5.477  -8.549  -2.338  0.00  0.00     0.001 A 
HETATM    3  C   UNK     0      -5.679  -7.161  -2.178  0.00  0.00     0.001 A 
HETATM    4  C   UNK     0      -5.291  -6.260  -3.191  0.00  0.00     0.013 A 
HETATM    5  C   UNK     0      -4.703  -6.776  -4.363  0.00  0.00    -0.019 A 
HETATM    6  C   UNK     0      -4.488  -8.146  -4.516  0.00  0.00    -0.043 A 
HETATM    7  C   UNK     0      -4.259  -6.141  -5.516  0.00  0.00    -0.016 A 
HETATM    8  C   UNK     0      -3.740  -7.099  -6.399  0.00  0.00    -0.031 A 
HETATM    9  C   UNK     0      -3.833  -8.448  -5.795  0.00  0.00     0.080 A 
HETATM   10  C   UNK     0      -4.304  -4.778  -5.847  0.00  0.00     0.042 A 
HETATM   11  C   UNK     0      -3.811  -4.357  -7.103  0.00  0.00     0.036 A 
HETATM   12  C   UNK     0      -3.315  -5.333  -8.002  0.00  0.00     0.043 A 
HETATM   13  C   UNK     0      -3.257  -6.716  -7.678  0.00  0.00    -0.009 A 
ENDROOT
BRANCH  13  14
HETATM   14  C   UNK     0      -2.737  -7.639  -8.634  0.00  0.00     0.015 A 
HETATM   15  C   UNK     0      -1.439  -7.732  -9.166  0.00  0.00     0.020 A 
HETATM   16  C   UNK     0      -1.221  -8.748 -10.112  0.00  0.00     0.008 A 
HETATM   17  C   UNK     0      -2.339  -9.522 -10.415  0.00  0.00     0.050 A 
HETATM   18  S   UNK     0      -3.654  -8.909  -9.434  0.00  0.00    -0.101 SA
ENDBRANCH  13  14
BRANCH  11  19
HETATM   19  N   UNK     0      -3.795  -3.057  -7.534  0.00  0.00    -0.327 N 
HETATM   20  C   UNK     0      -3.172  -1.978  -6.977  0.00  0.00     0.223 C 
HETATM   21  O   UNK     0      -2.463  -2.059  -5.945  0.00  0.00    -0.273 OA
HETATM   22  H   UNK     0      -4.256  -2.888  -8.371  0.00  0.00     0.169 HD
BRANCH  20  23
HETATM   23  C   UNK     0      -3.286  -0.658  -7.631  0.00  0.00     0.118 C 
BRANCH  23  24
HETATM   24  C   UNK     0      -4.429  -0.626  -8.669  0.00  0.00     0.124 C 
HETATM   25 Cl   UNK     0      -3.782  -0.636 -10.308  0.00  0.00    -0.130 Cl
ENDBRANCH  23  24
ENDBRANCH  20  23
ENDBRANCH  11  19
TORSDOF 4
ENDMDL
MODEL 6
REMARK VINA RESULT:      -6.3     13.184     14.858
REMARK  4 active torsions:
REMARK  status: ('A' for Active; 'I' for Inactive)
REMARK    1  A    between atoms: C_11  and  N_19 
REMARK    2  A    between atoms: C_13  and  C_14 
REMARK       I    between atoms: N_19  and  C_21 
REMARK    3  A    between atoms: C_21  and  C_22 
REMARK    4  A    between atoms: C_22  and  C_23 
ROOT
HETATM    1  C   UNK     0       5.197   3.371  -5.826  0.00  0.00     0.008 A 
HETATM    2  C   UNK     0       4.809   3.258  -7.176  0.00  0.00     0.001 A 
HETATM    3  C   UNK     0       5.296   2.198  -7.971  0.00  0.00     0.001 A 
HETATM    4  C   UNK     0       6.170   1.236  -7.423  0.00  0.00     0.013 A 
HETATM    5  C   UNK     0       6.541   1.355  -6.069  0.00  0.00    -0.019 A 
HETATM    6  C   UNK     0       6.074   2.411  -5.287  0.00  0.00    -0.043 A 
HETATM    7  C   UNK     0       7.347   0.554  -5.271  0.00  0.00    -0.016 A 
HETATM    8  C   UNK     0       7.414   1.106  -3.983  0.00  0.00    -0.031 A 
HETATM    9  C   UNK     0       6.616   2.353  -3.924  0.00  0.00     0.080 A 
HETATM   10  C   UNK     0       8.005  -0.642  -5.597  0.00  0.00     0.042 A 
HETATM   11  C   UNK     0       8.758  -1.308  -4.605  0.00  0.00     0.036 A 
HETATM   12  C   UNK     0       8.799  -0.760  -3.299  0.00  0.00     0.043 A 
HETATM   13  C   UNK     0       8.143   0.453  -2.954  0.00  0.00    -0.009 A 
ENDROOT
BRANCH  13  14
HETATM   14  C   UNK     0       8.235   0.946  -1.618  0.00  0.00     0.015 A 
HETATM   15  C   UNK     0       8.475   2.256  -1.168  0.00  0.00     0.020 A 
HETATM   16  C   UNK     0       8.525   2.441   0.224  0.00  0.00     0.008 A 
HETATM   17  C   UNK     0       8.348   1.284   0.979  0.00  0.00     0.050 A 
HETATM   18  S   UNK     0       8.102  -0.025  -0.157  0.00  0.00    -0.101 SA
ENDBRANCH  13  14
BRANCH  11  19
HETATM   19  N   UNK     0       9.449  -2.473  -4.805  0.00  0.00    -0.327 N 
HETATM   20  C   UNK     0      10.704  -2.648  -5.315  0.00  0.00     0.223 C 
HETATM   21  O   UNK     0      11.440  -1.692  -5.655  0.00  0.00    -0.273 OA
HETATM   22  H   UNK     0       9.000  -3.281  -4.510  0.00  0.00     0.169 HD
BRANCH  20  23
HETATM   23  C   UNK     0      11.254  -4.015  -5.430  0.00  0.00     0.118 C 
BRANCH  23  24
HETATM   24  C   UNK     0      10.319  -4.947  -6.234  0.00  0.00     0.124 C 
HETATM   25 Cl   UNK     0      10.406  -6.595  -5.618  0.00  0.00    -0.130 Cl
ENDBRANCH  23  24
ENDBRANCH  20  23
ENDBRANCH  11  19
TORSDOF 4
ENDMDL
MODEL 7
REMARK VINA RESULT:      -6.3     13.168     14.425
REMARK  4 active torsions:
REMARK  status: ('A' for Active; 'I' for Inactive)
REMARK    1  A    between atoms: C_11  and  N_19 
REMARK    2  A    between atoms: C_13  and  C_14 
REMARK       I    between atoms: N_19  and  C_21 
REMARK    3  A    between atoms: C_21  and  C_22 
REMARK    4  A    between atoms: C_22  and  C_23 
ROOT
HETATM    1  C   UNK     0       6.022   1.596  -8.836  0.00  0.00     0.008 A 
HETATM    2  C   UNK     0       5.231   2.759  -8.942  0.00  0.00     0.001 A 
HETATM    3  C   UNK     0       4.917   3.514  -7.791  0.00  0.00     0.001 A 
HETATM    4  C   UNK     0       5.396   3.118  -6.524  0.00  0.00     0.013 A 
HETATM    5  C   UNK     0       6.194   1.961  -6.435  0.00  0.00    -0.019 A 
HETATM    6  C   UNK     0       6.491   1.205  -7.570  0.00  0.00    -0.043 A 
HETATM    7  C   UNK     0       6.815   1.363  -5.347  0.00  0.00    -0.016 A 
HETATM    8  C   UNK     0       7.494   0.213  -5.777  0.00  0.00    -0.031 A 
HETATM    9  C   UNK     0       7.303   0.029  -7.234  0.00  0.00     0.080 A 
HETATM   10  C   UNK     0       6.843   1.779  -4.007  0.00  0.00     0.042 A 
HETATM   11  C   UNK     0       7.570   1.019  -3.063  0.00  0.00     0.036 A 
HETATM   12  C   UNK     0       8.276  -0.125  -3.510  0.00  0.00     0.043 A 
HETATM   13  C   UNK     0       8.254  -0.562  -4.862  0.00  0.00    -0.009 A 
ENDROOT
BRANCH  13  14
HETATM   14  C   UNK     0       8.986  -1.729  -5.236  0.00  0.00     0.015 A 
HETATM   15  C   UNK     0       8.541  -2.881  -5.908  0.00  0.00     0.020 A 
HETATM   16  C   UNK     0       9.498  -3.886  -6.128  0.00  0.00     0.008 A 
HETATM   17  C   UNK     0      10.769  -3.611  -5.627  0.00  0.00     0.050 A 
HETATM   18  S   UNK     0      10.685  -2.026  -4.889  0.00  0.00    -0.101 SA
ENDBRANCH  13  14
BRANCH  11  19
HETATM   19  N   UNK     0       7.663   1.318  -1.731  0.00  0.00    -0.327 N 
HETATM   20  C   UNK     0       8.593   2.086  -1.088  0.00  0.00     0.223 C 
HETATM   21  O   UNK     0       9.521   2.676  -1.690  0.00  0.00    -0.273 OA
HETATM   22  H   UNK     0       6.950   0.970  -1.172  0.00  0.00     0.169 HD
BRANCH  20  23
HETATM   23  C   UNK     0       8.486   2.281   0.373  0.00  0.00     0.118 C 
BRANCH  23  24
HETATM   24  C   UNK     0       8.327   0.940   1.123  0.00  0.00     0.124 C 
HETATM   25 Cl   UNK     0       7.925   1.218   2.815  0.00  0.00    -0.130 Cl
ENDBRANCH  23  24
ENDBRANCH  20  23
ENDBRANCH  11  19
TORSDOF 4
ENDMDL
MODEL 8
REMARK VINA RESULT:      -6.2     13.871     16.094
REMARK  4 active torsions:
REMARK  status: ('A' for Active; 'I' for Inactive)
REMARK    1  A    between atoms: C_11  and  N_19 
REMARK    2  A    between atoms: C_13  and  C_14 
REMARK       I    between atoms: N_19  and  C_21 
REMARK    3  A    between atoms: C_21  and  C_22 
REMARK    4  A    between atoms: C_22  and  C_23 
ROOT
HETATM    1  C   UNK     0       8.367  -1.391   0.864  0.00  0.00     0.008 A 
HETATM    2  C   UNK     0       8.463  -1.072   2.234  0.00  0.00     0.001 A 
HETATM    3  C   UNK     0       8.476   0.276   2.652  0.00  0.00     0.001 A 
HETATM    4  C   UNK     0       8.388   1.319   1.707  0.00  0.00     0.013 A 
HETATM    5  C   UNK     0       8.281   0.985   0.342  0.00  0.00    -0.019 A 
HETATM    6  C   UNK     0       8.284  -0.346  -0.074  0.00  0.00    -0.043 A 
HETATM    7  C   UNK     0       8.151   1.786  -0.785  0.00  0.00    -0.016 A 
HETATM    8  C   UNK     0       8.091   0.972  -1.925  0.00  0.00    -0.031 A 
HETATM    9  C   UNK     0       8.200  -0.453  -1.536  0.00  0.00     0.080 A 
HETATM   10  C   UNK     0       8.057   3.184  -0.869  0.00  0.00     0.042 A 
HETATM   11  C   UNK     0       7.902   3.789  -2.137  0.00  0.00     0.036 A 
HETATM   12  C   UNK     0       7.813   2.960  -3.281  0.00  0.00     0.043 A 
HETATM   13  C   UNK     0       7.913   1.543  -3.213  0.00  0.00    -0.009 A 
ENDROOT
BRANCH  13  14
HETATM   14  C   UNK     0       7.821   0.774  -4.411  0.00  0.00     0.015 A 
HETATM   15  C   UNK     0       8.360  -0.493  -4.699  0.00  0.00     0.020 A 
HETATM   16  C   UNK     0       8.113  -1.001  -5.985  0.00  0.00     0.008 A 
HETATM   17  C   UNK     0       7.377  -0.162  -6.820  0.00  0.00     0.050 A 
HETATM   18  S   UNK     0       7.008   1.274  -5.889  0.00  0.00    -0.101 SA
ENDBRANCH  13  14
BRANCH  11  19
HETATM   19  N   UNK     0       7.808   5.139  -2.346  0.00  0.00    -0.327 N 
HETATM   20  C   UNK     0       8.755   6.000  -2.823  0.00  0.00     0.223 C 
HETATM   21  O   UNK     0       9.897   5.625  -3.181  0.00  0.00    -0.273 OA
HETATM   22  H   UNK     0       6.938   5.531  -2.168  0.00  0.00     0.169 HD
BRANCH  20  23
HETATM   23  C   UNK     0       8.421   7.432  -2.976  0.00  0.00     0.118 C 
BRANCH  23  24
HETATM   24  C   UNK     0       8.376   7.857  -4.461  0.00  0.00     0.124 C 
HETATM   25 Cl   UNK     0       7.077   7.021  -5.307  0.00  0.00    -0.130 Cl
ENDBRANCH  23  24
ENDBRANCH  20  23
ENDBRANCH  11  19
TORSDOF 4
ENDMDL
MODEL 9
REMARK VINA RESULT:      -6.2      1.485      4.904
REMARK  4 active torsions:
REMARK  status: ('A' for Active; 'I' for Inactive)
REMARK    1  A    between atoms: C_11  and  N_19 
REMARK    2  A    between atoms: C_13  and  C_14 
REMARK       I    between atoms: N_19  and  C_21 
REMARK    3  A    between atoms: C_21  and  C_22 
REMARK    4  A    between atoms: C_22  and  C_23 
ROOT
HETATM    1  C   UNK     0      -1.573  -1.702  -9.379  0.00  0.00     0.008 A 
HETATM    2  C   UNK     0      -1.707  -0.358  -8.976  0.00  0.00     0.001 A 
HETATM    3  C   UNK     0      -2.607  -0.010  -7.946  0.00  0.00     0.001 A 
HETATM    4  C   UNK     0      -3.378  -1.002  -7.304  0.00  0.00     0.013 A 
HETATM    5  C   UNK     0      -3.225  -2.342  -7.710  0.00  0.00    -0.019 A 
HETATM    6  C   UNK     0      -2.348  -2.686  -8.738  0.00  0.00    -0.043 A 
HETATM    7  C   UNK     0      -3.819  -3.508  -7.245  0.00  0.00    -0.016 A 
HETATM    8  C   UNK     0      -3.339  -4.598  -7.988  0.00  0.00    -0.031 A 
HETATM    9  C   UNK     0      -2.380  -4.127  -9.013  0.00  0.00     0.080 A 
HETATM   10  C   UNK     0      -4.735  -3.676  -6.195  0.00  0.00     0.042 A 
HETATM   11  C   UNK     0      -5.190  -4.976  -5.878  0.00  0.00     0.036 A 
HETATM   12  C   UNK     0      -4.680  -6.074  -6.613  0.00  0.00     0.043 A 
HETATM   13  C   UNK     0      -3.757  -5.920  -7.683  0.00  0.00    -0.009 A 
ENDROOT
BRANCH  13  14
HETATM   14  C   UNK     0      -3.293  -7.074  -8.382  0.00  0.00     0.015 A 
HETATM   15  C   UNK     0      -2.149  -7.858  -8.145  0.00  0.00     0.020 A 
HETATM   16  C   UNK     0      -1.940  -8.940  -9.016  0.00  0.00     0.008 A 
HETATM   17  C   UNK     0      -2.893  -9.080 -10.022  0.00  0.00     0.050 A 
HETATM   18  S   UNK     0      -4.059  -7.794  -9.792  0.00  0.00    -0.101 SA
ENDBRANCH  13  14
BRANCH  11  19
HETATM   19  N   UNK     0      -6.087  -5.263  -4.884  0.00  0.00    -0.327 N 
HETATM   20  C   UNK     0      -5.845  -5.674  -3.604  0.00  0.00     0.223 C 
HETATM   21  O   UNK     0      -4.687  -5.817  -3.143  0.00  0.00    -0.273 OA
HETATM   22  H   UNK     0      -7.020  -5.119  -5.108  0.00  0.00     0.169 HD
BRANCH  20  23
HETATM   23  C   UNK     0      -6.983  -5.917  -2.694  0.00  0.00     0.118 C 
BRANCH  23  24
HETATM   24  C   UNK     0      -8.303  -6.137  -3.467  0.00  0.00     0.124 C 
HETATM   25 Cl   UNK     0      -9.499  -4.928  -3.010  0.00  0.00    -0.130 Cl
ENDBRANCH  23  24
ENDBRANCH  20  23
ENDBRANCH  11  19
TORSDOF 4
ENDMDL
