MODEL 1
REMARK VINA RESULT:      -6.7      0.000      0.000
REMARK  2 active torsions:
REMARK  status: ('A' for Active; 'I' for Inactive)
REMARK    1  A    between atoms: C_10  and  C_17 
REMARK    2  A    between atoms: C_12  and  N_14 
ROOT
HETATM    1  C   UNK     0      -3.226  -2.921  -9.107  0.00  0.00     0.013 A 
HETATM    2  C   UNK     0      -3.581  -1.565  -9.268  0.00  0.00     0.001 A 
HETATM    3  C   UNK     0      -4.483  -0.949  -8.373  0.00  0.00     0.001 A 
HETATM    4  C   UNK     0      -5.046  -1.684  -7.308  0.00  0.00     0.008 A 
HETATM    5  C   UNK     0      -4.687  -3.037  -7.155  0.00  0.00    -0.043 A 
HETATM    6  C   UNK     0      -3.791  -3.645  -8.040  0.00  0.00    -0.019 A 
HETATM    7  C   UNK     0      -5.144  -3.977  -6.125  0.00  0.00     0.080 A 
HETATM    8  C   UNK     0      -4.402  -5.200  -6.504  0.00  0.00    -0.032 A 
HETATM    9  C   UNK     0      -3.631  -4.974  -7.653  0.00  0.00    -0.016 A 
HETATM   10  C   UNK     0      -4.429  -6.476  -5.887  0.00  0.00    -0.016 A 
HETATM   11  C   UNK     0      -3.691  -7.522  -6.499  0.00  0.00     0.042 A 
HETATM   12  C   UNK     0      -2.942  -7.299  -7.676  0.00  0.00     0.027 A 
HETATM   13  C   UNK     0      -2.890  -6.011  -8.250  0.00  0.00     0.042 A 
ENDROOT
BRANCH  10  14
HETATM   14  C   UNK     0      -5.198  -6.726  -4.717  0.00  0.00    -0.023 A 
HETATM   15  C   UNK     0      -6.428  -7.414  -4.801  0.00  0.00     0.029 A 
HETATM   16  C   UNK     0      -7.200  -7.615  -3.641  0.00  0.00     0.090 A 
HETATM   17  N   UNK     0      -6.780  -7.153  -2.422  0.00  0.00    -0.371 N 
HETATM   18  C   UNK     0      -5.581  -6.499  -2.316  0.00  0.00     0.090 A 
HETATM   19  C   UNK     0      -7.584  -7.382  -1.247  0.00  0.00     0.154 C 
HETATM   20  C   UNK     0      -4.769  -6.285  -3.445  0.00  0.00     0.029 A 
ENDBRANCH  10  14
BRANCH  12  21
HETATM   21  N   UNK     0      -2.290  -8.322  -8.267  0.00  0.00    -0.399 N 
HETATM   22  H   UNK     0      -2.753  -8.892  -8.903  0.00  0.00     0.156 HD
HETATM   23  H   UNK     0      -1.356  -8.486  -8.065  0.00  0.00     0.156 HD
ENDBRANCH  12  21
TORSDOF 2
ENDMDL
MODEL 2
REMARK VINA RESULT:      -6.4     15.816     17.394
REMARK  2 active torsions:
REMARK  status: ('A' for Active; 'I' for Inactive)
REMARK    1  A    between atoms: C_10  and  C_17 
REMARK    2  A    between atoms: C_12  and  N_14 
ROOT
HETATM    1  C   UNK     0       5.983   0.193   7.360  0.00  0.00     0.013 A 
HETATM    2  C   UNK     0       5.346   1.280   7.994  0.00  0.00     0.001 A 
HETATM    3  C   UNK     0       5.137   2.492   7.300  0.00  0.00     0.001 A 
HETATM    4  C   UNK     0       5.569   2.635   5.965  0.00  0.00     0.008 A 
HETATM    5  C   UNK     0       6.205   1.545   5.339  0.00  0.00    -0.043 A 
HETATM    6  C   UNK     0       6.408   0.343   6.027  0.00  0.00    -0.019 A 
HETATM    7  C   UNK     0       6.725   1.473   3.969  0.00  0.00     0.080 A 
HETATM    8  C   UNK     0       7.243   0.087   3.932  0.00  0.00    -0.032 A 
HETATM    9  C   UNK     0       7.060  -0.542   5.171  0.00  0.00    -0.016 A 
HETATM   10  C   UNK     0       7.885  -0.587   2.862  0.00  0.00    -0.016 A 
HETATM   11  C   UNK     0       8.378  -1.895   3.105  0.00  0.00     0.042 A 
HETATM   12  C   UNK     0       8.221  -2.514   4.367  0.00  0.00     0.027 A 
HETATM   13  C   UNK     0       7.539  -1.845   5.404  0.00  0.00     0.042 A 
ENDROOT
BRANCH  10  14
HETATM   14  C   UNK     0       8.074   0.030   1.594  0.00  0.00    -0.023 A 
HETATM   15  C   UNK     0       8.433   1.393   1.507  0.00  0.00     0.029 A 
HETATM   16  C   UNK     0       8.572   2.002   0.245  0.00  0.00     0.090 A 
HETATM   17  N   UNK     0       8.367   1.294  -0.909  0.00  0.00    -0.371 N 
HETATM   18  C   UNK     0       8.037  -0.034  -0.846  0.00  0.00     0.090 A 
HETATM   19  C   UNK     0       8.528   1.938  -2.189  0.00  0.00     0.154 C 
HETATM   20  C   UNK     0       7.897  -0.689   0.391  0.00  0.00     0.029 A 
ENDBRANCH  10  14
BRANCH  12  21
HETATM   21  N   UNK     0       8.743  -3.738   4.588  0.00  0.00    -0.399 N 
HETATM   22  H   UNK     0       9.384  -3.871   5.306  0.00  0.00     0.156 HD
HETATM   23  H   UNK     0       8.474  -4.489   4.037  0.00  0.00     0.156 HD
ENDBRANCH  12  21
TORSDOF 2
ENDMDL
MODEL 3
REMARK VINA RESULT:      -6.4     14.421     16.179
REMARK  2 active torsions:
REMARK  status: ('A' for Active; 'I' for Inactive)
REMARK    1  A    between atoms: C_10  and  C_17 
REMARK    2  A    between atoms: C_12  and  N_14 
ROOT
HETATM    1  C   UNK     0       8.240   1.304   2.449  0.00  0.00     0.013 A 
HETATM    2  C   UNK     0       8.146   0.275   3.410  0.00  0.00     0.001 A 
HETATM    3  C   UNK     0       8.005  -1.071   3.007  0.00  0.00     0.001 A 
HETATM    4  C   UNK     0       7.949  -1.405   1.638  0.00  0.00     0.008 A 
HETATM    5  C   UNK     0       8.043  -0.372   0.685  0.00  0.00    -0.043 A 
HETATM    6  C   UNK     0       8.186   0.961   1.085  0.00  0.00    -0.019 A 
HETATM    7  C   UNK     0       8.012  -0.493  -0.777  0.00  0.00     0.080 A 
HETATM    8  C   UNK     0       8.167   0.922  -1.184  0.00  0.00    -0.032 A 
HETATM    9  C   UNK     0       8.243   1.754  -0.059  0.00  0.00    -0.016 A 
HETATM   10  C   UNK     0       8.202   1.465  -2.494  0.00  0.00    -0.016 A 
HETATM   11  C   UNK     0       8.267   2.876  -2.622  0.00  0.00     0.042 A 
HETATM   12  C   UNK     0       8.310   3.715  -1.485  0.00  0.00     0.027 A 
HETATM   13  C   UNK     0       8.320   3.153  -0.191  0.00  0.00     0.042 A 
ENDROOT
BRANCH  10  14
HETATM   14  C   UNK     0       8.134   0.638  -3.649  0.00  0.00    -0.023 A 
HETATM   15  C   UNK     0       8.903  -0.544  -3.731  0.00  0.00     0.029 A 
HETATM   16  C   UNK     0       8.860  -1.328  -4.899  0.00  0.00     0.090 A 
HETATM   17  N   UNK     0       8.081  -0.967  -5.966  0.00  0.00    -0.371 N 
HETATM   18  C   UNK     0       7.314   0.166  -5.899  0.00  0.00     0.090 A 
HETATM   19  C   UNK     0       8.046  -1.795  -7.146  0.00  0.00     0.154 C 
HETATM   20  C   UNK     0       7.315   0.976  -4.749  0.00  0.00     0.029 A 
ENDBRANCH  10  14
BRANCH  12  21
HETATM   21  N   UNK     0       8.320   5.055  -1.634  0.00  0.00    -0.399 N 
HETATM   22  H   UNK     0       8.350   5.632  -0.852  0.00  0.00     0.156 HD
HETATM   23  H   UNK     0       8.306   5.447  -2.521  0.00  0.00     0.156 HD
ENDBRANCH  12  21
TORSDOF 2
ENDMDL
MODEL 4
REMARK VINA RESULT:      -6.3      2.869      7.010
REMARK  2 active torsions:
REMARK  status: ('A' for Active; 'I' for Inactive)
REMARK    1  A    between atoms: C_10  and  C_17 
REMARK    2  A    between atoms: C_12  and  N_14 
ROOT
HETATM    1  C   UNK     0      -5.822  -4.804  -4.574  0.00  0.00     0.013 A 
HETATM    2  C   UNK     0      -5.996  -5.963  -3.788  0.00  0.00     0.001 A 
HETATM    3  C   UNK     0      -5.309  -7.155  -4.107  0.00  0.00     0.001 A 
HETATM    4  C   UNK     0      -4.445  -7.205  -5.221  0.00  0.00     0.008 A 
HETATM    5  C   UNK     0      -4.279  -6.045  -6.002  0.00  0.00    -0.043 A 
HETATM    6  C   UNK     0      -4.957  -4.864  -5.683  0.00  0.00    -0.019 A 
HETATM    7  C   UNK     0      -3.434  -5.874  -7.190  0.00  0.00     0.080 A 
HETATM    8  C   UNK     0      -3.688  -4.454  -7.519  0.00  0.00    -0.032 A 
HETATM    9  C   UNK     0      -4.609  -3.895  -6.623  0.00  0.00    -0.016 A 
HETATM   10  C   UNK     0      -3.159  -3.688  -8.589  0.00  0.00    -0.016 A 
HETATM   11  C   UNK     0      -3.631  -2.359  -8.747  0.00  0.00     0.042 A 
HETATM   12  C   UNK     0      -4.585  -1.810  -7.861  0.00  0.00     0.027 A 
HETATM   13  C   UNK     0      -5.065  -2.573  -6.775  0.00  0.00     0.042 A 
ENDROOT
BRANCH  10  14
HETATM   14  C   UNK     0      -2.217  -4.232  -9.506  0.00  0.00    -0.023 A 
HETATM   15  C   UNK     0      -2.641  -4.731 -10.757  0.00  0.00     0.029 A 
HETATM   16  C   UNK     0      -1.705  -5.308 -11.636  0.00  0.00     0.090 A 
HETATM   17  N   UNK     0      -0.380  -5.395 -11.300  0.00  0.00    -0.371 N 
HETATM   18  C   UNK     0       0.054  -4.900 -10.099  0.00  0.00     0.090 A 
HETATM   19  C   UNK     0       0.561  -5.980 -12.224  0.00  0.00     0.154 C 
HETATM   20  C   UNK     0      -0.842  -4.304  -9.193  0.00  0.00     0.029 A 
ENDBRANCH  10  14
BRANCH  12  21
HETATM   21  N   UNK     0      -5.056  -0.562  -8.062  0.00  0.00    -0.399 N 
HETATM   22  H   UNK     0      -5.859  -0.264  -7.604  0.00  0.00     0.156 HD
HETATM   23  H   UNK     0      -4.590   0.044  -8.660  0.00  0.00     0.156 HD
ENDBRANCH  12  21
TORSDOF 2
ENDMDL
MODEL 5
REMARK VINA RESULT:      -6.3     13.595     14.374
REMARK  2 active torsions:
REMARK  status: ('A' for Active; 'I' for Inactive)
REMARK    1  A    between atoms: C_10  and  C_17 
REMARK    2  A    between atoms: C_12  and  N_14 
ROOT
HETATM    1  C   UNK     0       6.901   1.223  -6.903  0.00  0.00     0.013 A 
HETATM    2  C   UNK     0       6.048   2.232  -7.398  0.00  0.00     0.001 A 
HETATM    3  C   UNK     0       5.428   3.143  -6.515  0.00  0.00     0.001 A 
HETATM    4  C   UNK     0       5.648   3.052  -5.124  0.00  0.00     0.008 A 
HETATM    5  C   UNK     0       6.500   2.042  -4.638  0.00  0.00    -0.043 A 
HETATM    6  C   UNK     0       7.116   1.142  -5.514  0.00  0.00    -0.019 A 
HETATM    7  C   UNK     0       6.869   1.770  -3.244  0.00  0.00     0.080 A 
HETATM    8  C   UNK     0       7.781   0.617  -3.408  0.00  0.00    -0.032 A 
HETATM    9  C   UNK     0       7.886   0.258  -4.760  0.00  0.00    -0.016 A 
HETATM   10  C   UNK     0       8.467  -0.116  -2.407  0.00  0.00    -0.016 A 
HETATM   11  C   UNK     0       9.218  -1.249  -2.814  0.00  0.00     0.042 A 
HETATM   12  C   UNK     0       9.294  -1.627  -4.174  0.00  0.00     0.027 A 
HETATM   13  C   UNK     0       8.642  -0.858  -5.161  0.00  0.00     0.042 A 
ENDROOT
BRANCH  10  14
HETATM   14  C   UNK     0       8.382   0.235  -1.031  0.00  0.00    -0.023 A 
HETATM   15  C   UNK     0       8.062  -0.741  -0.061  0.00  0.00     0.029 A 
HETATM   16  C   UNK     0       7.936  -0.370   1.291  0.00  0.00     0.090 A 
HETATM   17  N   UNK     0       8.119   0.927   1.689  0.00  0.00    -0.371 N 
HETATM   18  C   UNK     0       8.448   1.885   0.767  0.00  0.00     0.090 A 
HETATM   19  C   UNK     0       7.997   1.278   3.083  0.00  0.00     0.154 C 
HETATM   20  C   UNK     0       8.597   1.561  -0.594  0.00  0.00     0.029 A 
ENDBRANCH  10  14
BRANCH  12  21
HETATM   21  N   UNK     0       9.973  -2.737  -4.530  0.00  0.00    -0.399 N 
HETATM   22  H   UNK     0      10.799  -2.970  -4.075  0.00  0.00     0.156 HD
HETATM   23  H   UNK     0       9.634  -3.310  -5.236  0.00  0.00     0.156 HD
ENDBRANCH  12  21
TORSDOF 2
ENDMDL
MODEL 6
REMARK VINA RESULT:      -6.2      4.043      6.648
REMARK  2 active torsions:
REMARK  status: ('A' for Active; 'I' for Inactive)
REMARK    1  A    between atoms: C_10  and  C_17 
REMARK    2  A    between atoms: C_12  and  N_14 
ROOT
HETATM    1  C   UNK     0       0.976   0.896 -10.624  0.00  0.00     0.013 A 
HETATM    2  C   UNK     0       2.359   0.645 -10.497  0.00  0.00     0.001 A 
HETATM    3  C   UNK     0       2.819  -0.499  -9.809  0.00  0.00     0.001 A 
HETATM    4  C   UNK     0       1.904  -1.404  -9.233  0.00  0.00     0.008 A 
HETATM    5  C   UNK     0       0.525  -1.146  -9.363  0.00  0.00    -0.043 A 
HETATM    6  C   UNK     0       0.069  -0.014 -10.047  0.00  0.00    -0.019 A 
HETATM    7  C   UNK     0      -0.592  -1.949  -8.851  0.00  0.00     0.080 A 
HETATM    8  C   UNK     0      -1.751  -1.162  -9.327  0.00  0.00    -0.032 A 
HETATM    9  C   UNK     0      -1.324  -0.014 -10.009  0.00  0.00    -0.016 A 
HETATM   10  C   UNK     0      -3.133  -1.422  -9.137  0.00  0.00    -0.016 A 
HETATM   11  C   UNK     0      -4.058  -0.459  -9.616  0.00  0.00     0.042 A 
HETATM   12  C   UNK     0      -3.622   0.713 -10.274  0.00  0.00     0.027 A 
HETATM   13  C   UNK     0      -2.245   0.932 -10.494  0.00  0.00     0.042 A 
ENDROOT
BRANCH  10  14
HETATM   14  C   UNK     0      -3.589  -2.583  -8.454  0.00  0.00    -0.023 A 
HETATM   15  C   UNK     0      -4.305  -2.468  -7.243  0.00  0.00     0.029 A 
HETATM   16  C   UNK     0      -4.711  -3.627  -6.555  0.00  0.00     0.090 A 
HETATM   17  N   UNK     0      -4.425  -4.875  -7.041  0.00  0.00    -0.371 N 
HETATM   18  C   UNK     0      -3.748  -5.008  -8.224  0.00  0.00     0.090 A 
HETATM   19  C   UNK     0      -4.863  -6.046  -6.323  0.00  0.00     0.154 C 
HETATM   20  C   UNK     0      -3.331  -3.879  -8.953  0.00  0.00     0.029 A 
ENDBRANCH  10  14
BRANCH  12  21
HETATM   21  N   UNK     0      -4.519   1.637 -10.675  0.00  0.00    -0.399 N 
HETATM   22  H   UNK     0      -4.919   2.241 -10.027  0.00  0.00     0.156 HD
HETATM   23  H   UNK     0      -4.762   1.706 -11.611  0.00  0.00     0.156 HD
ENDBRANCH  12  21
TORSDOF 2
ENDMDL
MODEL 7
REMARK VINA RESULT:      -6.2     14.889     15.978
REMARK  2 active torsions:
REMARK  status: ('A' for Active; 'I' for Inactive)
REMARK    1  A    between atoms: C_10  and  C_17 
REMARK    2  A    between atoms: C_12  and  N_14 
ROOT
HETATM    1  C   UNK     0       7.331   1.741  -5.709  0.00  0.00     0.013 A 
HETATM    2  C   UNK     0       7.296   0.704  -6.666  0.00  0.00     0.001 A 
HETATM    3  C   UNK     0       7.696  -0.605  -6.318  0.00  0.00     0.001 A 
HETATM    4  C   UNK     0       8.141  -0.893  -5.011  0.00  0.00     0.008 A 
HETATM    5  C   UNK     0       8.174   0.148  -4.062  0.00  0.00    -0.043 A 
HETATM    6  C   UNK     0       7.775   1.444  -4.407  0.00  0.00    -0.019 A 
HETATM    7  C   UNK     0       8.594   0.072  -2.658  0.00  0.00     0.080 A 
HETATM    8  C   UNK     0       8.381   1.469  -2.220  0.00  0.00    -0.032 A 
HETATM    9  C   UNK     0       7.919   2.256  -3.284  0.00  0.00    -0.016 A 
HETATM   10  C   UNK     0       8.619   2.040  -0.943  0.00  0.00    -0.016 A 
HETATM   11  C   UNK     0       8.421   3.437  -0.797  0.00  0.00     0.042 A 
HETATM   12  C   UNK     0       7.988   4.234  -1.881  0.00  0.00     0.027 A 
HETATM   13  C   UNK     0       7.712   3.639  -3.131  0.00  0.00     0.042 A 
ENDROOT
BRANCH  10  14
HETATM   14  C   UNK     0       9.080   1.258   0.152  0.00  0.00    -0.023 A 
HETATM   15  C   UNK     0      10.462   1.044   0.347  0.00  0.00     0.029 A 
HETATM   16  C   UNK     0      10.902   0.231   1.409  0.00  0.00     0.090 A 
HETATM   17  N   UNK     0      10.010  -0.360   2.265  0.00  0.00    -0.371 N 
HETATM   18  C   UNK     0       8.667  -0.149   2.104  0.00  0.00     0.090 A 
HETATM   19  C   UNK     0      10.488  -1.178   3.352  0.00  0.00     0.154 C 
HETATM   20  C   UNK     0       8.180   0.665   1.064  0.00  0.00     0.029 A 
ENDBRANCH  10  14
BRANCH  12  21
HETATM   21  N   UNK     0       7.856   5.567  -1.730  0.00  0.00    -0.399 N 
HETATM   22  H   UNK     0       8.312   6.023  -1.003  0.00  0.00     0.156 HD
HETATM   23  H   UNK     0       7.313   6.077  -2.351  0.00  0.00     0.156 HD
ENDBRANCH  12  21
TORSDOF 2
ENDMDL
MODEL 8
REMARK VINA RESULT:      -6.2      2.462      6.540
REMARK  2 active torsions:
REMARK  status: ('A' for Active; 'I' for Inactive)
REMARK    1  A    between atoms: C_10  and  C_17 
REMARK    2  A    between atoms: C_12  and  N_14 
ROOT
HETATM    1  C   UNK     0      -2.541  -8.814  -7.830  0.00  0.00     0.013 A 
HETATM    2  C   UNK     0      -1.679  -9.498  -8.713  0.00  0.00     0.001 A 
HETATM    3  C   UNK     0      -0.958  -8.791  -9.701  0.00  0.00     0.001 A 
HETATM    4  C   UNK     0      -1.097  -7.393  -9.823  0.00  0.00     0.008 A 
HETATM    5  C   UNK     0      -1.961  -6.718  -8.939  0.00  0.00    -0.043 A 
HETATM    6  C   UNK     0      -2.671  -7.418  -7.958  0.00  0.00    -0.019 A 
HETATM    7  C   UNK     0      -2.249  -5.280  -8.885  0.00  0.00     0.080 A 
HETATM    8  C   UNK     0      -3.199  -5.220  -7.752  0.00  0.00    -0.032 A 
HETATM    9  C   UNK     0      -3.443  -6.504  -7.244  0.00  0.00    -0.016 A 
HETATM   10  C   UNK     0      -3.855  -4.086  -7.209  0.00  0.00    -0.016 A 
HETATM   11  C   UNK     0      -4.799  -4.303  -6.173  0.00  0.00     0.042 A 
HETATM   12  C   UNK     0      -5.068  -5.602  -5.685  0.00  0.00     0.027 A 
HETATM   13  C   UNK     0      -4.371  -6.712  -6.207  0.00  0.00     0.042 A 
ENDROOT
BRANCH  10  14
HETATM   14  C   UNK     0      -3.616  -2.774  -7.705  0.00  0.00    -0.023 A 
HETATM   15  C   UNK     0      -3.919  -2.448  -9.045  0.00  0.00     0.029 A 
HETATM   16  C   UNK     0      -3.635  -1.159  -9.534  0.00  0.00     0.090 A 
HETATM   17  N   UNK     0      -3.068  -0.206  -8.730  0.00  0.00    -0.371 N 
HETATM   18  C   UNK     0      -2.785  -0.497  -7.422  0.00  0.00     0.090 A 
HETATM   19  C   UNK     0      -2.800   1.111  -9.253  0.00  0.00     0.154 C 
HETATM   20  C   UNK     0      -3.060  -1.768  -6.885  0.00  0.00     0.029 A 
ENDBRANCH  10  14
BRANCH  12  21
HETATM   21  N   UNK     0      -6.007  -5.787  -4.735  0.00  0.00    -0.399 N 
HETATM   22  H   UNK     0      -6.104  -6.654  -4.309  0.00  0.00     0.156 HD
HETATM   23  H   UNK     0      -6.582  -5.052  -4.469  0.00  0.00     0.156 HD
ENDBRANCH  12  21
TORSDOF 2
ENDMDL
MODEL 9
REMARK VINA RESULT:      -6.2      2.843      6.753
REMARK  2 active torsions:
REMARK  status: ('A' for Active; 'I' for Inactive)
REMARK    1  A    between atoms: C_10  and  C_17 
REMARK    2  A    between atoms: C_12  and  N_14 
ROOT
HETATM    1  C   UNK     0      -3.748  -6.904  -5.856  0.00  0.00     0.013 A 
HETATM    2  C   UNK     0      -4.748  -7.049  -4.872  0.00  0.00     0.001 A 
HETATM    3  C   UNK     0      -5.626  -5.983  -4.580  0.00  0.00     0.001 A 
HETATM    4  C   UNK     0      -5.511  -4.754  -5.263  0.00  0.00     0.008 A 
HETATM    5  C   UNK     0      -4.509  -4.617  -6.244  0.00  0.00    -0.043 A 
HETATM    6  C   UNK     0      -3.641  -5.675  -6.534  0.00  0.00    -0.019 A 
HETATM    7  C   UNK     0      -4.216  -3.441  -7.071  0.00  0.00     0.080 A 
HETATM    8  C   UNK     0      -3.087  -3.939  -7.887  0.00  0.00    -0.032 A 
HETATM    9  C   UNK     0      -2.759  -5.254  -7.527  0.00  0.00    -0.016 A 
HETATM   10  C   UNK     0      -2.347  -3.253  -8.884  0.00  0.00    -0.016 A 
HETATM   11  C   UNK     0      -1.240  -3.924  -9.465  0.00  0.00     0.042 A 
HETATM   12  C   UNK     0      -0.893  -5.238  -9.076  0.00  0.00     0.027 A 
HETATM   13  C   UNK     0      -1.668  -5.920  -8.115  0.00  0.00     0.042 A 
ENDROOT
BRANCH  10  14
HETATM   14  C   UNK     0      -2.667  -1.922  -9.270  0.00  0.00    -0.023 A 
HETATM   15  C   UNK     0      -3.500  -1.679 -10.384  0.00  0.00     0.029 A 
HETATM   16  C   UNK     0      -3.771  -0.356 -10.782  0.00  0.00     0.090 A 
HETATM   17  N   UNK     0      -3.240   0.709 -10.105  0.00  0.00    -0.371 N 
HETATM   18  C   UNK     0      -2.444   0.495  -9.010  0.00  0.00     0.090 A 
HETATM   19  C   UNK     0      -3.543   2.055 -10.526  0.00  0.00     0.154 C 
HETATM   20  C   UNK     0      -2.154  -0.809  -8.568  0.00  0.00     0.029 A 
ENDBRANCH  10  14
BRANCH  12  21
HETATM   21  N   UNK     0       0.194  -5.834  -9.606  0.00  0.00    -0.399 N 
HETATM   22  H   UNK     0       1.063  -5.404  -9.549  0.00  0.00     0.156 HD
HETATM   23  H   UNK     0       0.113  -6.698 -10.040  0.00  0.00     0.156 HD
ENDBRANCH  12  21
TORSDOF 2
ENDMDL
