MODEL 1
REMARK VINA RESULT:      -6.9      0.000      0.000
REMARK  4 active torsions:
REMARK  status: ('A' for Active; 'I' for Inactive)
REMARK    1  A    between atoms: C_11  and  N_14 
REMARK    2  A    between atoms: C_13  and  C_21 
REMARK       I    between atoms: N_14  and  C_15 
REMARK    3  A    between atoms: C_15  and  C_16 
REMARK    4  A    between atoms: C_16  and  C_17 
ROOT
HETATM    1  C   UNK     0      -1.111  -7.153  -9.700  0.00  0.00     0.008 A 
HETATM    2  C   UNK     0      -0.951  -8.554  -9.727  0.00  0.00     0.001 A 
HETATM    3  C   UNK     0      -1.686  -9.374  -8.844  0.00  0.00     0.001 A 
HETATM    4  C   UNK     0      -2.579  -8.801  -7.916  0.00  0.00     0.013 A 
HETATM    5  C   UNK     0      -2.724  -7.400  -7.896  0.00  0.00    -0.019 A 
HETATM    6  C   UNK     0      -2.006  -6.585  -8.774  0.00  0.00    -0.043 A 
HETATM    7  C   UNK     0      -3.519  -6.579  -7.103  0.00  0.00    -0.016 A 
HETATM    8  C   UNK     0      -3.307  -5.244  -7.464  0.00  0.00    -0.032 A 
HETATM    9  C   UNK     0      -2.323  -5.161  -8.570  0.00  0.00     0.080 A 
HETATM   10  C   UNK     0      -4.434  -6.930  -6.096  0.00  0.00     0.042 A 
HETATM   11  C   UNK     0      -5.160  -5.915  -5.428  0.00  0.00     0.036 A 
HETATM   12  C   UNK     0      -4.950  -4.564  -5.803  0.00  0.00     0.042 A 
HETATM   13  C   UNK     0      -4.018  -4.200  -6.813  0.00  0.00    -0.016 A 
ENDROOT
BRANCH  13  14
HETATM   14  C   UNK     0      -3.828  -2.832  -7.152  0.00  0.00    -0.023 A 
HETATM   15  C   UNK     0      -2.786  -2.074  -6.565  0.00  0.00     0.029 A 
HETATM   16  C   UNK     0      -2.604  -0.731  -6.938  0.00  0.00     0.088 A 
HETATM   17  N   UNK     0      -3.439  -0.159  -7.842  0.00  0.00    -0.375 N 
HETATM   18  C   UNK     0      -4.466  -0.840  -8.412  0.00  0.00     0.088 A 
HETATM   19  HN  UNK     0      -3.290   0.816  -8.102  1.00  0.00     0.164 HD
HETATM   20  C   UNK     0      -4.685  -2.191  -8.078  0.00  0.00     0.029 A 
ENDBRANCH  13  14
BRANCH  11  21
HETATM   21  N   UNK     0      -6.107  -6.181  -4.474  0.00  0.00    -0.327 N 
HETATM   22  C   UNK     0      -5.958  -6.208  -3.116  0.00  0.00     0.223 C 
HETATM   23  O   UNK     0      -4.912  -5.813  -2.546  0.00  0.00    -0.273 OA
HETATM   24  H   UNK     0      -7.003  -6.363  -4.804  0.00  0.00     0.169 HD
BRANCH  22  25
HETATM   25  C   UNK     0      -7.069  -6.703  -2.275  0.00  0.00     0.118 C 
BRANCH  25  26
HETATM   26  C   UNK     0      -7.998  -5.547  -1.828  0.00  0.00     0.124 C 
HETATM   27 Cl   UNK     0      -9.071  -5.052  -3.133  0.00  0.00    -0.130 Cl
ENDBRANCH  25  26
ENDBRANCH  22  25
ENDBRANCH  11  21
TORSDOF 4
ENDMDL
MODEL 2
REMARK VINA RESULT:      -6.7      2.565      5.568
REMARK  4 active torsions:
REMARK  status: ('A' for Active; 'I' for Inactive)
REMARK    1  A    between atoms: C_11  and  N_14 
REMARK    2  A    between atoms: C_13  and  C_21 
REMARK       I    between atoms: N_14  and  C_15 
REMARK    3  A    between atoms: C_15  and  C_16 
REMARK    4  A    between atoms: C_16  and  C_17 
ROOT
HETATM    1  C   UNK     0      -2.700 -10.461  -6.983  0.00  0.00     0.008 A 
HETATM    2  C   UNK     0      -1.870 -10.696  -8.099  0.00  0.00     0.001 A 
HETATM    3  C   UNK     0      -1.509  -9.635  -8.957  0.00  0.00     0.001 A 
HETATM    4  C   UNK     0      -1.983  -8.330  -8.715  0.00  0.00     0.013 A 
HETATM    5  C   UNK     0      -2.816  -8.110  -7.600  0.00  0.00    -0.019 A 
HETATM    6  C   UNK     0      -3.169  -9.155  -6.742  0.00  0.00    -0.043 A 
HETATM    7  C   UNK     0      -3.416  -6.947  -7.128  0.00  0.00    -0.016 A 
HETATM    8  C   UNK     0      -4.158  -7.245  -5.979  0.00  0.00    -0.032 A 
HETATM    9  C   UNK     0      -4.040  -8.686  -5.651  0.00  0.00     0.080 A 
HETATM   10  C   UNK     0      -3.339  -5.638  -7.631  0.00  0.00     0.042 A 
HETATM   11  C   UNK     0      -4.022  -4.593  -6.966  0.00  0.00     0.036 A 
HETATM   12  C   UNK     0      -4.764  -4.896  -5.797  0.00  0.00     0.042 A 
HETATM   13  C   UNK     0      -4.857  -6.220  -5.288  0.00  0.00    -0.016 A 
ENDROOT
BRANCH  13  14
HETATM   14  C   UNK     0      -5.621  -6.485  -4.118  0.00  0.00    -0.023 A 
HETATM   15  C   UNK     0      -5.068  -6.296  -2.828  0.00  0.00     0.029 A 
HETATM   16  C   UNK     0      -5.855  -6.541  -1.689  0.00  0.00     0.088 A 
HETATM   17  N   UNK     0      -7.132  -6.977  -1.827  0.00  0.00    -0.375 N 
HETATM   18  C   UNK     0      -7.696  -7.195  -3.043  0.00  0.00     0.088 A 
HETATM   19  HN  UNK     0      -7.688  -7.146  -0.989  1.00  0.00     0.164 HD
HETATM   20  C   UNK     0      -6.952  -6.957  -4.215  0.00  0.00     0.029 A 
ENDBRANCH  13  14
BRANCH  11  21
HETATM   21  N   UNK     0      -3.951  -3.284  -7.365  0.00  0.00    -0.327 N 
HETATM   22  C   UNK     0      -3.215  -2.269  -6.819  0.00  0.00     0.223 C 
HETATM   23  O   UNK     0      -2.348  -2.468  -5.934  0.00  0.00    -0.273 OA
HETATM   24  H   UNK     0      -4.482  -3.048  -8.144  0.00  0.00     0.169 HD
BRANCH  22  25
HETATM   25  C   UNK     0      -3.429  -0.884  -7.291  0.00  0.00     0.118 C 
BRANCH  25  26
HETATM   26  C   UNK     0      -4.537  -0.821  -8.371  0.00  0.00     0.124 C 
HETATM   27 Cl   UNK     0      -3.846  -0.723  -9.987  0.00  0.00    -0.130 Cl
ENDBRANCH  25  26
ENDBRANCH  22  25
ENDBRANCH  11  21
TORSDOF 4
ENDMDL
MODEL 3
REMARK VINA RESULT:      -6.5      2.972      7.035
REMARK  4 active torsions:
REMARK  status: ('A' for Active; 'I' for Inactive)
REMARK    1  A    between atoms: C_11  and  N_14 
REMARK    2  A    between atoms: C_13  and  C_21 
REMARK       I    between atoms: N_14  and  C_15 
REMARK    3  A    between atoms: C_15  and  C_16 
REMARK    4  A    between atoms: C_16  and  C_17 
ROOT
HETATM    1  C   UNK     0      -6.996  -7.876  -2.884  0.00  0.00     0.008 A 
HETATM    2  C   UNK     0      -7.573  -7.080  -1.871  0.00  0.00     0.001 A 
HETATM    3  C   UNK     0      -7.466  -5.674  -1.920  0.00  0.00     0.001 A 
HETATM    4  C   UNK     0      -6.772  -5.048  -2.975  0.00  0.00     0.013 A 
HETATM    5  C   UNK     0      -6.195  -5.854  -3.976  0.00  0.00    -0.019 A 
HETATM    6  C   UNK     0      -6.306  -7.246  -3.937  0.00  0.00    -0.043 A 
HETATM    7  C   UNK     0      -5.468  -5.514  -5.112  0.00  0.00    -0.016 A 
HETATM    8  C   UNK     0      -5.107  -6.681  -5.794  0.00  0.00    -0.032 A 
HETATM    9  C   UNK     0      -5.630  -7.873  -5.086  0.00  0.00     0.080 A 
HETATM   10  C   UNK     0      -5.119  -4.242  -5.597  0.00  0.00     0.042 A 
HETATM   11  C   UNK     0      -4.386  -4.132  -6.803  0.00  0.00     0.036 A 
HETATM   12  C   UNK     0      -4.030  -5.316  -7.496  0.00  0.00     0.042 A 
HETATM   13  C   UNK     0      -4.369  -6.606  -7.006  0.00  0.00    -0.016 A 
ENDROOT
BRANCH  13  14
HETATM   14  C   UNK     0      -3.983  -7.770  -7.727  0.00  0.00    -0.023 A 
HETATM   15  C   UNK     0      -4.773  -8.262  -8.794  0.00  0.00     0.029 A 
HETATM   16  C   UNK     0      -4.355  -9.400  -9.506  0.00  0.00     0.088 A 
HETATM   17  N   UNK     0      -3.208 -10.034  -9.157  0.00  0.00    -0.375 N 
HETATM   18  C   UNK     0      -2.431  -9.613  -8.125  0.00  0.00     0.088 A 
HETATM   19  HN  UNK     0      -2.919 -10.856  -9.686  1.00  0.00     0.164 HD
HETATM   20  C   UNK     0      -2.803  -8.474  -7.385  0.00  0.00     0.029 A 
ENDBRANCH  13  14
BRANCH  11  21
HETATM   21  N   UNK     0      -4.055  -2.928  -7.366  0.00  0.00    -0.327 N 
HETATM   22  C   UNK     0      -3.161  -1.998  -6.916  0.00  0.00     0.223 C 
HETATM   23  O   UNK     0      -2.378  -2.225  -5.962  0.00  0.00    -0.273 OA
HETATM   24  H   UNK     0      -4.505  -2.711  -8.200  0.00  0.00     0.169 HD
BRANCH  22  25
HETATM   25  C   UNK     0      -3.092  -0.678  -7.579  0.00  0.00     0.118 C 
BRANCH  25  26
HETATM   26  C   UNK     0      -3.840  -0.688  -8.935  0.00  0.00     0.124 C 
HETATM   27 Cl   UNK     0      -3.765   0.887  -9.716  0.00  0.00    -0.130 Cl
ENDBRANCH  25  26
ENDBRANCH  22  25
ENDBRANCH  11  21
TORSDOF 4
ENDMDL
MODEL 4
REMARK VINA RESULT:      -6.5      3.447      6.571
REMARK  4 active torsions:
REMARK  status: ('A' for Active; 'I' for Inactive)
REMARK    1  A    between atoms: C_11  and  N_14 
REMARK    2  A    between atoms: C_13  and  C_21 
REMARK       I    between atoms: N_14  and  C_15 
REMARK    3  A    between atoms: C_15  and  C_16 
REMARK    4  A    between atoms: C_16  and  C_17 
ROOT
HETATM    1  C   UNK     0      -4.864  -1.146  -7.696  0.00  0.00     0.008 A 
HETATM    2  C   UNK     0      -4.290  -0.634  -8.879  0.00  0.00     0.001 A 
HETATM    3  C   UNK     0      -3.495  -1.459  -9.703  0.00  0.00     0.001 A 
HETATM    4  C   UNK     0      -3.255  -2.802  -9.347  0.00  0.00     0.013 A 
HETATM    5  C   UNK     0      -3.829  -3.299  -8.161  0.00  0.00    -0.019 A 
HETATM    6  C   UNK     0      -4.624  -2.489  -7.346  0.00  0.00    -0.043 A 
HETATM    7  C   UNK     0      -3.763  -4.559  -7.576  0.00  0.00    -0.016 A 
HETATM    8  C   UNK     0      -4.504  -4.556  -6.389  0.00  0.00    -0.032 A 
HETATM    9  C   UNK     0      -5.114  -3.224  -6.168  0.00  0.00     0.080 A 
HETATM   10  C   UNK     0      -3.109  -5.718  -8.030  0.00  0.00     0.042 A 
HETATM   11  C   UNK     0      -3.198  -6.910  -7.274  0.00  0.00     0.036 A 
HETATM   12  C   UNK     0      -3.957  -6.907  -6.077  0.00  0.00     0.042 A 
HETATM   13  C   UNK     0      -4.613  -5.737  -5.606  0.00  0.00    -0.016 A 
ENDROOT
BRANCH  13  14
HETATM   14  C   UNK     0      -5.356  -5.772  -4.394  0.00  0.00    -0.023 A 
HETATM   15  C   UNK     0      -6.584  -5.076  -4.271  0.00  0.00     0.029 A 
HETATM   16  C   UNK     0      -7.311  -5.149  -3.071  0.00  0.00     0.088 A 
HETATM   17  N   UNK     0      -6.826  -5.867  -2.027  0.00  0.00    -0.375 N 
HETATM   18  C   UNK     0      -5.642  -6.530  -2.090  0.00  0.00     0.088 A 
HETATM   19  HN  UNK     0      -7.369  -5.911  -1.164  1.00  0.00     0.164 HD
HETATM   20  C   UNK     0      -4.880  -6.494  -3.274  0.00  0.00     0.029 A 
ENDBRANCH  13  14
BRANCH  11  21
HETATM   21  N   UNK     0      -2.633  -8.092  -7.678  0.00  0.00    -0.327 N 
HETATM   22  C   UNK     0      -3.215  -9.118  -8.368  0.00  0.00     0.223 C 
HETATM   23  O   UNK     0      -4.357  -9.023  -8.878  0.00  0.00    -0.273 OA
HETATM   24  H   UNK     0      -1.695  -8.211  -7.456  0.00  0.00     0.169 HD
BRANCH  22  25
HETATM   25  C   UNK     0      -2.474 -10.387  -8.539  0.00  0.00     0.118 C 
BRANCH  25  26
HETATM   26  C   UNK     0      -1.026 -10.134  -9.026  0.00  0.00     0.124 C 
HETATM   27 Cl   UNK     0      -1.012  -9.294 -10.572  0.00  0.00    -0.130 Cl
ENDBRANCH  25  26
ENDBRANCH  22  25
ENDBRANCH  11  21
TORSDOF 4
ENDMDL
MODEL 5
REMARK VINA RESULT:      -6.4     13.244     14.095
REMARK  4 active torsions:
REMARK  status: ('A' for Active; 'I' for Inactive)
REMARK    1  A    between atoms: C_11  and  N_14 
REMARK    2  A    between atoms: C_13  and  C_21 
REMARK       I    between atoms: N_14  and  C_15 
REMARK    3  A    between atoms: C_15  and  C_16 
REMARK    4  A    between atoms: C_16  and  C_17 
ROOT
HETATM    1  C   UNK     0       9.491  -1.562  -6.880  0.00  0.00     0.008 A 
HETATM    2  C   UNK     0      10.196  -2.755  -6.617  0.00  0.00     0.001 A 
HETATM    3  C   UNK     0      10.385  -3.197  -5.290  0.00  0.00     0.001 A 
HETATM    4  C   UNK     0       9.881  -2.443  -4.210  0.00  0.00     0.013 A 
HETATM    5  C   UNK     0       9.185  -1.250  -4.486  0.00  0.00    -0.019 A 
HETATM    6  C   UNK     0       8.987  -0.814  -5.798  0.00  0.00    -0.043 A 
HETATM    7  C   UNK     0       8.590  -0.326  -3.633  0.00  0.00    -0.016 A 
HETATM    8  C   UNK     0       8.021   0.703  -4.394  0.00  0.00    -0.032 A 
HETATM    9  C   UNK     0       8.234   0.451  -5.839  0.00  0.00     0.080 A 
HETATM   10  C   UNK     0       8.499  -0.338  -2.231  0.00  0.00     0.042 A 
HETATM   11  C   UNK     0       7.817   0.709  -1.567  0.00  0.00     0.036 A 
HETATM   12  C   UNK     0       7.234   1.744  -2.340  0.00  0.00     0.042 A 
HETATM   13  C   UNK     0       7.332   1.770  -3.758  0.00  0.00    -0.016 A 
ENDROOT
BRANCH  13  14
HETATM   14  C   UNK     0       6.742   2.832  -4.497  0.00  0.00    -0.023 A 
HETATM   15  C   UNK     0       5.524   2.647  -5.195  0.00  0.00     0.029 A 
HETATM   16  C   UNK     0       4.950   3.721  -5.896  0.00  0.00     0.088 A 
HETATM   17  N   UNK     0       5.573   4.926  -5.920  0.00  0.00    -0.375 N 
HETATM   18  C   UNK     0       6.754   5.144  -5.286  0.00  0.00     0.088 A 
HETATM   19  HN  UNK     0       5.140   5.695  -6.431  1.00  0.00     0.164 HD
HETATM   20  C   UNK     0       7.367   4.101  -4.563  0.00  0.00     0.029 A 
ENDBRANCH  13  14
BRANCH  11  21
HETATM   21  N   UNK     0       7.640   0.738  -0.209  0.00  0.00    -0.327 N 
HETATM   22  C   UNK     0       8.402   1.372   0.732  0.00  0.00     0.223 C 
HETATM   23  O   UNK     0       9.315   2.177   0.427  0.00  0.00    -0.273 OA
HETATM   24  H   UNK     0       6.867   0.258   0.129  0.00  0.00     0.169 HD
BRANCH  22  25
HETATM   25  C   UNK     0       8.141   1.120   2.166  0.00  0.00     0.118 C 
BRANCH  25  26
HETATM   26  C   UNK     0       8.356  -0.371   2.525  0.00  0.00     0.124 C 
HETATM   27 Cl   UNK     0       6.826  -1.169   2.870  0.00  0.00    -0.130 Cl
ENDBRANCH  25  26
ENDBRANCH  22  25
ENDBRANCH  11  21
TORSDOF 4
ENDMDL
MODEL 6
REMARK VINA RESULT:      -6.4      3.107      6.181
REMARK  4 active torsions:
REMARK  status: ('A' for Active; 'I' for Inactive)
REMARK    1  A    between atoms: C_11  and  N_14 
REMARK    2  A    between atoms: C_13  and  C_21 
REMARK       I    between atoms: N_14  and  C_15 
REMARK    3  A    between atoms: C_15  and  C_16 
REMARK    4  A    between atoms: C_16  and  C_17 
ROOT
HETATM    1  C   UNK     0      -4.828  -1.174  -7.783  0.00  0.00     0.008 A 
HETATM    2  C   UNK     0      -4.273  -0.691  -8.986  0.00  0.00     0.001 A 
HETATM    3  C   UNK     0      -3.522  -1.547  -9.820  0.00  0.00     0.001 A 
HETATM    4  C   UNK     0      -3.308  -2.891  -9.454  0.00  0.00     0.013 A 
HETATM    5  C   UNK     0      -3.862  -3.359  -8.247  0.00  0.00    -0.019 A 
HETATM    6  C   UNK     0      -4.615  -2.519  -7.422  0.00  0.00    -0.043 A 
HETATM    7  C   UNK     0      -3.813  -4.613  -7.649  0.00  0.00    -0.016 A 
HETATM    8  C   UNK     0      -4.522  -4.577  -6.443  0.00  0.00    -0.032 A 
HETATM    9  C   UNK     0      -5.092  -3.227  -6.222  0.00  0.00     0.080 A 
HETATM   10  C   UNK     0      -3.201  -5.794  -8.105  0.00  0.00     0.042 A 
HETATM   11  C   UNK     0      -3.301  -6.975  -7.332  0.00  0.00     0.036 A 
HETATM   12  C   UNK     0      -4.028  -6.937  -6.116  0.00  0.00     0.042 A 
HETATM   13  C   UNK     0      -4.640  -5.745  -5.642  0.00  0.00    -0.016 A 
ENDROOT
BRANCH  13  14
HETATM   14  C   UNK     0      -5.352  -5.746  -4.411  0.00  0.00    -0.023 A 
HETATM   15  C   UNK     0      -4.855  -6.442  -3.282  0.00  0.00     0.029 A 
HETATM   16  C   UNK     0      -5.566  -6.405  -2.070  0.00  0.00     0.088 A 
HETATM   17  N   UNK     0      -6.735  -5.722  -1.990  0.00  0.00    -0.375 N 
HETATM   18  C   UNK     0      -7.262  -5.060  -3.053  0.00  0.00     0.088 A 
HETATM   19  HN  UNK     0      -7.236  -5.703  -1.102  1.00  0.00     0.164 HD
HETATM   20  C   UNK     0      -6.585  -5.061  -4.287  0.00  0.00     0.029 A 
ENDBRANCH  13  14
BRANCH  11  21
HETATM   21  N   UNK     0      -2.777  -8.175  -7.736  0.00  0.00    -0.327 N 
HETATM   22  C   UNK     0      -3.403  -9.193  -8.400  0.00  0.00     0.223 C 
HETATM   23  O   UNK     0      -4.554  -9.072  -8.885  0.00  0.00    -0.273 OA
HETATM   24  H   UNK     0      -1.838  -8.317  -7.535  0.00  0.00     0.169 HD
BRANCH  22  25
HETATM   25  C   UNK     0      -2.701 -10.483  -8.575  0.00  0.00     0.118 C 
BRANCH  25  26
HETATM   26  C   UNK     0      -2.411 -11.156  -7.211  0.00  0.00     0.124 C 
HETATM   27 Cl   UNK     0      -3.832 -11.130  -6.173  0.00  0.00    -0.130 Cl
ENDBRANCH  25  26
ENDBRANCH  22  25
ENDBRANCH  11  21
TORSDOF 4
ENDMDL
MODEL 7
REMARK VINA RESULT:      -6.4     12.282     14.854
REMARK  4 active torsions:
REMARK  status: ('A' for Active; 'I' for Inactive)
REMARK    1  A    between atoms: C_11  and  N_14 
REMARK    2  A    between atoms: C_13  and  C_21 
REMARK       I    between atoms: N_14  and  C_15 
REMARK    3  A    between atoms: C_15  and  C_16 
REMARK    4  A    between atoms: C_16  and  C_17 
ROOT
HETATM    1  C   UNK     0       9.900  -0.538   0.125  0.00  0.00     0.008 A 
HETATM    2  C   UNK     0       9.589   0.192   1.291  0.00  0.00     0.001 A 
HETATM    3  C   UNK     0       8.659   1.253   1.243  0.00  0.00     0.001 A 
HETATM    4  C   UNK     0       8.040   1.603   0.027  0.00  0.00     0.013 A 
HETATM    5  C   UNK     0       8.364   0.870  -1.132  0.00  0.00    -0.019 A 
HETATM    6  C   UNK     0       9.277  -0.187  -1.088  0.00  0.00    -0.043 A 
HETATM    7  C   UNK     0       7.914   0.992  -2.442  0.00  0.00    -0.016 A 
HETATM    8  C   UNK     0       8.540   0.025  -3.237  0.00  0.00    -0.032 A 
HETATM    9  C   UNK     0       9.454  -0.803  -2.414  0.00  0.00     0.080 A 
HETATM   10  C   UNK     0       6.973   1.887  -2.980  0.00  0.00     0.042 A 
HETATM   11  C   UNK     0       6.647   1.813  -4.355  0.00  0.00     0.036 A 
HETATM   12  C   UNK     0       7.276   0.826  -5.155  0.00  0.00     0.042 A 
HETATM   13  C   UNK     0       8.237  -0.075  -4.621  0.00  0.00    -0.016 A 
ENDROOT
BRANCH  13  14
HETATM   14  C   UNK     0       8.854  -1.043  -5.460  0.00  0.00    -0.023 A 
HETATM   15  C   UNK     0       9.961  -0.703  -6.275  0.00  0.00     0.029 A 
HETATM   16  C   UNK     0      10.567  -1.687  -7.075  0.00  0.00     0.088 A 
HETATM   17  N   UNK     0      10.079  -2.953  -7.081  0.00  0.00    -0.375 N 
HETATM   18  C   UNK     0       9.005  -3.319  -6.334  0.00  0.00     0.088 A 
HETATM   19  HN  UNK     0      10.533  -3.654  -7.665  1.00  0.00     0.164 HD
HETATM   20  C   UNK     0       8.366  -2.372  -5.510  0.00  0.00     0.029 A 
ENDBRANCH  13  14
BRANCH  11  21
HETATM   21  N   UNK     0       5.702   2.614  -4.940  0.00  0.00    -0.327 N 
HETATM   22  C   UNK     0       5.865   3.855  -5.489  0.00  0.00     0.223 C 
HETATM   23  O   UNK     0       6.995   4.367  -5.671  0.00  0.00    -0.273 OA
HETATM   24  H   UNK     0       4.803   2.249  -4.982  0.00  0.00     0.169 HD
BRANCH  22  25
HETATM   25  C   UNK     0       4.672   4.627  -5.901  0.00  0.00     0.118 C 
BRANCH  25  26
HETATM   26  C   UNK     0       3.549   3.696  -6.419  0.00  0.00     0.124 C 
HETATM   27 Cl   UNK     0       2.037   3.985  -5.564  0.00  0.00    -0.130 Cl
ENDBRANCH  25  26
ENDBRANCH  22  25
ENDBRANCH  11  21
TORSDOF 4
ENDMDL
MODEL 8
REMARK VINA RESULT:      -6.4     14.460     15.069
REMARK  4 active torsions:
REMARK  status: ('A' for Active; 'I' for Inactive)
REMARK    1  A    between atoms: C_11  and  N_14 
REMARK    2  A    between atoms: C_13  and  C_21 
REMARK       I    between atoms: N_14  and  C_15 
REMARK    3  A    between atoms: C_15  and  C_16 
REMARK    4  A    between atoms: C_16  and  C_17 
ROOT
HETATM    1  C   UNK     0      10.764  -2.394  -3.908  0.00  0.00     0.008 A 
HETATM    2  C   UNK     0      11.313  -3.678  -3.711  0.00  0.00     0.001 A 
HETATM    3  C   UNK     0      11.281  -4.281  -2.435  0.00  0.00     0.001 A 
HETATM    4  C   UNK     0      10.711  -3.600  -1.341  0.00  0.00     0.013 A 
HETATM    5  C   UNK     0      10.172  -2.316  -1.549  0.00  0.00    -0.019 A 
HETATM    6  C   UNK     0      10.193  -1.719  -2.812  0.00  0.00    -0.043 A 
HETATM    7  C   UNK     0       9.559  -1.432  -0.668  0.00  0.00    -0.016 A 
HETATM    8  C   UNK     0       9.194  -0.271  -1.360  0.00  0.00    -0.032 A 
HETATM    9  C   UNK     0       9.573  -0.383  -2.788  0.00  0.00     0.080 A 
HETATM   10  C   UNK     0       9.280  -1.589   0.700  0.00  0.00     0.042 A 
HETATM   11  C   UNK     0       8.616  -0.554   1.400  0.00  0.00     0.036 A 
HETATM   12  C   UNK     0       8.241   0.617   0.695  0.00  0.00     0.042 A 
HETATM   13  C   UNK     0       8.529   0.788  -0.686  0.00  0.00    -0.016 A 
ENDROOT
BRANCH  13  14
HETATM   14  C   UNK     0       8.144   1.983  -1.355  0.00  0.00    -0.023 A 
HETATM   15  C   UNK     0       8.518   3.253  -0.851  0.00  0.00     0.029 A 
HETATM   16  C   UNK     0       8.146   4.417  -1.546  0.00  0.00     0.088 A 
HETATM   17  N   UNK     0       7.415   4.323  -2.684  0.00  0.00    -0.375 N 
HETATM   18  C   UNK     0       7.013   3.128  -3.191  0.00  0.00     0.088 A 
HETATM   19  HN  UNK     0       7.157   5.178  -3.177  1.00  0.00     0.164 HD
HETATM   20  C   UNK     0       7.366   1.933  -2.536  0.00  0.00     0.029 A 
ENDBRANCH  13  14
BRANCH  11  21
HETATM   21  N   UNK     0       8.264  -0.655   2.721  0.00  0.00    -0.327 N 
HETATM   22  C   UNK     0       7.175  -1.280   3.262  0.00  0.00     0.223 C 
HETATM   23  O   UNK     0       6.413  -2.010   2.585  0.00  0.00    -0.273 OA
HETATM   24  H   UNK     0       8.871  -0.240   3.355  0.00  0.00     0.169 HD
BRANCH  22  25
HETATM   25  C   UNK     0       6.884  -1.108   4.702  0.00  0.00     0.118 C 
BRANCH  25  26
HETATM   26  C   UNK     0       7.133   0.350   5.159  0.00  0.00     0.124 C 
HETATM   27 Cl   UNK     0       5.998   1.459   4.396  0.00  0.00    -0.130 Cl
ENDBRANCH  25  26
ENDBRANCH  22  25
ENDBRANCH  11  21
TORSDOF 4
ENDMDL
MODEL 9
REMARK VINA RESULT:      -6.4     13.412     15.871
REMARK  4 active torsions:
REMARK  status: ('A' for Active; 'I' for Inactive)
REMARK    1  A    between atoms: C_11  and  N_14 
REMARK    2  A    between atoms: C_13  and  C_21 
REMARK       I    between atoms: N_14  and  C_15 
REMARK    3  A    between atoms: C_15  and  C_16 
REMARK    4  A    between atoms: C_16  and  C_17 
ROOT
HETATM    1  C   UNK     0       8.062   1.217   2.388  0.00  0.00     0.008 A 
HETATM    2  C   UNK     0       7.805  -0.024   3.006  0.00  0.00     0.001 A 
HETATM    3  C   UNK     0       7.755  -1.208   2.239  0.00  0.00     0.001 A 
HETATM    4  C   UNK     0       7.949  -1.161   0.844  0.00  0.00     0.013 A 
HETATM    5  C   UNK     0       8.198   0.086   0.238  0.00  0.00    -0.019 A 
HETATM    6  C   UNK     0       8.259   1.259   0.994  0.00  0.00    -0.043 A 
HETATM    7  C   UNK     0       8.423   0.422  -1.093  0.00  0.00    -0.016 A 
HETATM    8  C   UNK     0       8.619   1.805  -1.192  0.00  0.00    -0.032 A 
HETATM    9  C   UNK     0       8.533   2.433   0.148  0.00  0.00     0.080 A 
HETATM   10  C   UNK     0       8.488  -0.410  -2.223  0.00  0.00     0.042 A 
HETATM   11  C   UNK     0       8.756   0.155  -3.492  0.00  0.00     0.036 A 
HETATM   12  C   UNK     0       8.963   1.554  -3.587  0.00  0.00     0.042 A 
HETATM   13  C   UNK     0       8.889   2.405  -2.451  0.00  0.00    -0.016 A 
ENDROOT
BRANCH  13  14
HETATM   14  C   UNK     0       9.092   3.805  -2.591  0.00  0.00    -0.023 A 
HETATM   15  C   UNK     0      10.334   4.322  -3.033  0.00  0.00     0.029 A 
HETATM   16  C   UNK     0      10.499   5.709  -3.187  0.00  0.00     0.088 A 
HETATM   17  N   UNK     0       9.476   6.550  -2.892  0.00  0.00    -0.375 N 
HETATM   18  C   UNK     0       8.276   6.103  -2.442  0.00  0.00     0.088 A 
HETATM   19  HN  UNK     0       9.613   7.554  -3.013  1.00  0.00     0.164 HD
HETATM   20  C   UNK     0       8.058   4.721  -2.278  0.00  0.00     0.029 A 
ENDBRANCH  13  14
BRANCH  11  21
HETATM   21  N   UNK     0       8.887  -0.597  -4.630  0.00  0.00    -0.327 N 
HETATM   22  C   UNK     0       8.061  -0.639  -5.718  0.00  0.00     0.223 C 
HETATM   23  O   UNK     0       7.116   0.171  -5.877  0.00  0.00    -0.273 OA
HETATM   24  H   UNK     0       9.674  -1.165  -4.675  0.00  0.00     0.169 HD
BRANCH  22  25
HETATM   25  C   UNK     0       8.289  -1.663  -6.761  0.00  0.00     0.118 C 
BRANCH  25  26
HETATM   26  C   UNK     0       8.144  -3.094  -6.187  0.00  0.00     0.124 C 
HETATM   27 Cl   UNK     0       9.695  -3.926  -6.153  0.00  0.00    -0.130 Cl
ENDBRANCH  25  26
ENDBRANCH  22  25
ENDBRANCH  11  21
TORSDOF 4
ENDMDL
