MODEL 1
REMARK VINA RESULT:      -6.8      0.000      0.000
REMARK  2 active torsions:
REMARK  status: ('A' for Active; 'I' for Inactive)
REMARK    1  A    between atoms: C_10  and  C_17 
REMARK    2  A    between atoms: C_12  and  N_14 
ROOT
HETATM    1  C   UNK     0     -10.571   1.375  -6.577  0.00  0.00     0.013 A 
HETATM    2  C   UNK     0     -11.943   1.565  -6.844  0.00  0.00     0.001 A 
HETATM    3  C   UNK     0     -12.608   2.723  -6.385  0.00  0.00     0.001 A 
HETATM    4  C   UNK     0     -11.912   3.702  -5.647  0.00  0.00     0.008 A 
HETATM    5  C   UNK     0     -10.542   3.504  -5.384  0.00  0.00    -0.043 A 
HETATM    6  C   UNK     0      -9.883   2.358  -5.842  0.00  0.00    -0.019 A 
HETATM    7  C   UNK     0      -9.631   4.388  -4.646  0.00  0.00     0.080 A 
HETATM    8  C   UNK     0      -8.363   3.632  -4.738  0.00  0.00    -0.032 A 
HETATM    9  C   UNK     0      -8.554   2.428  -5.431  0.00  0.00    -0.016 A 
HETATM   10  C   UNK     0      -7.094   3.968  -4.202  0.00  0.00    -0.016 A 
HETATM   11  C   UNK     0      -6.043   3.026  -4.348  0.00  0.00     0.042 A 
HETATM   12  C   UNK     0      -6.248   1.798  -5.018  0.00  0.00     0.027 A 
HETATM   13  C   UNK     0      -7.506   1.501  -5.584  0.00  0.00     0.042 A 
ENDROOT
BRANCH  10  14
HETATM   14  C   UNK     0      -6.876   5.188  -3.503  0.00  0.00    -0.023 A 
HETATM   15  C   UNK     0      -6.163   6.245  -4.110  0.00  0.00     0.029 A 
HETATM   16  C   UNK     0      -5.916   7.428  -3.390  0.00  0.00     0.090 A 
HETATM   17  N   UNK     0      -6.356   7.578  -2.102  0.00  0.00    -0.371 N 
HETATM   18  C   UNK     0      -7.065   6.572  -1.501  0.00  0.00     0.090 A 
HETATM   19  C   UNK     0      -6.100   8.807  -1.391  0.00  0.00     0.154 C 
HETATM   20  C   UNK     0      -7.347   5.375  -2.185  0.00  0.00     0.029 A 
ENDBRANCH  10  14
BRANCH  12  21
HETATM   21  N   UNK     0      -5.248   0.897  -5.099  0.00  0.00    -0.399 N 
HETATM   22  H   UNK     0      -5.441  -0.053  -5.030  0.00  0.00     0.156 HD
HETATM   23  H   UNK     0      -4.334   1.194  -5.233  0.00  0.00     0.156 HD
ENDBRANCH  12  21
TORSDOF 2
ENDMDL
MODEL 2
REMARK VINA RESULT:      -6.7      3.472      4.899
REMARK  2 active torsions:
REMARK  status: ('A' for Active; 'I' for Inactive)
REMARK    1  A    between atoms: C_10  and  C_17 
REMARK    2  A    between atoms: C_12  and  N_14 
ROOT
HETATM    1  C   UNK     0      -6.818   2.546  -4.225  0.00  0.00     0.013 A 
HETATM    2  C   UNK     0      -6.219   1.864  -5.306  0.00  0.00     0.001 A 
HETATM    3  C   UNK     0      -5.399   2.557  -6.223  0.00  0.00     0.001 A 
HETATM    4  C   UNK     0      -5.172   3.941  -6.076  0.00  0.00     0.008 A 
HETATM    5  C   UNK     0      -5.774   4.614  -4.996  0.00  0.00    -0.043 A 
HETATM    6  C   UNK     0      -6.584   3.927  -4.085  0.00  0.00    -0.019 A 
HETATM    7  C   UNK     0      -5.671   6.038  -4.653  0.00  0.00     0.080 A 
HETATM    8  C   UNK     0      -6.503   6.099  -3.431  0.00  0.00    -0.032 A 
HETATM    9  C   UNK     0      -7.045   4.839  -3.138  0.00  0.00    -0.016 A 
HETATM   10  C   UNK     0      -6.805   7.225  -2.624  0.00  0.00    -0.016 A 
HETATM   11  C   UNK     0      -7.709   7.043  -1.546  0.00  0.00     0.042 A 
HETATM   12  C   UNK     0      -8.280   5.778  -1.274  0.00  0.00     0.027 A 
HETATM   13  C   UNK     0      -7.931   4.660  -2.060  0.00  0.00     0.042 A 
ENDROOT
BRANCH  10  14
HETATM   14  C   UNK     0      -6.260   8.510  -2.898  0.00  0.00    -0.023 A 
HETATM   15  C   UNK     0      -6.958   9.424  -3.717  0.00  0.00     0.029 A 
HETATM   16  C   UNK     0      -6.386  10.675  -4.017  0.00  0.00     0.090 A 
HETATM   17  N   UNK     0      -5.157  11.028  -3.525  0.00  0.00    -0.371 N 
HETATM   18  C   UNK     0      -4.473  10.163  -2.713  0.00  0.00     0.090 A 
HETATM   19  C   UNK     0      -4.600  12.321  -3.837  0.00  0.00     0.154 C 
HETATM   20  C   UNK     0      -5.009   8.906  -2.377  0.00  0.00     0.029 A 
ENDBRANCH  10  14
BRANCH  12  21
HETATM   21  N   UNK     0      -9.176   5.642  -0.275  0.00  0.00    -0.399 N 
HETATM   22  H   UNK     0      -9.474   6.421   0.222  0.00  0.00     0.156 HD
HETATM   23  H   UNK     0      -9.531   4.766  -0.055  0.00  0.00     0.156 HD
ENDBRANCH  12  21
TORSDOF 2
ENDMDL
MODEL 3
REMARK VINA RESULT:      -6.7      2.045      5.997
REMARK  2 active torsions:
REMARK  status: ('A' for Active; 'I' for Inactive)
REMARK    1  A    between atoms: C_10  and  C_17 
REMARK    2  A    between atoms: C_12  and  N_14 
ROOT
HETATM    1  C   UNK     0      -5.439   6.975  -3.677  0.00  0.00     0.013 A 
HETATM    2  C   UNK     0      -5.740   8.220  -3.086  0.00  0.00     0.001 A 
HETATM    3  C   UNK     0      -7.070   8.547  -2.742  0.00  0.00     0.001 A 
HETATM    4  C   UNK     0      -8.118   7.636  -2.991  0.00  0.00     0.008 A 
HETATM    5  C   UNK     0      -7.809   6.396  -3.583  0.00  0.00    -0.043 A 
HETATM    6  C   UNK     0      -6.491   6.071  -3.920  0.00  0.00    -0.019 A 
HETATM    7  C   UNK     0      -8.733   5.307  -3.923  0.00  0.00     0.080 A 
HETATM    8  C   UNK     0      -7.800   4.306  -4.486  0.00  0.00    -0.032 A 
HETATM    9  C   UNK     0      -6.488   4.800  -4.490  0.00  0.00    -0.016 A 
HETATM   10  C   UNK     0      -8.095   3.022  -5.010  0.00  0.00    -0.016 A 
HETATM   11  C   UNK     0      -7.029   2.280  -5.581  0.00  0.00     0.042 A 
HETATM   12  C   UNK     0      -5.713   2.795  -5.614  0.00  0.00     0.027 A 
HETATM   13  C   UNK     0      -5.431   4.056  -5.046  0.00  0.00     0.042 A 
ENDROOT
BRANCH  10  14
HETATM   14  C   UNK     0      -9.418   2.498  -5.009  0.00  0.00    -0.023 A 
HETATM   15  C   UNK     0     -10.129   2.346  -6.220  0.00  0.00     0.029 A 
HETATM   16  C   UNK     0     -11.453   1.869  -6.199  0.00  0.00     0.090 A 
HETATM   17  N   UNK     0     -12.071   1.546  -5.021  0.00  0.00    -0.371 N 
HETATM   18  C   UNK     0     -11.392   1.669  -3.838  0.00  0.00     0.090 A 
HETATM   19  C   UNK     0     -13.425   1.047  -5.029  0.00  0.00     0.154 C 
HETATM   20  C   UNK     0     -10.063   2.130  -3.808  0.00  0.00     0.029 A 
ENDBRANCH  10  14
BRANCH  12  21
HETATM   21  N   UNK     0      -4.726   2.093  -6.207  0.00  0.00    -0.399 N 
HETATM   22  H   UNK     0      -3.829   2.460  -6.258  0.00  0.00     0.156 HD
HETATM   23  H   UNK     0      -4.909   1.215  -6.579  0.00  0.00     0.156 HD
ENDBRANCH  12  21
TORSDOF 2
ENDMDL
MODEL 4
REMARK VINA RESULT:      -6.7     18.798     20.867
REMARK  2 active torsions:
REMARK  status: ('A' for Active; 'I' for Inactive)
REMARK    1  A    between atoms: C_10  and  C_17 
REMARK    2  A    between atoms: C_12  and  N_14 
ROOT
HETATM    1  C   UNK     0      10.981   6.969   3.584  0.00  0.00     0.013 A 
HETATM    2  C   UNK     0      10.346   7.805   2.641  0.00  0.00     0.001 A 
HETATM    3  C   UNK     0       8.937   7.833   2.542  0.00  0.00     0.001 A 
HETATM    4  C   UNK     0       8.146   7.020   3.380  0.00  0.00     0.008 A 
HETATM    5  C   UNK     0       8.787   6.188   4.318  0.00  0.00    -0.043 A 
HETATM    6  C   UNK     0      10.182   6.163   4.418  0.00  0.00    -0.019 A 
HETATM    7  C   UNK     0       8.165   5.274   5.283  0.00  0.00     0.080 A 
HETATM    8  C   UNK     0       9.356   4.723   5.965  0.00  0.00    -0.032 A 
HETATM    9  C   UNK     0      10.531   5.252   5.413  0.00  0.00    -0.016 A 
HETATM   10  C   UNK     0       9.412   3.763   7.008  0.00  0.00    -0.016 A 
HETATM   11  C   UNK     0      10.692   3.324   7.435  0.00  0.00     0.042 A 
HETATM   12  C   UNK     0      11.874   3.836   6.853  0.00  0.00     0.027 A 
HETATM   13  C   UNK     0      11.799   4.824   5.849  0.00  0.00     0.042 A 
ENDROOT
BRANCH  10  14
HETATM   14  C   UNK     0       8.233   3.218   7.587  0.00  0.00    -0.023 A 
HETATM   15  C   UNK     0       7.706   1.993   7.122  0.00  0.00     0.029 A 
HETATM   16  C   UNK     0       6.514   1.488   7.674  0.00  0.00     0.090 A 
HETATM   17  N   UNK     0       5.849   2.165   8.662  0.00  0.00    -0.371 N 
HETATM   18  C   UNK     0       6.354   3.345   9.140  0.00  0.00     0.090 A 
HETATM   19  C   UNK     0       4.636   1.619   9.219  0.00  0.00     0.154 C 
HETATM   20  C   UNK     0       7.548   3.884   8.628  0.00  0.00     0.029 A 
ENDBRANCH  10  14
BRANCH  12  21
HETATM   21  N   UNK     0      13.077   3.366   7.241  0.00  0.00    -0.399 N 
HETATM   22  H   UNK     0      13.880   3.626   6.760  0.00  0.00     0.156 HD
HETATM   23  H   UNK     0      13.145   2.773   8.006  0.00  0.00     0.156 HD
ENDBRANCH  12  21
TORSDOF 2
ENDMDL
MODEL 5
REMARK VINA RESULT:      -6.6      3.138      5.222
REMARK  2 active torsions:
REMARK  status: ('A' for Active; 'I' for Inactive)
REMARK    1  A    between atoms: C_10  and  C_17 
REMARK    2  A    between atoms: C_12  and  N_14 
ROOT
HETATM    1  C   UNK     0      -7.673   3.021  -3.563  0.00  0.00     0.013 A 
HETATM    2  C   UNK     0      -7.578   1.930  -4.451  0.00  0.00     0.001 A 
HETATM    3  C   UNK     0      -6.750   2.006  -5.593  0.00  0.00     0.001 A 
HETATM    4  C   UNK     0      -6.012   3.177  -5.864  0.00  0.00     0.008 A 
HETATM    5  C   UNK     0      -6.114   4.263  -4.972  0.00  0.00    -0.043 A 
HETATM    6  C   UNK     0      -6.932   4.185  -3.840  0.00  0.00    -0.019 A 
HETATM    7  C   UNK     0      -5.438   5.563  -5.057  0.00  0.00     0.080 A 
HETATM    8  C   UNK     0      -5.946   6.230  -3.838  0.00  0.00    -0.032 A 
HETATM    9  C   UNK     0      -6.843   5.396  -3.155  0.00  0.00    -0.016 A 
HETATM   10  C   UNK     0      -5.661   7.535  -3.361  0.00  0.00    -0.016 A 
HETATM   11  C   UNK     0      -6.350   7.981  -2.204  0.00  0.00     0.042 A 
HETATM   12  C   UNK     0      -7.279   7.150  -1.538  0.00  0.00     0.027 A 
HETATM   13  C   UNK     0      -7.515   5.838  -2.001  0.00  0.00     0.042 A 
ENDROOT
BRANCH  10  14
HETATM   14  C   UNK     0      -4.748   8.394  -4.033  0.00  0.00    -0.023 A 
HETATM   15  C   UNK     0      -5.219   9.502  -4.772  0.00  0.00     0.029 A 
HETATM   16  C   UNK     0      -4.308  10.318  -5.469  0.00  0.00     0.090 A 
HETATM   17  N   UNK     0      -2.963  10.058  -5.444  0.00  0.00    -0.371 N 
HETATM   18  C   UNK     0      -2.485   9.000  -4.718  0.00  0.00     0.090 A 
HETATM   19  C   UNK     0      -2.050  10.917  -6.157  0.00  0.00     0.154 C 
HETATM   20  C   UNK     0      -3.355   8.163  -3.996  0.00  0.00     0.029 A 
ENDBRANCH  10  14
BRANCH  12  21
HETATM   21  N   UNK     0      -7.959   7.616  -0.470  0.00  0.00    -0.399 N 
HETATM   22  H   UNK     0      -8.813   7.221  -0.226  0.00  0.00     0.156 HD
HETATM   23  H   UNK     0      -7.594   8.341   0.061  0.00  0.00     0.156 HD
ENDBRANCH  12  21
TORSDOF 2
ENDMDL
MODEL 6
REMARK VINA RESULT:      -6.6      3.303      5.139
REMARK  2 active torsions:
REMARK  status: ('A' for Active; 'I' for Inactive)
REMARK    1  A    between atoms: C_10  and  C_17 
REMARK    2  A    between atoms: C_12  and  N_14 
ROOT
HETATM    1  C   UNK     0      -5.098   3.882  -5.625  0.00  0.00     0.013 A 
HETATM    2  C   UNK     0      -5.156   2.507  -5.933  0.00  0.00     0.001 A 
HETATM    3  C   UNK     0      -6.130   1.679  -5.332  0.00  0.00     0.001 A 
HETATM    4  C   UNK     0      -7.053   2.215  -4.410  0.00  0.00     0.008 A 
HETATM    5  C   UNK     0      -6.987   3.589  -4.107  0.00  0.00    -0.043 A 
HETATM    6  C   UNK     0      -6.024   4.409  -4.705  0.00  0.00    -0.019 A 
HETATM    7  C   UNK     0      -7.843   4.349  -3.188  0.00  0.00     0.080 A 
HETATM    8  C   UNK     0      -7.277   5.709  -3.330  0.00  0.00    -0.032 A 
HETATM    9  C   UNK     0      -6.190   5.703  -4.215  0.00  0.00    -0.016 A 
HETATM   10  C   UNK     0      -7.676   6.903  -2.678  0.00  0.00    -0.016 A 
HETATM   11  C   UNK     0      -6.910   8.073  -2.914  0.00  0.00     0.042 A 
HETATM   12  C   UNK     0      -5.794   8.056  -3.782  0.00  0.00     0.027 A 
HETATM   13  C   UNK     0      -5.440   6.868  -4.457  0.00  0.00     0.042 A 
ENDROOT
BRANCH  10  14
HETATM   14  C   UNK     0      -8.781   6.934  -1.782  0.00  0.00    -0.023 A 
HETATM   15  C   UNK     0     -10.080   7.219  -2.256  0.00  0.00     0.029 A 
HETATM   16  C   UNK     0     -11.156   7.291  -1.351  0.00  0.00     0.090 A 
HETATM   17  N   UNK     0     -10.968   7.088  -0.010  0.00  0.00    -0.371 N 
HETATM   18  C   UNK     0      -9.718   6.792   0.468  0.00  0.00     0.090 A 
HETATM   19  C   UNK     0     -12.089   7.155   0.895  0.00  0.00     0.154 C 
HETATM   20  C   UNK     0      -8.614   6.698  -0.399  0.00  0.00     0.029 A 
ENDBRANCH  10  14
BRANCH  12  21
HETATM   21  N   UNK     0      -5.051   9.169  -3.950  0.00  0.00    -0.399 N 
HETATM   22  H   UNK     0      -4.527   9.521  -3.212  0.00  0.00     0.156 HD
HETATM   23  H   UNK     0      -5.032   9.616  -4.811  0.00  0.00     0.156 HD
ENDBRANCH  12  21
TORSDOF 2
ENDMDL
MODEL 7
REMARK VINA RESULT:      -6.6      2.961      4.444
REMARK  2 active torsions:
REMARK  status: ('A' for Active; 'I' for Inactive)
REMARK    1  A    between atoms: C_10  and  C_17 
REMARK    2  A    between atoms: C_12  and  N_14 
ROOT
HETATM    1  C   UNK     0      -6.237   3.148  -5.555  0.00  0.00     0.013 A 
HETATM    2  C   UNK     0      -6.863   1.884  -5.566  0.00  0.00     0.001 A 
HETATM    3  C   UNK     0      -7.835   1.557  -4.595  0.00  0.00     0.001 A 
HETATM    4  C   UNK     0      -8.188   2.488  -3.596  0.00  0.00     0.008 A 
HETATM    5  C   UNK     0      -7.558   3.748  -3.592  0.00  0.00    -0.043 A 
HETATM    6  C   UNK     0      -6.598   4.072  -4.556  0.00  0.00    -0.019 A 
HETATM    7  C   UNK     0      -7.775   4.858  -2.657  0.00  0.00     0.080 A 
HETATM    8  C   UNK     0      -6.841   5.872  -3.195  0.00  0.00    -0.032 A 
HETATM    9  C   UNK     0      -6.145   5.365  -4.302  0.00  0.00    -0.016 A 
HETATM   10  C   UNK     0      -6.581   7.179  -2.710  0.00  0.00    -0.016 A 
HETATM   11  C   UNK     0      -5.563   7.932  -3.351  0.00  0.00     0.042 A 
HETATM   12  C   UNK     0      -4.841   7.405  -4.446  0.00  0.00     0.027 A 
HETATM   13  C   UNK     0      -5.146   6.120  -4.943  0.00  0.00     0.042 A 
ENDROOT
BRANCH  10  14
HETATM   14  C   UNK     0      -7.280   7.716  -1.593  0.00  0.00    -0.023 A 
HETATM   15  C   UNK     0      -6.707   7.676  -0.303  0.00  0.00     0.029 A 
HETATM   16  C   UNK     0      -7.429   8.170   0.800  0.00  0.00     0.090 A 
HETATM   17  N   UNK     0      -8.685   8.694   0.646  0.00  0.00    -0.371 N 
HETATM   18  C   UNK     0      -9.250   8.759  -0.600  0.00  0.00     0.090 A 
HETATM   19  C   UNK     0      -9.398   9.205   1.791  0.00  0.00     0.154 C 
HETATM   20  C   UNK     0      -8.563   8.288  -1.734  0.00  0.00     0.029 A 
ENDBRANCH  10  14
BRANCH  12  21
HETATM   21  N   UNK     0      -3.844   8.120  -5.006  0.00  0.00    -0.399 N 
HETATM   22  H   UNK     0      -3.881   9.091  -5.004  0.00  0.00     0.156 HD
HETATM   23  H   UNK     0      -3.085   7.668  -5.405  0.00  0.00     0.156 HD
ENDBRANCH  12  21
TORSDOF 2
ENDMDL
MODEL 8
REMARK VINA RESULT:      -6.5     18.910     20.949
REMARK  2 active torsions:
REMARK  status: ('A' for Active; 'I' for Inactive)
REMARK    1  A    between atoms: C_10  and  C_17 
REMARK    2  A    between atoms: C_12  and  N_14 
ROOT
HETATM    1  C   UNK     0      11.035   6.665   4.167  0.00  0.00     0.013 A 
HETATM    2  C   UNK     0      10.490   7.562   3.224  0.00  0.00     0.001 A 
HETATM    3  C   UNK     0       9.092   7.651   3.044  0.00  0.00     0.001 A 
HETATM    4  C   UNK     0       8.221   6.838   3.799  0.00  0.00     0.008 A 
HETATM    5  C   UNK     0       8.773   5.944   4.737  0.00  0.00    -0.043 A 
HETATM    6  C   UNK     0      10.158   5.859   4.918  0.00  0.00    -0.019 A 
HETATM    7  C   UNK     0       8.059   5.018   5.624  0.00  0.00     0.080 A 
HETATM    8  C   UNK     0       9.186   4.393   6.351  0.00  0.00    -0.032 A 
HETATM    9  C   UNK     0      10.411   4.896   5.893  0.00  0.00    -0.016 A 
HETATM   10  C   UNK     0       9.142   3.391   7.354  0.00  0.00    -0.016 A 
HETATM   11  C   UNK     0      10.376   2.885   7.837  0.00  0.00     0.042 A 
HETATM   12  C   UNK     0      11.610   3.371   7.348  0.00  0.00     0.027 A 
HETATM   13  C   UNK     0      11.633   4.401   6.384  0.00  0.00     0.042 A 
ENDROOT
BRANCH  10  14
HETATM   14  C   UNK     0       7.910   2.871   7.840  0.00  0.00    -0.023 A 
HETATM   15  C   UNK     0       7.119   3.622   8.736  0.00  0.00     0.029 A 
HETATM   16  C   UNK     0       5.925   3.076   9.244  0.00  0.00     0.090 A 
HETATM   17  N   UNK     0       5.510   1.822   8.883  0.00  0.00    -0.371 N 
HETATM   18  C   UNK     0       6.254   1.085   8.000  0.00  0.00     0.090 A 
HETATM   19  C   UNK     0       4.276   1.291   9.408  0.00  0.00     0.154 C 
HETATM   20  C   UNK     0       7.449   1.592   7.457  0.00  0.00     0.029 A 
ENDBRANCH  10  14
BRANCH  12  21
HETATM   21  N   UNK     0      12.768   2.838   7.787  0.00  0.00    -0.399 N 
HETATM   22  H   UNK     0      13.360   2.382   7.166  0.00  0.00     0.156 HD
HETATM   23  H   UNK     0      13.018   2.916   8.721  0.00  0.00     0.156 HD
ENDBRANCH  12  21
TORSDOF 2
ENDMDL
MODEL 9
REMARK VINA RESULT:      -6.4     19.101     21.802
REMARK  2 active torsions:
REMARK  status: ('A' for Active; 'I' for Inactive)
REMARK    1  A    between atoms: C_10  and  C_17 
REMARK    2  A    between atoms: C_12  and  N_14 
ROOT
HETATM    1  C   UNK     0       9.707   4.165  11.289  0.00  0.00     0.013 A 
HETATM    2  C   UNK     0      10.295   5.048  12.220  0.00  0.00     0.001 A 
HETATM    3  C   UNK     0      10.791   6.303  11.802  0.00  0.00     0.001 A 
HETATM    4  C   UNK     0      10.713   6.687  10.447  0.00  0.00     0.008 A 
HETATM    5  C   UNK     0      10.125   5.799   9.524  0.00  0.00    -0.043 A 
HETATM    6  C   UNK     0       9.631   4.558   9.940  0.00  0.00    -0.019 A 
HETATM    7  C   UNK     0       9.938   5.996   8.082  0.00  0.00     0.080 A 
HETATM    8  C   UNK     0       9.266   4.732   7.706  0.00  0.00    -0.032 A 
HETATM    9  C   UNK     0       9.122   3.897   8.824  0.00  0.00    -0.016 A 
HETATM   10  C   UNK     0       8.829   4.312   6.424  0.00  0.00    -0.016 A 
HETATM   11  C   UNK     0       8.289   3.005   6.306  0.00  0.00     0.042 A 
HETATM   12  C   UNK     0       8.177   2.153   7.428  0.00  0.00     0.027 A 
HETATM   13  C   UNK     0       8.575   2.607   8.704  0.00  0.00     0.042 A 
ENDROOT
BRANCH  10  14
HETATM   14  C   UNK     0       8.958   5.145   5.279  0.00  0.00    -0.023 A 
HETATM   15  C   UNK     0       9.989   4.918   4.341  0.00  0.00     0.029 A 
HETATM   16  C   UNK     0      10.132   5.778   3.236  0.00  0.00     0.090 A 
HETATM   17  N   UNK     0       9.286   6.839   3.049  0.00  0.00    -0.371 N 
HETATM   18  C   UNK     0       8.268   7.064   3.938  0.00  0.00     0.090 A 
HETATM   19  C   UNK     0       9.447   7.697   1.902  0.00  0.00     0.154 C 
HETATM   20  C   UNK     0       8.077   6.226   5.051  0.00  0.00     0.029 A 
ENDBRANCH  10  14
BRANCH  12  21
HETATM   21  N   UNK     0       7.708   0.897   7.280  0.00  0.00    -0.399 N 
HETATM   22  H   UNK     0       7.377   0.406   8.050  0.00  0.00     0.156 HD
HETATM   23  H   UNK     0       7.692   0.483   6.403  0.00  0.00     0.156 HD
ENDBRANCH  12  21
TORSDOF 2
ENDMDL
