MODEL 1
REMARK VINA RESULT:      -7.1      0.000      0.000
REMARK  4 active torsions:
REMARK  status: ('A' for Active; 'I' for Inactive)
REMARK    1  A    between atoms: C_11  and  N_14 
REMARK    2  A    between atoms: C_13  and  C_21 
REMARK       I    between atoms: N_14  and  C_15 
REMARK    3  A    between atoms: C_15  and  C_16 
REMARK    4  A    between atoms: C_16  and  C_17 
ROOT
HETATM    1  C   UNK     0      -6.778   9.720   0.335  0.00  0.00     0.016 A 
HETATM    2  C   UNK     0      -7.846   9.313   1.162  0.00  0.00     0.001 A 
HETATM    3  C   UNK     0      -8.585   8.148   0.858  0.00  0.00     0.001 A 
HETATM    4  C   UNK     0      -8.261   7.367  -0.272  0.00  0.00     0.013 A 
HETATM    5  C   UNK     0      -7.184   7.776  -1.083  0.00  0.00    -0.011 A 
HETATM    6  C   UNK     0      -6.462   8.935  -0.791  0.00  0.00     0.026 A 
HETATM    7  C   UNK     0      -6.630   7.216  -2.236  0.00  0.00    -0.008 A 
HETATM    8  C   UNK     0      -5.595   8.046  -2.684  0.00  0.00     0.037 A 
HETATM    9  C   UNK     0      -5.477   9.106  -1.765  0.00  0.00     0.195 A 
HETATM   10  C   UNK     0      -6.957   6.027  -2.904  0.00  0.00     0.043 A 
HETATM   11  C   UNK     0      -6.242   5.667  -4.072  0.00  0.00     0.036 A 
HETATM   12  C   UNK     0      -5.213   6.525  -4.531  0.00  0.00     0.043 A 
HETATM   13  C   UNK     0      -4.872   7.731  -3.861  0.00  0.00    -0.009 A 
HETATM   14  O   UNK     0      -4.638  10.035  -1.775  0.00  0.00    -0.287 OA
ENDROOT
BRANCH  13  15
HETATM   15  C   UNK     0      -3.852   8.574  -4.385  0.00  0.00    -0.022 A 
HETATM   16  C   UNK     0      -4.170   9.650  -5.249  0.00  0.00     0.029 A 
HETATM   17  C   UNK     0      -3.139  10.458  -5.761  0.00  0.00     0.088 A 
HETATM   18  N   UNK     0      -1.848  10.195  -5.433  0.00  0.00    -0.375 N 
HETATM   19  C   UNK     0      -1.499   9.173  -4.611  0.00  0.00     0.088 A 
HETATM   20  HN  UNK     0      -1.113  10.787  -5.819  1.00  0.00     0.164 HD
HETATM   21  C   UNK     0      -2.494   8.342  -4.064  0.00  0.00     0.029 A 
ENDBRANCH  13  15
BRANCH  11  22
HETATM   22  N   UNK     0      -6.468   4.516  -4.777  0.00  0.00    -0.327 N 
HETATM   23  C   UNK     0      -5.842   3.308  -4.642  0.00  0.00     0.223 C 
HETATM   24  O   UNK     0      -4.996   3.084  -3.744  0.00  0.00    -0.273 OA
HETATM   25  H   UNK     0      -7.177   4.557  -5.439  0.00  0.00     0.169 HD
BRANCH  23  26
HETATM   26  C   UNK     0      -6.192   2.198  -5.553  0.00  0.00     0.118 C 
BRANCH  26  27
HETATM   27  C   UNK     0      -7.690   1.820  -5.462  0.00  0.00     0.124 C 
HETATM   28 Cl   UNK     0      -8.214   1.701  -3.785  0.00  0.00    -0.130 Cl
ENDBRANCH  26  27
ENDBRANCH  23  26
ENDBRANCH  11  22
TORSDOF 4
ENDMDL
MODEL 2
REMARK VINA RESULT:      -7.0     17.405     19.060
REMARK  4 active torsions:
REMARK  status: ('A' for Active; 'I' for Inactive)
REMARK    1  A    between atoms: C_11  and  N_14 
REMARK    2  A    between atoms: C_13  and  C_21 
REMARK       I    between atoms: N_14  and  C_15 
REMARK    3  A    between atoms: C_15  and  C_16 
REMARK    4  A    between atoms: C_16  and  C_17 
ROOT
HETATM    1  C   UNK     0      10.746   6.698   4.063  0.00  0.00     0.016 A 
HETATM    2  C   UNK     0       9.789   7.536   3.452  0.00  0.00     0.001 A 
HETATM    3  C   UNK     0       8.420   7.424   3.784  0.00  0.00     0.001 A 
HETATM    4  C   UNK     0       7.989   6.478   4.739  0.00  0.00     0.013 A 
HETATM    5  C   UNK     0       8.955   5.656   5.352  0.00  0.00    -0.011 A 
HETATM    6  C   UNK     0      10.306   5.757   5.014  0.00  0.00     0.026 A 
HETATM    7  C   UNK     0       8.839   4.657   6.321  0.00  0.00    -0.008 A 
HETATM    8  C   UNK     0      10.106   4.109   6.553  0.00  0.00     0.037 A 
HETATM    9  C   UNK     0      11.024   4.816   5.754  0.00  0.00     0.195 A 
HETATM   10  C   UNK     0       7.708   4.211   7.021  0.00  0.00     0.043 A 
HETATM   11  C   UNK     0       7.843   3.167   7.967  0.00  0.00     0.036 A 
HETATM   12  C   UNK     0       9.126   2.603   8.179  0.00  0.00     0.043 A 
HETATM   13  C   UNK     0      10.278   3.048   7.477  0.00  0.00    -0.009 A 
HETATM   14  O   UNK     0      12.267   4.670   5.708  0.00  0.00    -0.287 OA
ENDROOT
BRANCH  13  15
HETATM   15  C   UNK     0      11.537   2.424   7.702  0.00  0.00    -0.022 A 
HETATM   16  C   UNK     0      11.952   1.319   6.920  0.00  0.00     0.029 A 
HETATM   17  C   UNK     0      13.196   0.714   7.176  0.00  0.00     0.088 A 
HETATM   18  N   UNK     0      13.983   1.185   8.176  0.00  0.00    -0.375 N 
HETATM   19  C   UNK     0      13.623   2.239   8.952  0.00  0.00     0.088 A 
HETATM   20  HN  UNK     0      14.879   0.730   8.352  1.00  0.00     0.164 HD
HETATM   21  C   UNK     0      12.393   2.885   8.730  0.00  0.00     0.029 A 
ENDBRANCH  13  15
BRANCH  11  22
HETATM   22  N   UNK     0       6.807   2.682   8.718  0.00  0.00    -0.327 N 
HETATM   23  C   UNK     0       5.645   2.109   8.280  0.00  0.00     0.223 C 
HETATM   24  O   UNK     0       5.423   1.876   7.069  0.00  0.00    -0.273 OA
HETATM   25  H   UNK     0       6.922   2.730   9.680  0.00  0.00     0.169 HD
BRANCH  23  26
HETATM   26  C   UNK     0       4.615   1.706   9.261  0.00  0.00     0.118 C 
BRANCH  26  27
HETATM   27  C   UNK     0       4.890   0.301   9.849  0.00  0.00     0.124 C 
HETATM   28 Cl   UNK     0       3.517  -0.772   9.598  0.00  0.00    -0.130 Cl
ENDBRANCH  26  27
ENDBRANCH  23  26
ENDBRANCH  11  22
TORSDOF 4
ENDMDL
MODEL 3
REMARK VINA RESULT:      -6.9      2.794      5.949
REMARK  4 active torsions:
REMARK  status: ('A' for Active; 'I' for Inactive)
REMARK    1  A    between atoms: C_11  and  N_14 
REMARK    2  A    between atoms: C_13  and  C_21 
REMARK       I    between atoms: N_14  and  C_15 
REMARK    3  A    between atoms: C_15  and  C_16 
REMARK    4  A    between atoms: C_16  and  C_17 
ROOT
HETATM    1  C   UNK     0      -9.302   6.147  -0.188  0.00  0.00     0.016 A 
HETATM    2  C   UNK     0      -9.403   7.263   0.671  0.00  0.00     0.001 A 
HETATM    3  C   UNK     0      -8.579   8.394   0.476  0.00  0.00     0.001 A 
HETATM    4  C   UNK     0      -7.649   8.431  -0.585  0.00  0.00     0.013 A 
HETATM    5  C   UNK     0      -7.567   7.317  -1.444  0.00  0.00    -0.011 A 
HETATM    6  C   UNK     0      -8.371   6.192  -1.243  0.00  0.00     0.026 A 
HETATM    7  C   UNK     0      -6.770   7.068  -2.562  0.00  0.00    -0.008 A 
HETATM    8  C   UNK     0      -7.045   5.778  -3.031  0.00  0.00     0.037 A 
HETATM    9  C   UNK     0      -8.064   5.244  -2.220  0.00  0.00     0.195 A 
HETATM   10  C   UNK     0      -5.838   7.898  -3.205  0.00  0.00     0.043 A 
HETATM   11  C   UNK     0      -5.142   7.414  -4.338  0.00  0.00     0.036 A 
HETATM   12  C   UNK     0      -5.411   6.098  -4.791  0.00  0.00     0.043 A 
HETATM   13  C   UNK     0      -6.353   5.250  -4.150  0.00  0.00    -0.009 A 
HETATM   14  O   UNK     0      -8.631   4.134  -2.338  0.00  0.00    -0.287 OA
ENDROOT
BRANCH  13  15
HETATM   15  C   UNK     0      -6.560   3.925  -4.625  0.00  0.00    -0.022 A 
HETATM   16  C   UNK     0      -7.771   3.560  -5.261  0.00  0.00     0.029 A 
HETATM   17  C   UNK     0      -7.951   2.239  -5.708  0.00  0.00     0.088 A 
HETATM   18  N   UNK     0      -6.969   1.321  -5.516  0.00  0.00    -0.375 N 
HETATM   19  C   UNK     0      -5.795   1.627  -4.909  0.00  0.00     0.088 A 
HETATM   20  HN  UNK     0      -7.120   0.366  -5.841  1.00  0.00     0.164 HD
HETATM   21  C   UNK     0      -5.561   2.937  -4.453  0.00  0.00     0.029 A 
ENDBRANCH  13  15
BRANCH  11  22
HETATM   22  N   UNK     0      -4.236   8.155  -5.048  0.00  0.00    -0.327 N 
HETATM   23  C   UNK     0      -2.953   8.475  -4.700  0.00  0.00     0.223 C 
HETATM   24  O   UNK     0      -2.403   8.029  -3.666  0.00  0.00    -0.273 OA
HETATM   25  H   UNK     0      -4.535   8.471  -5.915  0.00  0.00     0.169 HD
BRANCH  23  26
HETATM   26  C   UNK     0      -2.154   9.348  -5.586  0.00  0.00     0.118 C 
BRANCH  26  27
HETATM   27  C   UNK     0      -0.883   9.882  -4.883  0.00  0.00     0.124 C 
HETATM   28 Cl   UNK     0       0.509   8.859  -5.223  0.00  0.00    -0.130 Cl
ENDBRANCH  26  27
ENDBRANCH  23  26
ENDBRANCH  11  22
TORSDOF 4
ENDMDL
MODEL 4
REMARK VINA RESULT:      -6.9      3.882      6.926
REMARK  4 active torsions:
REMARK  status: ('A' for Active; 'I' for Inactive)
REMARK    1  A    between atoms: C_11  and  N_14 
REMARK    2  A    between atoms: C_13  and  C_21 
REMARK       I    between atoms: N_14  and  C_15 
REMARK    3  A    between atoms: C_15  and  C_16 
REMARK    4  A    between atoms: C_16  and  C_17 
ROOT
HETATM    1  C   UNK     0     -12.236   3.977  -5.475  0.00  0.00     0.016 A 
HETATM    2  C   UNK     0     -13.463   4.502  -5.016  0.00  0.00     0.001 A 
HETATM    3  C   UNK     0     -13.504   5.346  -3.883  0.00  0.00     0.001 A 
HETATM    4  C   UNK     0     -12.317   5.686  -3.199  0.00  0.00     0.013 A 
HETATM    5  C   UNK     0     -11.096   5.167  -3.675  0.00  0.00    -0.011 A 
HETATM    6  C   UNK     0     -11.058   4.321  -4.785  0.00  0.00     0.026 A 
HETATM    7  C   UNK     0      -9.784   5.330  -3.226  0.00  0.00    -0.008 A 
HETATM    8  C   UNK     0      -8.937   4.554  -4.027  0.00  0.00     0.037 A 
HETATM    9  C   UNK     0      -9.733   3.946  -5.015  0.00  0.00     0.195 A 
HETATM   10  C   UNK     0      -9.283   6.120  -2.181  0.00  0.00     0.043 A 
HETATM   11  C   UNK     0      -7.894   6.118  -1.912  0.00  0.00     0.036 A 
HETATM   12  C   UNK     0      -7.047   5.312  -2.714  0.00  0.00     0.043 A 
HETATM   13  C   UNK     0      -7.543   4.509  -3.775  0.00  0.00    -0.009 A 
HETATM   14  O   UNK     0      -9.353   3.215  -5.958  0.00  0.00    -0.287 OA
ENDROOT
BRANCH  13  15
HETATM   15  C   UNK     0      -6.654   3.691  -4.527  0.00  0.00    -0.022 A 
HETATM   16  C   UNK     0      -5.794   4.254  -5.500  0.00  0.00     0.029 A 
HETATM   17  C   UNK     0      -4.936   3.418  -6.237  0.00  0.00     0.088 A 
HETATM   18  N   UNK     0      -4.946   2.079  -6.018  0.00  0.00    -0.375 N 
HETATM   19  C   UNK     0      -5.756   1.497  -5.098  0.00  0.00     0.088 A 
HETATM   20  HN  UNK     0      -4.321   1.487  -6.566  1.00  0.00     0.164 HD
HETATM   21  C   UNK     0      -6.626   2.291  -4.328  0.00  0.00     0.029 A 
ENDBRANCH  13  15
BRANCH  11  22
HETATM   22  N   UNK     0      -7.307   6.875  -0.934  0.00  0.00    -0.327 N 
HETATM   23  C   UNK     0      -6.695   8.091  -1.063  0.00  0.00     0.223 C 
HETATM   24  O   UNK     0      -6.676   8.725  -2.144  0.00  0.00    -0.273 OA
HETATM   25  H   UNK     0      -7.352   6.513  -0.035  0.00  0.00     0.169 HD
BRANCH  23  26
HETATM   26  C   UNK     0      -6.062   8.717   0.117  0.00  0.00     0.118 C 
BRANCH  26  27
HETATM   27  C   UNK     0      -4.656   8.136   0.400  0.00  0.00     0.124 C 
HETATM   28 Cl   UNK     0      -4.300   8.145   2.125  0.00  0.00    -0.130 Cl
ENDBRANCH  26  27
ENDBRANCH  23  26
ENDBRANCH  11  22
TORSDOF 4
ENDMDL
MODEL 5
REMARK VINA RESULT:      -6.8      3.193      6.897
REMARK  4 active torsions:
REMARK  status: ('A' for Active; 'I' for Inactive)
REMARK    1  A    between atoms: C_11  and  N_14 
REMARK    2  A    between atoms: C_13  and  C_21 
REMARK       I    between atoms: N_14  and  C_15 
REMARK    3  A    between atoms: C_15  and  C_16 
REMARK    4  A    between atoms: C_16  and  C_17 
ROOT
HETATM    1  C   UNK     0      -7.771   2.543  -3.812  0.00  0.00     0.016 A 
HETATM    2  C   UNK     0      -7.321   1.685  -4.839  0.00  0.00     0.001 A 
HETATM    3  C   UNK     0      -6.387   2.141  -5.796  0.00  0.00     0.001 A 
HETATM    4  C   UNK     0      -5.881   3.458  -5.734  0.00  0.00     0.013 A 
HETATM    5  C   UNK     0      -6.327   4.300  -4.697  0.00  0.00    -0.011 A 
HETATM    6  C   UNK     0      -7.262   3.854  -3.759  0.00  0.00     0.026 A 
HETATM    7  C   UNK     0      -6.007   5.620  -4.374  0.00  0.00    -0.008 A 
HETATM    8  C   UNK     0      -6.771   6.009  -3.267  0.00  0.00     0.037 A 
HETATM    9  C   UNK     0      -7.534   4.895  -2.870  0.00  0.00     0.195 A 
HETATM   10  C   UNK     0      -5.085   6.492  -4.971  0.00  0.00     0.043 A 
HETATM   11  C   UNK     0      -4.937   7.804  -4.459  0.00  0.00     0.036 A 
HETATM   12  C   UNK     0      -5.730   8.195  -3.353  0.00  0.00     0.043 A 
HETATM   13  C   UNK     0      -6.667   7.320  -2.740  0.00  0.00    -0.009 A 
HETATM   14  O   UNK     0      -8.309   4.811  -1.890  0.00  0.00    -0.287 OA
ENDROOT
BRANCH  13  15
HETATM   15  C   UNK     0      -7.464   7.776  -1.653  0.00  0.00    -0.022 A 
HETATM   16  C   UNK     0      -6.987   7.708  -0.322  0.00  0.00     0.029 A 
HETATM   17  C   UNK     0      -7.803   8.154   0.733  0.00  0.00     0.088 A 
HETATM   18  N   UNK     0      -9.045   8.634   0.469  0.00  0.00    -0.375 N 
HETATM   19  C   UNK     0      -9.543   8.713  -0.790  0.00  0.00     0.088 A 
HETATM   20  HN  UNK     0      -9.626   8.946   1.248  1.00  0.00     0.164 HD
HETATM   21  C   UNK     0      -8.762   8.290  -1.881  0.00  0.00     0.029 A 
ENDBRANCH  13  15
BRANCH  11  22
HETATM   22  N   UNK     0      -4.046   8.717  -4.954  0.00  0.00    -0.327 N 
HETATM   23  C   UNK     0      -2.706   8.811  -4.701  0.00  0.00     0.223 C 
HETATM   24  O   UNK     0      -2.091   7.966  -4.008  0.00  0.00    -0.273 OA
HETATM   25  H   UNK     0      -4.407   9.364  -5.581  0.00  0.00     0.169 HD
BRANCH  23  26
HETATM   26  C   UNK     0      -1.927   9.920  -5.291  0.00  0.00     0.118 C 
BRANCH  26  27
HETATM   27  C   UNK     0      -0.415   9.597  -5.360  0.00  0.00     0.124 C 
HETATM   28 Cl   UNK     0       0.442  10.265  -3.975  0.00  0.00    -0.130 Cl
ENDBRANCH  26  27
ENDBRANCH  23  26
ENDBRANCH  11  22
TORSDOF 4
ENDMDL
MODEL 6
REMARK VINA RESULT:      -6.8      3.144      6.131
REMARK  4 active torsions:
REMARK  status: ('A' for Active; 'I' for Inactive)
REMARK    1  A    between atoms: C_11  and  N_14 
REMARK    2  A    between atoms: C_13  and  C_21 
REMARK       I    between atoms: N_14  and  C_15 
REMARK    3  A    between atoms: C_15  and  C_16 
REMARK    4  A    between atoms: C_16  and  C_17 
ROOT
HETATM    1  C   UNK     0      -5.632   3.776  -5.589  0.00  0.00     0.016 A 
HETATM    2  C   UNK     0      -6.143   2.480  -5.812  0.00  0.00     0.001 A 
HETATM    3  C   UNK     0      -7.140   1.947  -4.964  0.00  0.00     0.001 A 
HETATM    4  C   UNK     0      -7.648   2.706  -3.888  0.00  0.00     0.013 A 
HETATM    5  C   UNK     0      -7.140   4.004  -3.684  0.00  0.00    -0.011 A 
HETATM    6  C   UNK     0      -6.144   4.525  -4.513  0.00  0.00     0.026 A 
HETATM    7  C   UNK     0      -7.446   4.978  -2.732  0.00  0.00    -0.008 A 
HETATM    8  C   UNK     0      -6.614   6.085  -2.940  0.00  0.00     0.037 A 
HETATM    9  C   UNK     0      -5.820   5.808  -4.069  0.00  0.00     0.195 A 
HETATM   10  C   UNK     0      -8.410   4.967  -1.712  0.00  0.00     0.043 A 
HETATM   11  C   UNK     0      -8.531   6.090  -0.859  0.00  0.00     0.036 A 
HETATM   12  C   UNK     0      -7.669   7.196  -1.063  0.00  0.00     0.043 A 
HETATM   13  C   UNK     0      -6.691   7.218  -2.093  0.00  0.00    -0.009 A 
HETATM   14  O   UNK     0      -4.983   6.562  -4.617  0.00  0.00    -0.287 OA
ENDROOT
BRANCH  13  15
HETATM   15  C   UNK     0      -5.827   8.340  -2.232  0.00  0.00    -0.022 A 
HETATM   16  C   UNK     0      -4.605   8.412  -1.520  0.00  0.00     0.029 A 
HETATM   17  C   UNK     0      -3.779   9.540  -1.668  0.00  0.00     0.088 A 
HETATM   18  N   UNK     0      -4.163  10.556  -2.482  0.00  0.00    -0.375 N 
HETATM   19  C   UNK     0      -5.327  10.531  -3.180  0.00  0.00     0.088 A 
HETATM   20  HN  UNK     0      -3.554  11.370  -2.572  1.00  0.00     0.164 HD
HETATM   21  C   UNK     0      -6.183   9.420  -3.075  0.00  0.00     0.029 A 
ENDBRANCH  13  15
BRANCH  11  22
HETATM   22  N   UNK     0      -9.457   6.185   0.144  0.00  0.00    -0.327 N 
HETATM   23  C   UNK     0     -10.599   6.938   0.169  0.00  0.00     0.223 C 
HETATM   24  O   UNK     0     -10.990   7.601  -0.820  0.00  0.00    -0.273 OA
HETATM   25  H   UNK     0      -9.294   5.632   0.925  0.00  0.00     0.169 HD
BRANCH  23  26
HETATM   26  C   UNK     0     -11.438   6.951   1.386  0.00  0.00     0.118 C 
BRANCH  26  27
HETATM   27  C   UNK     0     -11.311   8.280   2.167  0.00  0.00     0.124 C 
HETATM   28 Cl   UNK     0      -9.656   8.883   2.130  0.00  0.00    -0.130 Cl
ENDBRANCH  26  27
ENDBRANCH  23  26
ENDBRANCH  11  22
TORSDOF 4
ENDMDL
MODEL 7
REMARK VINA RESULT:      -6.7      3.455      7.616
REMARK  4 active torsions:
REMARK  status: ('A' for Active; 'I' for Inactive)
REMARK    1  A    between atoms: C_11  and  N_14 
REMARK    2  A    between atoms: C_13  and  C_21 
REMARK       I    between atoms: N_14  and  C_15 
REMARK    3  A    between atoms: C_15  and  C_16 
REMARK    4  A    between atoms: C_16  and  C_17 
ROOT
HETATM    1  C   UNK     0      -7.557   2.558  -4.897  0.00  0.00     0.016 A 
HETATM    2  C   UNK     0      -6.602   2.087  -5.823  0.00  0.00     0.001 A 
HETATM    3  C   UNK     0      -5.489   2.884  -6.174  0.00  0.00     0.001 A 
HETATM    4  C   UNK     0      -5.310   4.159  -5.597  0.00  0.00     0.013 A 
HETATM    5  C   UNK     0      -6.263   4.614  -4.664  0.00  0.00    -0.011 A 
HETATM    6  C   UNK     0      -7.371   3.831  -4.328  0.00  0.00     0.026 A 
HETATM    7  C   UNK     0      -6.349   5.799  -3.932  0.00  0.00    -0.008 A 
HETATM    8  C   UNK     0      -7.527   5.774  -3.176  0.00  0.00     0.037 A 
HETATM    9  C   UNK     0      -8.150   4.533  -3.406  0.00  0.00     0.195 A 
HETATM   10  C   UNK     0      -5.462   6.884  -3.871  0.00  0.00     0.043 A 
HETATM   11  C   UNK     0      -5.773   7.990  -3.044  0.00  0.00     0.036 A 
HETATM   12  C   UNK     0      -6.978   7.966  -2.301  0.00  0.00     0.043 A 
HETATM   13  C   UNK     0      -7.884   6.873  -2.354  0.00  0.00    -0.009 A 
HETATM   14  O   UNK     0      -9.198   4.096  -2.880  0.00  0.00    -0.287 OA
ENDROOT
BRANCH  13  15
HETATM   15  C   UNK     0      -9.098   6.915  -1.614  0.00  0.00    -0.022 A 
HETATM   16  C   UNK     0      -9.110   6.669  -0.219  0.00  0.00     0.029 A 
HETATM   17  C   UNK     0     -10.327   6.704   0.483  0.00  0.00     0.088 A 
HETATM   18  N   UNK     0     -11.483   6.962  -0.181  0.00  0.00    -0.375 N 
HETATM   19  C   UNK     0     -11.518   7.200  -1.517  0.00  0.00     0.088 A 
HETATM   20  HN  UNK     0     -12.358   6.977   0.343  1.00  0.00     0.164 HD
HETATM   21  C   UNK     0     -10.326   7.187  -2.263  0.00  0.00     0.029 A 
ENDBRANCH  13  15
BRANCH  11  22
HETATM   22  N   UNK     0      -4.960   9.081  -2.897  0.00  0.00    -0.327 N 
HETATM   23  C   UNK     0      -3.991   9.289  -1.955  0.00  0.00     0.223 C 
HETATM   24  O   UNK     0      -3.663   8.413  -1.120  0.00  0.00    -0.273 OA
HETATM   25  H   UNK     0      -5.069   9.784  -3.557  0.00  0.00     0.169 HD
BRANCH  23  26
HETATM   26  C   UNK     0      -3.262  10.575  -1.928  0.00  0.00     0.118 C 
BRANCH  26  27
HETATM   27  C   UNK     0      -2.513  10.793  -0.591  0.00  0.00     0.124 C 
HETATM   28 Cl   UNK     0      -0.777  10.930  -0.849  0.00  0.00    -0.130 Cl
ENDBRANCH  26  27
ENDBRANCH  23  26
ENDBRANCH  11  22
TORSDOF 4
ENDMDL
MODEL 8
REMARK VINA RESULT:      -6.7      1.788      4.945
REMARK  4 active torsions:
REMARK  status: ('A' for Active; 'I' for Inactive)
REMARK    1  A    between atoms: C_11  and  N_14 
REMARK    2  A    between atoms: C_13  and  C_21 
REMARK       I    between atoms: N_14  and  C_15 
REMARK    3  A    between atoms: C_15  and  C_16 
REMARK    4  A    between atoms: C_16  and  C_17 
ROOT
HETATM    1  C   UNK     0      -3.669  11.023  -3.482  0.00  0.00     0.016 A 
HETATM    2  C   UNK     0      -2.533  11.086  -4.317  0.00  0.00     0.001 A 
HETATM    3  C   UNK     0      -2.174   9.983  -5.124  0.00  0.00     0.001 A 
HETATM    4  C   UNK     0      -2.950   8.804  -5.114  0.00  0.00     0.013 A 
HETATM    5  C   UNK     0      -4.089   8.758  -4.287  0.00  0.00    -0.011 A 
HETATM    6  C   UNK     0      -4.436   9.843  -3.479  0.00  0.00     0.026 A 
HETATM    7  C   UNK     0      -5.040   7.757  -4.076  0.00  0.00    -0.008 A 
HETATM    8  C   UNK     0      -5.950   8.200  -3.109  0.00  0.00     0.037 A 
HETATM    9  C   UNK     0      -5.585   9.513  -2.757  0.00  0.00     0.195 A 
HETATM   10  C   UNK     0      -5.170   6.499  -4.683  0.00  0.00     0.043 A 
HETATM   11  C   UNK     0      -6.232   5.647  -4.295  0.00  0.00     0.036 A 
HETATM   12  C   UNK     0      -7.134   6.095  -3.299  0.00  0.00     0.043 A 
HETATM   13  C   UNK     0      -7.013   7.367  -2.679  0.00  0.00    -0.009 A 
HETATM   14  O   UNK     0      -6.173  10.282  -1.963  0.00  0.00    -0.287 OA
ENDROOT
BRANCH  13  15
HETATM   15  C   UNK     0      -7.926   7.754  -1.659  0.00  0.00    -0.022 A 
HETATM   16  C   UNK     0      -9.157   8.376  -1.981  0.00  0.00     0.029 A 
HETATM   17  C   UNK     0     -10.033   8.759  -0.950  0.00  0.00     0.088 A 
HETATM   18  N   UNK     0      -9.689   8.541   0.345  0.00  0.00    -0.375 N 
HETATM   19  C   UNK     0      -8.520   7.951   0.699  0.00  0.00     0.088 A 
HETATM   20  HN  UNK     0     -10.335   8.831   1.080  1.00  0.00     0.164 HD
HETATM   21  C   UNK     0      -7.613   7.540  -0.296  0.00  0.00     0.029 A 
ENDBRANCH  13  15
BRANCH  11  22
HETATM   22  N   UNK     0      -6.458   4.415  -4.847  0.00  0.00    -0.327 N 
HETATM   23  C   UNK     0      -5.845   3.231  -4.547  0.00  0.00     0.223 C 
HETATM   24  O   UNK     0      -5.012   3.121  -3.616  0.00  0.00    -0.273 OA
HETATM   25  H   UNK     0      -7.158   4.374  -5.519  0.00  0.00     0.169 HD
BRANCH  23  26
HETATM   26  C   UNK     0      -6.192   2.014  -5.310  0.00  0.00     0.118 C 
BRANCH  26  27
HETATM   27  C   UNK     0      -7.722   1.790  -5.384  0.00  0.00     0.124 C 
HETATM   28 Cl   UNK     0      -8.432   1.717  -3.774  0.00  0.00    -0.130 Cl
ENDBRANCH  26  27
ENDBRANCH  23  26
ENDBRANCH  11  22
TORSDOF 4
ENDMDL
MODEL 9
REMARK VINA RESULT:      -6.6      3.283      7.479
REMARK  4 active torsions:
REMARK  status: ('A' for Active; 'I' for Inactive)
REMARK    1  A    between atoms: C_11  and  N_14 
REMARK    2  A    between atoms: C_13  and  C_21 
REMARK       I    between atoms: N_14  and  C_15 
REMARK    3  A    between atoms: C_15  and  C_16 
REMARK    4  A    between atoms: C_16  and  C_17 
ROOT
HETATM    1  C   UNK     0      -7.528   2.510  -4.874  0.00  0.00     0.016 A 
HETATM    2  C   UNK     0      -6.560   2.042  -5.789  0.00  0.00     0.001 A 
HETATM    3  C   UNK     0      -5.449   2.847  -6.131  0.00  0.00     0.001 A 
HETATM    4  C   UNK     0      -5.286   4.126  -5.556  0.00  0.00     0.013 A 
HETATM    5  C   UNK     0      -6.252   4.576  -4.635  0.00  0.00    -0.011 A 
HETATM    6  C   UNK     0      -7.357   3.787  -4.308  0.00  0.00     0.026 A 
HETATM    7  C   UNK     0      -6.355   5.764  -3.909  0.00  0.00    -0.008 A 
HETATM    8  C   UNK     0      -7.541   5.733  -3.164  0.00  0.00     0.037 A 
HETATM    9  C   UNK     0      -8.151   4.486  -3.397  0.00  0.00     0.195 A 
HETATM   10  C   UNK     0      -5.476   6.856  -3.842  0.00  0.00     0.043 A 
HETATM   11  C   UNK     0      -5.804   7.963  -3.023  0.00  0.00     0.036 A 
HETATM   12  C   UNK     0      -7.018   7.932  -2.292  0.00  0.00     0.043 A 
HETATM   13  C   UNK     0      -7.914   6.831  -2.351  0.00  0.00    -0.009 A 
HETATM   14  O   UNK     0      -9.202   4.042  -2.880  0.00  0.00    -0.287 OA
ENDROOT
BRANCH  13  15
HETATM   15  C   UNK     0      -9.136   6.867  -1.623  0.00  0.00    -0.022 A 
HETATM   16  C   UNK     0     -10.367   7.109  -2.279  0.00  0.00     0.029 A 
HETATM   17  C   UNK     0     -11.557   7.152  -1.531  0.00  0.00     0.088 A 
HETATM   18  N   UNK     0     -11.517   6.972  -0.186  0.00  0.00    -0.375 N 
HETATM   19  C   UNK     0     -10.359   6.740   0.483  0.00  0.00     0.088 A 
HETATM   20  HN  UNK     0     -12.389   7.012   0.341  1.00  0.00     0.164 HD
HETATM   21  C   UNK     0      -9.143   6.677  -0.221  0.00  0.00     0.029 A 
ENDBRANCH  13  15
BRANCH  11  22
HETATM   22  N   UNK     0      -5.001   9.060  -2.871  0.00  0.00    -0.327 N 
HETATM   23  C   UNK     0      -4.043   9.278  -1.921  0.00  0.00     0.223 C 
HETATM   24  O   UNK     0      -3.716   8.407  -1.080  0.00  0.00    -0.273 OA
HETATM   25  H   UNK     0      -5.110   9.760  -3.535  0.00  0.00     0.169 HD
BRANCH  23  26
HETATM   26  C   UNK     0      -3.324  10.569  -1.891  0.00  0.00     0.118 C 
BRANCH  26  27
HETATM   27  C   UNK     0      -1.975  10.502  -2.647  0.00  0.00     0.124 C 
HETATM   28 Cl   UNK     0      -2.143  11.079  -4.302  0.00  0.00    -0.130 Cl
ENDBRANCH  26  27
ENDBRANCH  23  26
ENDBRANCH  11  22
TORSDOF 4
ENDMDL
