MODEL 1
REMARK VINA RESULT:      -7.0      0.000      0.000
REMARK  4 active torsions:
REMARK  status: ('A' for Active; 'I' for Inactive)
REMARK    1  A    between atoms: C_11  and  N_19 
REMARK    2  A    between atoms: C_13  and  C_14 
REMARK       I    between atoms: N_19  and  C_21 
REMARK    3  A    between atoms: C_21  and  C_22 
REMARK    4  A    between atoms: C_22  and  C_23 
ROOT
HETATM    1  C   UNK     0      10.702   6.591   3.817  0.00  0.00     0.008 A 
HETATM    2  C   UNK     0       9.757   7.507   3.311  0.00  0.00     0.001 A 
HETATM    3  C   UNK     0       8.416   7.463   3.749  0.00  0.00     0.001 A 
HETATM    4  C   UNK     0       8.007   6.508   4.704  0.00  0.00     0.013 A 
HETATM    5  C   UNK     0       8.964   5.607   5.209  0.00  0.00    -0.019 A 
HETATM    6  C   UNK     0      10.286   5.638   4.765  0.00  0.00    -0.043 A 
HETATM    7  C   UNK     0       8.856   4.600   6.160  0.00  0.00    -0.016 A 
HETATM    8  C   UNK     0      10.101   3.973   6.312  0.00  0.00    -0.031 A 
HETATM    9  C   UNK     0      11.092   4.589   5.400  0.00  0.00     0.080 A 
HETATM   10  C   UNK     0       7.738   4.218   6.919  0.00  0.00     0.042 A 
HETATM   11  C   UNK     0       7.868   3.170   7.858  0.00  0.00     0.036 A 
HETATM   12  C   UNK     0       9.135   2.560   8.026  0.00  0.00     0.043 A 
HETATM   13  C   UNK     0      10.275   2.932   7.262  0.00  0.00    -0.009 A 
ENDROOT
BRANCH  13  14
HETATM   14  C   UNK     0      11.517   2.266   7.483  0.00  0.00     0.015 A 
HETATM   15  C   UNK     0      12.067   1.162   6.809  0.00  0.00     0.020 A 
HETATM   16  C   UNK     0      13.318   0.710   7.262  0.00  0.00     0.008 A 
HETATM   17  C   UNK     0      13.842   1.413   8.346  0.00  0.00     0.050 A 
HETATM   18  S   UNK     0      12.684   2.667   8.737  0.00  0.00    -0.101 SA
ENDBRANCH  13  14
BRANCH  11  19
HETATM   19  N   UNK     0       6.851   2.704   8.647  0.00  0.00    -0.327 N 
HETATM   20  C   UNK     0       5.678   2.114   8.272  0.00  0.00     0.223 C 
HETATM   21  O   UNK     0       5.384   1.883   7.075  0.00  0.00    -0.273 OA
HETATM   22  H   UNK     0       7.001   2.767   9.604  0.00  0.00     0.169 HD
BRANCH  20  23
HETATM   23  C   UNK     0       4.723   1.677   9.312  0.00  0.00     0.118 C 
BRANCH  23  24
HETATM   24  C   UNK     0       4.697   0.139   9.461  0.00  0.00     0.124 C 
HETATM   25 Cl   UNK     0       3.100  -0.410   9.960  0.00  0.00    -0.130 Cl
ENDBRANCH  23  24
ENDBRANCH  20  23
ENDBRANCH  11  19
TORSDOF 4
ENDMDL
MODEL 2
REMARK VINA RESULT:      -7.0     17.250     18.779
REMARK  4 active torsions:
REMARK  status: ('A' for Active; 'I' for Inactive)
REMARK    1  A    between atoms: C_11  and  N_19 
REMARK    2  A    between atoms: C_13  and  C_14 
REMARK       I    between atoms: N_19  and  C_21 
REMARK    3  A    between atoms: C_21  and  C_22 
REMARK    4  A    between atoms: C_22  and  C_23 
ROOT
HETATM    1  C   UNK     0      -6.674   9.760   0.313  0.00  0.00     0.008 A 
HETATM    2  C   UNK     0      -7.711   9.313   1.158  0.00  0.00     0.001 A 
HETATM    3  C   UNK     0      -8.421   8.132   0.852  0.00  0.00     0.001 A 
HETATM    4  C   UNK     0      -8.098   7.382  -0.298  0.00  0.00     0.013 A 
HETATM    5  C   UNK     0      -7.053   7.833  -1.127  0.00  0.00    -0.019 A 
HETATM    6  C   UNK     0      -6.361   9.009  -0.835  0.00  0.00    -0.043 A 
HETATM    7  C   UNK     0      -6.508   7.292  -2.284  0.00  0.00    -0.016 A 
HETATM    8  C   UNK     0      -5.481   8.129  -2.746  0.00  0.00    -0.031 A 
HETATM    9  C   UNK     0      -5.343   9.301  -1.851  0.00  0.00     0.080 A 
HETATM   10  C   UNK     0      -6.840   6.098  -2.942  0.00  0.00     0.042 A 
HETATM   11  C   UNK     0      -6.125   5.729  -4.104  0.00  0.00     0.036 A 
HETATM   12  C   UNK     0      -5.071   6.564  -4.549  0.00  0.00     0.043 A 
HETATM   13  C   UNK     0      -4.726   7.779  -3.896  0.00  0.00    -0.009 A 
ENDROOT
BRANCH  13  14
HETATM   14  C   UNK     0      -3.655   8.572  -4.408  0.00  0.00     0.015 A 
HETATM   15  C   UNK     0      -2.270   8.428  -4.212  0.00  0.00     0.020 A 
HETATM   16  C   UNK     0      -1.447   9.378  -4.839  0.00  0.00     0.008 A 
HETATM   17  C   UNK     0      -2.124  10.360  -5.561  0.00  0.00     0.050 A 
HETATM   18  S   UNK     0      -3.832  10.002  -5.415  0.00  0.00    -0.101 SA
ENDBRANCH  13  14
BRANCH  11  19
HETATM   19  N   UNK     0      -6.363   4.596  -4.835  0.00  0.00    -0.327 N 
HETATM   20  C   UNK     0      -5.810   3.355  -4.696  0.00  0.00     0.223 C 
HETATM   21  O   UNK     0      -4.981   3.076  -3.797  0.00  0.00    -0.273 OA
HETATM   22  H   UNK     0      -7.046   4.675  -5.520  0.00  0.00     0.169 HD
BRANCH  20  23
HETATM   23  C   UNK     0      -6.232   2.268  -5.604  0.00  0.00     0.118 C 
BRANCH  23  24
HETATM   24  C   UNK     0      -7.736   1.944  -5.456  0.00  0.00     0.124 C 
HETATM   25 Cl   UNK     0      -8.181   1.825  -3.755  0.00  0.00    -0.130 Cl
ENDBRANCH  23  24
ENDBRANCH  20  23
ENDBRANCH  11  19
TORSDOF 4
ENDMDL
MODEL 3
REMARK VINA RESULT:      -6.8     17.254     19.665
REMARK  4 active torsions:
REMARK  status: ('A' for Active; 'I' for Inactive)
REMARK    1  A    between atoms: C_11  and  N_19 
REMARK    2  A    between atoms: C_13  and  C_14 
REMARK       I    between atoms: N_19  and  C_21 
REMARK    3  A    between atoms: C_21  and  C_22 
REMARK    4  A    between atoms: C_22  and  C_23 
ROOT
HETATM    1  C   UNK     0      -7.821   2.467  -3.782  0.00  0.00     0.008 A 
HETATM    2  C   UNK     0      -7.370   1.625  -4.820  0.00  0.00     0.001 A 
HETATM    3  C   UNK     0      -6.447   2.103  -5.775  0.00  0.00     0.001 A 
HETATM    4  C   UNK     0      -5.960   3.424  -5.699  0.00  0.00     0.013 A 
HETATM    5  C   UNK     0      -6.410   4.251  -4.651  0.00  0.00    -0.019 A 
HETATM    6  C   UNK     0      -7.335   3.785  -3.716  0.00  0.00    -0.043 A 
HETATM    7  C   UNK     0      -6.085   5.559  -4.317  0.00  0.00    -0.016 A 
HETATM    8  C   UNK     0      -6.814   5.940  -3.181  0.00  0.00    -0.031 A 
HETATM    9  C   UNK     0      -7.684   4.825  -2.741  0.00  0.00     0.080 A 
HETATM   10  C   UNK     0      -5.170   6.427  -4.933  0.00  0.00     0.042 A 
HETATM   11  C   UNK     0      -4.979   7.721  -4.399  0.00  0.00     0.036 A 
HETATM   12  C   UNK     0      -5.698   8.089  -3.235  0.00  0.00     0.043 A 
HETATM   13  C   UNK     0      -6.633   7.224  -2.603  0.00  0.00    -0.009 A 
ENDROOT
BRANCH  13  14
HETATM   14  C   UNK     0      -7.324   7.669  -1.437  0.00  0.00     0.015 A 
HETATM   15  C   UNK     0      -6.851   7.804  -0.119  0.00  0.00     0.020 A 
HETATM   16  C   UNK     0      -7.777   8.259   0.835  0.00  0.00     0.008 A 
HETATM   17  C   UNK     0      -9.060   8.497   0.345  0.00  0.00     0.050 A 
HETATM   18  S   UNK     0      -9.019   8.135  -1.367  0.00  0.00    -0.101 SA
ENDBRANCH  13  14
BRANCH  11  19
HETATM   19  N   UNK     0      -4.124   8.656  -4.916  0.00  0.00    -0.327 N 
HETATM   20  C   UNK     0      -2.774   8.772  -4.741  0.00  0.00     0.223 C 
HETATM   21  O   UNK     0      -2.103   7.958  -4.062  0.00  0.00    -0.273 OA
HETATM   22  H   UNK     0      -4.524   9.302  -5.519  0.00  0.00     0.169 HD
BRANCH  20  23
HETATM   23  C   UNK     0      -2.048   9.869  -5.415  0.00  0.00     0.118 C 
BRANCH  23  24
HETATM   24  C   UNK     0      -0.524   9.619  -5.443  0.00  0.00     0.124 C 
HETATM   25 Cl   UNK     0       0.270  10.473  -4.122  0.00  0.00    -0.130 Cl
ENDBRANCH  23  24
ENDBRANCH  20  23
ENDBRANCH  11  19
TORSDOF 4
ENDMDL
MODEL 4
REMARK VINA RESULT:      -6.7     17.552     19.604
REMARK  4 active torsions:
REMARK  status: ('A' for Active; 'I' for Inactive)
REMARK    1  A    between atoms: C_11  and  N_19 
REMARK    2  A    between atoms: C_13  and  C_14 
REMARK       I    between atoms: N_19  and  C_21 
REMARK    3  A    between atoms: C_21  and  C_22 
REMARK    4  A    between atoms: C_22  and  C_23 
ROOT
HETATM    1  C   UNK     0      -9.391   6.245   0.003  0.00  0.00     0.008 A 
HETATM    2  C   UNK     0      -9.613   7.414   0.760  0.00  0.00     0.001 A 
HETATM    3  C   UNK     0      -8.894   8.594   0.475  0.00  0.00     0.001 A 
HETATM    4  C   UNK     0      -7.949   8.621  -0.572  0.00  0.00     0.013 A 
HETATM    5  C   UNK     0      -7.745   7.449  -1.327  0.00  0.00    -0.019 A 
HETATM    6  C   UNK     0      -8.444   6.277  -1.036  0.00  0.00    -0.043 A 
HETATM    7  C   UNK     0      -6.918   7.197  -2.413  0.00  0.00    -0.016 A 
HETATM    8  C   UNK     0      -7.070   5.860  -2.808  0.00  0.00    -0.031 A 
HETATM    9  C   UNK     0      -8.045   5.179  -1.925  0.00  0.00     0.080 A 
HETATM   10  C   UNK     0      -6.059   8.075  -3.093  0.00  0.00     0.042 A 
HETATM   11  C   UNK     0      -5.324   7.600  -4.203  0.00  0.00     0.036 A 
HETATM   12  C   UNK     0      -5.504   6.257  -4.613  0.00  0.00     0.043 A 
HETATM   13  C   UNK     0      -6.365   5.354  -3.931  0.00  0.00    -0.009 A 
ENDROOT
BRANCH  13  14
HETATM   14  C   UNK     0      -6.488   4.011  -4.401  0.00  0.00     0.015 A 
HETATM   15  C   UNK     0      -5.491   3.036  -4.578  0.00  0.00     0.020 A 
HETATM   16  C   UNK     0      -5.914   1.792  -5.075  0.00  0.00     0.008 A 
HETATM   17  C   UNK     0      -7.277   1.697  -5.348  0.00  0.00     0.050 A 
HETATM   18  S   UNK     0      -7.981   3.245  -4.929  0.00  0.00    -0.101 SA
ENDBRANCH  13  14
BRANCH  11  19
HETATM   19  N   UNK     0      -4.452   8.358  -4.937  0.00  0.00    -0.327 N 
HETATM   20  C   UNK     0      -3.115   8.556  -4.742  0.00  0.00     0.223 C 
HETATM   21  O   UNK     0      -2.473   8.003  -3.817  0.00  0.00    -0.273 OA
HETATM   22  H   UNK     0      -4.826   8.780  -5.727  0.00  0.00     0.169 HD
BRANCH  20  23
HETATM   23  C   UNK     0      -2.365   9.417  -5.680  0.00  0.00     0.118 C 
BRANCH  23  24
HETATM   24  C   UNK     0      -1.101  10.017  -5.027  0.00  0.00     0.124 C 
HETATM   25 Cl   UNK     0       0.331   9.099  -5.485  0.00  0.00    -0.130 Cl
ENDBRANCH  23  24
ENDBRANCH  20  23
ENDBRANCH  11  19
TORSDOF 4
ENDMDL
MODEL 5
REMARK VINA RESULT:      -6.7     18.124     19.133
REMARK  4 active torsions:
REMARK  status: ('A' for Active; 'I' for Inactive)
REMARK    1  A    between atoms: C_11  and  N_19 
REMARK    2  A    between atoms: C_13  and  C_14 
REMARK       I    between atoms: N_19  and  C_21 
REMARK    3  A    between atoms: C_21  and  C_22 
REMARK    4  A    between atoms: C_22  and  C_23 
ROOT
HETATM    1  C   UNK     0      -3.734  10.987  -3.399  0.00  0.00     0.008 A 
HETATM    2  C   UNK     0      -2.668  11.115  -4.313  0.00  0.00     0.001 A 
HETATM    3  C   UNK     0      -2.343  10.051  -5.183  0.00  0.00     0.001 A 
HETATM    4  C   UNK     0      -3.085   8.851  -5.152  0.00  0.00     0.013 A 
HETATM    5  C   UNK     0      -4.154   8.742  -4.242  0.00  0.00    -0.019 A 
HETATM    6  C   UNK     0      -4.466   9.786  -3.371  0.00  0.00    -0.043 A 
HETATM    7  C   UNK     0      -5.058   7.712  -4.016  0.00  0.00    -0.016 A 
HETATM    8  C   UNK     0      -5.936   8.086  -2.988  0.00  0.00    -0.031 A 
HETATM    9  C   UNK     0      -5.589   9.437  -2.493  0.00  0.00     0.080 A 
HETATM   10  C   UNK     0      -5.173   6.477  -4.675  0.00  0.00     0.042 A 
HETATM   11  C   UNK     0      -6.199   5.584  -4.290  0.00  0.00     0.036 A 
HETATM   12  C   UNK     0      -7.099   5.979  -3.271  0.00  0.00     0.043 A 
HETATM   13  C   UNK     0      -6.992   7.223  -2.591  0.00  0.00    -0.009 A 
ENDROOT
BRANCH  13  14
HETATM   14  C   UNK     0      -7.933   7.549  -1.569  0.00  0.00     0.015 A 
HETATM   15  C   UNK     0      -9.309   7.816  -1.680  0.00  0.00     0.020 A 
HETATM   16  C   UNK     0      -9.986   8.123  -0.487  0.00  0.00     0.008 A 
HETATM   17  C   UNK     0      -9.188   8.143   0.655  0.00  0.00     0.050 A 
HETATM   18  S   UNK     0      -7.564   7.738   0.140  0.00  0.00    -0.101 SA
ENDBRANCH  13  14
BRANCH  11  19
HETATM   19  N   UNK     0      -6.405   4.352  -4.851  0.00  0.00    -0.327 N 
HETATM   20  C   UNK     0      -5.784   3.169  -4.571  0.00  0.00     0.223 C 
HETATM   21  O   UNK     0      -4.908   3.054  -3.680  0.00  0.00    -0.273 OA
HETATM   22  H   UNK     0      -7.117   4.306  -5.509  0.00  0.00     0.169 HD
BRANCH  20  23
HETATM   23  C   UNK     0      -6.184   1.950  -5.305  0.00  0.00     0.118 C 
BRANCH  23  24
HETATM   24  C   UNK     0      -7.717   1.760  -5.316  0.00  0.00     0.124 C 
HETATM   25 Cl   UNK     0      -8.360   1.800  -3.677  0.00  0.00    -0.130 Cl
ENDBRANCH  23  24
ENDBRANCH  20  23
ENDBRANCH  11  19
TORSDOF 4
ENDMDL
MODEL 6
REMARK VINA RESULT:      -6.6     17.556     20.066
REMARK  4 active torsions:
REMARK  status: ('A' for Active; 'I' for Inactive)
REMARK    1  A    between atoms: C_11  and  N_19 
REMARK    2  A    between atoms: C_13  and  C_14 
REMARK       I    between atoms: N_19  and  C_21 
REMARK    3  A    between atoms: C_21  and  C_22 
REMARK    4  A    between atoms: C_22  and  C_23 
ROOT
HETATM    1  C   UNK     0      -8.405   2.249  -4.414  0.00  0.00     0.008 A 
HETATM    2  C   UNK     0      -7.529   1.642  -5.337  0.00  0.00     0.001 A 
HETATM    3  C   UNK     0      -6.365   2.317  -5.765  0.00  0.00     0.001 A 
HETATM    4  C   UNK     0      -6.062   3.603  -5.269  0.00  0.00     0.013 A 
HETATM    5  C   UNK     0      -6.940   4.192  -4.339  0.00  0.00    -0.019 A 
HETATM    6  C   UNK     0      -8.099   3.533  -3.928  0.00  0.00    -0.043 A 
HETATM    7  C   UNK     0      -6.880   5.410  -3.674  0.00  0.00    -0.016 A 
HETATM    8  C   UNK     0      -8.009   5.542  -2.851  0.00  0.00    -0.031 A 
HETATM    9  C   UNK     0      -8.876   4.349  -2.987  0.00  0.00     0.080 A 
HETATM   10  C   UNK     0      -5.884   6.397  -3.726  0.00  0.00     0.042 A 
HETATM   11  C   UNK     0      -6.022   7.558  -2.932  0.00  0.00     0.036 A 
HETATM   12  C   UNK     0      -7.150   7.672  -2.083  0.00  0.00     0.043 A 
HETATM   13  C   UNK     0      -8.170   6.684  -2.023  0.00  0.00    -0.009 A 
ENDROOT
BRANCH  13  14
HETATM   14  C   UNK     0      -9.281   6.872  -1.147  0.00  0.00     0.015 A 
HETATM   15  C   UNK     0      -9.364   6.665   0.241  0.00  0.00     0.020 A 
HETATM   16  C   UNK     0     -10.608   6.926   0.839  0.00  0.00     0.008 A 
HETATM   17  C   UNK     0     -11.610   7.339  -0.037  0.00  0.00     0.050 A 
HETATM   18  S   UNK     0     -10.889   7.394  -1.632  0.00  0.00    -0.101 SA
ENDBRANCH  13  14
BRANCH  11  19
HETATM   19  N   UNK     0      -5.124   8.591  -2.905  0.00  0.00    -0.327 N 
HETATM   20  C   UNK     0      -4.122   8.832  -2.008  0.00  0.00     0.223 C 
HETATM   21  O   UNK     0      -3.867   8.063  -1.051  0.00  0.00    -0.273 OA
HETATM   22  H   UNK     0      -5.182   9.217  -3.644  0.00  0.00     0.169 HD
BRANCH  20  23
HETATM   23  C   UNK     0      -3.260  10.019  -2.187  0.00  0.00     0.118 C 
BRANCH  23  24
HETATM   24  C   UNK     0      -2.755  10.573  -0.836  0.00  0.00     0.124 C 
HETATM   25 Cl   UNK     0      -1.060  11.037  -0.950  0.00  0.00    -0.130 Cl
ENDBRANCH  23  24
ENDBRANCH  20  23
ENDBRANCH  11  19
TORSDOF 4
ENDMDL
MODEL 7
REMARK VINA RESULT:      -6.5     17.626     18.969
REMARK  4 active torsions:
REMARK  status: ('A' for Active; 'I' for Inactive)
REMARK    1  A    between atoms: C_11  and  N_19 
REMARK    2  A    between atoms: C_13  and  C_14 
REMARK       I    between atoms: N_19  and  C_21 
REMARK    3  A    between atoms: C_21  and  C_22 
REMARK    4  A    between atoms: C_22  and  C_23 
ROOT
HETATM    1  C   UNK     0      -6.216   3.116  -5.781  0.00  0.00     0.008 A 
HETATM    2  C   UNK     0      -6.992   2.002  -5.400  0.00  0.00     0.001 A 
HETATM    3  C   UNK     0      -7.729   2.025  -4.196  0.00  0.00     0.001 A 
HETATM    4  C   UNK     0      -7.704   3.165  -3.365  0.00  0.00     0.013 A 
HETATM    5  C   UNK     0      -6.934   4.275  -3.764  0.00  0.00    -0.019 A 
HETATM    6  C   UNK     0      -6.192   4.247  -4.945  0.00  0.00    -0.043 A 
HETATM    7  C   UNK     0      -6.750   5.517  -3.172  0.00  0.00    -0.016 A 
HETATM    8  C   UNK     0      -5.875   6.279  -3.961  0.00  0.00    -0.031 A 
HETATM    9  C   UNK     0      -5.442   5.494  -5.139  0.00  0.00     0.080 A 
HETATM   10  C   UNK     0      -7.322   6.030  -1.997  0.00  0.00     0.042 A 
HETATM   11  C   UNK     0      -7.007   7.347  -1.595  0.00  0.00     0.036 A 
HETATM   12  C   UNK     0      -6.145   8.121  -2.411  0.00  0.00     0.043 A 
HETATM   13  C   UNK     0      -5.553   7.614  -3.600  0.00  0.00    -0.009 A 
ENDROOT
BRANCH  13  14
HETATM   14  C   UNK     0      -4.689   8.452  -4.367  0.00  0.00     0.015 A 
HETATM   15  C   UNK     0      -3.330   8.277  -4.682  0.00  0.00     0.020 A 
HETATM   16  C   UNK     0      -2.731   9.287  -5.453  0.00  0.00     0.008 A 
HETATM   17  C   UNK     0      -3.569  10.350  -5.787  0.00  0.00     0.050 A 
HETATM   18  S   UNK     0      -5.136   9.990  -5.094  0.00  0.00    -0.101 SA
ENDBRANCH  13  14
BRANCH  11  19
HETATM   19  N   UNK     0      -7.495   7.952  -0.467  0.00  0.00    -0.327 N 
HETATM   20  C   UNK     0      -6.872   8.161   0.730  0.00  0.00     0.223 C 
HETATM   21  O   UNK     0      -5.683   7.827   0.946  0.00  0.00    -0.273 OA
HETATM   22  H   UNK     0      -8.391   8.316  -0.542  0.00  0.00     0.169 HD
BRANCH  20  23
HETATM   23  C   UNK     0      -7.600   8.853   1.814  0.00  0.00     0.118 C 
BRANCH  23  24
HETATM   24  C   UNK     0      -6.658   9.717   2.681  0.00  0.00     0.124 C 
HETATM   25 Cl   UNK     0      -6.222   8.867   4.161  0.00  0.00    -0.130 Cl
ENDBRANCH  23  24
ENDBRANCH  20  23
ENDBRANCH  11  19
TORSDOF 4
ENDMDL
MODEL 8
REMARK VINA RESULT:      -6.4     18.522     19.739
REMARK  4 active torsions:
REMARK  status: ('A' for Active; 'I' for Inactive)
REMARK    1  A    between atoms: C_11  and  N_19 
REMARK    2  A    between atoms: C_13  and  C_14 
REMARK       I    between atoms: N_19  and  C_21 
REMARK    3  A    between atoms: C_21  and  C_22 
REMARK    4  A    between atoms: C_22  and  C_23 
ROOT
HETATM    1  C   UNK     0      -5.328   3.765  -6.043  0.00  0.00     0.008 A 
HETATM    2  C   UNK     0      -5.752   2.421  -6.010  0.00  0.00     0.001 A 
HETATM    3  C   UNK     0      -6.592   1.963  -4.973  0.00  0.00     0.001 A 
HETATM    4  C   UNK     0      -7.024   2.846  -3.961  0.00  0.00     0.013 A 
HETATM    5  C   UNK     0      -6.602   4.189  -4.011  0.00  0.00    -0.019 A 
HETATM    6  C   UNK     0      -5.758   4.639  -5.027  0.00  0.00    -0.043 A 
HETATM    7  C   UNK     0      -6.888   5.267  -3.184  0.00  0.00    -0.016 A 
HETATM    8  C   UNK     0      -6.213   6.403  -3.655  0.00  0.00    -0.031 A 
HETATM    9  C   UNK     0      -5.422   6.058  -4.859  0.00  0.00     0.080 A 
HETATM   10  C   UNK     0      -7.724   5.318  -2.057  0.00  0.00     0.042 A 
HETATM   11  C   UNK     0      -7.889   6.545  -1.376  0.00  0.00     0.036 A 
HETATM   12  C   UNK     0      -7.227   7.694  -1.874  0.00  0.00     0.043 A 
HETATM   13  C   UNK     0      -6.372   7.657  -3.010  0.00  0.00    -0.009 A 
ENDROOT
BRANCH  13  14
HETATM   14  C   UNK     0      -5.734   8.856  -3.448  0.00  0.00     0.015 A 
HETATM   15  C   UNK     0      -4.559   9.464  -2.971  0.00  0.00     0.020 A 
HETATM   16  C   UNK     0      -4.176  10.662  -3.597  0.00  0.00     0.008 A 
HETATM   17  C   UNK     0      -5.032  11.102  -4.603  0.00  0.00     0.050 A 
HETATM   18  S   UNK     0      -6.320   9.921  -4.720  0.00  0.00    -0.101 SA
ENDBRANCH  13  14
BRANCH  11  19
HETATM   19  N   UNK     0      -8.668   6.717  -0.264  0.00  0.00    -0.327 N 
HETATM   20  C   UNK     0     -10.010   6.958  -0.188  0.00  0.00     0.223 C 
HETATM   21  O   UNK     0     -10.748   7.025  -1.200  0.00  0.00    -0.273 OA
HETATM   22  H   UNK     0      -8.212   6.616   0.587  0.00  0.00     0.169 HD
BRANCH  20  23
HETATM   23  C   UNK     0     -10.646   7.100   1.139  0.00  0.00     0.118 C 
BRANCH  23  24
HETATM   24  C   UNK     0     -12.180   6.931   1.063  0.00  0.00     0.124 C 
HETATM   25 Cl   UNK     0     -12.803   6.241   2.559  0.00  0.00    -0.130 Cl
ENDBRANCH  23  24
ENDBRANCH  20  23
ENDBRANCH  11  19
TORSDOF 4
ENDMDL
MODEL 9
REMARK VINA RESULT:      -6.3      3.264      6.577
REMARK  4 active torsions:
REMARK  status: ('A' for Active; 'I' for Inactive)
REMARK    1  A    between atoms: C_11  and  N_19 
REMARK    2  A    between atoms: C_13  and  C_14 
REMARK       I    between atoms: N_19  and  C_21 
REMARK    3  A    between atoms: C_21  and  C_22 
REMARK    4  A    between atoms: C_22  and  C_23 
ROOT
HETATM    1  C   UNK     0       5.798  -0.277  10.861  0.00  0.00     0.008 A 
HETATM    2  C   UNK     0       4.405  -0.297  10.648  0.00  0.00     0.001 A 
HETATM    3  C   UNK     0       3.797   0.671   9.819  0.00  0.00     0.001 A 
HETATM    4  C   UNK     0       4.577   1.664   9.189  0.00  0.00     0.013 A 
HETATM    5  C   UNK     0       5.970   1.665   9.403  0.00  0.00    -0.019 A 
HETATM    6  C   UNK     0       6.569   0.719  10.234  0.00  0.00    -0.043 A 
HETATM    7  C   UNK     0       6.969   2.487   8.899  0.00  0.00    -0.016 A 
HETATM    8  C   UNK     0       8.206   2.082   9.422  0.00  0.00    -0.031 A 
HETATM    9  C   UNK     0       8.018   0.933  10.336  0.00  0.00     0.080 A 
HETATM   10  C   UNK     0       6.863   3.552   7.990  0.00  0.00     0.042 A 
HETATM   11  C   UNK     0       8.032   4.238   7.593  0.00  0.00     0.036 A 
HETATM   12  C   UNK     0       9.281   3.807   8.103  0.00  0.00     0.043 A 
HETATM   13  C   UNK     0       9.404   2.734   9.028  0.00  0.00    -0.009 A 
ENDROOT
BRANCH  13  14
HETATM   14  C   UNK     0      10.698   2.362   9.503  0.00  0.00     0.015 A 
HETATM   15  C   UNK     0      11.231   2.460  10.800  0.00  0.00     0.020 A 
HETATM   16  C   UNK     0      12.555   2.020  10.968  0.00  0.00     0.008 A 
HETATM   17  C   UNK     0      13.175   1.560   9.808  0.00  0.00     0.050 A 
HETATM   18  S   UNK     0      11.997   1.699   8.520  0.00  0.00    -0.101 SA
ENDBRANCH  13  14
BRANCH  11  19
HETATM   19  N   UNK     0       8.054   5.295   6.723  0.00  0.00    -0.327 N 
HETATM   20  C   UNK     0       8.085   5.279   5.357  0.00  0.00     0.223 C 
HETATM   21  O   UNK     0       8.064   4.219   4.688  0.00  0.00    -0.273 OA
HETATM   22  H   UNK     0       8.002   6.174   7.130  0.00  0.00     0.169 HD
BRANCH  20  23
HETATM   23  C   UNK     0       8.094   6.559   4.619  0.00  0.00     0.118 C 
BRANCH  23  24
HETATM   24  C   UNK     0       9.530   7.075   4.377  0.00  0.00     0.124 C 
HETATM   25 Cl   UNK     0       9.610   8.015   2.889  0.00  0.00    -0.130 Cl
ENDBRANCH  23  24
ENDBRANCH  20  23
ENDBRANCH  11  19
TORSDOF 4
ENDMDL
