MODEL 1
REMARK VINA RESULT:      -7.4      0.000      0.000
REMARK  4 active torsions:
REMARK  status: ('A' for Active; 'I' for Inactive)
REMARK    1  A    between atoms: C_11  and  N_14 
REMARK    2  A    between atoms: C_13  and  C_21 
REMARK       I    between atoms: N_14  and  C_15 
REMARK    3  A    between atoms: C_15  and  C_16 
REMARK    4  A    between atoms: C_16  and  C_17 
ROOT
HETATM    1  C   UNK     0      -9.239   6.136  -0.079  0.00  0.00     0.008 A 
HETATM    2  C   UNK     0      -9.363   7.283   0.732  0.00  0.00     0.001 A 
HETATM    3  C   UNK     0      -8.600   8.438   0.458  0.00  0.00     0.001 A 
HETATM    4  C   UNK     0      -7.696   8.454  -0.623  0.00  0.00     0.013 A 
HETATM    5  C   UNK     0      -7.577   7.300  -1.422  0.00  0.00    -0.019 A 
HETATM    6  C   UNK     0      -8.337   6.158  -1.160  0.00  0.00    -0.043 A 
HETATM    7  C   UNK     0      -6.780   7.040  -2.532  0.00  0.00    -0.016 A 
HETATM    8  C   UNK     0      -7.022   5.734  -2.976  0.00  0.00    -0.032 A 
HETATM    9  C   UNK     0      -8.046   5.084  -2.125  0.00  0.00     0.080 A 
HETATM   10  C   UNK     0      -5.870   7.882  -3.192  0.00  0.00     0.042 A 
HETATM   11  C   UNK     0      -5.179   7.407  -4.331  0.00  0.00     0.036 A 
HETATM   12  C   UNK     0      -5.432   6.088  -4.783  0.00  0.00     0.042 A 
HETATM   13  C   UNK     0      -6.343   5.225  -4.115  0.00  0.00    -0.016 A 
ENDROOT
BRANCH  13  14
HETATM   14  C   UNK     0      -6.561   3.904  -4.595  0.00  0.00    -0.023 A 
HETATM   15  C   UNK     0      -7.831   3.505  -5.079  0.00  0.00     0.029 A 
HETATM   16  C   UNK     0      -8.011   2.201  -5.572  0.00  0.00     0.088 A 
HETATM   17  N   UNK     0      -6.977   1.323  -5.562  0.00  0.00    -0.375 N 
HETATM   18  C   UNK     0      -5.750   1.653  -5.085  0.00  0.00     0.088 A 
HETATM   19  HN  UNK     0      -7.126   0.382  -5.926  1.00  0.00     0.164 HD
HETATM   20  C   UNK     0      -5.515   2.950  -4.588  0.00  0.00     0.029 A 
ENDBRANCH  13  14
BRANCH  11  21
HETATM   21  N   UNK     0      -4.317   8.185  -5.058  0.00  0.00    -0.327 N 
HETATM   22  C   UNK     0      -3.018   8.505  -4.774  0.00  0.00     0.223 C 
HETATM   23  O   UNK     0      -2.380   7.961  -3.841  0.00  0.00    -0.273 OA
HETATM   24  H   UNK     0      -4.669   8.548  -5.888  0.00  0.00     0.169 HD
BRANCH  22  25
HETATM   25  C   UNK     0      -2.324   9.516  -5.601  0.00  0.00     0.118 C 
BRANCH  25  26
HETATM   26  C   UNK     0      -1.135  10.149  -4.838  0.00  0.00     0.124 C 
HETATM   27 Cl   UNK     0       0.386   9.377  -5.276  0.00  0.00    -0.130 Cl
ENDBRANCH  25  26
ENDBRANCH  22  25
ENDBRANCH  11  21
TORSDOF 4
ENDMDL
MODEL 2
REMARK VINA RESULT:      -7.2      2.906      6.012
REMARK  4 active torsions:
REMARK  status: ('A' for Active; 'I' for Inactive)
REMARK    1  A    between atoms: C_11  and  N_14 
REMARK    2  A    between atoms: C_13  and  C_21 
REMARK       I    between atoms: N_14  and  C_15 
REMARK    3  A    between atoms: C_15  and  C_16 
REMARK    4  A    between atoms: C_16  and  C_17 
ROOT
HETATM    1  C   UNK     0      -6.668   9.827   0.314  0.00  0.00     0.008 A 
HETATM    2  C   UNK     0      -7.712   9.406   1.164  0.00  0.00     0.001 A 
HETATM    3  C   UNK     0      -8.422   8.217   0.889  0.00  0.00     0.001 A 
HETATM    4  C   UNK     0      -8.102   7.443  -0.245  0.00  0.00     0.013 A 
HETATM    5  C   UNK     0      -7.061   7.878  -1.089  0.00  0.00    -0.019 A 
HETATM    6  C   UNK     0      -6.350   9.049  -0.816  0.00  0.00    -0.043 A 
HETATM    7  C   UNK     0      -6.541   7.323  -2.253  0.00  0.00    -0.016 A 
HETATM    8  C   UNK     0      -5.507   8.137  -2.730  0.00  0.00    -0.032 A 
HETATM    9  C   UNK     0      -5.312   9.298  -1.830  0.00  0.00     0.080 A 
HETATM   10  C   UNK     0      -6.904   6.136  -2.913  0.00  0.00     0.042 A 
HETATM   11  C   UNK     0      -6.212   5.750  -4.085  0.00  0.00     0.036 A 
HETATM   12  C   UNK     0      -5.159   6.572  -4.560  0.00  0.00     0.042 A 
HETATM   13  C   UNK     0      -4.794   7.779  -3.905  0.00  0.00    -0.016 A 
ENDROOT
BRANCH  13  14
HETATM   14  C   UNK     0      -3.739   8.582  -4.420  0.00  0.00    -0.023 A 
HETATM   15  C   UNK     0      -2.392   8.339  -4.053  0.00  0.00     0.029 A 
HETATM   16  C   UNK     0      -1.367   9.131  -4.597  0.00  0.00     0.088 A 
HETATM   17  N   UNK     0      -1.670  10.138  -5.455  0.00  0.00    -0.375 N 
HETATM   18  C   UNK     0      -2.947  10.423  -5.816  0.00  0.00     0.088 A 
HETATM   19  HN  UNK     0      -0.912  10.700  -5.842  1.00  0.00     0.164 HD
HETATM   20  C   UNK     0      -4.010   9.653  -5.304  0.00  0.00     0.029 A 
ENDBRANCH  13  14
BRANCH  11  21
HETATM   21  N   UNK     0      -6.472   4.582  -4.752  0.00  0.00    -0.327 N 
HETATM   22  C   UNK     0      -5.843   3.375  -4.626  0.00  0.00     0.223 C 
HETATM   23  O   UNK     0      -5.010   3.142  -3.717  0.00  0.00    -0.273 OA
HETATM   24  H   UNK     0      -7.205   4.611  -5.389  0.00  0.00     0.169 HD
BRANCH  22  25
HETATM   25  C   UNK     0      -6.160   2.290  -5.581  0.00  0.00     0.118 C 
BRANCH  25  26
HETATM   26  C   UNK     0      -7.656   1.899  -5.514  0.00  0.00     0.124 C 
HETATM   27 Cl   UNK     0      -8.203   1.752  -3.848  0.00  0.00    -0.130 Cl
ENDBRANCH  25  26
ENDBRANCH  22  25
ENDBRANCH  11  21
TORSDOF 4
ENDMDL
MODEL 3
REMARK VINA RESULT:      -7.1     17.675     19.893
REMARK  4 active torsions:
REMARK  status: ('A' for Active; 'I' for Inactive)
REMARK    1  A    between atoms: C_11  and  N_14 
REMARK    2  A    between atoms: C_13  and  C_21 
REMARK       I    between atoms: N_14  and  C_15 
REMARK    3  A    between atoms: C_15  and  C_16 
REMARK    4  A    between atoms: C_16  and  C_17 
ROOT
HETATM    1  C   UNK     0      10.675   6.612   4.066  0.00  0.00     0.008 A 
HETATM    2  C   UNK     0       9.689   7.480   3.552  0.00  0.00     0.001 A 
HETATM    3  C   UNK     0       8.347   7.368   3.974  0.00  0.00     0.001 A 
HETATM    4  C   UNK     0       7.974   6.379   4.906  0.00  0.00     0.013 A 
HETATM    5  C   UNK     0       8.967   5.514   5.408  0.00  0.00    -0.019 A 
HETATM    6  C   UNK     0      10.299   5.627   5.000  0.00  0.00    -0.043 A 
HETATM    7  C   UNK     0       8.886   4.468   6.320  0.00  0.00    -0.016 A 
HETATM    8  C   UNK     0      10.157   3.906   6.492  0.00  0.00    -0.032 A 
HETATM    9  C   UNK     0      11.151   4.622   5.657  0.00  0.00     0.080 A 
HETATM   10  C   UNK     0       7.771   3.987   7.028  0.00  0.00     0.042 A 
HETATM   11  C   UNK     0       7.930   2.913   7.935  0.00  0.00     0.036 A 
HETATM   12  C   UNK     0       9.219   2.353   8.113  0.00  0.00     0.042 A 
HETATM   13  C   UNK     0      10.351   2.825   7.393  0.00  0.00    -0.016 A 
ENDROOT
BRANCH  13  14
HETATM   14  C   UNK     0      11.626   2.229   7.592  0.00  0.00    -0.023 A 
HETATM   15  C   UNK     0      12.058   1.146   6.788  0.00  0.00     0.029 A 
HETATM   16  C   UNK     0      13.334   0.592   6.990  0.00  0.00     0.088 A 
HETATM   17  N   UNK     0      14.140   1.082   7.966  0.00  0.00    -0.375 N 
HETATM   18  C   UNK     0      13.758   2.103   8.776  0.00  0.00     0.088 A 
HETATM   19  HN  UNK     0      15.063   0.669   8.095  1.00  0.00     0.164 HD
HETATM   20  C   UNK     0      12.492   2.697   8.610  0.00  0.00     0.029 A 
ENDBRANCH  13  14
BRANCH  11  21
HETATM   21  N   UNK     0       6.902   2.426   8.699  0.00  0.00    -0.327 N 
HETATM   22  C   UNK     0       5.668   2.004   8.290  0.00  0.00     0.223 C 
HETATM   23  O   UNK     0       5.373   1.859   7.079  0.00  0.00    -0.273 OA
HETATM   24  H   UNK     0       7.076   2.359   9.652  0.00  0.00     0.169 HD
BRANCH  22  25
HETATM   25  C   UNK     0       4.638   1.689   9.304  0.00  0.00     0.118 C 
BRANCH  25  26
HETATM   26  C   UNK     0       4.876   0.296   9.937  0.00  0.00     0.124 C 
HETATM   27 Cl   UNK     0       3.576  -0.819   9.530  0.00  0.00    -0.130 Cl
ENDBRANCH  25  26
ENDBRANCH  22  25
ENDBRANCH  11  21
TORSDOF 4
ENDMDL
MODEL 4
REMARK VINA RESULT:      -6.9      1.937      5.082
REMARK  4 active torsions:
REMARK  status: ('A' for Active; 'I' for Inactive)
REMARK    1  A    between atoms: C_11  and  N_14 
REMARK    2  A    between atoms: C_13  and  C_21 
REMARK       I    between atoms: N_14  and  C_15 
REMARK    3  A    between atoms: C_15  and  C_16 
REMARK    4  A    between atoms: C_16  and  C_17 
ROOT
HETATM    1  C   UNK     0      -7.711   2.509  -3.786  0.00  0.00     0.008 A 
HETATM    2  C   UNK     0      -7.259   1.659  -4.817  0.00  0.00     0.001 A 
HETATM    3  C   UNK     0      -6.309   2.117  -5.755  0.00  0.00     0.001 A 
HETATM    4  C   UNK     0      -5.811   3.433  -5.681  0.00  0.00     0.013 A 
HETATM    5  C   UNK     0      -6.275   4.274  -4.650  0.00  0.00    -0.019 A 
HETATM    6  C   UNK     0      -7.208   3.823  -3.713  0.00  0.00    -0.043 A 
HETATM    7  C   UNK     0      -5.961   5.593  -4.341  0.00  0.00    -0.016 A 
HETATM    8  C   UNK     0      -6.694   5.989  -3.216  0.00  0.00    -0.032 A 
HETATM    9  C   UNK     0      -7.540   4.872  -2.734  0.00  0.00     0.080 A 
HETATM   10  C   UNK     0      -5.056   6.464  -4.971  0.00  0.00     0.042 A 
HETATM   11  C   UNK     0      -4.878   7.772  -4.463  0.00  0.00     0.036 A 
HETATM   12  C   UNK     0      -5.615   8.168  -3.319  0.00  0.00     0.042 A 
HETATM   13  C   UNK     0      -6.540   7.297  -2.682  0.00  0.00    -0.016 A 
ENDROOT
BRANCH  13  14
HETATM   14  C   UNK     0      -7.268   7.735  -1.542  0.00  0.00    -0.023 A 
HETATM   15  C   UNK     0      -8.624   8.130  -1.650  0.00  0.00     0.029 A 
HETATM   16  C   UNK     0      -9.327   8.535  -0.502  0.00  0.00     0.088 A 
HETATM   17  N   UNK     0      -8.701   8.567   0.701  0.00  0.00    -0.375 N 
HETATM   18  C   UNK     0      -7.396   8.221   0.848  0.00  0.00     0.088 A 
HETATM   19  HN  UNK     0      -9.228   8.860   1.523  1.00  0.00     0.164 HD
HETATM   20  C   UNK     0      -6.650   7.801  -0.270  0.00  0.00     0.029 A 
ENDBRANCH  13  14
BRANCH  11  21
HETATM   21  N   UNK     0      -3.976   8.659  -4.990  0.00  0.00    -0.327 N 
HETATM   22  C   UNK     0      -2.649   8.796  -4.695  0.00  0.00     0.223 C 
HETATM   23  O   UNK     0      -2.031   7.971  -3.980  0.00  0.00    -0.273 OA
HETATM   24  H   UNK     0      -4.322   9.261  -5.670  0.00  0.00     0.169 HD
BRANCH  22  25
HETATM   25  C   UNK     0      -1.899   9.946  -5.247  0.00  0.00     0.118 C 
BRANCH  25  26
HETATM   26  C   UNK     0      -0.371   9.741  -5.108  0.00  0.00     0.124 C 
HETATM   27 Cl   UNK     0       0.236  10.460  -3.620  0.00  0.00    -0.130 Cl
ENDBRANCH  25  26
ENDBRANCH  22  25
ENDBRANCH  11  21
TORSDOF 4
ENDMDL
MODEL 5
REMARK VINA RESULT:      -6.9      2.471      5.338
REMARK  4 active torsions:
REMARK  status: ('A' for Active; 'I' for Inactive)
REMARK    1  A    between atoms: C_11  and  N_14 
REMARK    2  A    between atoms: C_13  and  C_21 
REMARK       I    between atoms: N_14  and  C_15 
REMARK    3  A    between atoms: C_15  and  C_16 
REMARK    4  A    between atoms: C_16  and  C_17 
ROOT
HETATM    1  C   UNK     0      -8.221   2.200  -4.572  0.00  0.00     0.008 A 
HETATM    2  C   UNK     0      -7.307   1.631  -5.484  0.00  0.00     0.001 A 
HETATM    3  C   UNK     0      -6.150   2.341  -5.872  0.00  0.00     0.001 A 
HETATM    4  C   UNK     0      -5.902   3.632  -5.363  0.00  0.00     0.013 A 
HETATM    5  C   UNK     0      -6.826   4.191  -4.459  0.00  0.00    -0.019 A 
HETATM    6  C   UNK     0      -7.968   3.488  -4.064  0.00  0.00    -0.043 A 
HETATM    7  C   UNK     0      -6.835   5.421  -3.810  0.00  0.00    -0.016 A 
HETATM    8  C   UNK     0      -7.980   5.512  -3.009  0.00  0.00    -0.032 A 
HETATM    9  C   UNK     0      -8.780   4.269  -3.115  0.00  0.00     0.080 A 
HETATM   10  C   UNK     0      -5.891   6.461  -3.861  0.00  0.00     0.042 A 
HETATM   11  C   UNK     0      -6.096   7.628  -3.088  0.00  0.00     0.036 A 
HETATM   12  C   UNK     0      -7.252   7.713  -2.271  0.00  0.00     0.042 A 
HETATM   13  C   UNK     0      -8.217   6.670  -2.222  0.00  0.00    -0.016 A 
ENDROOT
BRANCH  13  14
HETATM   14  C   UNK     0      -9.368   6.799  -1.398  0.00  0.00    -0.023 A 
HETATM   15  C   UNK     0      -9.276   6.666   0.009  0.00  0.00     0.029 A 
HETATM   16  C   UNK     0     -10.426   6.823   0.802  0.00  0.00     0.088 A 
HETATM   17  N   UNK     0     -11.623   7.082   0.217  0.00  0.00    -0.375 N 
HETATM   18  C   UNK     0     -11.763   7.194  -1.129  0.00  0.00     0.088 A 
HETATM   19  HN  UNK     0     -12.446   7.196   0.809  1.00  0.00     0.164 HD
HETATM   20  C   UNK     0     -10.640   7.052  -1.966  0.00  0.00     0.029 A 
ENDBRANCH  13  14
BRANCH  11  21
HETATM   21  N   UNK     0      -5.196   8.660  -3.044  0.00  0.00    -0.327 N 
HETATM   22  C   UNK     0      -4.187   8.868  -2.146  0.00  0.00     0.223 C 
HETATM   23  O   UNK     0      -3.850   8.004  -1.301  0.00  0.00    -0.273 OA
HETATM   24  H   UNK     0      -5.277   9.324  -3.749  0.00  0.00     0.169 HD
BRANCH  22  25
HETATM   25  C   UNK     0      -3.448  10.149  -2.171  0.00  0.00     0.118 C 
BRANCH  25  26
HETATM   26  C   UNK     0      -2.660  10.320  -3.493  0.00  0.00     0.124 C 
HETATM   27 Cl   UNK     0      -1.900   8.809  -3.981  0.00  0.00    -0.130 Cl
ENDBRANCH  25  26
ENDBRANCH  22  25
ENDBRANCH  11  21
TORSDOF 4
ENDMDL
MODEL 6
REMARK VINA RESULT:      -6.7     17.348     19.684
REMARK  4 active torsions:
REMARK  status: ('A' for Active; 'I' for Inactive)
REMARK    1  A    between atoms: C_11  and  N_14 
REMARK    2  A    between atoms: C_13  and  C_21 
REMARK       I    between atoms: N_14  and  C_15 
REMARK    3  A    between atoms: C_15  and  C_16 
REMARK    4  A    between atoms: C_16  and  C_17 
ROOT
HETATM    1  C   UNK     0      12.159   7.234   9.485  0.00  0.00     0.008 A 
HETATM    2  C   UNK     0      12.456   6.941  10.833  0.00  0.00     0.001 A 
HETATM    3  C   UNK     0      11.852   5.837  11.473  0.00  0.00     0.001 A 
HETATM    4  C   UNK     0      10.936   5.023  10.777  0.00  0.00     0.013 A 
HETATM    5  C   UNK     0      10.644   5.331   9.434  0.00  0.00    -0.019 A 
HETATM    6  C   UNK     0      11.246   6.416   8.793  0.00  0.00    -0.043 A 
HETATM    7  C   UNK     0       9.796   4.711   8.522  0.00  0.00    -0.016 A 
HETATM    8  C   UNK     0       9.847   5.399   7.304  0.00  0.00    -0.032 A 
HETATM    9  C   UNK     0      10.791   6.539   7.397  0.00  0.00     0.080 A 
HETATM   10  C   UNK     0       8.996   3.568   8.685  0.00  0.00     0.042 A 
HETATM   11  C   UNK     0       8.223   3.096   7.598  0.00  0.00     0.036 A 
HETATM   12  C   UNK     0       8.283   3.790   6.364  0.00  0.00     0.042 A 
HETATM   13  C   UNK     0       9.081   4.954   6.194  0.00  0.00    -0.016 A 
ENDROOT
BRANCH  13  14
HETATM   14  C   UNK     0       9.107   5.628   4.942  0.00  0.00    -0.023 A 
HETATM   15  C   UNK     0       8.106   6.571   4.601  0.00  0.00     0.029 A 
HETATM   16  C   UNK     0       8.170   7.241   3.367  0.00  0.00     0.088 A 
HETATM   17  N   UNK     0       9.176   6.969   2.498  0.00  0.00    -0.375 N 
HETATM   18  C   UNK     0      10.143   6.056   2.772  0.00  0.00     0.088 A 
HETATM   19  HN  UNK     0       9.208   7.468   1.609  1.00  0.00     0.164 HD
HETATM   20  C   UNK     0      10.128   5.363   3.998  0.00  0.00     0.029 A 
ENDBRANCH  13  14
BRANCH  11  21
HETATM   21  N   UNK     0       7.460   1.959   7.664  0.00  0.00    -0.327 N 
HETATM   22  C   UNK     0       6.171   1.827   8.097  0.00  0.00     0.223 C 
HETATM   23  O   UNK     0       5.442   2.816   8.351  0.00  0.00    -0.273 OA
HETATM   24  H   UNK     0       7.886   1.144   7.352  0.00  0.00     0.169 HD
BRANCH  22  25
HETATM   25  C   UNK     0       5.597   0.474   8.262  0.00  0.00     0.118 C 
BRANCH  25  26
HETATM   26  C   UNK     0       5.020   0.275   9.685  0.00  0.00     0.124 C 
HETATM   27 Cl   UNK     0       3.469  -0.555   9.633  0.00  0.00    -0.130 Cl
ENDBRANCH  25  26
ENDBRANCH  22  25
ENDBRANCH  11  21
TORSDOF 4
ENDMDL
MODEL 7
REMARK VINA RESULT:      -6.7      3.999      6.358
REMARK  4 active torsions:
REMARK  status: ('A' for Active; 'I' for Inactive)
REMARK    1  A    between atoms: C_11  and  N_14 
REMARK    2  A    between atoms: C_13  and  C_21 
REMARK       I    between atoms: N_14  and  C_15 
REMARK    3  A    between atoms: C_15  and  C_16 
REMARK    4  A    between atoms: C_16  and  C_17 
ROOT
HETATM    1  C   UNK     0      -3.648   8.397  -4.983  0.00  0.00     0.008 A 
HETATM    2  C   UNK     0      -3.277   9.674  -4.513  0.00  0.00     0.001 A 
HETATM    3  C   UNK     0      -3.910  10.230  -3.381  0.00  0.00     0.001 A 
HETATM    4  C   UNK     0      -4.929   9.521  -2.714  0.00  0.00     0.013 A 
HETATM    5  C   UNK     0      -5.294   8.249  -3.197  0.00  0.00    -0.019 A 
HETATM    6  C   UNK     0      -4.664   7.690  -4.312  0.00  0.00    -0.043 A 
HETATM    7  C   UNK     0      -6.247   7.342  -2.745  0.00  0.00    -0.016 A 
HETATM    8  C   UNK     0      -6.235   6.211  -3.569  0.00  0.00    -0.032 A 
HETATM    9  C   UNK     0      -5.209   6.358  -4.628  0.00  0.00     0.080 A 
HETATM   10  C   UNK     0      -7.113   7.437  -1.642  0.00  0.00     0.042 A 
HETATM   11  C   UNK     0      -7.994   6.369  -1.352  0.00  0.00     0.036 A 
HETATM   12  C   UNK     0      -7.973   5.221  -2.183  0.00  0.00     0.042 A 
HETATM   13  C   UNK     0      -7.108   5.121  -3.308  0.00  0.00    -0.016 A 
ENDROOT
BRANCH  13  14
HETATM   14  C   UNK     0      -7.125   3.957  -4.123  0.00  0.00    -0.023 A 
HETATM   15  C   UNK     0      -8.311   3.541  -4.777  0.00  0.00     0.029 A 
HETATM   16  C   UNK     0      -8.293   2.400  -5.598  0.00  0.00     0.088 A 
HETATM   17  N   UNK     0      -7.147   1.689  -5.745  0.00  0.00    -0.375 N 
HETATM   18  C   UNK     0      -5.993   2.035  -5.119  0.00  0.00     0.088 A 
HETATM   19  HN  UNK     0      -7.152   0.866  -6.347  1.00  0.00     0.164 HD
HETATM   20  C   UNK     0      -5.957   3.175  -4.292  0.00  0.00     0.029 A 
ENDBRANCH  13  14
BRANCH  11  21
HETATM   21  N   UNK     0      -8.828   6.365  -0.266  0.00  0.00    -0.327 N 
HETATM   22  C   UNK     0     -10.036   6.989  -0.121  0.00  0.00     0.223 C 
HETATM   23  O   UNK     0     -10.627   7.540  -1.081  0.00  0.00    -0.273 OA
HETATM   24  H   UNK     0      -8.530   5.842   0.497  0.00  0.00     0.169 HD
BRANCH  22  25
HETATM   25  C   UNK     0     -10.687   7.008   1.207  0.00  0.00     0.118 C 
BRANCH  25  26
HETATM   26  C   UNK     0     -12.230   6.974   1.079  0.00  0.00     0.124 C 
HETATM   27 Cl   UNK     0     -12.976   6.349   2.545  0.00  0.00    -0.130 Cl
ENDBRANCH  25  26
ENDBRANCH  22  25
ENDBRANCH  11  21
TORSDOF 4
ENDMDL
MODEL 8
REMARK VINA RESULT:      -6.6      2.731      5.402
REMARK  4 active torsions:
REMARK  status: ('A' for Active; 'I' for Inactive)
REMARK    1  A    between atoms: C_11  and  N_14 
REMARK    2  A    between atoms: C_13  and  C_21 
REMARK       I    between atoms: N_14  and  C_15 
REMARK    3  A    between atoms: C_15  and  C_16 
REMARK    4  A    between atoms: C_16  and  C_17 
ROOT
HETATM    1  C   UNK     0      -7.039   2.121  -4.366  0.00  0.00     0.008 A 
HETATM    2  C   UNK     0      -6.081   1.608  -5.266  0.00  0.00     0.001 A 
HETATM    3  C   UNK     0      -5.125   2.462  -5.856  0.00  0.00     0.001 A 
HETATM    4  C   UNK     0      -5.124   3.840  -5.563  0.00  0.00     0.013 A 
HETATM    5  C   UNK     0      -6.090   4.341  -4.668  0.00  0.00    -0.019 A 
HETATM    6  C   UNK     0      -7.032   3.498  -4.073  0.00  0.00    -0.043 A 
HETATM    7  C   UNK     0      -6.319   5.632  -4.204  0.00  0.00    -0.016 A 
HETATM    8  C   UNK     0      -7.407   5.620  -3.324  0.00  0.00    -0.032 A 
HETATM    9  C   UNK     0      -7.933   4.242  -3.177  0.00  0.00     0.080 A 
HETATM   10  C   UNK     0      -5.620   6.817  -4.490  0.00  0.00     0.042 A 
HETATM   11  C   UNK     0      -6.019   8.028  -3.877  0.00  0.00     0.036 A 
HETATM   12  C   UNK     0      -7.116   8.011  -2.979  0.00  0.00     0.042 A 
HETATM   13  C   UNK     0      -7.835   6.819  -2.693  0.00  0.00    -0.016 A 
ENDROOT
BRANCH  13  14
HETATM   14  C   UNK     0      -8.937   6.846  -1.794  0.00  0.00    -0.023 A 
HETATM   15  C   UNK     0      -8.748   6.656  -0.403  0.00  0.00     0.029 A 
HETATM   16  C   UNK     0      -9.852   6.714   0.465  0.00  0.00     0.088 A 
HETATM   17  N   UNK     0     -11.096   6.929  -0.032  0.00  0.00    -0.375 N 
HETATM   18  C   UNK     0     -11.328   7.091  -1.360  0.00  0.00     0.088 A 
HETATM   19  HN  UNK     0     -11.884   6.970   0.614  1.00  0.00     0.164 HD
HETATM   20  C   UNK     0     -10.255   7.050  -2.271  0.00  0.00     0.029 A 
ENDBRANCH  13  14
BRANCH  11  21
HETATM   21  N   UNK     0      -5.356   9.212  -4.064  0.00  0.00    -0.327 N 
HETATM   22  C   UNK     0      -5.602  10.185  -4.993  0.00  0.00     0.223 C 
HETATM   23  O   UNK     0      -6.623  10.176  -5.721  0.00  0.00    -0.273 OA
HETATM   24  H   UNK     0      -4.624   9.390  -3.451  0.00  0.00     0.169 HD
BRANCH  22  25
HETATM   25  C   UNK     0      -4.644  11.302  -5.142  0.00  0.00     0.118 C 
BRANCH  25  26
HETATM   26  C   UNK     0      -3.676  11.061  -6.327  0.00  0.00     0.124 C 
HETATM   27 Cl   UNK     0      -4.332  11.706  -7.827  0.00  0.00    -0.130 Cl
ENDBRANCH  25  26
ENDBRANCH  22  25
ENDBRANCH  11  21
TORSDOF 4
ENDMDL
MODEL 9
REMARK VINA RESULT:      -6.6      3.205      6.837
REMARK  4 active torsions:
REMARK  status: ('A' for Active; 'I' for Inactive)
REMARK    1  A    between atoms: C_11  and  N_14 
REMARK    2  A    between atoms: C_13  and  C_21 
REMARK       I    between atoms: N_14  and  C_15 
REMARK    3  A    between atoms: C_15  and  C_16 
REMARK    4  A    between atoms: C_16  and  C_17 
ROOT
HETATM    1  C   UNK     0      -3.067  11.176  -3.466  0.00  0.00     0.008 A 
HETATM    2  C   UNK     0      -2.096  11.299  -4.482  0.00  0.00     0.001 A 
HETATM    3  C   UNK     0      -1.935  10.277  -5.443  0.00  0.00     0.001 A 
HETATM    4  C   UNK     0      -2.734   9.118  -5.391  0.00  0.00     0.013 A 
HETATM    5  C   UNK     0      -3.695   9.005  -4.367  0.00  0.00    -0.019 A 
HETATM    6  C   UNK     0      -3.865  10.017  -3.419  0.00  0.00    -0.043 A 
HETATM    7  C   UNK     0      -4.604   7.992  -4.079  0.00  0.00    -0.016 A 
HETATM    8  C   UNK     0      -5.348   8.348  -2.948  0.00  0.00    -0.032 A 
HETATM    9  C   UNK     0      -4.924   9.680  -2.453  0.00  0.00     0.080 A 
HETATM   10  C   UNK     0      -4.835   6.784  -4.758  0.00  0.00     0.042 A 
HETATM   11  C   UNK     0      -5.841   5.904  -4.294  0.00  0.00     0.036 A 
HETATM   12  C   UNK     0      -6.598   6.271  -3.154  0.00  0.00     0.042 A 
HETATM   13  C   UNK     0      -6.363   7.486  -2.454  0.00  0.00    -0.016 A 
ENDROOT
BRANCH  13  14
HETATM   14  C   UNK     0      -7.138   7.813  -1.307  0.00  0.00    -0.023 A 
HETATM   15  C   UNK     0      -8.538   8.005  -1.403  0.00  0.00     0.029 A 
HETATM   16  C   UNK     0      -9.283   8.302  -0.249  0.00  0.00     0.088 A 
HETATM   17  N   UNK     0      -8.658   8.425   0.948  0.00  0.00    -0.375 N 
HETATM   18  C   UNK     0      -7.315   8.275   1.085  0.00  0.00     0.088 A 
HETATM   19  HN  UNK     0      -9.215   8.638   1.776  1.00  0.00     0.164 HD
HETATM   20  C   UNK     0      -6.525   7.969  -0.040  0.00  0.00     0.029 A 
ENDBRANCH  13  14
BRANCH  11  21
HETATM   21  N   UNK     0      -6.161   4.735  -4.933  0.00  0.00    -0.327 N 
HETATM   22  C   UNK     0      -5.693   3.476  -4.682  0.00  0.00     0.223 C 
HETATM   23  O   UNK     0      -4.994   3.206  -3.676  0.00  0.00    -0.273 OA
HETATM   24  H   UNK     0      -6.813   4.807  -5.649  0.00  0.00     0.169 HD
BRANCH  22  25
HETATM   25  C   UNK     0      -6.028   2.379  -5.616  0.00  0.00     0.118 C 
BRANCH  25  26
HETATM   26  C   UNK     0      -7.507   1.944  -5.469  0.00  0.00     0.124 C 
HETATM   27 Cl   UNK     0      -8.019   1.989  -3.786  0.00  0.00    -0.130 Cl
ENDBRANCH  25  26
ENDBRANCH  22  25
ENDBRANCH  11  21
TORSDOF 4
ENDMDL
