MODEL 1
REMARK VINA RESULT:      -6.8      0.000      0.000
REMARK  4 active torsions:
REMARK  status: ('A' for Active; 'I' for Inactive)
REMARK    1  A    between atoms: C_11  and  N_14 
REMARK    2  A    between atoms: C_13  and  C_21 
REMARK       I    between atoms: N_14  and  C_15 
REMARK    3  A    between atoms: C_15  and  C_16 
REMARK    4  A    between atoms: C_16  and  C_17 
ROOT
HETATM    1  C   UNK     0      -9.025   2.810   4.643  0.00  0.00     0.008 A 
HETATM    2  C   UNK     0      -8.563   2.064   3.539  0.00  0.00     0.001 A 
HETATM    3  C   UNK     0      -7.340   1.362   3.612  0.00  0.00     0.001 A 
HETATM    4  C   UNK     0      -6.562   1.409   4.786  0.00  0.00     0.013 A 
HETATM    5  C   UNK     0      -7.032   2.163   5.879  0.00  0.00    -0.019 A 
HETATM    6  C   UNK     0      -8.246   2.852   5.815  0.00  0.00    -0.043 A 
HETATM    7  C   UNK     0      -6.483   2.381   7.138  0.00  0.00    -0.016 A 
HETATM    8  C   UNK     0      -7.335   3.212   7.875  0.00  0.00    -0.032 A 
HETATM    9  C   UNK     0      -8.530   3.563   7.072  0.00  0.00     0.080 A 
HETATM   10  C   UNK     0      -5.291   1.880   7.688  0.00  0.00     0.042 A 
HETATM   11  C   UNK     0      -4.938   2.220   9.016  0.00  0.00     0.036 A 
HETATM   12  C   UNK     0      -5.807   3.054   9.762  0.00  0.00     0.042 A 
HETATM   13  C   UNK     0      -7.009   3.574   9.210  0.00  0.00    -0.016 A 
ENDROOT
BRANCH  13  14
HETATM   14  C   UNK     0      -7.849   4.417   9.989  0.00  0.00    -0.023 A 
HETATM   15  C   UNK     0      -7.674   5.822   9.987  0.00  0.00     0.029 A 
HETATM   16  C   UNK     0      -8.536   6.634  10.746  0.00  0.00     0.088 A 
HETATM   17  N   UNK     0      -9.516   6.069  11.493  0.00  0.00    -0.375 N 
HETATM   18  C   UNK     0      -9.706   4.725  11.545  0.00  0.00     0.088 A 
HETATM   19  HN  UNK     0     -10.133   6.674  12.035  1.00  0.00     0.164 HD
HETATM   20  C   UNK     0      -8.874   3.869  10.797  0.00  0.00     0.029 A 
ENDBRANCH  13  14
BRANCH  11  21
HETATM   21  N   UNK     0      -3.820   1.729   9.638  0.00  0.00    -0.327 N 
HETATM   22  C   UNK     0      -2.616   2.345   9.829  0.00  0.00     0.223 C 
HETATM   23  O   UNK     0      -2.436   3.562   9.580  0.00  0.00    -0.273 OA
HETATM   24  H   UNK     0      -3.897   0.831  10.002  0.00  0.00     0.169 HD
BRANCH  22  25
HETATM   25  C   UNK     0      -1.478   1.565  10.362  0.00  0.00     0.118 C 
BRANCH  25  26
HETATM   26  C   UNK     0      -1.492   1.533  11.910  0.00  0.00     0.124 C 
HETATM   27 Cl   UNK     0      -0.951   3.066  12.584  0.00  0.00    -0.130 Cl
ENDBRANCH  25  26
ENDBRANCH  22  25
ENDBRANCH  11  21
TORSDOF 4
ENDMDL
MODEL 2
REMARK VINA RESULT:      -6.8     18.999     21.867
REMARK  4 active torsions:
REMARK  status: ('A' for Active; 'I' for Inactive)
REMARK    1  A    between atoms: C_11  and  N_14 
REMARK    2  A    between atoms: C_13  and  C_21 
REMARK       I    between atoms: N_14  and  C_15 
REMARK    3  A    between atoms: C_15  and  C_16 
REMARK    4  A    between atoms: C_16  and  C_17 
ROOT
HETATM    1  C   UNK     0      13.295  -6.501   0.367  0.00  0.00     0.008 A 
HETATM    2  C   UNK     0      13.608  -7.854   0.119  0.00  0.00     0.001 A 
HETATM    3  C   UNK     0      12.940  -8.567  -0.900  0.00  0.00     0.001 A 
HETATM    4  C   UNK     0      11.944  -7.938  -1.673  0.00  0.00     0.013 A 
HETATM    5  C   UNK     0      11.637  -6.589  -1.411  0.00  0.00    -0.019 A 
HETATM    6  C   UNK     0      12.302  -5.876  -0.410  0.00  0.00    -0.043 A 
HETATM    7  C   UNK     0      10.717  -5.732  -2.007  0.00  0.00    -0.016 A 
HETATM    8  C   UNK     0      10.785  -4.479  -1.387  0.00  0.00    -0.032 A 
HETATM    9  C   UNK     0      11.816  -4.488  -0.323  0.00  0.00     0.080 A 
HETATM   10  C   UNK     0       9.836  -5.976  -3.075  0.00  0.00     0.042 A 
HETATM   11  C   UNK     0       8.996  -4.935  -3.538  0.00  0.00     0.036 A 
HETATM   12  C   UNK     0       9.074  -3.665  -2.914  0.00  0.00     0.042 A 
HETATM   13  C   UNK     0       9.954  -3.413  -1.826  0.00  0.00    -0.016 A 
ENDROOT
BRANCH  13  14
HETATM   14  C   UNK     0       9.995  -2.127  -1.220  0.00  0.00    -0.023 A 
HETATM   15  C   UNK     0      10.452  -0.996  -1.940  0.00  0.00     0.029 A 
HETATM   16  C   UNK     0      10.457   0.267  -1.324  0.00  0.00     0.088 A 
HETATM   17  N   UNK     0      10.044   0.397  -0.039  0.00  0.00    -0.375 N 
HETATM   18  C   UNK     0       9.620  -0.662   0.697  0.00  0.00     0.088 A 
HETATM   19  HN  UNK     0      10.052   1.322   0.390  1.00  0.00     0.164 HD
HETATM   20  C   UNK     0       9.589  -1.949   0.124  0.00  0.00     0.029 A 
ENDBRANCH  13  14
BRANCH  11  21
HETATM   21  N   UNK     0       8.150  -5.080  -4.606  0.00  0.00    -0.327 N 
HETATM   22  C   UNK     0       6.838  -5.461  -4.603  0.00  0.00     0.223 C 
HETATM   23  O   UNK     0       6.173  -5.575  -3.544  0.00  0.00    -0.273 OA
HETATM   24  H   UNK     0       8.528  -4.874  -5.477  0.00  0.00     0.169 HD
BRANCH  22  25
HETATM   25  C   UNK     0       6.160  -5.735  -5.888  0.00  0.00     0.118 C 
BRANCH  25  26
HETATM   26  C   UNK     0       6.936  -6.784  -6.723  0.00  0.00     0.124 C 
HETATM   27 Cl   UNK     0       7.180  -8.269  -5.811  0.00  0.00    -0.130 Cl
ENDBRANCH  25  26
ENDBRANCH  22  25
ENDBRANCH  11  21
TORSDOF 4
ENDMDL
MODEL 3
REMARK VINA RESULT:      -6.6     17.450     19.992
REMARK  4 active torsions:
REMARK  status: ('A' for Active; 'I' for Inactive)
REMARK    1  A    between atoms: C_11  and  N_14 
REMARK    2  A    between atoms: C_13  and  C_21 
REMARK       I    between atoms: N_14  and  C_15 
REMARK    3  A    between atoms: C_15  and  C_16 
REMARK    4  A    between atoms: C_16  and  C_17 
ROOT
HETATM    1  C   UNK     0       4.408   9.743 -11.114  0.00  0.00     0.008 A 
HETATM    2  C   UNK     0       4.818   9.129 -12.316  0.00  0.00     0.001 A 
HETATM    3  C   UNK     0       4.233   7.914 -12.734  0.00  0.00     0.001 A 
HETATM    4  C   UNK     0       3.240   7.295 -11.948  0.00  0.00     0.013 A 
HETATM    5  C   UNK     0       2.844   7.915 -10.747  0.00  0.00    -0.019 A 
HETATM    6  C   UNK     0       3.413   9.122 -10.334  0.00  0.00    -0.043 A 
HETATM    7  C   UNK     0       1.905   7.536  -9.794  0.00  0.00    -0.016 A 
HETATM    8  C   UNK     0       1.877   8.491  -8.770  0.00  0.00    -0.032 A 
HETATM    9  C   UNK     0       2.842   9.579  -9.056  0.00  0.00     0.080 A 
HETATM   10  C   UNK     0       1.056   6.416  -9.776  0.00  0.00     0.042 A 
HETATM   11  C   UNK     0       0.151   6.244  -8.702  0.00  0.00     0.036 A 
HETATM   12  C   UNK     0       0.119   7.216  -7.672  0.00  0.00     0.042 A 
HETATM   13  C   UNK     0       0.981   8.346  -7.676  0.00  0.00    -0.016 A 
ENDROOT
BRANCH  13  14
HETATM   14  C   UNK     0       0.926   9.294  -6.618  0.00  0.00    -0.023 A 
HETATM   15  C   UNK     0       1.793   9.194  -5.502  0.00  0.00     0.029 A 
HETATM   16  C   UNK     0       1.733  10.159  -4.483  0.00  0.00     0.088 A 
HETATM   17  N   UNK     0       0.833  11.172  -4.559  0.00  0.00    -0.375 N 
HETATM   18  C   UNK     0      -0.034  11.294  -5.596  0.00  0.00     0.088 A 
HETATM   19  HN  UNK     0       0.807  11.864  -3.811  1.00  0.00     0.164 HD
HETATM   20  C   UNK     0      -0.009  10.357  -6.647  0.00  0.00     0.029 A 
ENDBRANCH  13  14
BRANCH  11  21
HETATM   21  N   UNK     0      -0.743   5.207  -8.641  0.00  0.00    -0.327 N 
HETATM   22  C   UNK     0      -0.531   3.929  -8.207  0.00  0.00     0.223 C 
HETATM   23  O   UNK     0       0.529   3.580  -7.634  0.00  0.00    -0.273 OA
HETATM   24  H   UNK     0      -1.648   5.409  -8.932  0.00  0.00     0.169 HD
BRANCH  22  25
HETATM   25  C   UNK     0      -1.589   2.913  -8.402  0.00  0.00     0.118 C 
BRANCH  25  26
HETATM   26  C   UNK     0      -1.942   2.746  -9.900  0.00  0.00     0.124 C 
HETATM   27 Cl   UNK     0      -0.499   2.469 -10.868  0.00  0.00    -0.130 Cl
ENDBRANCH  25  26
ENDBRANCH  22  25
ENDBRANCH  11  21
TORSDOF 4
ENDMDL
MODEL 4
REMARK VINA RESULT:      -6.5      1.887      5.142
REMARK  4 active torsions:
REMARK  status: ('A' for Active; 'I' for Inactive)
REMARK    1  A    between atoms: C_11  and  N_14 
REMARK    2  A    between atoms: C_13  and  C_21 
REMARK       I    between atoms: N_14  and  C_15 
REMARK    3  A    between atoms: C_15  and  C_16 
REMARK    4  A    between atoms: C_16  and  C_17 
ROOT
HETATM    1  C   UNK     0      -9.999   6.400   8.971  0.00  0.00     0.008 A 
HETATM    2  C   UNK     0      -9.964   7.042  10.227  0.00  0.00     0.001 A 
HETATM    3  C   UNK     0      -8.965   6.716  11.169  0.00  0.00     0.001 A 
HETATM    4  C   UNK     0      -7.998   5.736  10.871  0.00  0.00     0.013 A 
HETATM    5  C   UNK     0      -8.048   5.097   9.616  0.00  0.00    -0.019 A 
HETATM    6  C   UNK     0      -9.029   5.423   8.676  0.00  0.00    -0.043 A 
HETATM    7  C   UNK     0      -7.236   4.112   9.063  0.00  0.00    -0.016 A 
HETATM    8  C   UNK     0      -7.699   3.801   7.779  0.00  0.00    -0.032 A 
HETATM    9  C   UNK     0      -8.879   4.631   7.443  0.00  0.00     0.080 A 
HETATM   10  C   UNK     0      -6.104   3.483   9.607  0.00  0.00     0.042 A 
HETATM   11  C   UNK     0      -5.411   2.513   8.845  0.00  0.00     0.036 A 
HETATM   12  C   UNK     0      -5.876   2.207   7.542  0.00  0.00     0.042 A 
HETATM   13  C   UNK     0      -7.027   2.830   6.988  0.00  0.00    -0.016 A 
ENDROOT
BRANCH  13  14
HETATM   14  C   UNK     0      -7.468   2.487   5.680  0.00  0.00    -0.023 A 
HETATM   15  C   UNK     0      -8.787   2.779   5.256  0.00  0.00     0.029 A 
HETATM   16  C   UNK     0      -9.188   2.452   3.949  0.00  0.00     0.088 A 
HETATM   17  N   UNK     0      -8.319   1.841   3.106  0.00  0.00    -0.375 N 
HETATM   18  C   UNK     0      -7.053   1.521   3.476  0.00  0.00     0.088 A 
HETATM   19  HN  UNK     0      -8.627   1.614   2.160  1.00  0.00     0.164 HD
HETATM   20  C   UNK     0      -6.600   1.834   4.773  0.00  0.00     0.029 A 
ENDBRANCH  13  14
BRANCH  11  21
HETATM   21  N   UNK     0      -4.269   1.896   9.286  0.00  0.00    -0.327 N 
HETATM   22  C   UNK     0      -3.075   2.466   9.628  0.00  0.00     0.223 C 
HETATM   23  O   UNK     0      -2.928   3.707   9.735  0.00  0.00    -0.273 OA
HETATM   24  H   UNK     0      -4.318   0.930   9.379  0.00  0.00     0.169 HD
BRANCH  22  25
HETATM   25  C   UNK     0      -1.909   1.597   9.900  0.00  0.00     0.118 C 
BRANCH  25  26
HETATM   26  C   UNK     0      -1.759   1.312  11.415  0.00  0.00     0.124 C 
HETATM   27 Cl   UNK     0      -0.074   1.053  11.850  0.00  0.00    -0.130 Cl
ENDBRANCH  25  26
ENDBRANCH  22  25
ENDBRANCH  11  21
TORSDOF 4
ENDMDL
MODEL 5
REMARK VINA RESULT:      -6.4     17.793     20.766
REMARK  4 active torsions:
REMARK  status: ('A' for Active; 'I' for Inactive)
REMARK    1  A    between atoms: C_11  and  N_14 
REMARK    2  A    between atoms: C_13  and  C_21 
REMARK       I    between atoms: N_14  and  C_15 
REMARK    3  A    between atoms: C_15  and  C_16 
REMARK    4  A    between atoms: C_16  and  C_17 
ROOT
HETATM    1  C   UNK     0      13.656   2.017  -0.532  0.00  0.00     0.008 A 
HETATM    2  C   UNK     0      14.100   2.557  -1.757  0.00  0.00     0.001 A 
HETATM    3  C   UNK     0      13.640   2.027  -2.981  0.00  0.00     0.001 A 
HETATM    4  C   UNK     0      12.741   0.942  -2.994  0.00  0.00     0.013 A 
HETATM    5  C   UNK     0      12.310   0.407  -1.764  0.00  0.00    -0.019 A 
HETATM    6  C   UNK     0      12.754   0.935  -0.550  0.00  0.00    -0.043 A 
HETATM    7  C   UNK     0      11.441  -0.642  -1.483  0.00  0.00    -0.016 A 
HETATM    8  C   UNK     0      11.335  -0.793  -0.095  0.00  0.00    -0.032 A 
HETATM    9  C   UNK     0      12.169   0.219   0.596  0.00  0.00     0.080 A 
HETATM   10  C   UNK     0      10.720  -1.463  -2.367  0.00  0.00     0.042 A 
HETATM   11  C   UNK     0       9.867  -2.465  -1.849  0.00  0.00     0.036 A 
HETATM   12  C   UNK     0       9.755  -2.610  -0.444  0.00  0.00     0.042 A 
HETATM   13  C   UNK     0      10.489  -1.791   0.457  0.00  0.00    -0.016 A 
ENDROOT
BRANCH  13  14
HETATM   14  C   UNK     0      10.357  -1.975   1.861  0.00  0.00    -0.023 A 
HETATM   15  C   UNK     0       9.355  -1.293   2.595  0.00  0.00     0.029 A 
HETATM   16  C   UNK     0       9.230  -1.513   3.978  0.00  0.00     0.088 A 
HETATM   17  N   UNK     0      10.081  -2.360   4.609  0.00  0.00    -0.375 N 
HETATM   18  C   UNK     0      11.072  -3.017   3.951  0.00  0.00     0.088 A 
HETATM   19  HN  UNK     0       9.974  -2.510   5.612  1.00  0.00     0.164 HD
HETATM   20  C   UNK     0      11.234  -2.836   2.564  0.00  0.00     0.029 A 
ENDBRANCH  13  14
BRANCH  11  21
HETATM   21  N   UNK     0       9.092  -3.268  -2.645  0.00  0.00    -0.327 N 
HETATM   22  C   UNK     0       9.256  -4.596  -2.926  0.00  0.00     0.223 C 
HETATM   23  O   UNK     0      10.093  -5.312  -2.325  0.00  0.00    -0.273 OA
HETATM   24  H   UNK     0       8.320  -2.843  -3.054  0.00  0.00     0.169 HD
BRANCH  22  25
HETATM   25  C   UNK     0       8.410  -5.227  -3.962  0.00  0.00     0.118 C 
BRANCH  25  26
HETATM   26  C   UNK     0       7.687  -6.481  -3.413  0.00  0.00     0.124 C 
HETATM   27 Cl   UNK     0       5.939  -6.281  -3.463  0.00  0.00    -0.130 Cl
ENDBRANCH  25  26
ENDBRANCH  22  25
ENDBRANCH  11  21
TORSDOF 4
ENDMDL
MODEL 6
REMARK VINA RESULT:      -6.4      2.268      5.300
REMARK  4 active torsions:
REMARK  status: ('A' for Active; 'I' for Inactive)
REMARK    1  A    between atoms: C_11  and  N_14 
REMARK    2  A    between atoms: C_13  and  C_21 
REMARK       I    between atoms: N_14  and  C_15 
REMARK    3  A    between atoms: C_15  and  C_16 
REMARK    4  A    between atoms: C_16  and  C_17 
ROOT
HETATM    1  C   UNK     0      -6.867   1.533   4.476  0.00  0.00     0.008 A 
HETATM    2  C   UNK     0      -7.936   1.757   3.583  0.00  0.00     0.001 A 
HETATM    3  C   UNK     0      -9.032   2.559   3.967  0.00  0.00     0.001 A 
HETATM    4  C   UNK     0      -9.077   3.137   5.251  0.00  0.00     0.013 A 
HETATM    5  C   UNK     0      -8.006   2.900   6.136  0.00  0.00    -0.019 A 
HETATM    6  C   UNK     0      -6.914   2.115   5.758  0.00  0.00    -0.043 A 
HETATM    7  C   UNK     0      -7.789   3.336   7.439  0.00  0.00    -0.016 A 
HETATM    8  C   UNK     0      -6.569   2.826   7.898  0.00  0.00    -0.032 A 
HETATM    9  C   UNK     0      -5.922   2.012   6.842  0.00  0.00     0.080 A 
HETATM   10  C   UNK     0      -8.585   4.169   8.243  0.00  0.00     0.042 A 
HETATM   11  C   UNK     0      -8.149   4.505   9.547  0.00  0.00     0.036 A 
HETATM   12  C   UNK     0      -6.908   3.994  10.005  0.00  0.00     0.042 A 
HETATM   13  C   UNK     0      -6.103   3.142   9.203  0.00  0.00    -0.016 A 
ENDROOT
BRANCH  13  14
HETATM   14  C   UNK     0      -4.869   2.642   9.704  0.00  0.00    -0.023 A 
HETATM   15  C   UNK     0      -4.841   1.601  10.664  0.00  0.00     0.029 A 
HETATM   16  C   UNK     0      -3.607   1.108  11.122  0.00  0.00     0.088 A 
HETATM   17  N   UNK     0      -2.449   1.643  10.661  0.00  0.00    -0.375 N 
HETATM   18  C   UNK     0      -2.428   2.659   9.760  0.00  0.00     0.088 A 
HETATM   19  HN  UNK     0      -1.563   1.271  11.004  1.00  0.00     0.164 HD
HETATM   20  C   UNK     0      -3.637   3.182   9.263  0.00  0.00     0.029 A 
ENDBRANCH  13  14
BRANCH  11  21
HETATM   21  N   UNK     0      -8.843   5.353  10.369  0.00  0.00    -0.327 N 
HETATM   22  C   UNK     0      -8.587   6.667  10.643  0.00  0.00     0.223 C 
HETATM   23  O   UNK     0      -7.728   7.330  10.013  0.00  0.00    -0.273 OA
HETATM   24  H   UNK     0      -9.625   4.976  10.805  0.00  0.00     0.169 HD
BRANCH  22  25
HETATM   25  C   UNK     0      -9.354   7.348  11.709  0.00  0.00     0.118 C 
BRANCH  25  26
HETATM   26  C   UNK     0      -9.052   6.738  13.099  0.00  0.00     0.124 C 
HETATM   27 Cl   UNK     0      -7.338   6.850  13.485  0.00  0.00    -0.130 Cl
ENDBRANCH  25  26
ENDBRANCH  22  25
ENDBRANCH  11  21
TORSDOF 4
ENDMDL
MODEL 7
REMARK VINA RESULT:      -6.0     15.681     18.275
REMARK  4 active torsions:
REMARK  status: ('A' for Active; 'I' for Inactive)
REMARK    1  A    between atoms: C_11  and  N_14 
REMARK    2  A    between atoms: C_13  and  C_21 
REMARK       I    between atoms: N_14  and  C_15 
REMARK    3  A    between atoms: C_15  and  C_16 
REMARK    4  A    between atoms: C_16  and  C_17 
ROOT
HETATM    1  C   UNK     0      -5.365  -5.877  -2.412  0.00  0.00     0.008 A 
HETATM    2  C   UNK     0      -4.849  -5.011  -3.399  0.00  0.00     0.001 A 
HETATM    3  C   UNK     0      -3.945  -5.492  -4.370  0.00  0.00     0.001 A 
HETATM    4  C   UNK     0      -3.538  -6.841  -4.358  0.00  0.00     0.013 A 
HETATM    5  C   UNK     0      -4.056  -7.695  -3.364  0.00  0.00    -0.019 A 
HETATM    6  C   UNK     0      -4.958  -7.226  -2.406  0.00  0.00    -0.043 A 
HETATM    7  C   UNK     0      -3.834  -9.045  -3.117  0.00  0.00    -0.016 A 
HETATM    8  C   UNK     0      -4.583  -9.440  -2.003  0.00  0.00    -0.032 A 
HETATM    9  C   UNK     0      -5.362  -8.294  -1.476  0.00  0.00     0.080 A 
HETATM   10  C   UNK     0      -3.030  -9.958  -3.821  0.00  0.00     0.042 A 
HETATM   11  C   UNK     0      -2.974 -11.308  -3.400  0.00  0.00     0.036 A 
HETATM   12  C   UNK     0      -3.740 -11.706  -2.276  0.00  0.00     0.042 A 
HETATM   13  C   UNK     0      -4.547 -10.786  -1.552  0.00  0.00    -0.016 A 
ENDROOT
BRANCH  13  14
HETATM   14  C   UNK     0      -5.293 -11.224  -0.423  0.00  0.00    -0.023 A 
HETATM   15  C   UNK     0      -4.691 -11.322   0.856  0.00  0.00     0.029 A 
HETATM   16  C   UNK     0      -5.459 -11.732   1.959  0.00  0.00     0.088 A 
HETATM   17  N   UNK     0      -6.767 -12.052   1.794  0.00  0.00    -0.375 N 
HETATM   18  C   UNK     0      -7.380 -11.996   0.583  0.00  0.00     0.088 A 
HETATM   19  HN  UNK     0      -7.309 -12.345   2.607  1.00  0.00     0.164 HD
HETATM   20  C   UNK     0      -6.656 -11.584  -0.552  0.00  0.00     0.029 A 
ENDBRANCH  13  14
BRANCH  11  21
HETATM   21  N   UNK     0      -2.256 -12.267  -4.066  0.00  0.00    -0.327 N 
HETATM   22  C   UNK     0      -2.672 -13.088  -5.075  0.00  0.00     0.223 C 
HETATM   23  O   UNK     0      -3.778 -12.942  -5.650  0.00  0.00    -0.273 OA
HETATM   24  H   UNK     0      -1.329 -12.368  -3.794  0.00  0.00     0.169 HD
BRANCH  22  25
HETATM   25  C   UNK     0      -1.788 -14.185  -5.527  0.00  0.00     0.118 C 
BRANCH  25  26
HETATM   26  C   UNK     0      -1.672 -15.295  -4.454  0.00  0.00     0.124 C 
HETATM   27 Cl   UNK     0      -3.222 -15.590  -3.674  0.00  0.00    -0.130 Cl
ENDBRANCH  25  26
ENDBRANCH  22  25
ENDBRANCH  11  21
TORSDOF 4
ENDMDL
MODEL 8
REMARK VINA RESULT:      -6.0     18.069     20.899
REMARK  4 active torsions:
REMARK  status: ('A' for Active; 'I' for Inactive)
REMARK    1  A    between atoms: C_11  and  N_14 
REMARK    2  A    between atoms: C_13  and  C_21 
REMARK       I    between atoms: N_14  and  C_15 
REMARK    3  A    between atoms: C_15  and  C_16 
REMARK    4  A    between atoms: C_16  and  C_17 
ROOT
HETATM    1  C   UNK     0       0.934   9.376  -5.043  0.00  0.00     0.008 A 
HETATM    2  C   UNK     0       1.747  10.457  -4.642  0.00  0.00     0.001 A 
HETATM    3  C   UNK     0       2.804  10.900  -5.465  0.00  0.00     0.001 A 
HETATM    4  C   UNK     0       3.068  10.259  -6.692  0.00  0.00     0.013 A 
HETATM    5  C   UNK     0       2.254   9.177  -7.078  0.00  0.00    -0.019 A 
HETATM    6  C   UNK     0       1.200   8.741  -6.271  0.00  0.00    -0.043 A 
HETATM    7  C   UNK     0       2.284   8.375  -8.214  0.00  0.00    -0.016 A 
HETATM    8  C   UNK     0       1.260   7.423  -8.133  0.00  0.00    -0.032 A 
HETATM    9  C   UNK     0       0.490   7.602  -6.880  0.00  0.00     0.080 A 
HETATM   10  C   UNK     0       3.140   8.438  -9.326  0.00  0.00     0.042 A 
HETATM   11  C   UNK     0       2.970   7.523 -10.391  0.00  0.00     0.036 A 
HETATM   12  C   UNK     0       1.927   6.567 -10.311  0.00  0.00     0.042 A 
HETATM   13  C   UNK     0       1.063   6.488  -9.185  0.00  0.00    -0.016 A 
ENDROOT
BRANCH  13  14
HETATM   14  C   UNK     0       0.035   5.507  -9.138  0.00  0.00    -0.023 A 
HETATM   15  C   UNK     0      -1.139   5.642  -9.920  0.00  0.00     0.029 A 
HETATM   16  C   UNK     0      -2.127   4.644  -9.873  0.00  0.00     0.088 A 
HETATM   17  N   UNK     0      -1.965   3.566  -9.066  0.00  0.00    -0.375 N 
HETATM   18  C   UNK     0      -0.869   3.406  -8.281  0.00  0.00     0.088 A 
HETATM   19  HN  UNK     0      -2.692   2.851  -9.047  1.00  0.00     0.164 HD
HETATM   20  C   UNK     0       0.154   4.374  -8.297  0.00  0.00     0.029 A 
ENDBRANCH  13  14
BRANCH  11  21
HETATM   21  N   UNK     0       3.730   7.556 -11.531  0.00  0.00    -0.327 N 
HETATM   22  C   UNK     0       3.415   8.098 -12.745  0.00  0.00     0.223 C 
HETATM   23  O   UNK     0       2.396   8.809 -12.920  0.00  0.00    -0.273 OA
HETATM   24  H   UNK     0       4.612   7.153 -11.465  0.00  0.00     0.169 HD
BRANCH  22  25
HETATM   25  C   UNK     0       4.309   7.859 -13.899  0.00  0.00     0.118 C 
BRANCH  25  26
HETATM   26  C   UNK     0       5.677   7.292 -13.445  0.00  0.00     0.124 C 
HETATM   27 Cl   UNK     0       5.701   5.535 -13.540  0.00  0.00    -0.130 Cl
ENDBRANCH  25  26
ENDBRANCH  22  25
ENDBRANCH  11  21
TORSDOF 4
ENDMDL
MODEL 9
REMARK VINA RESULT:      -6.0     17.511     20.350
REMARK  4 active torsions:
REMARK  status: ('A' for Active; 'I' for Inactive)
REMARK    1  A    between atoms: C_11  and  N_14 
REMARK    2  A    between atoms: C_13  and  C_21 
REMARK       I    between atoms: N_14  and  C_15 
REMARK    3  A    between atoms: C_15  and  C_16 
REMARK    4  A    between atoms: C_16  and  C_17 
ROOT
HETATM    1  C   UNK     0       3.371   5.833 -13.423  0.00  0.00     0.008 A 
HETATM    2  C   UNK     0       4.382   6.682 -13.920  0.00  0.00     0.001 A 
HETATM    3  C   UNK     0       4.799   7.807 -13.177  0.00  0.00     0.001 A 
HETATM    4  C   UNK     0       4.202   8.102 -11.935  0.00  0.00     0.013 A 
HETATM    5  C   UNK     0       3.189   7.250 -11.453  0.00  0.00    -0.019 A 
HETATM    6  C   UNK     0       2.779   6.129 -12.180  0.00  0.00    -0.043 A 
HETATM    7  C   UNK     0       2.441   7.297 -10.282  0.00  0.00    -0.016 A 
HETATM    8  C   UNK     0       1.550   6.218 -10.260  0.00  0.00    -0.032 A 
HETATM    9  C   UNK     0       1.715   5.391 -11.479  0.00  0.00     0.080 A 
HETATM   10  C   UNK     0       2.505   8.216  -9.221  0.00  0.00     0.042 A 
HETATM   11  C   UNK     0       1.653   8.053  -8.103  0.00  0.00     0.036 A 
HETATM   12  C   UNK     0       0.758   6.954  -8.081  0.00  0.00     0.042 A 
HETATM   13  C   UNK     0       0.679   6.026  -9.154  0.00  0.00    -0.016 A 
ENDROOT
BRANCH  13  14
HETATM   14  C   UNK     0      -0.241   4.942  -9.098  0.00  0.00    -0.023 A 
HETATM   15  C   UNK     0      -0.114   3.929  -8.117  0.00  0.00     0.029 A 
HETATM   16  C   UNK     0      -1.052   2.883  -8.068  0.00  0.00     0.088 A 
HETATM   17  N   UNK     0      -2.062   2.836  -8.972  0.00  0.00    -0.375 N 
HETATM   18  C   UNK     0      -2.209   3.772  -9.945  0.00  0.00     0.088 A 
HETATM   19  HN  UNK     0      -2.735   2.071  -8.919  1.00  0.00     0.164 HD
HETATM   20  C   UNK     0      -1.300   4.844 -10.032  0.00  0.00     0.029 A 
ENDBRANCH  13  14
BRANCH  11  21
HETATM   21  N   UNK     0       1.694   8.876  -7.009  0.00  0.00    -0.327 N 
HETATM   22  C   UNK     0       2.302   8.656  -5.804  0.00  0.00     0.223 C 
HETATM   23  O   UNK     0       3.072   7.685  -5.607  0.00  0.00    -0.273 OA
HETATM   24  H   UNK     0       1.244   9.731  -7.104  0.00  0.00     0.169 HD
BRANCH  22  25
HETATM   25  C   UNK     0       2.065   9.600  -4.690  0.00  0.00     0.118 C 
BRANCH  25  26
HETATM   26  C   UNK     0       0.911  10.579  -5.016  0.00  0.00     0.124 C 
HETATM   27 Cl   UNK     0       1.504  12.227  -5.187  0.00  0.00    -0.130 Cl
ENDBRANCH  25  26
ENDBRANCH  22  25
ENDBRANCH  11  21
TORSDOF 4
ENDMDL
