MODEL 1
REMARK VINA RESULT:      -6.7      0.000      0.000
REMARK  4 active torsions:
REMARK  status: ('A' for Active; 'I' for Inactive)
REMARK    1  A    between atoms: C_11  and  N_19 
REMARK    2  A    between atoms: C_13  and  C_14 
REMARK       I    between atoms: N_19  and  C_21 
REMARK    3  A    between atoms: C_21  and  C_22 
REMARK    4  A    between atoms: C_22  and  C_23 
ROOT
HETATM    1  C   UNK     0      -8.981   3.183   5.050  0.00  0.00     0.008 A 
HETATM    2  C   UNK     0      -8.607   2.439   3.912  0.00  0.00     0.001 A 
HETATM    3  C   UNK     0      -7.412   1.687   3.914  0.00  0.00     0.001 A 
HETATM    4  C   UNK     0      -6.583   1.667   5.054  0.00  0.00     0.013 A 
HETATM    5  C   UNK     0      -6.974   2.406   6.187  0.00  0.00    -0.019 A 
HETATM    6  C   UNK     0      -8.146   3.162   6.182  0.00  0.00    -0.043 A 
HETATM    7  C   UNK     0      -6.381   2.544   7.436  0.00  0.00    -0.016 A 
HETATM    8  C   UNK     0      -7.161   3.404   8.224  0.00  0.00    -0.031 A 
HETATM    9  C   UNK     0      -8.333   3.875   7.451  0.00  0.00     0.080 A 
HETATM   10  C   UNK     0      -5.214   1.943   7.931  0.00  0.00     0.042 A 
HETATM   11  C   UNK     0      -4.809   2.212   9.258  0.00  0.00     0.036 A 
HETATM   12  C   UNK     0      -5.616   3.058  10.057  0.00  0.00     0.043 A 
HETATM   13  C   UNK     0      -6.797   3.679   9.568  0.00  0.00    -0.009 A 
ENDROOT
BRANCH  13  14
HETATM   14  C   UNK     0      -7.555   4.526  10.433  0.00  0.00     0.015 A 
HETATM   15  C   UNK     0      -8.583   4.188  11.331  0.00  0.00     0.020 A 
HETATM   16  C   UNK     0      -9.161   5.249  12.048  0.00  0.00     0.008 A 
HETATM   17  C   UNK     0      -8.647   6.510  11.754  0.00  0.00     0.050 A 
HETATM   18  S   UNK     0      -7.397   6.274  10.550  0.00  0.00    -0.101 SA
ENDBRANCH  13  14
BRANCH  11  19
HETATM   19  N   UNK     0      -3.688   1.692   9.848  0.00  0.00    -0.327 N 
HETATM   20  C   UNK     0      -2.378   2.006   9.623  0.00  0.00     0.223 C 
HETATM   21  O   UNK     0      -2.021   2.894   8.813  0.00  0.00    -0.273 OA
HETATM   22  H   UNK     0      -3.848   1.040  10.549  0.00  0.00     0.169 HD
BRANCH  20  23
HETATM   23  C   UNK     0      -1.325   1.314  10.395  0.00  0.00     0.118 C 
BRANCH  23  24
HETATM   24  C   UNK     0      -1.497   1.519  11.917  0.00  0.00     0.124 C 
HETATM   25 Cl   UNK     0      -1.681   3.229  12.297  0.00  0.00    -0.130 Cl
ENDBRANCH  23  24
ENDBRANCH  20  23
ENDBRANCH  11  19
TORSDOF 4
ENDMDL
MODEL 2
REMARK VINA RESULT:      -6.1     19.489     21.860
REMARK  4 active torsions:
REMARK  status: ('A' for Active; 'I' for Inactive)
REMARK    1  A    between atoms: C_11  and  N_19 
REMARK    2  A    between atoms: C_13  and  C_14 
REMARK       I    between atoms: N_19  and  C_21 
REMARK    3  A    between atoms: C_21  and  C_22 
REMARK    4  A    between atoms: C_22  and  C_23 
ROOT
HETATM    1  C   UNK     0      13.442  -6.264   0.376  0.00  0.00     0.008 A 
HETATM    2  C   UNK     0      13.704  -7.640   0.210  0.00  0.00     0.001 A 
HETATM    3  C   UNK     0      12.939  -8.406  -0.696  0.00  0.00     0.001 A 
HETATM    4  C   UNK     0      11.910  -7.805  -1.449  0.00  0.00     0.013 A 
HETATM    5  C   UNK     0      11.666  -6.428  -1.281  0.00  0.00    -0.019 A 
HETATM    6  C   UNK     0      12.410  -5.673  -0.375  0.00  0.00    -0.043 A 
HETATM    7  C   UNK     0      10.756  -5.581  -1.899  0.00  0.00    -0.016 A 
HETATM    8  C   UNK     0      10.900  -4.288  -1.376  0.00  0.00    -0.031 A 
HETATM    9  C   UNK     0      11.960  -4.276  -0.342  0.00  0.00     0.080 A 
HETATM   10  C   UNK     0       9.825  -5.870  -2.910  0.00  0.00     0.042 A 
HETATM   11  C   UNK     0       9.009  -4.832  -3.413  0.00  0.00     0.036 A 
HETATM   12  C   UNK     0       9.180  -3.522  -2.900  0.00  0.00     0.043 A 
HETATM   13  C   UNK     0      10.113  -3.215  -1.873  0.00  0.00    -0.009 A 
ENDROOT
BRANCH  13  14
HETATM   14  C   UNK     0      10.224  -1.872  -1.403  0.00  0.00     0.015 A 
HETATM   15  C   UNK     0      10.686  -0.729  -2.078  0.00  0.00     0.020 A 
HETATM   16  C   UNK     0      10.692   0.470  -1.346  0.00  0.00     0.008 A 
HETATM   17  C   UNK     0      10.255   0.360  -0.028  0.00  0.00     0.050 A 
HETATM   18  S   UNK     0       9.826  -1.320   0.219  0.00  0.00    -0.101 SA
ENDBRANCH  13  14
BRANCH  11  19
HETATM   19  N   UNK     0       8.063  -4.992  -4.389  0.00  0.00    -0.327 N 
HETATM   20  C   UNK     0       6.812  -5.531  -4.289  0.00  0.00     0.223 C 
HETATM   21  O   UNK     0       6.334  -5.946  -3.206  0.00  0.00    -0.273 OA
HETATM   22  H   UNK     0       8.298  -4.640  -5.262  0.00  0.00     0.169 HD
BRANCH  20  23
HETATM   23  C   UNK     0       5.951  -5.592  -5.489  0.00  0.00     0.118 C 
BRANCH  23  24
HETATM   24  C   UNK     0       6.610  -6.399  -6.631  0.00  0.00     0.124 C 
HETATM   25 Cl   UNK     0       7.196  -7.950  -6.036  0.00  0.00    -0.130 Cl
ENDBRANCH  23  24
ENDBRANCH  20  23
ENDBRANCH  11  19
TORSDOF 4
ENDMDL
MODEL 3
REMARK VINA RESULT:      -6.1      3.351      5.666
REMARK  4 active torsions:
REMARK  status: ('A' for Active; 'I' for Inactive)
REMARK    1  A    between atoms: C_11  and  N_19 
REMARK    2  A    between atoms: C_13  and  C_14 
REMARK       I    between atoms: N_19  and  C_21 
REMARK    3  A    between atoms: C_21  and  C_22 
REMARK    4  A    between atoms: C_22  and  C_23 
ROOT
HETATM    1  C   UNK     0      -6.690   1.480   4.518  0.00  0.00     0.008 A 
HETATM    2  C   UNK     0      -7.730   1.692   3.589  0.00  0.00     0.001 A 
HETATM    3  C   UNK     0      -8.854   2.469   3.944  0.00  0.00     0.001 A 
HETATM    4  C   UNK     0      -8.947   3.047   5.227  0.00  0.00     0.013 A 
HETATM    5  C   UNK     0      -7.897   2.836   6.140  0.00  0.00    -0.019 A 
HETATM    6  C   UNK     0      -6.793   2.055   5.797  0.00  0.00    -0.043 A 
HETATM    7  C   UNK     0      -7.708   3.298   7.436  0.00  0.00    -0.016 A 
HETATM    8  C   UNK     0      -6.495   2.799   7.933  0.00  0.00    -0.031 A 
HETATM    9  C   UNK     0      -5.845   1.945   6.912  0.00  0.00     0.080 A 
HETATM   10  C   UNK     0      -8.523   4.150   8.198  0.00  0.00     0.042 A 
HETATM   11  C   UNK     0      -8.115   4.513   9.501  0.00  0.00     0.036 A 
HETATM   12  C   UNK     0      -6.875   4.027   9.985  0.00  0.00     0.043 A 
HETATM   13  C   UNK     0      -6.042   3.159   9.229  0.00  0.00    -0.009 A 
ENDROOT
BRANCH  13  14
HETATM   14  C   UNK     0      -4.809   2.706   9.787  0.00  0.00     0.015 A 
HETATM   15  C   UNK     0      -3.499   3.144   9.524  0.00  0.00     0.020 A 
HETATM   16  C   UNK     0      -2.469   2.494  10.225  0.00  0.00     0.008 A 
HETATM   17  C   UNK     0      -2.888   1.477  11.080  0.00  0.00     0.050 A 
HETATM   18  S   UNK     0      -4.633   1.406  10.960  0.00  0.00    -0.101 SA
ENDBRANCH  13  14
BRANCH  11  19
HETATM   19  N   UNK     0      -8.827   5.327  10.340  0.00  0.00    -0.327 N 
HETATM   20  C   UNK     0      -8.695   6.671  10.545  0.00  0.00     0.223 C 
HETATM   21  O   UNK     0      -7.866   7.376   9.921  0.00  0.00    -0.273 OA
HETATM   22  H   UNK     0      -9.549   4.899  10.826  0.00  0.00     0.169 HD
BRANCH  20  23
HETATM   23  C   UNK     0      -9.593   7.349  11.503  0.00  0.00     0.118 C 
BRANCH  23  24
HETATM   24  C   UNK     0     -11.070   7.279  11.057  0.00  0.00     0.124 C 
HETATM   25 Cl   UNK     0     -11.229   7.722   9.360  0.00  0.00    -0.130 Cl
ENDBRANCH  23  24
ENDBRANCH  20  23
ENDBRANCH  11  19
TORSDOF 4
ENDMDL
MODEL 4
REMARK VINA RESULT:      -5.9     17.603     20.259
REMARK  4 active torsions:
REMARK  status: ('A' for Active; 'I' for Inactive)
REMARK    1  A    between atoms: C_11  and  N_19 
REMARK    2  A    between atoms: C_13  and  C_14 
REMARK       I    between atoms: N_19  and  C_21 
REMARK    3  A    between atoms: C_21  and  C_22 
REMARK    4  A    between atoms: C_22  and  C_23 
ROOT
HETATM    1  C   UNK     0      -0.599   2.770 -10.744  0.00  0.00     0.008 A 
HETATM    2  C   UNK     0      -1.360   2.021  -9.824  0.00  0.00     0.001 A 
HETATM    3  C   UNK     0      -1.500   2.461  -8.490  0.00  0.00     0.001 A 
HETATM    4  C   UNK     0      -0.886   3.657  -8.064  0.00  0.00     0.013 A 
HETATM    5  C   UNK     0      -0.137   4.401  -8.997  0.00  0.00    -0.019 A 
HETATM    6  C   UNK     0       0.015   3.959 -10.311  0.00  0.00    -0.043 A 
HETATM    7  C   UNK     0       0.539   5.607  -8.870  0.00  0.00    -0.016 A 
HETATM    8  C   UNK     0       1.142   5.930 -10.095  0.00  0.00    -0.031 A 
HETATM    9  C   UNK     0       0.861   4.871 -11.091  0.00  0.00     0.080 A 
HETATM   10  C   UNK     0       0.637   6.452  -7.753  0.00  0.00     0.042 A 
HETATM   11  C   UNK     0       1.366   7.658  -7.862  0.00  0.00     0.036 A 
HETATM   12  C   UNK     0       1.948   7.991  -9.110  0.00  0.00     0.043 A 
HETATM   13  C   UNK     0       1.862   7.143 -10.248  0.00  0.00    -0.009 A 
ENDROOT
BRANCH  13  14
HETATM   14  C   UNK     0       2.481   7.544 -11.470  0.00  0.00     0.015 A 
HETATM   15  C   UNK     0       3.399   6.845 -12.274  0.00  0.00     0.020 A 
HETATM   16  C   UNK     0       3.852   7.506 -13.428  0.00  0.00     0.008 A 
HETATM   17  C   UNK     0       3.340   8.789 -13.612  0.00  0.00     0.050 A 
HETATM   18  S   UNK     0       2.258   9.095 -12.270  0.00  0.00    -0.101 SA
ENDBRANCH  13  14
BRANCH  11  19
HETATM   19  N   UNK     0       1.538   8.555  -6.843  0.00  0.00    -0.327 N 
HETATM   20  C   UNK     0       2.386   8.486  -5.775  0.00  0.00     0.223 C 
HETATM   21  O   UNK     0       3.189   7.538  -5.604  0.00  0.00    -0.273 OA
HETATM   22  H   UNK     0       1.015   9.370  -6.909  0.00  0.00     0.169 HD
BRANCH  20  23
HETATM   23  C   UNK     0       2.408   9.591  -4.794  0.00  0.00     0.118 C 
BRANCH  23  24
HETATM   24  C   UNK     0       1.036  10.294  -4.688  0.00  0.00     0.124 C 
HETATM   25 Cl   UNK     0       1.078  11.862  -5.489  0.00  0.00    -0.130 Cl
ENDBRANCH  23  24
ENDBRANCH  20  23
ENDBRANCH  11  19
TORSDOF 4
ENDMDL
MODEL 5
REMARK VINA RESULT:      -5.8     17.931     20.397
REMARK  4 active torsions:
REMARK  status: ('A' for Active; 'I' for Inactive)
REMARK    1  A    between atoms: C_11  and  N_19 
REMARK    2  A    between atoms: C_13  and  C_14 
REMARK       I    between atoms: N_19  and  C_21 
REMARK    3  A    between atoms: C_21  and  C_22 
REMARK    4  A    between atoms: C_22  and  C_23 
ROOT
HETATM    1  C   UNK     0       4.838   9.541 -11.348  0.00  0.00     0.008 A 
HETATM    2  C   UNK     0       5.188   9.020 -12.610  0.00  0.00     0.001 A 
HETATM    3  C   UNK     0       4.554   7.857 -13.101  0.00  0.00     0.001 A 
HETATM    4  C   UNK     0       3.561   7.209 -12.338  0.00  0.00     0.013 A 
HETATM    5  C   UNK     0       3.214   7.747 -11.084  0.00  0.00    -0.019 A 
HETATM    6  C   UNK     0       3.850   8.886 -10.590  0.00  0.00    -0.043 A 
HETATM    7  C   UNK     0       2.269   7.345 -10.149  0.00  0.00    -0.016 A 
HETATM    8  C   UNK     0       2.313   8.212  -9.047  0.00  0.00    -0.031 A 
HETATM    9  C   UNK     0       3.355   9.244  -9.256  0.00  0.00     0.080 A 
HETATM   10  C   UNK     0       1.357   6.281 -10.216  0.00  0.00     0.042 A 
HETATM   11  C   UNK     0       0.460   6.073  -9.144  0.00  0.00     0.036 A 
HETATM   12  C   UNK     0       0.490   6.969  -8.047  0.00  0.00     0.043 A 
HETATM   13  C   UNK     0       1.412   8.048  -7.962  0.00  0.00    -0.009 A 
ENDROOT
BRANCH  13  14
HETATM   14  C   UNK     0       1.386   8.906  -6.822  0.00  0.00     0.015 A 
HETATM   15  C   UNK     0       2.201   8.887  -5.676  0.00  0.00     0.020 A 
HETATM   16  C   UNK     0       1.930   9.859  -4.699  0.00  0.00     0.008 A 
HETATM   17  C   UNK     0       0.864  10.708  -4.990  0.00  0.00     0.050 A 
HETATM   18  S   UNK     0       0.249  10.221  -6.556  0.00  0.00    -0.101 SA
ENDBRANCH  13  14
BRANCH  11  19
HETATM   19  N   UNK     0      -0.467   5.067  -9.091  0.00  0.00    -0.327 N 
HETATM   20  C   UNK     0      -0.421   3.895  -8.390  0.00  0.00     0.223 C 
HETATM   21  O   UNK     0       0.531   3.594  -7.631  0.00  0.00    -0.273 OA
HETATM   22  H   UNK     0      -1.285   5.224  -9.589  0.00  0.00     0.169 HD
BRANCH  20  23
HETATM   23  C   UNK     0      -1.556   2.953  -8.479  0.00  0.00     0.118 C 
BRANCH  23  24
HETATM   24  C   UNK     0      -2.079   2.816  -9.926  0.00  0.00     0.124 C 
HETATM   25 Cl   UNK     0      -0.965   1.863 -10.902  0.00  0.00    -0.130 Cl
ENDBRANCH  23  24
ENDBRANCH  20  23
ENDBRANCH  11  19
TORSDOF 4
ENDMDL
MODEL 6
REMARK VINA RESULT:      -5.8     17.837     20.580
REMARK  4 active torsions:
REMARK  status: ('A' for Active; 'I' for Inactive)
REMARK    1  A    between atoms: C_11  and  N_19 
REMARK    2  A    between atoms: C_13  and  C_14 
REMARK       I    between atoms: N_19  and  C_21 
REMARK    3  A    between atoms: C_21  and  C_22 
REMARK    4  A    between atoms: C_22  and  C_23 
ROOT
HETATM    1  C   UNK     0       2.804  11.252  -6.393  0.00  0.00     0.008 A 
HETATM    2  C   UNK     0       2.551  11.275  -5.006  0.00  0.00     0.001 A 
HETATM    3  C   UNK     0       1.720  10.298  -4.417  0.00  0.00     0.001 A 
HETATM    4  C   UNK     0       1.139   9.284  -5.207  0.00  0.00     0.013 A 
HETATM    5  C   UNK     0       1.410   9.266  -6.589  0.00  0.00    -0.019 A 
HETATM    6  C   UNK     0       2.218  10.241  -7.175  0.00  0.00    -0.043 A 
HETATM    7  C   UNK     0       1.008   8.387  -7.586  0.00  0.00    -0.016 A 
HETATM    8  C   UNK     0       1.539   8.808  -8.814  0.00  0.00    -0.031 A 
HETATM    9  C   UNK     0       2.331  10.045  -8.626  0.00  0.00     0.080 A 
HETATM   10  C   UNK     0       0.225   7.227  -7.478  0.00  0.00     0.042 A 
HETATM   11  C   UNK     0      -0.039   6.463  -8.638  0.00  0.00     0.036 A 
HETATM   12  C   UNK     0       0.524   6.878  -9.869  0.00  0.00     0.043 A 
HETATM   13  C   UNK     0       1.314   8.053  -9.996  0.00  0.00    -0.009 A 
ENDROOT
BRANCH  13  14
HETATM   14  C   UNK     0       1.842   8.411 -11.273  0.00  0.00     0.015 A 
HETATM   15  C   UNK     0       1.320   9.292 -12.236  0.00  0.00     0.020 A 
HETATM   16  C   UNK     0       2.062   9.437 -13.420  0.00  0.00     0.008 A 
HETATM   17  C   UNK     0       3.219   8.662 -13.489  0.00  0.00     0.050 A 
HETATM   18  S   UNK     0       3.317   7.770 -11.986  0.00  0.00    -0.101 SA
ENDBRANCH  13  14
BRANCH  11  19
HETATM   19  N   UNK     0      -0.794   5.321  -8.659  0.00  0.00    -0.327 N 
HETATM   20  C   UNK     0      -0.459   4.065  -8.242  0.00  0.00     0.223 C 
HETATM   21  O   UNK     0       0.649   3.793  -7.722  0.00  0.00    -0.273 OA
HETATM   22  H   UNK     0      -1.704   5.427  -8.979  0.00  0.00     0.169 HD
BRANCH  20  23
HETATM   23  C   UNK     0      -1.452   2.975  -8.354  0.00  0.00     0.118 C 
BRANCH  23  24
HETATM   24  C   UNK     0      -1.177   2.069  -9.575  0.00  0.00     0.124 C 
HETATM   25 Cl   UNK     0      -1.715   2.848 -11.060  0.00  0.00    -0.130 Cl
ENDBRANCH  23  24
ENDBRANCH  20  23
ENDBRANCH  11  19
TORSDOF 4
ENDMDL
MODEL 7
REMARK VINA RESULT:      -5.8     18.041     20.818
REMARK  4 active torsions:
REMARK  status: ('A' for Active; 'I' for Inactive)
REMARK    1  A    between atoms: C_11  and  N_19 
REMARK    2  A    between atoms: C_13  and  C_14 
REMARK       I    between atoms: N_19  and  C_21 
REMARK    3  A    between atoms: C_21  and  C_22 
REMARK    4  A    between atoms: C_22  and  C_23 
ROOT
HETATM    1  C   UNK     0      13.886   2.124  -0.704  0.00  0.00     0.008 A 
HETATM    2  C   UNK     0      14.350   2.652  -1.926  0.00  0.00     0.001 A 
HETATM    3  C   UNK     0      13.901   2.113  -3.151  0.00  0.00     0.001 A 
HETATM    4  C   UNK     0      12.978   1.046  -3.167  0.00  0.00     0.013 A 
HETATM    5  C   UNK     0      12.514   0.536  -1.938  0.00  0.00    -0.019 A 
HETATM    6  C   UNK     0      12.970   1.057  -0.727  0.00  0.00    -0.043 A 
HETATM    7  C   UNK     0      11.600  -0.470  -1.656  0.00  0.00    -0.016 A 
HETATM    8  C   UNK     0      11.483  -0.609  -0.265  0.00  0.00    -0.031 A 
HETATM    9  C   UNK     0      12.381   0.351   0.417  0.00  0.00     0.080 A 
HETATM   10  C   UNK     0      10.845  -1.253  -2.543  0.00  0.00     0.042 A 
HETATM   11  C   UNK     0       9.946  -2.211  -2.023  0.00  0.00     0.036 A 
HETATM   12  C   UNK     0       9.812  -2.327  -0.618  0.00  0.00     0.043 A 
HETATM   13  C   UNK     0      10.574  -1.546   0.294  0.00  0.00    -0.009 A 
ENDROOT
BRANCH  13  14
HETATM   14  C   UNK     0      10.388  -1.724   1.697  0.00  0.00     0.015 A 
HETATM   15  C   UNK     0       9.319  -1.312   2.513  0.00  0.00     0.020 A 
HETATM   16  C   UNK     0       9.420  -1.621   3.880  0.00  0.00     0.008 A 
HETATM   17  C   UNK     0      10.588  -2.283   4.251  0.00  0.00     0.050 A 
HETATM   18  S   UNK     0      11.527  -2.503   2.789  0.00  0.00    -0.101 SA
ENDBRANCH  13  14
BRANCH  11  19
HETATM   19  N   UNK     0       9.165  -3.037  -2.786  0.00  0.00    -0.327 N 
HETATM   20  C   UNK     0       9.265  -4.387  -2.965  0.00  0.00     0.223 C 
HETATM   21  O   UNK     0      10.129  -5.088  -2.385  0.00  0.00    -0.273 OA
HETATM   22  H   UNK     0       8.414  -2.611  -3.230  0.00  0.00     0.169 HD
BRANCH  20  23
HETATM   23  C   UNK     0       8.292  -5.076  -3.838  0.00  0.00     0.118 C 
BRANCH  23  24
HETATM   24  C   UNK     0       7.663  -6.304  -3.142  0.00  0.00     0.124 C 
HETATM   25 Cl   UNK     0       6.599  -7.168  -4.249  0.00  0.00    -0.130 Cl
ENDBRANCH  23  24
ENDBRANCH  20  23
ENDBRANCH  11  19
TORSDOF 4
ENDMDL
MODEL 8
REMARK VINA RESULT:      -5.7     17.802     20.448
REMARK  4 active torsions:
REMARK  status: ('A' for Active; 'I' for Inactive)
REMARK    1  A    between atoms: C_11  and  N_19 
REMARK    2  A    between atoms: C_13  and  C_14 
REMARK       I    between atoms: N_19  and  C_21 
REMARK    3  A    between atoms: C_21  and  C_22 
REMARK    4  A    between atoms: C_22  and  C_23 
ROOT
HETATM    1  C   UNK     0       3.398   5.802 -13.415  0.00  0.00     0.008 A 
HETATM    2  C   UNK     0       4.384   6.687 -13.895  0.00  0.00     0.001 A 
HETATM    3  C   UNK     0       4.741   7.830 -13.148  0.00  0.00     0.001 A 
HETATM    4  C   UNK     0       4.120   8.097 -11.910  0.00  0.00     0.013 A 
HETATM    5  C   UNK     0       3.144   7.198 -11.436  0.00  0.00    -0.019 A 
HETATM    6  C   UNK     0       2.779   6.076 -12.182  0.00  0.00    -0.043 A 
HETATM    7  C   UNK     0       2.404   7.191 -10.261  0.00  0.00    -0.016 A 
HETATM    8  C   UNK     0       1.551   6.078 -10.260  0.00  0.00    -0.031 A 
HETATM    9  C   UNK     0       1.724   5.306 -11.512  0.00  0.00     0.080 A 
HETATM   10  C   UNK     0       2.452   8.087  -9.182  0.00  0.00     0.042 A 
HETATM   11  C   UNK     0       1.616   7.865  -8.064  0.00  0.00     0.036 A 
HETATM   12  C   UNK     0       0.777   6.724  -8.058  0.00  0.00     0.043 A 
HETATM   13  C   UNK     0       0.713   5.811  -9.146  0.00  0.00    -0.009 A 
ENDROOT
BRANCH  13  14
HETATM   14  C   UNK     0      -0.162   4.686  -9.068  0.00  0.00     0.015 A 
HETATM   15  C   UNK     0      -0.043   3.518  -8.295  0.00  0.00     0.020 A 
HETATM   16  C   UNK     0      -1.066   2.565  -8.438  0.00  0.00     0.008 A 
HETATM   17  C   UNK     0      -2.062   2.902  -9.352  0.00  0.00     0.050 A 
HETATM   18  S   UNK     0      -1.642   4.476  -9.996  0.00  0.00    -0.101 SA
ENDBRANCH  13  14
BRANCH  11  19
HETATM   19  N   UNK     0       1.567   8.671  -6.959  0.00  0.00    -0.327 N 
HETATM   20  C   UNK     0       2.276   8.574  -5.796  0.00  0.00     0.223 C 
HETATM   21  O   UNK     0       3.141   7.688  -5.598  0.00  0.00    -0.273 OA
HETATM   22  H   UNK     0       0.977   9.439  -7.026  0.00  0.00     0.169 HD
BRANCH  20  23
HETATM   23  C   UNK     0       2.062   9.577  -4.731  0.00  0.00     0.118 C 
BRANCH  23  24
HETATM   24  C   UNK     0       0.867  10.505  -5.045  0.00  0.00     0.124 C 
HETATM   25 Cl   UNK     0       1.431  12.113  -5.494  0.00  0.00    -0.130 Cl
ENDBRANCH  23  24
ENDBRANCH  20  23
ENDBRANCH  11  19
TORSDOF 4
ENDMDL
MODEL 9
REMARK VINA RESULT:      -5.7     15.981     18.351
REMARK  4 active torsions:
REMARK  status: ('A' for Active; 'I' for Inactive)
REMARK    1  A    between atoms: C_11  and  N_19 
REMARK    2  A    between atoms: C_13  and  C_14 
REMARK       I    between atoms: N_19  and  C_21 
REMARK    3  A    between atoms: C_21  and  C_22 
REMARK    4  A    between atoms: C_22  and  C_23 
ROOT
HETATM    1  C   UNK     0      -5.395  -5.819  -2.400  0.00  0.00     0.008 A 
HETATM    2  C   UNK     0      -4.868  -4.964  -3.390  0.00  0.00     0.001 A 
HETATM    3  C   UNK     0      -3.941  -5.454  -4.334  0.00  0.00     0.001 A 
HETATM    4  C   UNK     0      -3.535  -6.805  -4.303  0.00  0.00     0.013 A 
HETATM    5  C   UNK     0      -4.078  -7.650  -3.316  0.00  0.00    -0.019 A 
HETATM    6  C   UNK     0      -4.983  -7.163  -2.372  0.00  0.00    -0.043 A 
HETATM    7  C   UNK     0      -3.889  -9.003  -3.070  0.00  0.00    -0.016 A 
HETATM    8  C   UNK     0      -4.654  -9.381  -1.957  0.00  0.00    -0.031 A 
HETATM    9  C   UNK     0      -5.386  -8.209  -1.424  0.00  0.00     0.080 A 
HETATM   10  C   UNK     0      -3.105  -9.929  -3.777  0.00  0.00     0.042 A 
HETATM   11  C   UNK     0      -3.084 -11.278  -3.355  0.00  0.00     0.036 A 
HETATM   12  C   UNK     0      -3.881 -11.658  -2.248  0.00  0.00     0.043 A 
HETATM   13  C   UNK     0      -4.674 -10.732  -1.518  0.00  0.00    -0.009 A 
ENDROOT
BRANCH  13  14
HETATM   14  C   UNK     0      -5.447 -11.189  -0.409  0.00  0.00     0.015 A 
HETATM   15  C   UNK     0      -6.835 -11.390  -0.314  0.00  0.00     0.020 A 
HETATM   16  C   UNK     0      -7.319 -11.841   0.925  0.00  0.00     0.008 A 
HETATM   17  C   UNK     0      -6.350 -12.010   1.912  0.00  0.00     0.050 A 
HETATM   18  S   UNK     0      -4.814 -11.588   1.183  0.00  0.00    -0.101 SA
ENDBRANCH  13  14
BRANCH  11  19
HETATM   19  N   UNK     0      -2.354 -12.267  -3.958  0.00  0.00    -0.327 N 
HETATM   20  C   UNK     0      -2.665 -13.011  -5.060  0.00  0.00     0.223 C 
HETATM   21  O   UNK     0      -3.719 -12.844  -5.719  0.00  0.00    -0.273 OA
HETATM   22  H   UNK     0      -1.479 -12.437  -3.572  0.00  0.00     0.169 HD
BRANCH  20  23
HETATM   23  C   UNK     0      -1.707 -14.029  -5.541  0.00  0.00     0.118 C 
BRANCH  23  24
HETATM   24  C   UNK     0      -1.613 -15.233  -4.578  0.00  0.00     0.124 C 
HETATM   25 Cl   UNK     0      -3.037 -16.260  -4.726  0.00  0.00    -0.130 Cl
ENDBRANCH  23  24
ENDBRANCH  20  23
ENDBRANCH  11  19
TORSDOF 4
ENDMDL
