MODEL 1
REMARK VINA RESULT:      -7.3      0.000      0.000
REMARK  2 active torsions:
REMARK  status: ('A' for Active; 'I' for Inactive)
REMARK    1  A    between atoms: C_10  and  C_17 
REMARK    2  A    between atoms: C_12  and  N_14 
ROOT
HETATM    1  C   UNK     0      -9.132   3.058   5.213  0.00  0.00     0.013 A 
HETATM    2  C   UNK     0      -9.075   2.458   3.938  0.00  0.00     0.001 A 
HETATM    3  C   UNK     0      -7.954   1.687   3.558  0.00  0.00     0.001 A 
HETATM    4  C   UNK     0      -6.873   1.513   4.446  0.00  0.00     0.008 A 
HETATM    5  C   UNK     0      -6.937   2.117   5.717  0.00  0.00    -0.043 A 
HETATM    6  C   UNK     0      -8.049   2.877   6.094  0.00  0.00    -0.019 A 
HETATM    7  C   UNK     0      -5.936   2.062   6.790  0.00  0.00     0.080 A 
HETATM    8  C   UNK     0      -6.599   2.868   7.840  0.00  0.00    -0.032 A 
HETATM    9  C   UNK     0      -7.834   3.352   7.386  0.00  0.00    -0.016 A 
HETATM   10  C   UNK     0      -6.120   3.196   9.134  0.00  0.00    -0.016 A 
HETATM   11  C   UNK     0      -6.909   4.068   9.928  0.00  0.00     0.042 A 
HETATM   12  C   UNK     0      -8.138   4.581   9.455  0.00  0.00     0.027 A 
HETATM   13  C   UNK     0      -8.619   4.206   8.182  0.00  0.00     0.042 A 
ENDROOT
BRANCH  10  14
HETATM   14  C   UNK     0      -4.874   2.710   9.617  0.00  0.00    -0.023 A 
HETATM   15  C   UNK     0      -4.832   1.658  10.559  0.00  0.00     0.029 A 
HETATM   16  C   UNK     0      -3.594   1.217  11.063  0.00  0.00     0.090 A 
HETATM   17  N   UNK     0      -2.419   1.791  10.655  0.00  0.00    -0.371 N 
HETATM   18  C   UNK     0      -2.438   2.800   9.728  0.00  0.00     0.090 A 
HETATM   19  C   UNK     0      -1.163   1.312  11.177  0.00  0.00     0.154 C 
HETATM   20  C   UNK     0      -3.650   3.267   9.187  0.00  0.00     0.029 A 
ENDBRANCH  10  14
BRANCH  12  21
HETATM   21  N   UNK     0      -8.844   5.448  10.209  0.00  0.00    -0.399 N 
HETATM   22  H   UNK     0      -9.801   5.324  10.327  0.00  0.00     0.156 HD
HETATM   23  H   UNK     0      -8.399   6.193  10.642  0.00  0.00     0.156 HD
ENDBRANCH  12  21
TORSDOF 2
ENDMDL
MODEL 2
REMARK VINA RESULT:      -7.2      3.176      7.606
REMARK  2 active torsions:
REMARK  status: ('A' for Active; 'I' for Inactive)
REMARK    1  A    between atoms: C_10  and  C_17 
REMARK    2  A    between atoms: C_12  and  N_14 
ROOT
HETATM    1  C   UNK     0      -5.344   2.079   7.687  0.00  0.00     0.013 A 
HETATM    2  C   UNK     0      -4.833   2.435   8.953  0.00  0.00     0.001 A 
HETATM    3  C   UNK     0      -5.540   3.329   9.786  0.00  0.00     0.001 A 
HETATM    4  C   UNK     0      -6.765   3.885   9.361  0.00  0.00     0.008 A 
HETATM    5  C   UNK     0      -7.269   3.525   8.095  0.00  0.00    -0.043 A 
HETATM    6  C   UNK     0      -6.568   2.637   7.272  0.00  0.00    -0.019 A 
HETATM    7  C   UNK     0      -8.514   3.976   7.462  0.00  0.00     0.080 A 
HETATM    8  C   UNK     0      -8.465   3.237   6.180  0.00  0.00    -0.032 A 
HETATM    9  C   UNK     0      -7.292   2.475   6.092  0.00  0.00    -0.016 A 
HETATM   10  C   UNK     0      -9.398   3.261   5.112  0.00  0.00    -0.016 A 
HETATM   11  C   UNK     0      -9.079   2.529   3.939  0.00  0.00     0.042 A 
HETATM   12  C   UNK     0      -7.879   1.789   3.841  0.00  0.00     0.027 A 
HETATM   13  C   UNK     0      -6.985   1.741   4.932  0.00  0.00     0.042 A 
ENDROOT
BRANCH  10  14
HETATM   14  C   UNK     0     -10.598   4.021   5.183  0.00  0.00    -0.023 A 
HETATM   15  C   UNK     0     -11.780   3.448   5.701  0.00  0.00     0.029 A 
HETATM   16  C   UNK     0     -12.972   4.197   5.723  0.00  0.00     0.090 A 
HETATM   17  N   UNK     0     -13.009   5.482   5.250  0.00  0.00    -0.371 N 
HETATM   18  C   UNK     0     -11.869   6.062   4.761  0.00  0.00     0.090 A 
HETATM   19  C   UNK     0     -14.240   6.232   5.295  0.00  0.00     0.154 C 
HETATM   20  C   UNK     0     -10.652   5.358   4.729  0.00  0.00     0.029 A 
ENDBRANCH  10  14
BRANCH  12  21
HETATM   21  N   UNK     0      -7.575   1.143   2.697  0.00  0.00    -0.399 N 
HETATM   22  H   UNK     0      -7.213   1.635   1.941  0.00  0.00     0.156 HD
HETATM   23  H   UNK     0      -7.709   0.185   2.628  0.00  0.00     0.156 HD
ENDBRANCH  12  21
TORSDOF 2
ENDMDL
MODEL 3
REMARK VINA RESULT:      -6.7      2.842      4.608
REMARK  2 active torsions:
REMARK  status: ('A' for Active; 'I' for Inactive)
REMARK    1  A    between atoms: C_10  and  C_17 
REMARK    2  A    between atoms: C_12  and  N_14 
ROOT
HETATM    1  C   UNK     0     -12.181   3.688   4.652  0.00  0.00     0.013 A 
HETATM    2  C   UNK     0     -13.317   4.275   5.248  0.00  0.00     0.001 A 
HETATM    3  C   UNK     0     -13.267   4.740   6.581  0.00  0.00     0.001 A 
HETATM    4  C   UNK     0     -12.083   4.618   7.337  0.00  0.00     0.008 A 
HETATM    5  C   UNK     0     -10.953   4.029   6.735  0.00  0.00    -0.043 A 
HETATM    6  C   UNK     0     -11.003   3.572   5.414  0.00  0.00    -0.019 A 
HETATM    7  C   UNK     0      -9.630   3.808   7.330  0.00  0.00     0.080 A 
HETATM    8  C   UNK     0      -8.909   3.181   6.200  0.00  0.00    -0.032 A 
HETATM    9  C   UNK     0      -9.757   3.036   5.093  0.00  0.00    -0.016 A 
HETATM   10  C   UNK     0      -7.569   2.720   6.155  0.00  0.00    -0.016 A 
HETATM   11  C   UNK     0      -7.135   2.065   4.973  0.00  0.00     0.042 A 
HETATM   12  C   UNK     0      -8.003   1.891   3.871  0.00  0.00     0.027 A 
HETATM   13  C   UNK     0      -9.319   2.398   3.918  0.00  0.00     0.042 A 
ENDROOT
BRANCH  10  14
HETATM   14  C   UNK     0      -6.690   2.864   7.263  0.00  0.00    -0.023 A 
HETATM   15  C   UNK     0      -6.637   4.078   7.983  0.00  0.00     0.029 A 
HETATM   16  C   UNK     0      -5.729   4.221   9.049  0.00  0.00     0.090 A 
HETATM   17  N   UNK     0      -4.891   3.199   9.407  0.00  0.00    -0.371 N 
HETATM   18  C   UNK     0      -4.940   2.008   8.734  0.00  0.00     0.090 A 
HETATM   19  C   UNK     0      -3.979   3.368  10.512  0.00  0.00     0.154 C 
HETATM   20  C   UNK     0      -5.838   1.813   7.669  0.00  0.00     0.029 A 
ENDBRANCH  10  14
BRANCH  12  21
HETATM   21  N   UNK     0      -7.582   1.221   2.779  0.00  0.00    -0.399 N 
HETATM   22  H   UNK     0      -6.901   0.533   2.861  0.00  0.00     0.156 HD
HETATM   23  H   UNK     0      -7.963   1.418   1.909  0.00  0.00     0.156 HD
ENDBRANCH  12  21
TORSDOF 2
ENDMDL
MODEL 4
REMARK VINA RESULT:      -6.6     16.861     19.155
REMARK  2 active torsions:
REMARK  status: ('A' for Active; 'I' for Inactive)
REMARK    1  A    between atoms: C_10  and  C_17 
REMARK    2  A    between atoms: C_12  and  N_14 
ROOT
HETATM    1  C   UNK     0      -0.165   3.102 -10.946  0.00  0.00     0.013 A 
HETATM    2  C   UNK     0      -1.079   2.125 -10.499  0.00  0.00     0.001 A 
HETATM    3  C   UNK     0      -1.619   2.193  -9.196  0.00  0.00     0.001 A 
HETATM    4  C   UNK     0      -1.246   3.234  -8.321  0.00  0.00     0.008 A 
HETATM    5  C   UNK     0      -0.332   4.205  -8.775  0.00  0.00    -0.043 A 
HETATM    6  C   UNK     0       0.200   4.139 -10.067  0.00  0.00    -0.019 A 
HETATM    7  C   UNK     0       0.186   5.366  -8.040  0.00  0.00     0.080 A 
HETATM    8  C   UNK     0       1.070   5.976  -9.057  0.00  0.00    -0.032 A 
HETATM    9  C   UNK     0       1.073   5.213 -10.233  0.00  0.00    -0.016 A 
HETATM   10  C   UNK     0       1.874   7.139  -8.944  0.00  0.00    -0.016 A 
HETATM   11  C   UNK     0       2.713   7.472 -10.039  0.00  0.00     0.042 A 
HETATM   12  C   UNK     0       2.737   6.681 -11.210  0.00  0.00     0.027 A 
HETATM   13  C   UNK     0       1.896   5.554 -11.322  0.00  0.00     0.042 A 
ENDROOT
BRANCH  10  14
HETATM   14  C   UNK     0       1.882   7.932  -7.764  0.00  0.00    -0.023 A 
HETATM   15  C   UNK     0       0.913   8.942  -7.572  0.00  0.00     0.029 A 
HETATM   16  C   UNK     0       0.960   9.749  -6.420  0.00  0.00     0.090 A 
HETATM   17  N   UNK     0       1.933   9.574  -5.473  0.00  0.00    -0.371 N 
HETATM   18  C   UNK     0       2.870   8.589  -5.630  0.00  0.00     0.090 A 
HETATM   19  C   UNK     0       1.950  10.407  -4.295  0.00  0.00     0.154 C 
HETATM   20  C   UNK     0       2.858   7.749  -6.759  0.00  0.00     0.029 A 
ENDBRANCH  10  14
BRANCH  12  21
HETATM   21  N   UNK     0       3.580   6.990 -12.217  0.00  0.00    -0.399 N 
HETATM   22  H   UNK     0       4.472   7.323 -12.021  0.00  0.00     0.156 HD
HETATM   23  H   UNK     0       3.302   6.873 -13.139  0.00  0.00     0.156 HD
ENDBRANCH  12  21
TORSDOF 2
ENDMDL
MODEL 5
REMARK VINA RESULT:      -6.5      1.582      4.717
REMARK  2 active torsions:
REMARK  status: ('A' for Active; 'I' for Inactive)
REMARK    1  A    between atoms: C_10  and  C_17 
REMARK    2  A    between atoms: C_12  and  N_14 
ROOT
HETATM    1  C   UNK     0      -6.626   1.513   4.893  0.00  0.00     0.013 A 
HETATM    2  C   UNK     0      -7.452   1.514   3.749  0.00  0.00     0.001 A 
HETATM    3  C   UNK     0      -8.652   2.258   3.732  0.00  0.00     0.001 A 
HETATM    4  C   UNK     0      -9.045   3.006   4.861  0.00  0.00     0.008 A 
HETATM    5  C   UNK     0      -8.216   2.999   6.000  0.00  0.00    -0.043 A 
HETATM    6  C   UNK     0      -7.026   2.264   6.015  0.00  0.00    -0.019 A 
HETATM    7  C   UNK     0      -8.428   3.702   7.271  0.00  0.00     0.080 A 
HETATM    8  C   UNK     0      -7.218   3.303   8.023  0.00  0.00    -0.032 A 
HETATM    9  C   UNK     0      -6.424   2.435   7.260  0.00  0.00    -0.016 A 
HETATM   10  C   UNK     0      -6.843   3.658   9.344  0.00  0.00    -0.016 A 
HETATM   11  C   UNK     0      -5.669   3.067   9.879  0.00  0.00     0.042 A 
HETATM   12  C   UNK     0      -4.889   2.166   9.119  0.00  0.00     0.027 A 
HETATM   13  C   UNK     0      -5.254   1.861   7.790  0.00  0.00     0.042 A 
ENDROOT
BRANCH  10  14
HETATM   14  C   UNK     0      -7.628   4.542  10.134  0.00  0.00    -0.023 A 
HETATM   15  C   UNK     0      -7.373   5.931  10.123  0.00  0.00     0.029 A 
HETATM   16  C   UNK     0      -8.129   6.790  10.944  0.00  0.00     0.090 A 
HETATM   17  N   UNK     0      -9.116   6.302  11.758  0.00  0.00    -0.371 N 
HETATM   18  C   UNK     0      -9.391   4.960  11.770  0.00  0.00     0.090 A 
HETATM   19  C   UNK     0      -9.884   7.205  12.580  0.00  0.00     0.154 C 
HETATM   20  C   UNK     0      -8.671   4.065  10.959  0.00  0.00     0.029 A 
ENDBRANCH  10  14
BRANCH  12  21
HETATM   21  N   UNK     0      -3.807   1.579   9.668  0.00  0.00    -0.399 N 
HETATM   22  H   UNK     0      -3.916   0.861  10.312  0.00  0.00     0.156 HD
HETATM   23  H   UNK     0      -2.915   1.867   9.415  0.00  0.00     0.156 HD
ENDBRANCH  12  21
TORSDOF 2
ENDMDL
MODEL 6
REMARK VINA RESULT:      -6.3     17.588     19.791
REMARK  2 active torsions:
REMARK  status: ('A' for Active; 'I' for Inactive)
REMARK    1  A    between atoms: C_10  and  C_17 
REMARK    2  A    between atoms: C_12  and  N_14 
ROOT
HETATM    1  C   UNK     0       0.313   2.647 -13.163  0.00  0.00     0.013 A 
HETATM    2  C   UNK     0       0.882   2.843 -14.439  0.00  0.00     0.001 A 
HETATM    3  C   UNK     0       1.767   3.918 -14.671  0.00  0.00     0.001 A 
HETATM    4  C   UNK     0       2.090   4.815 -13.632  0.00  0.00     0.008 A 
HETATM    5  C   UNK     0       1.518   4.613 -12.361  0.00  0.00    -0.043 A 
HETATM    6  C   UNK     0       0.643   3.546 -12.131  0.00  0.00    -0.019 A 
HETATM    7  C   UNK     0       1.717   5.414 -11.148  0.00  0.00     0.080 A 
HETATM    8  C   UNK     0       0.868   4.683 -10.180  0.00  0.00    -0.032 A 
HETATM    9  C   UNK     0       0.231   3.600 -10.801  0.00  0.00    -0.016 A 
HETATM   10  C   UNK     0       0.633   4.979  -8.813  0.00  0.00    -0.016 A 
HETATM   11  C   UNK     0      -0.303   4.173  -8.115  0.00  0.00     0.042 A 
HETATM   12  C   UNK     0      -0.968   3.102  -8.753  0.00  0.00     0.027 A 
HETATM   13  C   UNK     0      -0.686   2.795 -10.101  0.00  0.00     0.042 A 
ENDROOT
BRANCH  10  14
HETATM   14  C   UNK     0       1.274   6.068  -8.162  0.00  0.00    -0.023 A 
HETATM   15  C   UNK     0       0.511   7.071  -7.523  0.00  0.00     0.029 A 
HETATM   16  C   UNK     0       1.158   8.167  -6.922  0.00  0.00     0.090 A 
HETATM   17  N   UNK     0       2.522   8.282  -6.941  0.00  0.00    -0.371 N 
HETATM   18  C   UNK     0       3.281   7.311  -7.539  0.00  0.00     0.090 A 
HETATM   19  C   UNK     0       3.160   9.409  -6.306  0.00  0.00     0.154 C 
HETATM   20  C   UNK     0       2.681   6.191  -8.143  0.00  0.00     0.029 A 
ENDBRANCH  10  14
BRANCH  12  21
HETATM   21  N   UNK     0      -1.891   2.383  -8.081  0.00  0.00    -0.399 N 
HETATM   22  H   UNK     0      -2.579   2.834  -7.565  0.00  0.00     0.156 HD
HETATM   23  H   UNK     0      -1.874   1.414  -8.118  0.00  0.00     0.156 HD
ENDBRANCH  12  21
TORSDOF 2
ENDMDL
MODEL 7
REMARK VINA RESULT:      -6.3     14.377     16.748
REMARK  2 active torsions:
REMARK  status: ('A' for Active; 'I' for Inactive)
REMARK    1  A    between atoms: C_10  and  C_17 
REMARK    2  A    between atoms: C_12  and  N_14 
ROOT
HETATM    1  C   UNK     0      -3.476  -6.618  -4.350  0.00  0.00     0.013 A 
HETATM    2  C   UNK     0      -3.969  -5.296  -4.324  0.00  0.00     0.001 A 
HETATM    3  C   UNK     0      -4.962  -4.920  -3.394  0.00  0.00     0.001 A 
HETATM    4  C   UNK     0      -5.481  -5.862  -2.481  0.00  0.00     0.008 A 
HETATM    5  C   UNK     0      -4.985  -7.180  -2.514  0.00  0.00    -0.043 A 
HETATM    6  C   UNK     0      -3.999  -7.551  -3.434  0.00  0.00    -0.019 A 
HETATM    7  C   UNK     0      -5.376  -8.309  -1.662  0.00  0.00     0.080 A 
HETATM    8  C   UNK     0      -4.494  -9.378  -2.181  0.00  0.00    -0.032 A 
HETATM    9  C   UNK     0      -3.712  -8.901  -3.242  0.00  0.00    -0.016 A 
HETATM   10  C   UNK     0      -4.407 -10.731  -1.765  0.00  0.00    -0.016 A 
HETATM   11  C   UNK     0      -3.541 -11.591  -2.488  0.00  0.00     0.042 A 
HETATM   12  C   UNK     0      -2.779 -11.114  -3.579  0.00  0.00     0.027 A 
HETATM   13  C   UNK     0      -2.845  -9.754  -3.949  0.00  0.00     0.042 A 
ENDROOT
BRANCH  10  14
HETATM   14  C   UNK     0      -5.186 -11.233  -0.686  0.00  0.00    -0.023 A 
HETATM   15  C   UNK     0      -4.680 -11.218   0.632  0.00  0.00     0.029 A 
HETATM   16  C   UNK     0      -5.443 -11.760   1.683  0.00  0.00     0.090 A 
HETATM   17  N   UNK     0      -6.677 -12.306   1.452  0.00  0.00    -0.371 N 
HETATM   18  C   UNK     0      -7.194 -12.314   0.184  0.00  0.00     0.090 A 
HETATM   19  C   UNK     0      -7.444 -12.844   2.549  0.00  0.00     0.154 C 
HETATM   20  C   UNK     0      -6.474 -11.774  -0.897  0.00  0.00     0.029 A 
ENDBRANCH  10  14
BRANCH  12  21
HETATM   21  N   UNK     0      -2.002 -11.963  -4.282  0.00  0.00    -0.399 N 
HETATM   22  H   UNK     0      -1.035 -11.925  -4.195  0.00  0.00     0.156 HD
HETATM   23  H   UNK     0      -2.406 -12.619  -4.872  0.00  0.00     0.156 HD
ENDBRANCH  12  21
TORSDOF 2
ENDMDL
MODEL 8
REMARK VINA RESULT:      -6.3     17.413     18.754
REMARK  2 active torsions:
REMARK  status: ('A' for Active; 'I' for Inactive)
REMARK    1  A    between atoms: C_10  and  C_17 
REMARK    2  A    between atoms: C_12  and  N_14 
ROOT
HETATM    1  C   UNK     0      -3.792   4.982 -11.871  0.00  0.00     0.013 A 
HETATM    2  C   UNK     0      -4.558   5.905 -12.614  0.00  0.00     0.001 A 
HETATM    3  C   UNK     0      -4.316   7.292 -12.500  0.00  0.00     0.001 A 
HETATM    4  C   UNK     0      -3.310   7.774 -11.637  0.00  0.00     0.008 A 
HETATM    5  C   UNK     0      -2.550   6.845 -10.898  0.00  0.00    -0.043 A 
HETATM    6  C   UNK     0      -2.788   5.472 -11.014  0.00  0.00    -0.019 A 
HETATM    7  C   UNK     0      -1.461   7.123  -9.954  0.00  0.00     0.080 A 
HETATM    8  C   UNK     0      -1.083   5.753  -9.543  0.00  0.00    -0.032 A 
HETATM    9  C   UNK     0      -1.902   4.804 -10.170  0.00  0.00    -0.016 A 
HETATM   10  C   UNK     0      -0.081   5.352  -8.623  0.00  0.00    -0.016 A 
HETATM   11  C   UNK     0       0.029   3.970  -8.325  0.00  0.00     0.042 A 
HETATM   12  C   UNK     0      -0.822   3.019  -8.935  0.00  0.00     0.027 A 
HETATM   13  C   UNK     0      -1.782   3.432  -9.882  0.00  0.00     0.042 A 
ENDROOT
BRANCH  10  14
HETATM   14  C   UNK     0       0.767   6.297  -7.980  0.00  0.00    -0.023 A 
HETATM   15  C   UNK     0       0.248   7.179  -7.007  0.00  0.00     0.029 A 
HETATM   16  C   UNK     0       1.089   8.139  -6.412  0.00  0.00     0.090 A 
HETATM   17  N   UNK     0       2.410   8.236  -6.760  0.00  0.00    -0.371 N 
HETATM   18  C   UNK     0       2.936   7.377  -7.688  0.00  0.00     0.090 A 
HETATM   19  C   UNK     0       3.252   9.220  -6.126  0.00  0.00     0.154 C 
HETATM   20  C   UNK     0       2.139   6.394  -8.302  0.00  0.00     0.029 A 
ENDBRANCH  10  14
BRANCH  12  21
HETATM   21  N   UNK     0      -0.732   1.716  -8.597  0.00  0.00    -0.399 N 
HETATM   22  H   UNK     0      -1.036   1.031  -9.214  0.00  0.00     0.156 HD
HETATM   23  H   UNK     0      -0.356   1.460  -7.740  0.00  0.00     0.156 HD
ENDBRANCH  12  21
TORSDOF 2
ENDMDL
MODEL 9
REMARK VINA RESULT:      -6.2     17.684     19.999
REMARK  2 active torsions:
REMARK  status: ('A' for Active; 'I' for Inactive)
REMARK    1  A    between atoms: C_10  and  C_17 
REMARK    2  A    between atoms: C_12  and  N_14 
ROOT
HETATM    1  C   UNK     0       2.434   4.829 -13.043  0.00  0.00     0.013 A 
HETATM    2  C   UNK     0       3.097   5.427 -14.135  0.00  0.00     0.001 A 
HETATM    3  C   UNK     0       3.628   6.731 -14.024  0.00  0.00     0.001 A 
HETATM    4  C   UNK     0       3.498   7.456 -12.822  0.00  0.00     0.008 A 
HETATM    5  C   UNK     0       2.834   6.852 -11.736  0.00  0.00    -0.043 A 
HETATM    6  C   UNK     0       2.310   5.560 -11.846  0.00  0.00    -0.019 A 
HETATM    7  C   UNK     0       2.591   7.418 -10.404  0.00  0.00     0.080 A 
HETATM    8  C   UNK     0       1.877   6.301  -9.745  0.00  0.00    -0.032 A 
HETATM    9  C   UNK     0       1.709   5.230 -10.633  0.00  0.00    -0.016 A 
HETATM   10  C   UNK     0       1.361   6.240  -8.425  0.00  0.00    -0.016 A 
HETATM   11  C   UNK     0       0.629   5.082  -8.055  0.00  0.00     0.042 A 
HETATM   12  C   UNK     0       0.432   4.018  -8.964  0.00  0.00     0.027 A 
HETATM   13  C   UNK     0       0.993   4.078 -10.258  0.00  0.00     0.042 A 
ENDROOT
BRANCH  10  14
HETATM   14  C   UNK     0       1.527   7.312  -7.506  0.00  0.00    -0.023 A 
HETATM   15  C   UNK     0       2.746   7.481  -6.815  0.00  0.00     0.029 A 
HETATM   16  C   UNK     0       2.881   8.520  -5.874  0.00  0.00     0.090 A 
HETATM   17  N   UNK     0       1.846   9.377  -5.613  0.00  0.00    -0.371 N 
HETATM   18  C   UNK     0       0.661   9.242  -6.287  0.00  0.00     0.090 A 
HETATM   19  C   UNK     0       2.014  10.441  -4.654  0.00  0.00     0.154 C 
HETATM   20  C   UNK     0       0.482   8.226  -7.244  0.00  0.00     0.029 A 
ENDBRANCH  10  14
BRANCH  12  21
HETATM   21  N   UNK     0      -0.310   2.950  -8.605  0.00  0.00    -0.399 N 
HETATM   22  H   UNK     0       0.118   2.096  -8.431  0.00  0.00     0.156 HD
HETATM   23  H   UNK     0      -1.272   3.035  -8.513  0.00  0.00     0.156 HD
ENDBRANCH  12  21
TORSDOF 2
ENDMDL
