MODEL 1
REMARK VINA RESULT:      -7.0      0.000      0.000
REMARK  4 active torsions:
REMARK  status: ('A' for Active; 'I' for Inactive)
REMARK    1  A    between atoms: C_11  and  N_14 
REMARK    2  A    between atoms: C_13  and  C_21 
REMARK       I    between atoms: N_14  and  C_15 
REMARK    3  A    between atoms: C_15  and  C_16 
REMARK    4  A    between atoms: C_16  and  C_17 
ROOT
HETATM    1  C   UNK     0      -8.945   2.839   4.652  0.00  0.00     0.016 A 
HETATM    2  C   UNK     0      -8.495   2.063   3.562  0.00  0.00     0.001 A 
HETATM    3  C   UNK     0      -7.286   1.336   3.650  0.00  0.00     0.001 A 
HETATM    4  C   UNK     0      -6.514   1.367   4.832  0.00  0.00     0.013 A 
HETATM    5  C   UNK     0      -6.980   2.136   5.917  0.00  0.00    -0.011 A 
HETATM    6  C   UNK     0      -8.168   2.865   5.825  0.00  0.00     0.026 A 
HETATM    7  C   UNK     0      -6.454   2.350   7.192  0.00  0.00    -0.008 A 
HETATM    8  C   UNK     0      -7.287   3.243   7.877  0.00  0.00     0.037 A 
HETATM    9  C   UNK     0      -8.370   3.543   7.029  0.00  0.00     0.195 A 
HETATM   10  C   UNK     0      -5.311   1.804   7.796  0.00  0.00     0.043 A 
HETATM   11  C   UNK     0      -4.977   2.181   9.119  0.00  0.00     0.036 A 
HETATM   12  C   UNK     0      -5.814   3.103   9.795  0.00  0.00     0.043 A 
HETATM   13  C   UNK     0      -6.974   3.661   9.194  0.00  0.00    -0.009 A 
HETATM   14  O   UNK     0      -9.362   4.262   7.284  0.00  0.00    -0.287 OA
ENDROOT
BRANCH  13  15
HETATM   15  C   UNK     0      -7.761   4.609   9.906  0.00  0.00    -0.022 A 
HETATM   16  C   UNK     0      -7.496   5.996   9.805  0.00  0.00     0.029 A 
HETATM   17  C   UNK     0      -8.282   6.909  10.531  0.00  0.00     0.088 A 
HETATM   18  N   UNK     0      -9.280   6.454  11.331  0.00  0.00    -0.375 N 
HETATM   19  C   UNK     0      -9.566   5.133  11.459  0.00  0.00     0.088 A 
HETATM   20  HN  UNK     0      -9.836   7.130  11.855  1.00  0.00     0.164 HD
HETATM   21  C   UNK     0      -8.815   4.181  10.746  0.00  0.00     0.029 A 
ENDBRANCH  13  15
BRANCH  11  22
HETATM   22  N   UNK     0      -3.900   1.685   9.802  0.00  0.00    -0.327 N 
HETATM   23  C   UNK     0      -2.612   2.145   9.795  0.00  0.00     0.223 C 
HETATM   24  O   UNK     0      -2.272   3.188   9.188  0.00  0.00    -0.273 OA
HETATM   25  H   UNK     0      -4.078   0.927  10.381  0.00  0.00     0.169 HD
BRANCH  23  26
HETATM   26  C   UNK     0      -1.574   1.421  10.559  0.00  0.00     0.118 C 
BRANCH  26  27
HETATM   27  C   UNK     0      -1.945   1.281  12.055  0.00  0.00     0.124 C 
HETATM   28 Cl   UNK     0      -2.406   2.834  12.744  0.00  0.00    -0.130 Cl
ENDBRANCH  26  27
ENDBRANCH  23  26
ENDBRANCH  11  22
TORSDOF 4
ENDMDL
MODEL 2
REMARK VINA RESULT:      -6.7     18.995     21.956
REMARK  4 active torsions:
REMARK  status: ('A' for Active; 'I' for Inactive)
REMARK    1  A    between atoms: C_11  and  N_14 
REMARK    2  A    between atoms: C_13  and  C_21 
REMARK       I    between atoms: N_14  and  C_15 
REMARK    3  A    between atoms: C_15  and  C_16 
REMARK    4  A    between atoms: C_16  and  C_17 
ROOT
HETATM    1  C   UNK     0      13.531  -6.308   0.335  0.00  0.00     0.016 A 
HETATM    2  C   UNK     0      13.853  -7.666   0.123  0.00  0.00     0.001 A 
HETATM    3  C   UNK     0      13.140  -8.431  -0.827  0.00  0.00     0.001 A 
HETATM    4  C   UNK     0      12.102  -7.848  -1.585  0.00  0.00     0.013 A 
HETATM    5  C   UNK     0      11.798  -6.489  -1.373  0.00  0.00    -0.011 A 
HETATM    6  C   UNK     0      12.494  -5.736  -0.424  0.00  0.00     0.026 A 
HETATM    7  C   UNK     0      10.854  -5.648  -1.965  0.00  0.00    -0.008 A 
HETATM    8  C   UNK     0      10.931  -4.389  -1.358  0.00  0.00     0.037 A 
HETATM    9  C   UNK     0      11.974  -4.441  -0.413  0.00  0.00     0.195 A 
HETATM   10  C   UNK     0       9.949  -5.906  -3.006  0.00  0.00     0.043 A 
HETATM   11  C   UNK     0       9.077  -4.878  -3.438  0.00  0.00     0.036 A 
HETATM   12  C   UNK     0       9.146  -3.614  -2.802  0.00  0.00     0.043 A 
HETATM   13  C   UNK     0      10.059  -3.342  -1.748  0.00  0.00    -0.009 A 
HETATM   14  O   UNK     0      12.399  -3.507   0.305  0.00  0.00    -0.287 OA
ENDROOT
BRANCH  13  15
HETATM   15  C   UNK     0      10.064  -2.065  -1.119  0.00  0.00    -0.022 A 
HETATM   16  C   UNK     0       9.543  -1.895   0.186  0.00  0.00     0.029 A 
HETATM   17  C   UNK     0       9.549  -0.618   0.776  0.00  0.00     0.088 A 
HETATM   18  N   UNK     0      10.043   0.442   0.086  0.00  0.00    -0.375 N 
HETATM   19  C   UNK     0      10.549   0.324  -1.167  0.00  0.00     0.088 A 
HETATM   20  HN  UNK     0      10.033   1.362   0.527  1.00  0.00     0.164 HD
HETATM   21  C   UNK     0      10.575  -0.934  -1.797  0.00  0.00     0.029 A 
ENDBRANCH  13  15
BRANCH  11  22
HETATM   22  N   UNK     0       8.180  -5.023  -4.462  0.00  0.00    -0.327 N 
HETATM   23  C   UNK     0       6.908  -5.521  -4.404  0.00  0.00     0.223 C 
HETATM   24  O   UNK     0       6.359  -5.844  -3.323  0.00  0.00    -0.273 OA
HETATM   25  H   UNK     0       8.476  -4.711  -5.332  0.00  0.00     0.169 HD
BRANCH  23  26
HETATM   26  C   UNK     0       6.118  -5.654  -5.646  0.00  0.00     0.118 C 
BRANCH  26  27
HETATM   27  C   UNK     0       6.744  -6.674  -6.627  0.00  0.00     0.124 C 
HETATM   28 Cl   UNK     0       7.120  -8.189  -5.814  0.00  0.00    -0.130 Cl
ENDBRANCH  26  27
ENDBRANCH  23  26
ENDBRANCH  11  22
TORSDOF 4
ENDMDL
MODEL 3
REMARK VINA RESULT:      -6.6     17.794     20.722
REMARK  4 active torsions:
REMARK  status: ('A' for Active; 'I' for Inactive)
REMARK    1  A    between atoms: C_11  and  N_14 
REMARK    2  A    between atoms: C_13  and  C_21 
REMARK       I    between atoms: N_14  and  C_15 
REMARK    3  A    between atoms: C_15  and  C_16 
REMARK    4  A    between atoms: C_16  and  C_17 
ROOT
HETATM    1  C   UNK     0      13.548   2.225  -0.284  0.00  0.00     0.016 A 
HETATM    2  C   UNK     0      14.050   2.773  -1.484  0.00  0.00     0.001 A 
HETATM    3  C   UNK     0      13.684   2.221  -2.732  0.00  0.00     0.001 A 
HETATM    4  C   UNK     0      12.803   1.120  -2.800  0.00  0.00     0.013 A 
HETATM    5  C   UNK     0      12.298   0.590  -1.596  0.00  0.00    -0.011 A 
HETATM    6  C   UNK     0      12.672   1.126  -0.361  0.00  0.00     0.026 A 
HETATM    7  C   UNK     0      11.419  -0.466  -1.346  0.00  0.00    -0.008 A 
HETATM    8  C   UNK     0      11.279  -0.614   0.039  0.00  0.00     0.037 A 
HETATM    9  C   UNK     0      12.043   0.398   0.650  0.00  0.00     0.195 A 
HETATM   10  C   UNK     0      10.724  -1.288  -2.246  0.00  0.00     0.043 A 
HETATM   11  C   UNK     0       9.880  -2.308  -1.744  0.00  0.00     0.036 A 
HETATM   12  C   UNK     0       9.763  -2.465  -0.341  0.00  0.00     0.043 A 
HETATM   13  C   UNK     0      10.460  -1.637   0.579  0.00  0.00    -0.009 A 
HETATM   14  O   UNK     0      12.144   0.644   1.874  0.00  0.00    -0.287 OA
ENDROOT
BRANCH  13  15
HETATM   15  C   UNK     0      10.334  -1.861   1.978  0.00  0.00    -0.022 A 
HETATM   16  C   UNK     0      11.268  -2.665   2.674  0.00  0.00     0.029 A 
HETATM   17  C   UNK     0      11.109  -2.878   4.055  0.00  0.00     0.088 A 
HETATM   18  N   UNK     0      10.057  -2.323   4.708  0.00  0.00    -0.375 N 
HETATM   19  C   UNK     0       9.136  -1.548   4.079  0.00  0.00     0.088 A 
HETATM   20  HN  UNK     0       9.954  -2.494   5.708  1.00  0.00     0.164 HD
HETATM   21  C   UNK     0       9.257  -1.296   2.701  0.00  0.00     0.029 A 
ENDBRANCH  13  15
BRANCH  11  22
HETATM   22  N   UNK     0       9.141  -3.142  -2.539  0.00  0.00    -0.327 N 
HETATM   23  C   UNK     0       9.345  -4.472  -2.784  0.00  0.00     0.223 C 
HETATM   24  O   UNK     0      10.239  -5.134  -2.207  0.00  0.00    -0.273 OA
HETATM   25  H   UNK     0       8.363  -2.745  -2.961  0.00  0.00     0.169 HD
BRANCH  23  26
HETATM   26  C   UNK     0       8.462  -5.182  -3.733  0.00  0.00     0.118 C 
BRANCH  26  27
HETATM   27  C   UNK     0       7.719  -6.363  -3.063  0.00  0.00     0.124 C 
HETATM   28 Cl   UNK     0       5.990  -6.296  -3.393  0.00  0.00    -0.130 Cl
ENDBRANCH  26  27
ENDBRANCH  23  26
ENDBRANCH  11  22
TORSDOF 4
ENDMDL
MODEL 4
REMARK VINA RESULT:      -6.4     17.661     20.113
REMARK  4 active torsions:
REMARK  status: ('A' for Active; 'I' for Inactive)
REMARK    1  A    between atoms: C_11  and  N_14 
REMARK    2  A    between atoms: C_13  and  C_21 
REMARK       I    between atoms: N_14  and  C_15 
REMARK    3  A    between atoms: C_15  and  C_16 
REMARK    4  A    between atoms: C_16  and  C_17 
ROOT
HETATM    1  C   UNK     0       4.470   9.727 -11.221  0.00  0.00     0.016 A 
HETATM    2  C   UNK     0       4.963   9.123 -12.398  0.00  0.00     0.001 A 
HETATM    3  C   UNK     0       4.461   7.874 -12.827  0.00  0.00     0.001 A 
HETATM    4  C   UNK     0       3.452   7.215 -12.091  0.00  0.00     0.013 A 
HETATM    5  C   UNK     0       2.958   7.834 -10.926  0.00  0.00    -0.011 A 
HETATM    6  C   UNK     0       3.465   9.062 -10.494  0.00  0.00     0.026 A 
HETATM    7  C   UNK     0       1.975   7.442 -10.015  0.00  0.00    -0.008 A 
HETATM    8  C   UNK     0       1.900   8.401  -8.997  0.00  0.00     0.037 A 
HETATM    9  C   UNK     0       2.814   9.423  -9.313  0.00  0.00     0.195 A 
HETATM   10  C   UNK     0       1.135   6.319 -10.028  0.00  0.00     0.043 A 
HETATM   11  C   UNK     0       0.205   6.135  -8.977  0.00  0.00     0.036 A 
HETATM   12  C   UNK     0       0.152   7.098  -7.939  0.00  0.00     0.043 A 
HETATM   13  C   UNK     0       0.997   8.240  -7.917  0.00  0.00    -0.009 A 
HETATM   14  O   UNK     0       3.015  10.488  -8.685  0.00  0.00    -0.287 OA
ENDROOT
BRANCH  13  15
HETATM   15  C   UNK     0       0.927   9.159  -6.832  0.00  0.00    -0.022 A 
HETATM   16  C   UNK     0       1.791   9.037  -5.718  0.00  0.00     0.029 A 
HETATM   17  C   UNK     0       1.689   9.952  -4.655  0.00  0.00     0.088 A 
HETATM   18  N   UNK     0       0.756  10.937  -4.700  0.00  0.00    -0.375 N 
HETATM   19  C   UNK     0      -0.094  11.088  -5.746  0.00  0.00     0.088 A 
HETATM   20  HN  UNK     0       0.692  11.588  -3.917  1.00  0.00     0.164 HD
HETATM   21  C   UNK     0      -0.025  10.205  -6.839  0.00  0.00     0.029 A 
ENDBRANCH  13  15
BRANCH  11  22
HETATM   22  N   UNK     0      -0.674   5.087  -8.914  0.00  0.00    -0.327 N 
HETATM   23  C   UNK     0      -0.515   3.892  -8.270  0.00  0.00     0.223 C 
HETATM   24  O   UNK     0       0.481   3.640  -7.552  0.00  0.00    -0.273 OA
HETATM   25  H   UNK     0      -1.524   5.220  -9.363  0.00  0.00     0.169 HD
BRANCH  23  26
HETATM   26  C   UNK     0      -1.567   2.859  -8.379  0.00  0.00     0.118 C 
BRANCH  26  27
HETATM   27  C   UNK     0      -2.045   2.667  -9.838  0.00  0.00     0.124 C 
HETATM   28 Cl   UNK     0      -0.740   2.078 -10.863  0.00  0.00    -0.130 Cl
ENDBRANCH  26  27
ENDBRANCH  23  26
ENDBRANCH  11  22
TORSDOF 4
ENDMDL
MODEL 5
REMARK VINA RESULT:      -6.3     15.207     18.111
REMARK  4 active torsions:
REMARK  status: ('A' for Active; 'I' for Inactive)
REMARK    1  A    between atoms: C_11  and  N_14 
REMARK    2  A    between atoms: C_13  and  C_21 
REMARK       I    between atoms: N_14  and  C_15 
REMARK    3  A    between atoms: C_15  and  C_16 
REMARK    4  A    between atoms: C_16  and  C_17 
ROOT
HETATM    1  C   UNK     0      -5.439  -5.851  -2.214  0.00  0.00     0.016 A 
HETATM    2  C   UNK     0      -4.921  -4.946  -3.164  0.00  0.00     0.001 A 
HETATM    3  C   UNK     0      -3.982  -5.376  -4.128  0.00  0.00     0.001 A 
HETATM    4  C   UNK     0      -3.554  -6.721  -4.162  0.00  0.00     0.013 A 
HETATM    5  C   UNK     0      -4.087  -7.619  -3.216  0.00  0.00    -0.011 A 
HETATM    6  C   UNK     0      -5.005  -7.190  -2.255  0.00  0.00     0.026 A 
HETATM    7  C   UNK     0      -3.871  -8.983  -3.010  0.00  0.00    -0.008 A 
HETATM    8  C   UNK     0      -4.617  -9.392  -1.899  0.00  0.00     0.037 A 
HETATM    9  C   UNK     0      -5.344  -8.275  -1.445  0.00  0.00     0.195 A 
HETATM   10  C   UNK     0      -3.082  -9.887  -3.738  0.00  0.00     0.043 A 
HETATM   11  C   UNK     0      -3.020 -11.240  -3.327  0.00  0.00     0.036 A 
HETATM   12  C   UNK     0      -3.760 -11.640  -2.187  0.00  0.00     0.043 A 
HETATM   13  C   UNK     0      -4.563 -10.733  -1.444  0.00  0.00    -0.009 A 
HETATM   14  O   UNK     0      -6.170  -8.233  -0.505  0.00  0.00    -0.287 OA
ENDROOT
BRANCH  13  15
HETATM   15  C   UNK     0      -5.259 -11.180  -0.286  0.00  0.00    -0.022 A 
HETATM   16  C   UNK     0      -4.627 -11.201   0.980  0.00  0.00     0.029 A 
HETATM   17  C   UNK     0      -5.337 -11.660   2.104  0.00  0.00     0.088 A 
HETATM   18  N   UNK     0      -6.616 -12.090   1.965  0.00  0.00    -0.375 N 
HETATM   19  C   UNK     0      -7.259 -12.091   0.770  0.00  0.00     0.088 A 
HETATM   20  HN  UNK     0      -7.114 -12.426   2.790  1.00  0.00     0.164 HD
HETATM   21  C   UNK     0      -6.597 -11.631  -0.382  0.00  0.00     0.029 A 
ENDBRANCH  13  15
BRANCH  11  22
HETATM   22  N   UNK     0      -2.302 -12.202  -3.985  0.00  0.00    -0.327 N 
HETATM   23  C   UNK     0      -2.728 -13.039  -4.979  0.00  0.00     0.223 C 
HETATM   24  O   UNK     0      -3.872 -12.956  -5.486  0.00  0.00    -0.273 OA
HETATM   25  H   UNK     0      -1.370 -12.284  -3.730  0.00  0.00     0.169 HD
BRANCH  23  26
HETATM   26  C   UNK     0      -1.806 -14.061  -5.518  0.00  0.00     0.118 C 
BRANCH  26  27
HETATM   27  C   UNK     0      -2.281 -15.499  -5.199  0.00  0.00     0.124 C 
HETATM   28 Cl   UNK     0      -2.536 -15.716  -3.471  0.00  0.00    -0.130 Cl
ENDBRANCH  26  27
ENDBRANCH  23  26
ENDBRANCH  11  22
TORSDOF 4
ENDMDL
MODEL 6
REMARK VINA RESULT:      -6.2      2.086      5.290
REMARK  4 active torsions:
REMARK  status: ('A' for Active; 'I' for Inactive)
REMARK    1  A    between atoms: C_11  and  N_14 
REMARK    2  A    between atoms: C_13  and  C_21 
REMARK       I    between atoms: N_14  and  C_15 
REMARK    3  A    between atoms: C_15  and  C_16 
REMARK    4  A    between atoms: C_16  and  C_17 
ROOT
HETATM    1  C   UNK     0      -6.956   1.594   4.541  0.00  0.00     0.016 A 
HETATM    2  C   UNK     0      -8.012   1.742   3.615  0.00  0.00     0.001 A 
HETATM    3  C   UNK     0      -9.143   2.526   3.937  0.00  0.00     0.001 A 
HETATM    4  C   UNK     0      -9.231   3.179   5.185  0.00  0.00     0.013 A 
HETATM    5  C   UNK     0      -8.166   3.035   6.096  0.00  0.00    -0.011 A 
HETATM    6  C   UNK     0      -7.054   2.249   5.783  0.00  0.00     0.026 A 
HETATM    7  C   UNK     0      -7.964   3.557   7.374  0.00  0.00    -0.008 A 
HETATM    8  C   UNK     0      -6.752   3.064   7.874  0.00  0.00     0.037 A 
HETATM    9  C   UNK     0      -6.175   2.268   6.867  0.00  0.00     0.195 A 
HETATM   10  C   UNK     0      -8.757   4.443   8.119  0.00  0.00     0.043 A 
HETATM   11  C   UNK     0      -8.337   4.832   9.413  0.00  0.00     0.036 A 
HETATM   12  C   UNK     0      -7.120   4.310   9.919  0.00  0.00     0.043 A 
HETATM   13  C   UNK     0      -6.309   3.413   9.174  0.00  0.00    -0.009 A 
HETATM   14  O   UNK     0      -5.065   1.687   6.895  0.00  0.00    -0.287 OA
ENDROOT
BRANCH  13  15
HETATM   15  C   UNK     0      -5.113   2.891   9.743  0.00  0.00    -0.022 A 
HETATM   16  C   UNK     0      -5.130   1.697  10.502  0.00  0.00     0.029 A 
HETATM   17  C   UNK     0      -3.934   1.213  11.063  0.00  0.00     0.088 A 
HETATM   18  N   UNK     0      -2.778   1.900  10.883  0.00  0.00    -0.375 N 
HETATM   19  C   UNK     0      -2.717   3.050  10.166  0.00  0.00     0.088 A 
HETATM   20  HN  UNK     0      -1.921   1.538  11.303  1.00  0.00     0.164 HD
HETATM   21  C   UNK     0      -3.883   3.570   9.575  0.00  0.00     0.029 A 
ENDBRANCH  13  15
BRANCH  11  22
HETATM   22  N   UNK     0      -9.026   5.711  10.204  0.00  0.00    -0.327 N 
HETATM   23  C   UNK     0      -8.721   7.015  10.479  0.00  0.00     0.223 C 
HETATM   24  O   UNK     0      -7.760   7.612   9.937  0.00  0.00    -0.273 OA
HETATM   25  H   UNK     0      -9.845   5.373  10.600  0.00  0.00     0.169 HD
BRANCH  23  26
HETATM   26  C   UNK     0      -9.567   7.781  11.418  0.00  0.00     0.118 C 
BRANCH  26  27
HETATM   27  C   UNK     0      -9.407   7.292  12.877  0.00  0.00     0.124 C 
HETATM   28 Cl   UNK     0      -7.736   6.859  13.223  0.00  0.00    -0.130 Cl
ENDBRANCH  26  27
ENDBRANCH  23  26
ENDBRANCH  11  22
TORSDOF 4
ENDMDL
MODEL 7
REMARK VINA RESULT:      -6.0     18.491     21.099
REMARK  4 active torsions:
REMARK  status: ('A' for Active; 'I' for Inactive)
REMARK    1  A    between atoms: C_11  and  N_14 
REMARK    2  A    between atoms: C_13  and  C_21 
REMARK       I    between atoms: N_14  and  C_15 
REMARK    3  A    between atoms: C_15  and  C_16 
REMARK    4  A    between atoms: C_16  and  C_17 
ROOT
HETATM    1  C   UNK     0      -0.809   2.932  -8.831  0.00  0.00     0.016 A 
HETATM    2  C   UNK     0      -1.241   1.984  -9.782  0.00  0.00     0.001 A 
HETATM    3  C   UNK     0      -0.856   2.100 -11.137  0.00  0.00     0.001 A 
HETATM    4  C   UNK     0      -0.026   3.161 -11.558  0.00  0.00     0.013 A 
HETATM    5  C   UNK     0       0.410   4.095 -10.596  0.00  0.00    -0.011 A 
HETATM    6  C   UNK     0       0.018   3.987  -9.260  0.00  0.00     0.026 A 
HETATM    7  C   UNK     0       1.229   5.220 -10.704  0.00  0.00    -0.008 A 
HETATM    8  C   UNK     0       1.312   5.836  -9.450  0.00  0.00     0.037 A 
HETATM    9  C   UNK     0       0.575   5.049  -8.545  0.00  0.00     0.195 A 
HETATM   10  C   UNK     0       1.917   5.728 -11.817  0.00  0.00     0.043 A 
HETATM   11  C   UNK     0       2.694   6.902 -11.676  0.00  0.00     0.036 A 
HETATM   12  C   UNK     0       2.753   7.531 -10.408  0.00  0.00     0.043 A 
HETATM   13  C   UNK     0       2.062   7.025  -9.275  0.00  0.00    -0.009 A 
HETATM   14  O   UNK     0       0.441   5.226  -7.312  0.00  0.00    -0.287 OA
ENDROOT
BRANCH  13  15
HETATM   15  C   UNK     0       2.127   7.716  -8.032  0.00  0.00    -0.022 A 
HETATM   16  C   UNK     0       3.162   7.447  -7.104  0.00  0.00     0.029 A 
HETATM   17  C   UNK     0       3.192   8.136  -5.878  0.00  0.00     0.088 A 
HETATM   18  N   UNK     0       2.225   9.043  -5.589  0.00  0.00    -0.375 N 
HETATM   19  C   UNK     0       1.214   9.329  -6.448  0.00  0.00     0.088 A 
HETATM   20  HN  UNK     0       2.259   9.529  -4.693  1.00  0.00     0.164 HD
HETATM   21  C   UNK     0       1.145   8.675  -7.692  0.00  0.00     0.029 A 
ENDBRANCH  13  15
BRANCH  11  22
HETATM   22  N   UNK     0       3.421   7.459 -12.694  0.00  0.00    -0.327 N 
HETATM   23  C   UNK     0       4.475   6.913 -13.373  0.00  0.00     0.223 C 
HETATM   24  O   UNK     0       4.863   5.736 -13.182  0.00  0.00    -0.273 OA
HETATM   25  H   UNK     0       3.138   8.340 -12.984  0.00  0.00     0.169 HD
BRANCH  23  26
HETATM   26  C   UNK     0       5.171   7.711 -14.404  0.00  0.00     0.118 C 
BRANCH  26  27
HETATM   27  C   UNK     0       6.662   7.939 -14.055  0.00  0.00     0.124 C 
HETATM   28 Cl   UNK     0       6.851   8.471 -12.388  0.00  0.00    -0.130 Cl
ENDBRANCH  26  27
ENDBRANCH  23  26
ENDBRANCH  11  22
TORSDOF 4
ENDMDL
MODEL 8
REMARK VINA RESULT:      -6.0     17.710     20.429
REMARK  4 active torsions:
REMARK  status: ('A' for Active; 'I' for Inactive)
REMARK    1  A    between atoms: C_11  and  N_14 
REMARK    2  A    between atoms: C_13  and  C_21 
REMARK       I    between atoms: N_14  and  C_15 
REMARK    3  A    between atoms: C_15  and  C_16 
REMARK    4  A    between atoms: C_16  and  C_17 
ROOT
HETATM    1  C   UNK     0       3.414   5.739 -13.372  0.00  0.00     0.016 A 
HETATM    2  C   UNK     0       4.413   6.598 -13.877  0.00  0.00     0.001 A 
HETATM    3  C   UNK     0       4.791   7.756 -13.161  0.00  0.00     0.001 A 
HETATM    4  C   UNK     0       4.182   8.067 -11.926  0.00  0.00     0.013 A 
HETATM    5  C   UNK     0       3.195   7.195 -11.426  0.00  0.00    -0.011 A 
HETATM    6  C   UNK     0       2.812   6.057 -12.141  0.00  0.00     0.026 A 
HETATM    7  C   UNK     0       2.439   7.229 -10.254  0.00  0.00    -0.008 A 
HETATM    8  C   UNK     0       1.557   6.141 -10.257  0.00  0.00     0.037 A 
HETATM    9  C   UNK     0       1.811   5.398 -11.425  0.00  0.00     0.195 A 
HETATM   10  C   UNK     0       2.482   8.133  -9.182  0.00  0.00     0.043 A 
HETATM   11  C   UNK     0       1.600   7.957  -8.088  0.00  0.00     0.036 A 
HETATM   12  C   UNK     0       0.696   6.867  -8.112  0.00  0.00     0.043 A 
HETATM   13  C   UNK     0       0.644   5.945  -9.192  0.00  0.00    -0.009 A 
HETATM   14  O   UNK     0       1.273   4.323 -11.778  0.00  0.00    -0.287 OA
ENDROOT
BRANCH  13  15
HETATM   15  C   UNK     0      -0.307   4.887  -9.181  0.00  0.00    -0.022 A 
HETATM   16  C   UNK     0      -0.083   3.713  -8.423  0.00  0.00     0.029 A 
HETATM   17  C   UNK     0      -1.035   2.678  -8.443  0.00  0.00     0.088 A 
HETATM   18  N   UNK     0      -2.156   2.808  -9.197  0.00  0.00    -0.375 N 
HETATM   19  C   UNK     0      -2.410   3.914  -9.941  0.00  0.00     0.088 A 
HETATM   20  HN  UNK     0      -2.834   2.045  -9.205  1.00  0.00     0.164 HD
HETATM   21  C   UNK     0      -1.494   4.981  -9.946  0.00  0.00     0.029 A 
ENDBRANCH  13  15
BRANCH  11  22
HETATM   22  N   UNK     0       1.585   8.769  -6.986  0.00  0.00    -0.327 N 
HETATM   23  C   UNK     0       2.268   8.608  -5.812  0.00  0.00     0.223 C 
HETATM   24  O   UNK     0       3.099   7.686  -5.637  0.00  0.00    -0.273 OA
HETATM   25  H   UNK     0       1.040   9.568  -7.056  0.00  0.00     0.169 HD
BRANCH  23  26
HETATM   26  C   UNK     0       2.063   9.572  -4.711  0.00  0.00     0.118 C 
BRANCH  26  27
HETATM   27  C   UNK     0       0.937  10.586  -5.027  0.00  0.00     0.124 C 
HETATM   28 Cl   UNK     0       1.599  12.172  -5.409  0.00  0.00    -0.130 Cl
ENDBRANCH  26  27
ENDBRANCH  23  26
ENDBRANCH  11  22
TORSDOF 4
ENDMDL
MODEL 9
REMARK VINA RESULT:      -5.9     15.637     18.950
REMARK  4 active torsions:
REMARK  status: ('A' for Active; 'I' for Inactive)
REMARK    1  A    between atoms: C_11  and  N_14 
REMARK    2  A    between atoms: C_13  and  C_21 
REMARK       I    between atoms: N_14  and  C_15 
REMARK    3  A    between atoms: C_15  and  C_16 
REMARK    4  A    between atoms: C_16  and  C_17 
ROOT
HETATM    1  C   UNK     0      -3.884  -4.964  -6.188  0.00  0.00     0.016 A 
HETATM    2  C   UNK     0      -4.441  -3.933  -5.401  0.00  0.00     0.001 A 
HETATM    3  C   UNK     0      -4.883  -4.195  -4.085  0.00  0.00     0.001 A 
HETATM    4  C   UNK     0      -4.767  -5.489  -3.533  0.00  0.00     0.013 A 
HETATM    5  C   UNK     0      -4.197  -6.507  -4.323  0.00  0.00    -0.011 A 
HETATM    6  C   UNK     0      -3.773  -6.252  -5.629  0.00  0.00     0.026 A 
HETATM    7  C   UNK     0      -3.944  -7.853  -4.055  0.00  0.00    -0.008 A 
HETATM    8  C   UNK     0      -3.404  -8.445  -5.203  0.00  0.00     0.037 A 
HETATM    9  C   UNK     0      -3.275  -7.436  -6.176  0.00  0.00     0.195 A 
HETATM   10  C   UNK     0      -4.137  -8.587  -2.874  0.00  0.00     0.043 A 
HETATM   11  C   UNK     0      -3.801  -9.961  -2.848  0.00  0.00     0.036 A 
HETATM   12  C   UNK     0      -3.277 -10.556  -4.022  0.00  0.00     0.043 A 
HETATM   13  C   UNK     0      -3.076  -9.823  -5.222  0.00  0.00    -0.009 A 
HETATM   14  O   UNK     0      -2.786  -7.540  -7.324  0.00  0.00    -0.287 OA
ENDROOT
BRANCH  13  15
HETATM   15  C   UNK     0      -2.580 -10.478  -6.384  0.00  0.00    -0.022 A 
HETATM   16  C   UNK     0      -3.463 -11.015  -7.351  0.00  0.00     0.029 A 
HETATM   17  C   UNK     0      -2.942 -11.668  -8.482  0.00  0.00     0.088 A 
HETATM   18  N   UNK     0      -1.598 -11.790  -8.632  0.00  0.00    -0.375 N 
HETATM   19  C   UNK     0      -0.716 -11.294  -7.729  0.00  0.00     0.088 A 
HETATM   20  HN  UNK     0      -1.239 -12.273  -9.456  1.00  0.00     0.164 HD
HETATM   21  C   UNK     0      -1.186 -10.622  -6.586  0.00  0.00     0.029 A 
ENDBRANCH  13  15
BRANCH  11  22
HETATM   22  N   UNK     0      -3.928 -10.754  -1.739  0.00  0.00    -0.327 N 
HETATM   23  C   UNK     0      -5.074 -11.251  -1.184  0.00  0.00     0.223 C 
HETATM   24  O   UNK     0      -6.201 -11.094  -1.711  0.00  0.00    -0.273 OA
HETATM   25  H   UNK     0      -3.098 -11.013  -1.307  0.00  0.00     0.169 HD
BRANCH  23  26
HETATM   26  C   UNK     0      -4.999 -12.040   0.063  0.00  0.00     0.118 C 
BRANCH  26  27
HETATM   27  C   UNK     0      -4.593 -11.172   1.278  0.00  0.00     0.124 C 
HETATM   28 Cl   UNK     0      -4.184 -12.174   2.667  0.00  0.00    -0.130 Cl
ENDBRANCH  26  27
ENDBRANCH  23  26
ENDBRANCH  11  22
TORSDOF 4
ENDMDL
