MODEL 1
REMARK VINA RESULT:      -7.0      0.000      0.000
REMARK  4 active torsions:
REMARK  status: ('A' for Active; 'I' for Inactive)
REMARK    1  A    between atoms: C_11  and  N_14 
REMARK    2  A    between atoms: C_13  and  C_21 
REMARK       I    between atoms: N_14  and  C_15 
REMARK    3  A    between atoms: C_15  and  C_16 
REMARK    4  A    between atoms: C_16  and  C_17 
ROOT
HETATM    1  C   UNK     0      -7.188  -8.842  -4.322  0.00  0.00     0.016 A 
HETATM    2  C   UNK     0      -6.847  -9.870  -5.227  0.00  0.00     0.001 A 
HETATM    3  C   UNK     0      -7.165  -9.751  -6.599  0.00  0.00     0.001 A 
HETATM    4  C   UNK     0      -7.819  -8.600  -7.087  0.00  0.00     0.013 A 
HETATM    5  C   UNK     0      -8.143  -7.575  -6.176  0.00  0.00    -0.011 A 
HETATM    6  C   UNK     0      -7.841  -7.698  -4.818  0.00  0.00     0.026 A 
HETATM    7  C   UNK     0      -8.767  -6.339  -6.357  0.00  0.00    -0.008 A 
HETATM    8  C   UNK     0      -8.892  -5.714  -5.110  0.00  0.00     0.037 A 
HETATM    9  C   UNK     0      -8.290  -6.554  -4.155  0.00  0.00     0.195 A 
HETATM   10  C   UNK     0      -9.213  -5.721  -7.535  0.00  0.00     0.043 A 
HETATM   11  C   UNK     0      -9.826  -4.448  -7.462  0.00  0.00     0.036 A 
HETATM   12  C   UNK     0      -9.969  -3.833  -6.194  0.00  0.00     0.043 A 
HETATM   13  C   UNK     0      -9.520  -4.449  -4.995  0.00  0.00    -0.009 A 
HETATM   14  O   UNK     0      -8.145  -6.337  -2.931  0.00  0.00    -0.287 OA
ENDROOT
BRANCH  13  15
HETATM   15  C   UNK     0      -9.720  -3.803  -3.743  0.00  0.00    -0.022 A 
HETATM   16  C   UNK     0     -10.826  -4.132  -2.922  0.00  0.00     0.029 A 
HETATM   17  C   UNK     0     -11.004  -3.467  -1.696  0.00  0.00     0.088 A 
HETATM   18  N   UNK     0     -10.123  -2.508  -1.313  0.00  0.00    -0.375 N 
HETATM   19  C   UNK     0      -9.052  -2.159  -2.070  0.00  0.00     0.088 A 
HETATM   20  HN  UNK     0     -10.272  -2.031  -0.424  1.00  0.00     0.164 HD
HETATM   21  C   UNK     0      -8.823  -2.802  -3.300  0.00  0.00     0.029 A 
ENDBRANCH  13  15
BRANCH  11  22
HETATM   22  N   UNK     0     -10.268  -3.753  -8.556  0.00  0.00    -0.327 N 
HETATM   23  C   UNK     0     -11.439  -3.920  -9.243  0.00  0.00     0.223 C 
HETATM   24  O   UNK     0     -12.328  -4.723  -8.874  0.00  0.00    -0.273 OA
HETATM   25  H   UNK     0      -9.690  -3.039  -8.866  0.00  0.00     0.169 HD
BRANCH  23  26
HETATM   26  C   UNK     0     -11.701  -3.104 -10.447  0.00  0.00     0.118 C 
BRANCH  26  27
HETATM   27  C   UNK     0     -11.284  -1.626 -10.250  0.00  0.00     0.124 C 
HETATM   28 Cl   UNK     0      -9.988  -1.180 -11.355  0.00  0.00    -0.130 Cl
ENDBRANCH  26  27
ENDBRANCH  23  26
ENDBRANCH  11  22
TORSDOF 4
ENDMDL
MODEL 2
REMARK VINA RESULT:      -6.4     11.935     13.485
REMARK  4 active torsions:
REMARK  status: ('A' for Active; 'I' for Inactive)
REMARK    1  A    between atoms: C_11  and  N_14 
REMARK    2  A    between atoms: C_13  and  C_21 
REMARK       I    between atoms: N_14  and  C_15 
REMARK    3  A    between atoms: C_15  and  C_16 
REMARK    4  A    between atoms: C_16  and  C_17 
ROOT
HETATM    1  C   UNK     0      -2.042  -3.185 -15.844  0.00  0.00     0.016 A 
HETATM    2  C   UNK     0      -1.890  -4.338 -16.644  0.00  0.00     0.001 A 
HETATM    3  C   UNK     0      -0.951  -5.335 -16.293  0.00  0.00     0.001 A 
HETATM    4  C   UNK     0      -0.158  -5.198 -15.133  0.00  0.00     0.013 A 
HETATM    5  C   UNK     0      -0.329  -4.049 -14.336  0.00  0.00    -0.011 A 
HETATM    6  C   UNK     0      -1.246  -3.057 -14.690  0.00  0.00     0.026 A 
HETATM    7  C   UNK     0       0.288  -3.646 -13.151  0.00  0.00    -0.008 A 
HETATM    8  C   UNK     0      -0.212  -2.389 -12.790  0.00  0.00     0.037 A 
HETATM    9  C   UNK     0      -1.188  -2.036 -13.740  0.00  0.00     0.195 A 
HETATM   10  C   UNK     0       1.239  -4.310 -12.361  0.00  0.00     0.043 A 
HETATM   11  C   UNK     0       1.723  -3.688 -11.186  0.00  0.00     0.036 A 
HETATM   12  C   UNK     0       1.229  -2.405 -10.842  0.00  0.00     0.043 A 
HETATM   13  C   UNK     0       0.265  -1.724 -11.633  0.00  0.00    -0.009 A 
HETATM   14  O   UNK     0      -1.909  -1.012 -13.750  0.00  0.00    -0.287 OA
ENDROOT
BRANCH  13  15
HETATM   15  C   UNK     0      -0.173  -0.422 -11.260  0.00  0.00    -0.022 A 
HETATM   16  C   UNK     0      -1.364  -0.239 -10.518  0.00  0.00     0.029 A 
HETATM   17  C   UNK     0      -1.778   1.061 -10.176  0.00  0.00     0.088 A 
HETATM   18  N   UNK     0      -1.039   2.130 -10.570  0.00  0.00    -0.375 N 
HETATM   19  C   UNK     0       0.107   2.000 -11.285  0.00  0.00     0.088 A 
HETATM   20  HN  UNK     0      -1.358   3.066 -10.318  1.00  0.00     0.164 HD
HETATM   21  C   UNK     0       0.569   0.721 -11.642  0.00  0.00     0.029 A 
ENDBRANCH  13  15
BRANCH  11  22
HETATM   22  N   UNK     0       2.629  -4.265 -10.338  0.00  0.00    -0.327 N 
HETATM   23  C   UNK     0       3.993  -4.170 -10.369  0.00  0.00     0.223 C 
HETATM   24  O   UNK     0       4.598  -3.430 -11.180  0.00  0.00    -0.273 OA
HETATM   25  H   UNK     0       2.255  -4.788  -9.610  0.00  0.00     0.169 HD
BRANCH  23  26
HETATM   26  C   UNK     0       4.800  -4.930  -9.392  0.00  0.00     0.118 C 
BRANCH  26  27
HETATM   27  C   UNK     0       4.607  -6.459  -9.540  0.00  0.00     0.124 C 
HETATM   28 Cl   UNK     0       4.371  -7.225  -7.972  0.00  0.00    -0.130 Cl
ENDBRANCH  26  27
ENDBRANCH  23  26
ENDBRANCH  11  22
TORSDOF 4
ENDMDL
MODEL 3
REMARK VINA RESULT:      -6.4     12.879     14.498
REMARK  4 active torsions:
REMARK  status: ('A' for Active; 'I' for Inactive)
REMARK    1  A    between atoms: C_11  and  N_14 
REMARK    2  A    between atoms: C_13  and  C_21 
REMARK       I    between atoms: N_14  and  C_15 
REMARK    3  A    between atoms: C_15  and  C_16 
REMARK    4  A    between atoms: C_16  and  C_17 
ROOT
HETATM    1  C   UNK     0       5.288  -7.756 -10.616  0.00  0.00     0.016 A 
HETATM    2  C   UNK     0       5.976  -7.695  -9.385  0.00  0.00     0.001 A 
HETATM    3  C   UNK     0       5.955  -6.515  -8.609  0.00  0.00     0.001 A 
HETATM    4  C   UNK     0       5.237  -5.381  -9.047  0.00  0.00     0.013 A 
HETATM    5  C   UNK     0       4.543  -5.457 -10.271  0.00  0.00    -0.011 A 
HETATM    6  C   UNK     0       4.576  -6.619 -11.045  0.00  0.00     0.026 A 
HETATM    7  C   UNK     0       3.754  -4.525 -10.946  0.00  0.00    -0.008 A 
HETATM    8  C   UNK     0       3.331  -5.089 -12.156  0.00  0.00     0.037 A 
HETATM    9  C   UNK     0       3.826  -6.406 -12.203  0.00  0.00     0.195 A 
HETATM   10  C   UNK     0       3.368  -3.231 -10.566  0.00  0.00     0.043 A 
HETATM   11  C   UNK     0       2.552  -2.466 -11.434  0.00  0.00     0.036 A 
HETATM   12  C   UNK     0       2.149  -3.036 -12.667  0.00  0.00     0.043 A 
HETATM   13  C   UNK     0       2.533  -4.346 -13.061  0.00  0.00    -0.009 A 
HETATM   14  O   UNK     0       3.629  -7.264 -13.093  0.00  0.00    -0.287 OA
ENDROOT
BRANCH  13  15
HETATM   15  C   UNK     0       2.129  -4.858 -14.326  0.00  0.00    -0.022 A 
HETATM   16  C   UNK     0       0.899  -5.542 -14.476  0.00  0.00     0.029 A 
HETATM   17  C   UNK     0       0.533  -6.049 -15.736  0.00  0.00     0.088 A 
HETATM   18  N   UNK     0       1.366  -5.888 -16.795  0.00  0.00    -0.375 N 
HETATM   19  C   UNK     0       2.555  -5.241 -16.697  0.00  0.00     0.088 A 
HETATM   20  HN  UNK     0       1.087  -6.267 -17.701  1.00  0.00     0.164 HD
HETATM   21  C   UNK     0       2.962  -4.707 -15.460  0.00  0.00     0.029 A 
ENDBRANCH  13  15
BRANCH  11  22
HETATM   22  N   UNK     0       2.102  -1.207 -11.142  0.00  0.00    -0.327 N 
HETATM   23  C   UNK     0       0.882  -0.843 -10.642  0.00  0.00     0.223 C 
HETATM   24  O   UNK     0       0.017  -1.683 -10.298  0.00  0.00    -0.273 OA
HETATM   25  H   UNK     0       2.736  -0.486 -11.285  0.00  0.00     0.169 HD
BRANCH  23  26
HETATM   26  C   UNK     0       0.568   0.589 -10.456  0.00  0.00     0.118 C 
BRANCH  26  27
HETATM   27  C   UNK     0      -0.955   0.841 -10.341  0.00  0.00     0.124 C 
HETATM   28 Cl   UNK     0      -1.369   2.474 -10.851  0.00  0.00    -0.130 Cl
ENDBRANCH  26  27
ENDBRANCH  23  26
ENDBRANCH  11  22
TORSDOF 4
ENDMDL
MODEL 4
REMARK VINA RESULT:      -6.4     11.894     13.218
REMARK  4 active torsions:
REMARK  status: ('A' for Active; 'I' for Inactive)
REMARK    1  A    between atoms: C_11  and  N_14 
REMARK    2  A    between atoms: C_13  and  C_21 
REMARK       I    between atoms: N_14  and  C_15 
REMARK    3  A    between atoms: C_15  and  C_16 
REMARK    4  A    between atoms: C_16  and  C_17 
ROOT
HETATM    1  C   UNK     0       0.061  -6.270 -15.710  0.00  0.00     0.016 A 
HETATM    2  C   UNK     0      -1.129  -6.225 -16.468  0.00  0.00     0.001 A 
HETATM    3  C   UNK     0      -2.059  -5.177 -16.282  0.00  0.00     0.001 A 
HETATM    4  C   UNK     0      -1.808  -4.154 -15.343  0.00  0.00     0.013 A 
HETATM    5  C   UNK     0      -0.610  -4.201 -14.602  0.00  0.00    -0.011 A 
HETATM    6  C   UNK     0       0.302  -5.245 -14.776  0.00  0.00     0.026 A 
HETATM    7  C   UNK     0      -0.089  -3.345 -13.631  0.00  0.00    -0.008 A 
HETATM    8  C   UNK     0       1.123  -3.875 -13.170  0.00  0.00     0.037 A 
HETATM    9  C   UNK     0       1.376  -5.049 -13.905  0.00  0.00     0.195 A 
HETATM   10  C   UNK     0      -0.592  -2.131 -13.139  0.00  0.00     0.043 A 
HETATM   11  C   UNK     0       0.127  -1.436 -12.137  0.00  0.00     0.036 A 
HETATM   12  C   UNK     0       1.340  -1.993 -11.660  0.00  0.00     0.043 A 
HETATM   13  C   UNK     0       1.860  -3.220 -12.152  0.00  0.00    -0.009 A 
HETATM   14  O   UNK     0       2.381  -5.792 -13.835  0.00  0.00    -0.287 OA
ENDROOT
BRANCH  13  15
HETATM   15  C   UNK     0       3.065  -3.752 -11.614  0.00  0.00    -0.022 A 
HETATM   16  C   UNK     0       3.043  -4.612 -10.490  0.00  0.00     0.029 A 
HETATM   17  C   UNK     0       4.251  -5.111  -9.972  0.00  0.00     0.088 A 
HETATM   18  N   UNK     0       5.429  -4.756 -10.546  0.00  0.00    -0.375 N 
HETATM   19  C   UNK     0       5.497  -3.932 -11.621  0.00  0.00     0.088 A 
HETATM   20  HN  UNK     0       6.297  -5.122 -10.153  1.00  0.00     0.164 HD
HETATM   21  C   UNK     0       4.315  -3.414 -12.183  0.00  0.00     0.029 A 
ENDBRANCH  13  15
BRANCH  11  22
HETATM   22  N   UNK     0      -0.266  -0.234 -11.614  0.00  0.00    -0.327 N 
HETATM   23  C   UNK     0      -1.165  -0.006 -10.609  0.00  0.00     0.223 C 
HETATM   24  O   UNK     0      -1.700  -0.936  -9.959  0.00  0.00    -0.273 OA
HETATM   25  H   UNK     0       0.164   0.551 -11.988  0.00  0.00     0.169 HD
BRANCH  23  26
HETATM   26  C   UNK     0      -1.502   1.383 -10.233  0.00  0.00     0.118 C 
BRANCH  26  27
HETATM   27  C   UNK     0      -2.937   1.500  -9.664  0.00  0.00     0.124 C 
HETATM   28 Cl   UNK     0      -4.138   1.432 -10.950  0.00  0.00    -0.130 Cl
ENDBRANCH  26  27
ENDBRANCH  23  26
ENDBRANCH  11  22
TORSDOF 4
ENDMDL
MODEL 5
REMARK VINA RESULT:      -6.4     11.310     13.010
REMARK  4 active torsions:
REMARK  status: ('A' for Active; 'I' for Inactive)
REMARK    1  A    between atoms: C_11  and  N_14 
REMARK    2  A    between atoms: C_13  and  C_21 
REMARK       I    between atoms: N_14  and  C_15 
REMARK    3  A    between atoms: C_15  and  C_16 
REMARK    4  A    between atoms: C_16  and  C_17 
ROOT
HETATM    1  C   UNK     0      -3.560  -2.017 -15.531  0.00  0.00     0.016 A 
HETATM    2  C   UNK     0      -3.376  -3.039 -16.486  0.00  0.00     0.001 A 
HETATM    3  C   UNK     0      -2.196  -3.816 -16.485  0.00  0.00     0.001 A 
HETATM    4  C   UNK     0      -1.188  -3.589 -15.524  0.00  0.00     0.013 A 
HETATM    5  C   UNK     0      -1.389  -2.575 -14.567  0.00  0.00    -0.011 A 
HETATM    6  C   UNK     0      -2.549  -1.797 -14.577  0.00  0.00     0.026 A 
HETATM    7  C   UNK     0      -0.596  -2.132 -13.507  0.00  0.00    -0.008 A 
HETATM    8  C   UNK     0      -1.240  -1.055 -12.885  0.00  0.00     0.037 A 
HETATM    9  C   UNK     0      -2.471  -0.865 -13.540  0.00  0.00     0.195 A 
HETATM   10  C   UNK     0       0.635  -2.618 -13.041  0.00  0.00     0.043 A 
HETATM   11  C   UNK     0       1.255  -1.993 -11.933  0.00  0.00     0.036 A 
HETATM   12  C   UNK     0       0.607  -0.889 -11.325  0.00  0.00     0.043 A 
HETATM   13  C   UNK     0      -0.640  -0.389 -11.787  0.00  0.00    -0.009 A 
HETATM   14  O   UNK     0      -3.366  -0.037 -13.257  0.00  0.00    -0.287 OA
ENDROOT
BRANCH  13  15
HETATM   15  C   UNK     0      -1.230   0.744 -11.162  0.00  0.00    -0.022 A 
HETATM   16  C   UNK     0      -2.190   0.591 -10.132  0.00  0.00     0.029 A 
HETATM   17  C   UNK     0      -2.766   1.730  -9.543  0.00  0.00     0.088 A 
HETATM   18  N   UNK     0      -2.407   2.967  -9.972  0.00  0.00    -0.375 N 
HETATM   19  C   UNK     0      -1.494   3.160 -10.957  0.00  0.00     0.088 A 
HETATM   20  HN  UNK     0      -2.840   3.782  -9.537  1.00  0.00     0.164 HD
HETATM   21  C   UNK     0      -0.881   2.053 -11.572  0.00  0.00     0.029 A 
ENDBRANCH  13  15
BRANCH  11  22
HETATM   22  N   UNK     0       2.440  -2.409 -11.390  0.00  0.00    -0.327 N 
HETATM   23  C   UNK     0       2.656  -3.463 -10.546  0.00  0.00     0.223 C 
HETATM   24  O   UNK     0       1.748  -4.264 -10.222  0.00  0.00    -0.273 OA
HETATM   25  H   UNK     0       3.227  -1.908 -11.656  0.00  0.00     0.169 HD
BRANCH  23  26
HETATM   26  C   UNK     0       4.014  -3.708 -10.017  0.00  0.00     0.118 C 
BRANCH  26  27
HETATM   27  C   UNK     0       4.518  -5.134 -10.344  0.00  0.00     0.124 C 
HETATM   28 Cl   UNK     0       4.496  -6.159  -8.913  0.00  0.00    -0.130 Cl
ENDBRANCH  26  27
ENDBRANCH  23  26
ENDBRANCH  11  22
TORSDOF 4
ENDMDL
MODEL 6
REMARK VINA RESULT:      -6.3      4.286      7.331
REMARK  4 active torsions:
REMARK  status: ('A' for Active; 'I' for Inactive)
REMARK    1  A    between atoms: C_11  and  N_14 
REMARK    2  A    between atoms: C_13  and  C_21 
REMARK       I    between atoms: N_14  and  C_15 
REMARK    3  A    between atoms: C_15  and  C_16 
REMARK    4  A    between atoms: C_16  and  C_17 
ROOT
HETATM    1  C   UNK     0      -8.157  -2.437  -3.778  0.00  0.00     0.016 A 
HETATM    2  C   UNK     0      -8.512  -1.462  -2.822  0.00  0.00     0.001 A 
HETATM    3  C   UNK     0      -9.555  -1.706  -1.901  0.00  0.00     0.001 A 
HETATM    4  C   UNK     0     -10.252  -2.934  -1.916  0.00  0.00     0.013 A 
HETATM    5  C   UNK     0      -9.880  -3.905  -2.867  0.00  0.00    -0.011 A 
HETATM    6  C   UNK     0      -8.858  -3.657  -3.786  0.00  0.00     0.026 A 
HETATM    7  C   UNK     0     -10.365  -5.190  -3.115  0.00  0.00    -0.008 A 
HETATM    8  C   UNK     0      -9.678  -5.725  -4.212  0.00  0.00     0.037 A 
HETATM    9  C   UNK     0      -8.721  -4.774  -4.612  0.00  0.00     0.195 A 
HETATM   10  C   UNK     0     -11.350  -5.925  -2.438  0.00  0.00     0.043 A 
HETATM   11  C   UNK     0     -11.675  -7.228  -2.885  0.00  0.00     0.036 A 
HETATM   12  C   UNK     0     -10.990  -7.752  -4.010  0.00  0.00     0.043 A 
HETATM   13  C   UNK     0      -9.991  -7.017  -4.702  0.00  0.00    -0.009 A 
HETATM   14  O   UNK     0      -7.869  -4.887  -5.523  0.00  0.00    -0.287 OA
ENDROOT
BRANCH  13  15
HETATM   15  C   UNK     0      -9.359  -7.576  -5.848  0.00  0.00    -0.022 A 
HETATM   16  C   UNK     0      -9.825  -7.284  -7.152  0.00  0.00     0.029 A 
HETATM   17  C   UNK     0      -9.188  -7.863  -8.264  0.00  0.00     0.088 A 
HETATM   18  N   UNK     0      -8.140  -8.705  -8.080  0.00  0.00    -0.375 N 
HETATM   19  C   UNK     0      -7.663  -9.015  -6.848  0.00  0.00     0.088 A 
HETATM   20  HN  UNK     0      -7.694  -9.121  -8.898  1.00  0.00     0.164 HD
HETATM   21  C   UNK     0      -8.259  -8.454  -5.703  0.00  0.00     0.029 A 
ENDBRANCH  13  15
BRANCH  11  22
HETATM   22  N   UNK     0     -12.599  -8.033  -2.276  0.00  0.00    -0.327 N 
HETATM   23  C   UNK     0     -13.956  -8.034  -2.443  0.00  0.00     0.223 C 
HETATM   24  O   UNK     0     -14.532  -7.308  -3.288  0.00  0.00    -0.273 OA
HETATM   25  H   UNK     0     -12.244  -8.701  -1.668  0.00  0.00     0.169 HD
BRANCH  23  26
HETATM   26  C   UNK     0     -14.791  -8.948  -1.635  0.00  0.00     0.118 C 
BRANCH  26  27
HETATM   27  C   UNK     0     -16.292  -8.580  -1.704  0.00  0.00     0.124 C 
HETATM   28 Cl   UNK     0     -16.688  -7.307  -0.553  0.00  0.00    -0.130 Cl
ENDBRANCH  26  27
ENDBRANCH  23  26
ENDBRANCH  11  22
TORSDOF 4
ENDMDL
MODEL 7
REMARK VINA RESULT:      -6.3     13.245     13.943
REMARK  4 active torsions:
REMARK  status: ('A' for Active; 'I' for Inactive)
REMARK    1  A    between atoms: C_11  and  N_14 
REMARK    2  A    between atoms: C_13  and  C_21 
REMARK       I    between atoms: N_14  and  C_15 
REMARK    3  A    between atoms: C_15  and  C_16 
REMARK    4  A    between atoms: C_16  and  C_17 
ROOT
HETATM    1  C   UNK     0       3.861  -4.722  -9.313  0.00  0.00     0.016 A 
HETATM    2  C   UNK     0       4.798  -5.743  -9.579  0.00  0.00     0.001 A 
HETATM    3  C   UNK     0       5.193  -6.025 -10.906  0.00  0.00     0.001 A 
HETATM    4  C   UNK     0       4.663  -5.285 -11.985  0.00  0.00     0.013 A 
HETATM    5  C   UNK     0       3.738  -4.260 -11.706  0.00  0.00    -0.011 A 
HETATM    6  C   UNK     0       3.338  -3.990 -10.395  0.00  0.00     0.026 A 
HETATM    7  C   UNK     0       3.065  -3.368 -12.542  0.00  0.00    -0.008 A 
HETATM    8  C   UNK     0       2.215  -2.575 -11.761  0.00  0.00     0.037 A 
HETATM    9  C   UNK     0       2.408  -2.950 -10.418  0.00  0.00     0.195 A 
HETATM   10  C   UNK     0       3.158  -3.194 -13.931  0.00  0.00     0.043 A 
HETATM   11  C   UNK     0       2.360  -2.210 -14.563  0.00  0.00     0.036 A 
HETATM   12  C   UNK     0       1.486  -1.429 -13.767  0.00  0.00     0.043 A 
HETATM   13  C   UNK     0       1.385  -1.596 -12.360  0.00  0.00    -0.009 A 
HETATM   14  O   UNK     0       1.876  -2.446  -9.402  0.00  0.00    -0.287 OA
ENDROOT
BRANCH  13  15
HETATM   15  C   UNK     0       0.466  -0.808 -11.612  0.00  0.00    -0.022 A 
HETATM   16  C   UNK     0      -0.862  -1.248 -11.395  0.00  0.00     0.029 A 
HETATM   17  C   UNK     0      -1.751  -0.440 -10.663  0.00  0.00     0.088 A 
HETATM   18  N   UNK     0      -1.334   0.758 -10.181  0.00  0.00    -0.375 N 
HETATM   19  C   UNK     0      -0.072   1.220 -10.369  0.00  0.00     0.088 A 
HETATM   20  HN  UNK     0      -1.995   1.334  -9.658  1.00  0.00     0.164 HD
HETATM   21  C   UNK     0       0.859   0.445 -11.085  0.00  0.00     0.029 A 
ENDBRANCH  13  15
BRANCH  11  22
HETATM   22  N   UNK     0       2.399  -1.947 -15.906  0.00  0.00    -0.327 N 
HETATM   23  C   UNK     0       3.139  -0.999 -16.557  0.00  0.00     0.223 C 
HETATM   24  O   UNK     0       3.978  -0.277 -15.968  0.00  0.00    -0.273 OA
HETATM   25  H   UNK     0       1.851  -2.519 -16.466  0.00  0.00     0.169 HD
BRANCH  23  26
HETATM   26  C   UNK     0       2.988  -0.832 -18.018  0.00  0.00     0.118 C 
BRANCH  26  27
HETATM   27  C   UNK     0       1.543  -0.446 -18.413  0.00  0.00     0.124 C 
HETATM   28 Cl   UNK     0       0.964   0.914 -17.457  0.00  0.00    -0.130 Cl
ENDBRANCH  26  27
ENDBRANCH  23  26
ENDBRANCH  11  22
TORSDOF 4
ENDMDL
MODEL 8
REMARK VINA RESULT:      -6.3     10.437     12.897
REMARK  4 active torsions:
REMARK  status: ('A' for Active; 'I' for Inactive)
REMARK    1  A    between atoms: C_11  and  N_14 
REMARK    2  A    between atoms: C_13  and  C_21 
REMARK       I    between atoms: N_14  and  C_15 
REMARK    3  A    between atoms: C_15  and  C_16 
REMARK    4  A    between atoms: C_16  and  C_17 
ROOT
HETATM    1  C   UNK     0      -8.145   6.616  -7.293  0.00  0.00     0.016 A 
HETATM    2  C   UNK     0      -9.406   5.988  -7.375  0.00  0.00     0.001 A 
HETATM    3  C   UNK     0      -9.546   4.742  -8.026  0.00  0.00     0.001 A 
HETATM    4  C   UNK     0      -8.425   4.101  -8.596  0.00  0.00     0.013 A 
HETATM    5  C   UNK     0      -7.169   4.731  -8.497  0.00  0.00    -0.011 A 
HETATM    6  C   UNK     0      -7.034   5.970  -7.866  0.00  0.00     0.026 A 
HETATM    7  C   UNK     0      -5.903   4.347  -8.942  0.00  0.00    -0.008 A 
HETATM    8  C   UNK     0      -4.990   5.361  -8.628  0.00  0.00     0.037 A 
HETATM    9  C   UNK     0      -5.696   6.362  -7.933  0.00  0.00     0.195 A 
HETATM   10  C   UNK     0      -5.496   3.168  -9.585  0.00  0.00     0.043 A 
HETATM   11  C   UNK     0      -4.136   3.007  -9.946  0.00  0.00     0.036 A 
HETATM   12  C   UNK     0      -3.225   4.049  -9.644  0.00  0.00     0.043 A 
HETATM   13  C   UNK     0      -3.626   5.246  -8.993  0.00  0.00    -0.009 A 
HETATM   14  O   UNK     0      -5.234   7.413  -7.433  0.00  0.00    -0.287 OA
ENDROOT
BRANCH  13  15
HETATM   15  C   UNK     0      -2.676   6.276  -8.745  0.00  0.00    -0.022 A 
HETATM   16  C   UNK     0      -2.530   7.363  -9.641  0.00  0.00     0.029 A 
HETATM   17  C   UNK     0      -1.573   8.359  -9.376  0.00  0.00     0.088 A 
HETATM   18  N   UNK     0      -0.789   8.265  -8.271  0.00  0.00    -0.375 N 
HETATM   19  C   UNK     0      -0.893   7.240  -7.389  0.00  0.00     0.088 A 
HETATM   20  HN  UNK     0      -0.096   8.994  -8.099  1.00  0.00     0.164 HD
HETATM   21  C   UNK     0      -1.842   6.224  -7.603  0.00  0.00     0.029 A 
ENDBRANCH  13  15
BRANCH  11  22
HETATM   22  N   UNK     0      -3.638   1.885 -10.549  0.00  0.00    -0.327 N 
HETATM   23  C   UNK     0      -2.664   1.042 -10.090  0.00  0.00     0.223 C 
HETATM   24  O   UNK     0      -2.146   1.166  -8.955  0.00  0.00    -0.273 OA
HETATM   25  H   UNK     0      -4.043   1.645 -11.398  0.00  0.00     0.169 HD
BRANCH  23  26
HETATM   26  C   UNK     0      -2.220  -0.089 -10.931  0.00  0.00     0.118 C 
BRANCH  26  27
HETATM   27  C   UNK     0      -0.708  -0.377 -10.769  0.00  0.00     0.124 C 
HETATM   28 Cl   UNK     0       0.262   0.955 -11.389  0.00  0.00    -0.130 Cl
ENDBRANCH  26  27
ENDBRANCH  23  26
ENDBRANCH  11  22
TORSDOF 4
ENDMDL
MODEL 9
REMARK VINA RESULT:      -6.2     10.845     12.751
REMARK  4 active torsions:
REMARK  status: ('A' for Active; 'I' for Inactive)
REMARK    1  A    between atoms: C_11  and  N_14 
REMARK    2  A    between atoms: C_13  and  C_21 
REMARK       I    between atoms: N_14  and  C_15 
REMARK    3  A    between atoms: C_15  and  C_16 
REMARK    4  A    between atoms: C_16  and  C_17 
ROOT
HETATM    1  C   UNK     0      -8.695   5.650  -7.814  0.00  0.00     0.016 A 
HETATM    2  C   UNK     0      -9.684   4.934  -8.522  0.00  0.00     0.001 A 
HETATM    3  C   UNK     0      -9.320   4.011  -9.527  0.00  0.00     0.001 A 
HETATM    4  C   UNK     0      -7.961   3.783  -9.833  0.00  0.00     0.013 A 
HETATM    5  C   UNK     0      -6.982   4.494  -9.111  0.00  0.00    -0.011 A 
HETATM    6  C   UNK     0      -7.343   5.417  -8.127  0.00  0.00     0.026 A 
HETATM    7  C   UNK     0      -5.588   4.475  -9.178  0.00  0.00    -0.008 A 
HETATM    8  C   UNK     0      -5.083   5.414  -8.269  0.00  0.00     0.037 A 
HETATM    9  C   UNK     0      -6.181   5.982  -7.597  0.00  0.00     0.195 A 
HETATM   10  C   UNK     0      -4.736   3.684  -9.963  0.00  0.00     0.043 A 
HETATM   11  C   UNK     0      -3.334   3.852  -9.853  0.00  0.00     0.036 A 
HETATM   12  C   UNK     0      -2.834   4.820  -8.948  0.00  0.00     0.043 A 
HETATM   13  C   UNK     0      -3.687   5.626  -8.148  0.00  0.00    -0.009 A 
HETATM   14  O   UNK     0      -6.157   6.825  -6.671  0.00  0.00    -0.287 OA
ENDROOT
BRANCH  13  15
HETATM   15  C   UNK     0      -3.133   6.609  -7.280  0.00  0.00    -0.022 A 
HETATM   16  C   UNK     0      -2.808   6.295  -5.938  0.00  0.00     0.029 A 
HETATM   17  C   UNK     0      -2.275   7.291  -5.101  0.00  0.00     0.088 A 
HETATM   18  N   UNK     0      -2.086   8.547  -5.581  0.00  0.00    -0.375 N 
HETATM   19  C   UNK     0      -2.386   8.892  -6.858  0.00  0.00     0.088 A 
HETATM   20  HN  UNK     0      -1.704   9.258  -4.957  1.00  0.00     0.164 HD
HETATM   21  C   UNK     0      -2.912   7.929  -7.739  0.00  0.00     0.029 A 
ENDBRANCH  13  15
BRANCH  11  22
HETATM   22  N   UNK     0      -2.423   3.110 -10.555  0.00  0.00    -0.327 N 
HETATM   23  C   UNK     0      -1.856   1.917 -10.201  0.00  0.00     0.223 C 
HETATM   24  O   UNK     0      -2.192   1.291  -9.168  0.00  0.00    -0.273 OA
HETATM   25  H   UNK     0      -2.165   3.465 -11.421  0.00  0.00     0.169 HD
BRANCH  23  26
HETATM   26  C   UNK     0      -0.835   1.306 -11.078  0.00  0.00     0.118 C 
BRANCH  26  27
HETATM   27  C   UNK     0       0.512   1.097 -10.345  0.00  0.00     0.124 C 
HETATM   28 Cl   UNK     0       1.254  -0.433 -10.803  0.00  0.00    -0.130 Cl
ENDBRANCH  26  27
ENDBRANCH  23  26
ENDBRANCH  11  22
TORSDOF 4
ENDMDL
