MODEL 1
REMARK VINA RESULT:      -6.5      0.000      0.000
REMARK  4 active torsions:
REMARK  status: ('A' for Active; 'I' for Inactive)
REMARK    1  A    between atoms: C_11  and  N_14 
REMARK    2  A    between atoms: C_13  and  C_21 
REMARK       I    between atoms: N_14  and  C_15 
REMARK    3  A    between atoms: C_15  and  C_16 
REMARK    4  A    between atoms: C_16  and  C_17 
ROOT
HETATM    1  C   UNK     0      -7.326  -8.954  -4.018  0.00  0.00     0.008 A 
HETATM    2  C   UNK     0      -6.893  -9.947  -4.921  0.00  0.00     0.001 A 
HETATM    3  C   UNK     0      -7.054  -9.768  -6.312  0.00  0.00     0.001 A 
HETATM    4  C   UNK     0      -7.661  -8.600  -6.814  0.00  0.00     0.013 A 
HETATM    5  C   UNK     0      -8.095  -7.618  -5.901  0.00  0.00    -0.019 A 
HETATM    6  C   UNK     0      -7.929  -7.786  -4.524  0.00  0.00    -0.043 A 
HETATM    7  C   UNK     0      -8.713  -6.390  -6.111  0.00  0.00    -0.016 A 
HETATM    8  C   UNK     0      -8.950  -5.776  -4.876  0.00  0.00    -0.032 A 
HETATM    9  C   UNK     0      -8.453  -6.633  -3.773  0.00  0.00     0.080 A 
HETATM   10  C   UNK     0      -9.064  -5.765  -7.320  0.00  0.00     0.042 A 
HETATM   11  C   UNK     0      -9.670  -4.487  -7.294  0.00  0.00     0.036 A 
HETATM   12  C   UNK     0      -9.901  -3.864  -6.042  0.00  0.00     0.042 A 
HETATM   13  C   UNK     0      -9.560  -4.495  -4.814  0.00  0.00    -0.016 A 
ENDROOT
BRANCH  13  14
HETATM   14  C   UNK     0      -9.818  -3.841  -3.578  0.00  0.00    -0.023 A 
HETATM   15  C   UNK     0      -8.978  -2.798  -3.115  0.00  0.00     0.029 A 
HETATM   16  C   UNK     0      -9.272  -2.152  -1.902  0.00  0.00     0.088 A 
HETATM   17  N   UNK     0     -10.344  -2.541  -1.168  0.00  0.00    -0.375 N 
HETATM   18  C   UNK     0     -11.162  -3.552  -1.560  0.00  0.00     0.088 A 
HETATM   19  HN  UNK     0     -10.543  -2.059  -0.292  1.00  0.00     0.164 HD
HETATM   20  C   UNK     0     -10.916  -4.226  -2.771  0.00  0.00     0.029 A 
ENDBRANCH  13  14
BRANCH  11  21
HETATM   21  N   UNK     0      -9.992  -3.792  -8.431  0.00  0.00    -0.327 N 
HETATM   22  C   UNK     0     -11.107  -3.915  -9.213  0.00  0.00     0.223 C 
HETATM   23  O   UNK     0     -12.095  -4.608  -8.871  0.00  0.00    -0.273 OA
HETATM   24  H   UNK     0      -9.353  -3.117  -8.711  0.00  0.00     0.169 HD
BRANCH  22  25
HETATM   25  C   UNK     0     -11.168  -3.196 -10.504  0.00  0.00     0.118 C 
BRANCH  25  26
HETATM   26  C   UNK     0     -10.766  -1.709 -10.341  0.00  0.00     0.124 C 
HETATM   27 Cl   UNK     0     -10.004  -1.092 -11.803  0.00  0.00    -0.130 Cl
ENDBRANCH  25  26
ENDBRANCH  22  25
ENDBRANCH  11  21
TORSDOF 4
ENDMDL
MODEL 2
REMARK VINA RESULT:      -6.5     12.886     14.767
REMARK  4 active torsions:
REMARK  status: ('A' for Active; 'I' for Inactive)
REMARK    1  A    between atoms: C_11  and  N_14 
REMARK    2  A    between atoms: C_13  and  C_21 
REMARK       I    between atoms: N_14  and  C_15 
REMARK    3  A    between atoms: C_15  and  C_16 
REMARK    4  A    between atoms: C_16  and  C_17 
ROOT
HETATM    1  C   UNK     0       5.705  -8.092 -10.390  0.00  0.00     0.008 A 
HETATM    2  C   UNK     0       6.289  -7.983  -9.110  0.00  0.00     0.001 A 
HETATM    3  C   UNK     0       6.134  -6.803  -8.352  0.00  0.00     0.001 A 
HETATM    4  C   UNK     0       5.405  -5.714  -8.870  0.00  0.00     0.013 A 
HETATM    5  C   UNK     0       4.832  -5.833 -10.152  0.00  0.00    -0.019 A 
HETATM    6  C   UNK     0       4.974  -7.003 -10.902  0.00  0.00    -0.043 A 
HETATM    7  C   UNK     0       4.074  -4.936 -10.897  0.00  0.00    -0.016 A 
HETATM    8  C   UNK     0       3.738  -5.523 -12.123  0.00  0.00    -0.032 A 
HETATM    9  C   UNK     0       4.290  -6.897 -12.202  0.00  0.00     0.080 A 
HETATM   10  C   UNK     0       3.642  -3.642 -10.561  0.00  0.00     0.042 A 
HETATM   11  C   UNK     0       2.849  -2.911 -11.477  0.00  0.00     0.036 A 
HETATM   12  C   UNK     0       2.503  -3.512 -12.713  0.00  0.00     0.042 A 
HETATM   13  C   UNK     0       2.945  -4.816 -13.066  0.00  0.00    -0.016 A 
ENDROOT
BRANCH  13  14
HETATM   14  C   UNK     0       2.585  -5.379 -14.321  0.00  0.00    -0.023 A 
HETATM   15  C   UNK     0       1.393  -6.129 -14.469  0.00  0.00     0.029 A 
HETATM   16  C   UNK     0       1.049  -6.653 -15.727  0.00  0.00     0.088 A 
HETATM   17  N   UNK     0       1.868  -6.457 -16.790  0.00  0.00    -0.375 N 
HETATM   18  C   UNK     0       3.033  -5.766 -16.691  0.00  0.00     0.088 A 
HETATM   19  HN  UNK     0       1.600  -6.842 -17.696  1.00  0.00     0.164 HD
HETATM   20  C   UNK     0       3.419  -5.215 -15.453  0.00  0.00     0.029 A 
ENDBRANCH  13  14
BRANCH  11  21
HETATM   21  N   UNK     0       2.346  -1.667 -11.200  0.00  0.00    -0.327 N 
HETATM   22  C   UNK     0       1.168  -1.346 -10.585  0.00  0.00     0.223 C 
HETATM   23  O   UNK     0       0.443  -2.206 -10.030  0.00  0.00    -0.273 OA
HETATM   24  H   UNK     0       2.903  -0.916 -11.463  0.00  0.00     0.169 HD
BRANCH  22  25
HETATM   25  C   UNK     0       0.730   0.067 -10.553  0.00  0.00     0.118 C 
BRANCH  25  26
HETATM   26  C   UNK     0      -0.555   0.277 -11.390  0.00  0.00     0.124 C 
HETATM   27 Cl   UNK     0      -1.944   0.594 -10.357  0.00  0.00    -0.130 Cl
ENDBRANCH  25  26
ENDBRANCH  22  25
ENDBRANCH  11  21
TORSDOF 4
ENDMDL
MODEL 3
REMARK VINA RESULT:      -6.4     11.847     13.549
REMARK  4 active torsions:
REMARK  status: ('A' for Active; 'I' for Inactive)
REMARK    1  A    between atoms: C_11  and  N_14 
REMARK    2  A    between atoms: C_13  and  C_21 
REMARK       I    between atoms: N_14  and  C_15 
REMARK    3  A    between atoms: C_15  and  C_16 
REMARK    4  A    between atoms: C_16  and  C_17 
ROOT
HETATM    1  C   UNK     0      -2.002  -3.307 -15.798  0.00  0.00     0.008 A 
HETATM    2  C   UNK     0      -1.846  -4.486 -16.555  0.00  0.00     0.001 A 
HETATM    3  C   UNK     0      -0.918  -5.473 -16.159  0.00  0.00     0.001 A 
HETATM    4  C   UNK     0      -0.127  -5.285 -15.008  0.00  0.00     0.013 A 
HETATM    5  C   UNK     0      -0.288  -4.100 -14.263  0.00  0.00    -0.019 A 
HETATM    6  C   UNK     0      -1.213  -3.125 -14.646  0.00  0.00    -0.043 A 
HETATM    7  C   UNK     0       0.345  -3.658 -13.106  0.00  0.00    -0.016 A 
HETATM    8  C   UNK     0      -0.164  -2.403 -12.753  0.00  0.00    -0.032 A 
HETATM    9  C   UNK     0      -1.206  -1.981 -13.718  0.00  0.00     0.080 A 
HETATM   10  C   UNK     0       1.327  -4.297 -12.330  0.00  0.00     0.042 A 
HETATM   11  C   UNK     0       1.817  -3.663 -11.164  0.00  0.00     0.036 A 
HETATM   12  C   UNK     0       1.293  -2.396 -10.804  0.00  0.00     0.042 A 
HETATM   13  C   UNK     0       0.308  -1.738 -11.589  0.00  0.00    -0.016 A 
ENDROOT
BRANCH  13  14
HETATM   14  C   UNK     0      -0.184  -0.462 -11.199  0.00  0.00    -0.023 A 
HETATM   15  C   UNK     0      -1.479  -0.319 -10.643  0.00  0.00     0.029 A 
HETATM   16  C   UNK     0      -1.930   0.951 -10.242  0.00  0.00     0.088 A 
HETATM   17  N   UNK     0      -1.134   2.037 -10.408  0.00  0.00    -0.375 N 
HETATM   18  C   UNK     0       0.104   1.951 -10.958  0.00  0.00     0.088 A 
HETATM   19  HN  UNK     0      -1.477   2.949 -10.108  1.00  0.00     0.164 HD
HETATM   20  C   UNK     0       0.606   0.701 -11.369  0.00  0.00     0.029 A 
ENDBRANCH  13  14
BRANCH  11  21
HETATM   21  N   UNK     0       2.734  -4.244 -10.329  0.00  0.00    -0.327 N 
HETATM   22  C   UNK     0       4.096  -4.136 -10.358  0.00  0.00     0.223 C 
HETATM   23  O   UNK     0       4.690  -3.318 -11.101  0.00  0.00    -0.273 OA
HETATM   24  H   UNK     0       2.370  -4.795  -9.616  0.00  0.00     0.169 HD
BRANCH  22  25
HETATM   25  C   UNK     0       4.911  -5.000  -9.476  0.00  0.00     0.118 C 
BRANCH  25  26
HETATM   26  C   UNK     0       4.499  -6.487  -9.606  0.00  0.00     0.124 C 
HETATM   27 Cl   UNK     0       4.583  -7.309  -8.052  0.00  0.00    -0.130 Cl
ENDBRANCH  25  26
ENDBRANCH  22  25
ENDBRANCH  11  21
TORSDOF 4
ENDMDL
MODEL 4
REMARK VINA RESULT:      -6.4      1.119      1.519
REMARK  4 active torsions:
REMARK  status: ('A' for Active; 'I' for Inactive)
REMARK    1  A    between atoms: C_11  and  N_14 
REMARK    2  A    between atoms: C_13  and  C_21 
REMARK       I    between atoms: N_14  and  C_15 
REMARK    3  A    between atoms: C_15  and  C_16 
REMARK    4  A    between atoms: C_16  and  C_17 
ROOT
HETATM    1  C   UNK     0      -7.223  -8.961  -4.167  0.00  0.00     0.008 A 
HETATM    2  C   UNK     0      -6.852  -9.984  -5.065  0.00  0.00     0.001 A 
HETATM    3  C   UNK     0      -7.141  -9.866  -6.441  0.00  0.00     0.001 A 
HETATM    4  C   UNK     0      -7.816  -8.731  -6.932  0.00  0.00     0.013 A 
HETATM    5  C   UNK     0      -8.187  -7.720  -6.024  0.00  0.00    -0.019 A 
HETATM    6  C   UNK     0      -7.894  -7.827  -4.662  0.00  0.00    -0.043 A 
HETATM    7  C   UNK     0      -8.848  -6.513  -6.226  0.00  0.00    -0.016 A 
HETATM    8  C   UNK     0      -8.986  -5.852  -5.000  0.00  0.00    -0.032 A 
HETATM    9  C   UNK     0      -8.373  -6.653  -3.913  0.00  0.00     0.080 A 
HETATM   10  C   UNK     0      -9.319  -5.945  -7.422  0.00  0.00     0.042 A 
HETATM   11  C   UNK     0      -9.949  -4.678  -7.392  0.00  0.00     0.036 A 
HETATM   12  C   UNK     0     -10.079  -4.008  -6.150  0.00  0.00     0.042 A 
HETATM   13  C   UNK     0      -9.615  -4.580  -4.935  0.00  0.00    -0.016 A 
ENDROOT
BRANCH  13  14
HETATM   14  C   UNK     0      -9.774  -3.880  -3.707  0.00  0.00    -0.023 A 
HETATM   15  C   UNK     0     -10.858  -4.165  -2.840  0.00  0.00     0.029 A 
HETATM   16  C   UNK     0     -10.976  -3.476  -1.621  0.00  0.00     0.088 A 
HETATM   17  N   UNK     0     -10.067  -2.526  -1.288  0.00  0.00    -0.375 N 
HETATM   18  C   UNK     0      -9.027  -2.201  -2.098  0.00  0.00     0.088 A 
HETATM   19  HN  UNK     0     -10.168  -2.038  -0.398  1.00  0.00     0.164 HD
HETATM   20  C   UNK     0      -8.859  -2.869  -3.327  0.00  0.00     0.029 A 
ENDBRANCH  13  14
BRANCH  11  21
HETATM   21  N   UNK     0     -10.386  -4.038  -8.522  0.00  0.00    -0.327 N 
HETATM   22  C   UNK     0     -11.626  -4.081  -9.095  0.00  0.00     0.223 C 
HETATM   23  O   UNK     0     -12.609  -4.620  -8.531  0.00  0.00    -0.273 OA
HETATM   24  H   UNK     0      -9.736  -3.469  -8.967  0.00  0.00     0.169 HD
BRANCH  22  25
HETATM   25  C   UNK     0     -11.834  -3.460 -10.422  0.00  0.00     0.118 C 
BRANCH  25  26
HETATM   26  C   UNK     0     -11.010  -4.181 -11.517  0.00  0.00     0.124 C 
HETATM   27 Cl   UNK     0     -11.056  -5.927 -11.303  0.00  0.00    -0.130 Cl
ENDBRANCH  25  26
ENDBRANCH  22  25
ENDBRANCH  11  21
TORSDOF 4
ENDMDL
MODEL 5
REMARK VINA RESULT:      -6.2     11.662     13.274
REMARK  4 active torsions:
REMARK  status: ('A' for Active; 'I' for Inactive)
REMARK    1  A    between atoms: C_11  and  N_14 
REMARK    2  A    between atoms: C_13  and  C_21 
REMARK       I    between atoms: N_14  and  C_15 
REMARK    3  A    between atoms: C_15  and  C_16 
REMARK    4  A    between atoms: C_16  and  C_17 
ROOT
HETATM    1  C   UNK     0      -0.167  -6.041 -15.628  0.00  0.00     0.008 A 
HETATM    2  C   UNK     0      -1.364  -5.916 -16.364  0.00  0.00     0.001 A 
HETATM    3  C   UNK     0      -2.210  -4.804 -16.169  0.00  0.00     0.001 A 
HETATM    4  C   UNK     0      -1.876  -3.811 -15.226  0.00  0.00     0.013 A 
HETATM    5  C   UNK     0      -0.681  -3.951 -14.493  0.00  0.00    -0.019 A 
HETATM    6  C   UNK     0       0.165  -5.045 -14.690  0.00  0.00    -0.043 A 
HETATM    7  C   UNK     0      -0.112  -3.139 -13.517  0.00  0.00    -0.016 A 
HETATM    8  C   UNK     0       1.089  -3.713 -13.084  0.00  0.00    -0.032 A 
HETATM    9  C   UNK     0       1.349  -4.975 -13.817  0.00  0.00     0.080 A 
HETATM   10  C   UNK     0      -0.570  -1.916 -12.998  0.00  0.00     0.042 A 
HETATM   11  C   UNK     0       0.195  -1.245 -12.015  0.00  0.00     0.036 A 
HETATM   12  C   UNK     0       1.415  -1.824 -11.585  0.00  0.00     0.042 A 
HETATM   13  C   UNK     0       1.880  -3.066 -12.097  0.00  0.00    -0.016 A 
ENDROOT
BRANCH  13  14
HETATM   14  C   UNK     0       3.105  -3.619 -11.631  0.00  0.00    -0.023 A 
HETATM   15  C   UNK     0       4.310  -3.429 -12.350  0.00  0.00     0.029 A 
HETATM   16  C   UNK     0       5.511  -3.965 -11.853  0.00  0.00     0.088 A 
HETATM   17  N   UNK     0       5.509  -4.679 -10.700  0.00  0.00    -0.375 N 
HETATM   18  C   UNK     0       4.374  -4.907  -9.990  0.00  0.00     0.088 A 
HETATM   19  HN  UNK     0       6.390  -5.058 -10.353  1.00  0.00     0.164 HD
HETATM   20  C   UNK     0       3.146  -4.385 -10.441  0.00  0.00     0.029 A 
ENDBRANCH  13  14
BRANCH  11  21
HETATM   21  N   UNK     0      -0.159  -0.026 -11.500  0.00  0.00    -0.327 N 
HETATM   22  C   UNK     0      -1.138   0.259 -10.590  0.00  0.00     0.223 C 
HETATM   23  O   UNK     0      -1.757  -0.636  -9.966  0.00  0.00    -0.273 OA
HETATM   24  H   UNK     0       0.360   0.734 -11.813  0.00  0.00     0.169 HD
BRANCH  22  25
HETATM   25  C   UNK     0      -1.478   1.671 -10.310  0.00  0.00     0.118 C 
BRANCH  25  26
HETATM   26  C   UNK     0      -2.841   1.789  -9.583  0.00  0.00     0.124 C 
HETATM   27 Cl   UNK     0      -4.178   1.751 -10.727  0.00  0.00    -0.130 Cl
ENDBRANCH  25  26
ENDBRANCH  22  25
ENDBRANCH  11  21
TORSDOF 4
ENDMDL
MODEL 6
REMARK VINA RESULT:      -6.2      4.952      7.335
REMARK  4 active torsions:
REMARK  status: ('A' for Active; 'I' for Inactive)
REMARK    1  A    between atoms: C_11  and  N_14 
REMARK    2  A    between atoms: C_13  and  C_21 
REMARK       I    between atoms: N_14  and  C_15 
REMARK    3  A    between atoms: C_15  and  C_16 
REMARK    4  A    between atoms: C_16  and  C_17 
ROOT
HETATM    1  C   UNK     0     -14.845  -4.700  -5.750  0.00  0.00     0.008 A 
HETATM    2  C   UNK     0     -15.856  -5.643  -6.028  0.00  0.00     0.001 A 
HETATM    3  C   UNK     0     -15.749  -6.968  -5.552  0.00  0.00     0.001 A 
HETATM    4  C   UNK     0     -14.624  -7.366  -4.802  0.00  0.00     0.013 A 
HETATM    5  C   UNK     0     -13.618  -6.416  -4.537  0.00  0.00    -0.019 A 
HETATM    6  C   UNK     0     -13.724  -5.101  -4.998  0.00  0.00    -0.043 A 
HETATM    7  C   UNK     0     -12.422  -6.528  -3.836  0.00  0.00    -0.016 A 
HETATM    8  C   UNK     0     -11.760  -5.295  -3.854  0.00  0.00    -0.032 A 
HETATM    9  C   UNK     0     -12.560  -4.293  -4.598  0.00  0.00     0.080 A 
HETATM   10  C   UNK     0     -11.885  -7.639  -3.164  0.00  0.00     0.042 A 
HETATM   11  C   UNK     0     -10.648  -7.515  -2.488  0.00  0.00     0.036 A 
HETATM   12  C   UNK     0      -9.985  -6.263  -2.501  0.00  0.00     0.042 A 
HETATM   13  C   UNK     0     -10.515  -5.137  -3.187  0.00  0.00    -0.016 A 
ENDROOT
BRANCH  13  14
HETATM   14  C   UNK     0      -9.813  -3.900  -3.185  0.00  0.00    -0.023 A 
HETATM   15  C   UNK     0     -10.085  -2.909  -2.210  0.00  0.00     0.029 A 
HETATM   16  C   UNK     0      -9.357  -1.706  -2.216  0.00  0.00     0.088 A 
HETATM   17  N   UNK     0      -8.413  -1.489  -3.165  0.00  0.00    -0.375 N 
HETATM   18  C   UNK     0      -8.136  -2.400  -4.134  0.00  0.00     0.088 A 
HETATM   19  HN  UNK     0      -7.893  -0.612  -3.152  1.00  0.00     0.164 HD
HETATM   20  C   UNK     0      -8.831  -3.624  -4.167  0.00  0.00     0.029 A 
ENDBRANCH  13  14
BRANCH  11  21
HETATM   21  N   UNK     0     -10.087  -8.537  -1.768  0.00  0.00    -0.327 N 
HETATM   22  C   UNK     0      -8.904  -9.183  -1.992  0.00  0.00     0.223 C 
HETATM   23  O   UNK     0      -8.071  -8.784  -2.841  0.00  0.00    -0.273 OA
HETATM   24  H   UNK     0     -10.589  -8.833  -0.990  0.00  0.00     0.169 HD
BRANCH  22  25
HETATM   25  C   UNK     0      -8.575 -10.387  -1.199  0.00  0.00     0.118 C 
BRANCH  25  26
HETATM   26  C   UNK     0      -7.757 -11.405  -2.032  0.00  0.00     0.124 C 
HETATM   27 Cl   UNK     0      -6.344 -11.965  -1.145  0.00  0.00    -0.130 Cl
ENDBRANCH  25  26
ENDBRANCH  22  25
ENDBRANCH  11  21
TORSDOF 4
ENDMDL
MODEL 7
REMARK VINA RESULT:      -6.1     13.832     16.185
REMARK  4 active torsions:
REMARK  status: ('A' for Active; 'I' for Inactive)
REMARK    1  A    between atoms: C_11  and  N_14 
REMARK    2  A    between atoms: C_13  and  C_21 
REMARK       I    between atoms: N_14  and  C_15 
REMARK    3  A    between atoms: C_15  and  C_16 
REMARK    4  A    between atoms: C_16  and  C_17 
ROOT
HETATM    1  C   UNK     0       0.602  -1.209 -12.790  0.00  0.00     0.008 A 
HETATM    2  C   UNK     0       0.501  -0.243 -11.767  0.00  0.00     0.001 A 
HETATM    3  C   UNK     0       1.246  -0.383 -10.576  0.00  0.00     0.001 A 
HETATM    4  C   UNK     0       2.091  -1.496 -10.391  0.00  0.00     0.013 A 
HETATM    5  C   UNK     0       2.178  -2.456 -11.418  0.00  0.00    -0.019 A 
HETATM    6  C   UNK     0       1.449  -2.318 -12.602  0.00  0.00    -0.043 A 
HETATM    7  C   UNK     0       2.917  -3.631 -11.505  0.00  0.00    -0.016 A 
HETATM    8  C   UNK     0       2.659  -4.248 -12.735  0.00  0.00    -0.032 A 
HETATM    9  C   UNK     0       1.702  -3.437 -13.525  0.00  0.00     0.080 A 
HETATM   10  C   UNK     0       3.820  -4.185 -10.582  0.00  0.00     0.042 A 
HETATM   11  C   UNK     0       4.486  -5.393 -10.896  0.00  0.00     0.036 A 
HETATM   12  C   UNK     0       4.229  -6.010 -12.146  0.00  0.00     0.042 A 
HETATM   13  C   UNK     0       3.309  -5.462 -13.081  0.00  0.00    -0.016 A 
ENDROOT
BRANCH  13  14
HETATM   14  C   UNK     0       3.072  -6.118 -14.320  0.00  0.00    -0.023 A 
HETATM   15  C   UNK     0       2.018  -7.054 -14.460  0.00  0.00     0.029 A 
HETATM   16  C   UNK     0       1.789  -7.668 -15.703  0.00  0.00     0.088 A 
HETATM   17  N   UNK     0       2.590  -7.380 -16.759  0.00  0.00    -0.375 N 
HETATM   18  C   UNK     0       3.627  -6.508 -16.667  0.00  0.00     0.088 A 
HETATM   19  HN  UNK     0       2.407  -7.833 -17.655  1.00  0.00     0.164 HD
HETATM   20  C   UNK     0       3.893  -5.860 -15.445  0.00  0.00     0.029 A 
ENDBRANCH  13  14
BRANCH  11  21
HETATM   21  N   UNK     0       5.418  -5.966 -10.071  0.00  0.00    -0.327 N 
HETATM   22  C   UNK     0       5.244  -6.459  -8.808  0.00  0.00     0.223 C 
HETATM   23  O   UNK     0       4.110  -6.593  -8.289  0.00  0.00    -0.273 OA
HETATM   24  H   UNK     0       6.315  -6.044 -10.435  0.00  0.00     0.169 HD
BRANCH  22  25
HETATM   25  C   UNK     0       6.428  -6.866  -8.020  0.00  0.00     0.118 C 
BRANCH  25  26
HETATM   26  C   UNK     0       6.642  -8.398  -8.075  0.00  0.00     0.124 C 
HETATM   27 Cl   UNK     0       7.218  -9.016  -6.531  0.00  0.00    -0.130 Cl
ENDBRANCH  25  26
ENDBRANCH  22  25
ENDBRANCH  11  21
TORSDOF 4
ENDMDL
MODEL 8
REMARK VINA RESULT:      -6.1     10.928     12.814
REMARK  4 active torsions:
REMARK  status: ('A' for Active; 'I' for Inactive)
REMARK    1  A    between atoms: C_11  and  N_14 
REMARK    2  A    between atoms: C_13  and  C_21 
REMARK       I    between atoms: N_14  and  C_15 
REMARK    3  A    between atoms: C_15  and  C_16 
REMARK    4  A    between atoms: C_16  and  C_17 
ROOT
HETATM    1  C   UNK     0      -8.374   5.446  -8.216  0.00  0.00     0.008 A 
HETATM    2  C   UNK     0      -9.256   4.681  -9.008  0.00  0.00     0.001 A 
HETATM    3  C   UNK     0      -8.753   3.769  -9.960  0.00  0.00     0.001 A 
HETATM    4  C   UNK     0      -7.363   3.620 -10.139  0.00  0.00     0.013 A 
HETATM    5  C   UNK     0      -6.493   4.394  -9.347  0.00  0.00    -0.019 A 
HETATM    6  C   UNK     0      -6.986   5.292  -8.396  0.00  0.00    -0.043 A 
HETATM    7  C   UNK     0      -5.104   4.451  -9.310  0.00  0.00    -0.016 A 
HETATM    8  C   UNK     0      -4.707   5.386  -8.346  0.00  0.00    -0.032 A 
HETATM    9  C   UNK     0      -5.894   5.983  -7.690  0.00  0.00     0.080 A 
HETATM   10  C   UNK     0      -4.163   3.720 -10.054  0.00  0.00     0.042 A 
HETATM   11  C   UNK     0      -2.782   3.928  -9.829  0.00  0.00     0.036 A 
HETATM   12  C   UNK     0      -2.383   4.869  -8.847  0.00  0.00     0.042 A 
HETATM   13  C   UNK     0      -3.328   5.621  -8.098  0.00  0.00    -0.016 A 
ENDROOT
BRANCH  13  14
HETATM   14  C   UNK     0      -2.887   6.564  -7.129  0.00  0.00    -0.023 A 
HETATM   15  C   UNK     0      -2.550   7.888  -7.500  0.00  0.00     0.029 A 
HETATM   16  C   UNK     0      -2.141   8.806  -6.517  0.00  0.00     0.088 A 
HETATM   17  N   UNK     0      -2.051   8.417  -5.221  0.00  0.00    -0.375 N 
HETATM   18  C   UNK     0      -2.340   7.151  -4.822  0.00  0.00     0.088 A 
HETATM   19  HN  UNK     0      -1.755   9.098  -4.521  1.00  0.00     0.164 HD
HETATM   20  C   UNK     0      -2.761   6.196  -5.767  0.00  0.00     0.029 A 
ENDBRANCH  13  14
BRANCH  11  21
HETATM   21  N   UNK     0      -1.806   3.217 -10.477  0.00  0.00    -0.327 N 
HETATM   22  C   UNK     0      -1.249   2.021 -10.118  0.00  0.00     0.223 C 
HETATM   23  O   UNK     0      -1.705   1.320  -9.183  0.00  0.00    -0.273 OA
HETATM   24  H   UNK     0      -1.476   3.604 -11.304  0.00  0.00     0.169 HD
BRANCH  22  25
HETATM   25  C   UNK     0      -0.074   1.517 -10.862  0.00  0.00     0.118 C 
BRANCH  25  26
HETATM   26  C   UNK     0      -0.082  -0.029 -10.949  0.00  0.00     0.124 C 
HETATM   27 Cl   UNK     0       1.516  -0.693 -10.625  0.00  0.00    -0.130 Cl
ENDBRANCH  25  26
ENDBRANCH  22  25
ENDBRANCH  11  21
TORSDOF 4
ENDMDL
MODEL 9
REMARK VINA RESULT:      -6.1     10.130     12.901
REMARK  4 active torsions:
REMARK  status: ('A' for Active; 'I' for Inactive)
REMARK    1  A    between atoms: C_11  and  N_14 
REMARK    2  A    between atoms: C_13  and  C_21 
REMARK       I    between atoms: N_14  and  C_15 
REMARK    3  A    between atoms: C_15  and  C_16 
REMARK    4  A    between atoms: C_16  and  C_17 
ROOT
HETATM    1  C   UNK     0      -8.212   6.888  -7.265  0.00  0.00     0.008 A 
HETATM    2  C   UNK     0      -9.476   6.261  -7.235  0.00  0.00     0.001 A 
HETATM    3  C   UNK     0      -9.642   4.963  -7.764  0.00  0.00     0.001 A 
HETATM    4  C   UNK     0      -8.549   4.283  -8.338  0.00  0.00     0.013 A 
HETATM    5  C   UNK     0      -7.294   4.922  -8.367  0.00  0.00    -0.019 A 
HETATM    6  C   UNK     0      -7.123   6.204  -7.837  0.00  0.00    -0.043 A 
HETATM    7  C   UNK     0      -6.066   4.496  -8.862  0.00  0.00    -0.016 A 
HETATM    8  C   UNK     0      -5.113   5.501  -8.658  0.00  0.00    -0.032 A 
HETATM    9  C   UNK     0      -5.731   6.664  -7.977  0.00  0.00     0.080 A 
HETATM   10  C   UNK     0      -5.725   3.272  -9.463  0.00  0.00     0.042 A 
HETATM   11  C   UNK     0      -4.390   3.045  -9.873  0.00  0.00     0.036 A 
HETATM   12  C   UNK     0      -3.426   4.061  -9.657  0.00  0.00     0.042 A 
HETATM   13  C   UNK     0      -3.765   5.305  -9.060  0.00  0.00    -0.016 A 
ENDROOT
BRANCH  13  14
HETATM   14  C   UNK     0      -2.769   6.303  -8.870  0.00  0.00    -0.023 A 
HETATM   15  C   UNK     0      -1.873   6.240  -7.776  0.00  0.00     0.029 A 
HETATM   16  C   UNK     0      -0.882   7.226  -7.627  0.00  0.00     0.088 A 
HETATM   17  N   UNK     0      -0.800   8.245  -8.518  0.00  0.00    -0.375 N 
HETATM   18  C   UNK     0      -1.653   8.360  -9.568  0.00  0.00     0.088 A 
HETATM   19  HN  UNK     0      -0.073   8.950  -8.396  1.00  0.00     0.164 HD
HETATM   20  C   UNK     0      -2.659   7.394  -9.766  0.00  0.00     0.029 A 
ENDBRANCH  13  14
BRANCH  11  21
HETATM   21  N   UNK     0      -3.970   1.859 -10.417  0.00  0.00    -0.327 N 
HETATM   22  C   UNK     0      -2.959   1.043  -9.993  0.00  0.00     0.223 C 
HETATM   23  O   UNK     0      -2.368   1.217  -8.901  0.00  0.00    -0.273 OA
HETATM   24  H   UNK     0      -4.461   1.553 -11.197  0.00  0.00     0.169 HD
BRANCH  22  25
HETATM   25  C   UNK     0      -2.549  -0.100 -10.838  0.00  0.00     0.118 C 
BRANCH  25  26
HETATM   26  C   UNK     0      -1.347   0.269 -11.742  0.00  0.00     0.124 C 
HETATM   27 Cl   UNK     0       0.179   0.045 -10.895  0.00  0.00    -0.130 Cl
ENDBRANCH  25  26
ENDBRANCH  22  25
ENDBRANCH  11  21
TORSDOF 4
ENDMDL
