MODEL 1
REMARK VINA RESULT:      -6.3      0.000      0.000
REMARK  4 active torsions:
REMARK  status: ('A' for Active; 'I' for Inactive)
REMARK    1  A    between atoms: C_11  and  N_19 
REMARK    2  A    between atoms: C_13  and  C_14 
REMARK       I    between atoms: N_19  and  C_21 
REMARK    3  A    between atoms: C_21  and  C_22 
REMARK    4  A    between atoms: C_22  and  C_23 
ROOT
HETATM    1  C   UNK     0       5.675  -8.063 -10.437  0.00  0.00     0.008 A 
HETATM    2  C   UNK     0       6.181  -7.993  -9.123  0.00  0.00     0.001 A 
HETATM    3  C   UNK     0       5.992  -6.829  -8.348  0.00  0.00     0.001 A 
HETATM    4  C   UNK     0       5.288  -5.725  -8.875  0.00  0.00     0.013 A 
HETATM    5  C   UNK     0       4.778  -5.814 -10.185  0.00  0.00    -0.019 A 
HETATM    6  C   UNK     0       4.979  -6.957 -10.958  0.00  0.00    -0.043 A 
HETATM    7  C   UNK     0       4.035  -4.913 -10.937  0.00  0.00    -0.016 A 
HETATM    8  C   UNK     0       3.776  -5.469 -12.199  0.00  0.00    -0.031 A 
HETATM    9  C   UNK     0       4.393  -6.812 -12.296  0.00  0.00     0.080 A 
HETATM   10  C   UNK     0       3.551  -3.647 -10.574  0.00  0.00     0.042 A 
HETATM   11  C   UNK     0       2.785  -2.908 -11.504  0.00  0.00     0.036 A 
HETATM   12  C   UNK     0       2.503  -3.487 -12.766  0.00  0.00     0.043 A 
HETATM   13  C   UNK     0       2.991  -4.766 -13.150  0.00  0.00    -0.009 A 
ENDROOT
BRANCH  13  14
HETATM   14  C   UNK     0       2.671  -5.280 -14.442  0.00  0.00     0.015 A 
HETATM   15  C   UNK     0       3.308  -5.050 -15.675  0.00  0.00     0.020 A 
HETATM   16  C   UNK     0       2.753  -5.690 -16.796  0.00  0.00     0.008 A 
HETATM   17  C   UNK     0       1.620  -6.459 -16.536  0.00  0.00     0.050 A 
HETATM   18  S   UNK     0       1.316  -6.339 -14.816  0.00  0.00    -0.101 SA
ENDBRANCH  13  14
BRANCH  11  19
HETATM   19  N   UNK     0       2.267  -1.663 -11.268  0.00  0.00    -0.327 N 
HETATM   20  C   UNK     0       1.122  -1.322 -10.606  0.00  0.00     0.223 C 
HETATM   21  O   UNK     0       0.370  -2.169 -10.069  0.00  0.00    -0.273 OA
HETATM   22  H   UNK     0       2.807  -0.919 -11.581  0.00  0.00     0.169 HD
BRANCH  20  23
HETATM   23  C   UNK     0       0.765   0.105 -10.465  0.00  0.00     0.118 C 
BRANCH  23  24
HETATM   24  C   UNK     0      -0.436   0.490 -11.357  0.00  0.00     0.124 C 
HETATM   25 Cl   UNK     0      -1.922   0.535 -10.412  0.00  0.00    -0.130 Cl
ENDBRANCH  23  24
ENDBRANCH  20  23
ENDBRANCH  11  19
TORSDOF 4
ENDMDL
MODEL 2
REMARK VINA RESULT:      -6.3     13.122     14.644
REMARK  4 active torsions:
REMARK  status: ('A' for Active; 'I' for Inactive)
REMARK    1  A    between atoms: C_11  and  N_19 
REMARK    2  A    between atoms: C_13  and  C_14 
REMARK       I    between atoms: N_19  and  C_21 
REMARK    3  A    between atoms: C_21  and  C_22 
REMARK    4  A    between atoms: C_22  and  C_23 
ROOT
HETATM    1  C   UNK     0      -7.362  -9.120  -3.875  0.00  0.00     0.008 A 
HETATM    2  C   UNK     0      -6.834 -10.091  -4.751  0.00  0.00     0.001 A 
HETATM    3  C   UNK     0      -6.941  -9.922  -6.148  0.00  0.00     0.001 A 
HETATM    4  C   UNK     0      -7.571  -8.780  -6.684  0.00  0.00     0.013 A 
HETATM    5  C   UNK     0      -8.084  -7.813  -5.798  0.00  0.00    -0.019 A 
HETATM    6  C   UNK     0      -7.993  -7.986  -4.416  0.00  0.00    -0.043 A 
HETATM    7  C   UNK     0      -8.715  -6.599  -6.037  0.00  0.00    -0.016 A 
HETATM    8  C   UNK     0      -9.047  -6.002  -4.812  0.00  0.00    -0.031 A 
HETATM    9  C   UNK     0      -8.624  -6.875  -3.693  0.00  0.00     0.080 A 
HETATM   10  C   UNK     0      -8.992  -5.975  -7.263  0.00  0.00     0.042 A 
HETATM   11  C   UNK     0      -9.627  -4.712  -7.266  0.00  0.00     0.036 A 
HETATM   12  C   UNK     0      -9.935  -4.102  -6.025  0.00  0.00     0.043 A 
HETATM   13  C   UNK     0      -9.665  -4.725  -4.775  0.00  0.00    -0.009 A 
ENDROOT
BRANCH  13  14
HETATM   14  C   UNK     0     -10.010  -4.050  -3.566  0.00  0.00     0.015 A 
HETATM   15  C   UNK     0      -9.379  -2.958  -2.945  0.00  0.00     0.020 A 
HETATM   16  C   UNK     0      -9.944  -2.511  -1.739  0.00  0.00     0.008 A 
HETATM   17  C   UNK     0     -11.054  -3.232  -1.304  0.00  0.00     0.050 A 
HETATM   18  S   UNK     0     -11.345  -4.476  -2.502  0.00  0.00    -0.101 SA
ENDBRANCH  13  14
BRANCH  11  19
HETATM   19  N   UNK     0      -9.956  -4.011  -8.394  0.00  0.00    -0.327 N 
HETATM   20  C   UNK     0     -11.102  -4.066  -9.134  0.00  0.00     0.223 C 
HETATM   21  O   UNK     0     -12.075  -4.796  -8.828  0.00  0.00    -0.273 OA
HETATM   22  H   UNK     0      -9.300  -3.357  -8.687  0.00  0.00     0.169 HD
BRANCH  20  23
HETATM   23  C   UNK     0     -11.241  -3.198 -10.322  0.00  0.00     0.118 C 
BRANCH  23  24
HETATM   24  C   UNK     0     -10.590  -1.814 -10.104  0.00  0.00     0.124 C 
HETATM   25 Cl   UNK     0     -10.067  -1.124 -11.638  0.00  0.00    -0.130 Cl
ENDBRANCH  23  24
ENDBRANCH  20  23
ENDBRANCH  11  19
TORSDOF 4
ENDMDL
MODEL 3
REMARK VINA RESULT:      -6.2      3.522      6.276
REMARK  4 active torsions:
REMARK  status: ('A' for Active; 'I' for Inactive)
REMARK    1  A    between atoms: C_11  and  N_19 
REMARK    2  A    between atoms: C_13  and  C_14 
REMARK       I    between atoms: N_19  and  C_21 
REMARK    3  A    between atoms: C_21  and  C_22 
REMARK    4  A    between atoms: C_22  and  C_23 
ROOT
HETATM    1  C   UNK     0       0.472  -1.315 -12.758  0.00  0.00     0.008 A 
HETATM    2  C   UNK     0       0.356  -0.291 -11.797  0.00  0.00     0.001 A 
HETATM    3  C   UNK     0       1.101  -0.351 -10.599  0.00  0.00     0.001 A 
HETATM    4  C   UNK     0       1.973  -1.431 -10.353  0.00  0.00     0.013 A 
HETATM    5  C   UNK     0       2.087  -2.442 -11.327  0.00  0.00    -0.019 A 
HETATM    6  C   UNK     0       1.340  -2.392 -12.504  0.00  0.00    -0.043 A 
HETATM    7  C   UNK     0       2.874  -3.585 -11.367  0.00  0.00    -0.016 A 
HETATM    8  C   UNK     0       2.619  -4.280 -12.559  0.00  0.00    -0.031 A 
HETATM    9  C   UNK     0       1.593  -3.564 -13.352  0.00  0.00     0.080 A 
HETATM   10  C   UNK     0       3.820  -4.041 -10.435  0.00  0.00     0.042 A 
HETATM   11  C   UNK     0       4.531  -5.233 -10.700  0.00  0.00     0.036 A 
HETATM   12  C   UNK     0       4.288  -5.914 -11.918  0.00  0.00     0.043 A 
HETATM   13  C   UNK     0       3.330  -5.469 -12.869  0.00  0.00    -0.009 A 
ENDROOT
BRANCH  13  14
HETATM   14  C   UNK     0       3.137  -6.213 -14.072  0.00  0.00     0.015 A 
HETATM   15  C   UNK     0       2.437  -7.416 -14.270  0.00  0.00     0.020 A 
HETATM   16  C   UNK     0       2.427  -7.926 -15.579  0.00  0.00     0.008 A 
HETATM   17  C   UNK     0       3.139  -7.174 -16.511  0.00  0.00     0.050 A 
HETATM   18  S   UNK     0       3.794  -5.797 -15.650  0.00  0.00    -0.101 SA
ENDBRANCH  13  14
BRANCH  11  19
HETATM   19  N   UNK     0       5.468  -5.779  -9.865  0.00  0.00    -0.327 N 
HETATM   20  C   UNK     0       5.285  -6.410  -8.667  0.00  0.00     0.223 C 
HETATM   21  O   UNK     0       4.151  -6.606  -8.168  0.00  0.00    -0.273 OA
HETATM   22  H   UNK     0       6.384  -5.749 -10.185  0.00  0.00     0.169 HD
BRANCH  20  23
HETATM   23  C   UNK     0       6.458  -6.935  -7.938  0.00  0.00     0.118 C 
BRANCH  23  24
HETATM   24  C   UNK     0       6.511  -8.479  -7.967  0.00  0.00     0.124 C 
HETATM   25 Cl   UNK     0       7.382  -9.097  -6.566  0.00  0.00    -0.130 Cl
ENDBRANCH  23  24
ENDBRANCH  20  23
ENDBRANCH  11  19
TORSDOF 4
ENDMDL
MODEL 4
REMARK VINA RESULT:      -6.1      3.711      7.487
REMARK  4 active torsions:
REMARK  status: ('A' for Active; 'I' for Inactive)
REMARK    1  A    between atoms: C_11  and  N_19 
REMARK    2  A    between atoms: C_13  and  C_14 
REMARK       I    between atoms: N_19  and  C_21 
REMARK    3  A    between atoms: C_21  and  C_22 
REMARK    4  A    between atoms: C_22  and  C_23 
ROOT
HETATM    1  C   UNK     0      -2.037  -3.197 -15.900  0.00  0.00     0.008 A 
HETATM    2  C   UNK     0      -1.945  -4.387 -16.650  0.00  0.00     0.001 A 
HETATM    3  C   UNK     0      -1.055  -5.410 -16.256  0.00  0.00     0.001 A 
HETATM    4  C   UNK     0      -0.253  -5.256 -15.106  0.00  0.00     0.013 A 
HETATM    5  C   UNK     0      -0.363  -4.066 -14.361  0.00  0.00    -0.019 A 
HETATM    6  C   UNK     0      -1.231  -3.048 -14.758  0.00  0.00    -0.043 A 
HETATM    7  C   UNK     0       0.267  -3.661 -13.192  0.00  0.00    -0.016 A 
HETATM    8  C   UNK     0      -0.179  -2.375 -12.849  0.00  0.00    -0.031 A 
HETATM    9  C   UNK     0      -1.153  -1.893 -13.855  0.00  0.00     0.080 A 
HETATM   10  C   UNK     0       1.189  -4.360 -12.397  0.00  0.00     0.042 A 
HETATM   11  C   UNK     0       1.685  -3.752 -11.221  0.00  0.00     0.036 A 
HETATM   12  C   UNK     0       1.210  -2.466 -10.866  0.00  0.00     0.043 A 
HETATM   13  C   UNK     0       0.281  -1.744 -11.664  0.00  0.00    -0.009 A 
ENDROOT
BRANCH  13  14
HETATM   14  C   UNK     0      -0.147  -0.449 -11.244  0.00  0.00     0.015 A 
HETATM   15  C   UNK     0       0.588   0.747 -11.157  0.00  0.00     0.020 A 
HETATM   16  C   UNK     0      -0.105   1.876 -10.691  0.00  0.00     0.008 A 
HETATM   17  C   UNK     0      -1.438   1.652 -10.353  0.00  0.00     0.050 A 
HETATM   18  S   UNK     0      -1.759  -0.039 -10.672  0.00  0.00    -0.101 SA
ENDBRANCH  13  14
BRANCH  11  19
HETATM   19  N   UNK     0       2.591  -4.330 -10.373  0.00  0.00    -0.327 N 
HETATM   20  C   UNK     0       3.954  -4.240 -10.385  0.00  0.00     0.223 C 
HETATM   21  O   UNK     0       4.583  -3.543 -11.216  0.00  0.00    -0.273 OA
HETATM   22  H   UNK     0       2.212  -4.841  -9.640  0.00  0.00     0.169 HD
BRANCH  20  23
HETATM   23  C   UNK     0       4.736  -4.950  -9.351  0.00  0.00     0.118 C 
BRANCH  23  24
HETATM   24  C   UNK     0       4.667  -6.483  -9.527  0.00  0.00     0.124 C 
HETATM   25 Cl   UNK     0       4.324  -7.270  -7.988  0.00  0.00    -0.130 Cl
ENDBRANCH  23  24
ENDBRANCH  20  23
ENDBRANCH  11  19
TORSDOF 4
ENDMDL
MODEL 5
REMARK VINA RESULT:      -6.1      1.810      2.052
REMARK  4 active torsions:
REMARK  status: ('A' for Active; 'I' for Inactive)
REMARK    1  A    between atoms: C_11  and  N_19 
REMARK    2  A    between atoms: C_13  and  C_14 
REMARK       I    between atoms: N_19  and  C_21 
REMARK    3  A    between atoms: C_21  and  C_22 
REMARK    4  A    between atoms: C_22  and  C_23 
ROOT
HETATM    1  C   UNK     0       6.573  -7.460 -10.091  0.00  0.00     0.008 A 
HETATM    2  C   UNK     0       6.330  -7.953  -8.793  0.00  0.00     0.001 A 
HETATM    3  C   UNK     0       5.207  -7.512  -8.061  0.00  0.00     0.001 A 
HETATM    4  C   UNK     0       4.310  -6.579  -8.623  0.00  0.00     0.013 A 
HETATM    5  C   UNK     0       4.558  -6.103  -9.925  0.00  0.00    -0.019 A 
HETATM    6  C   UNK     0       5.677  -6.526 -10.643  0.00  0.00    -0.043 A 
HETATM    7  C   UNK     0       3.844  -5.221 -10.725  0.00  0.00    -0.016 A 
HETATM    8  C   UNK     0       4.514  -5.062 -11.948  0.00  0.00    -0.031 A 
HETATM    9  C   UNK     0       5.751  -5.875 -11.956  0.00  0.00     0.080 A 
HETATM   10  C   UNK     0       2.630  -4.569 -10.457  0.00  0.00     0.042 A 
HETATM   11  C   UNK     0       2.068  -3.726 -11.442  0.00  0.00     0.036 A 
HETATM   12  C   UNK     0       2.735  -3.592 -12.684  0.00  0.00     0.043 A 
HETATM   13  C   UNK     0       3.967  -4.241 -12.969  0.00  0.00    -0.009 A 
ENDROOT
BRANCH  13  14
HETATM   14  C   UNK     0       4.583  -4.051 -14.242  0.00  0.00     0.015 A 
HETATM   15  C   UNK     0       4.445  -4.809 -15.419  0.00  0.00     0.020 A 
HETATM   16  C   UNK     0       5.196  -4.386 -16.528  0.00  0.00     0.008 A 
HETATM   17  C   UNK     0       6.001  -3.271 -16.305  0.00  0.00     0.050 A 
HETATM   18  S   UNK     0       5.742  -2.790 -14.641  0.00  0.00    -0.101 SA
ENDBRANCH  13  14
BRANCH  11  19
HETATM   19  N   UNK     0       0.897  -3.033 -11.293  0.00  0.00    -0.327 N 
HETATM   20  C   UNK     0       0.689  -1.820 -10.702  0.00  0.00     0.223 C 
HETATM   21  O   UNK     0       1.618  -1.132 -10.216  0.00  0.00    -0.273 OA
HETATM   22  H   UNK     0       0.114  -3.441 -11.697  0.00  0.00     0.169 HD
BRANCH  20  23
HETATM   23  C   UNK     0      -0.677  -1.255 -10.667  0.00  0.00     0.118 C 
BRANCH  23  24
HETATM   24  C   UNK     0      -0.661   0.288 -10.593  0.00  0.00     0.124 C 
HETATM   25 Cl   UNK     0      -2.295   0.917 -10.403  0.00  0.00    -0.130 Cl
ENDBRANCH  23  24
ENDBRANCH  20  23
ENDBRANCH  11  19
TORSDOF 4
ENDMDL
MODEL 6
REMARK VINA RESULT:      -6.0     13.955     16.224
REMARK  4 active torsions:
REMARK  status: ('A' for Active; 'I' for Inactive)
REMARK    1  A    between atoms: C_11  and  N_19 
REMARK    2  A    between atoms: C_13  and  C_14 
REMARK       I    between atoms: N_19  and  C_21 
REMARK    3  A    between atoms: C_21  and  C_22 
REMARK    4  A    between atoms: C_22  and  C_23 
ROOT
HETATM    1  C   UNK     0      10.912   8.075  -1.921  0.00  0.00     0.008 A 
HETATM    2  C   UNK     0      11.203   8.745  -0.715  0.00  0.00     0.001 A 
HETATM    3  C   UNK     0      11.325   8.021   0.491  0.00  0.00     0.001 A 
HETATM    4  C   UNK     0      11.164   6.620   0.503  0.00  0.00     0.013 A 
HETATM    5  C   UNK     0      10.884   5.963  -0.711  0.00  0.00    -0.019 A 
HETATM    6  C   UNK     0      10.748   6.678  -1.901  0.00  0.00    -0.043 A 
HETATM    7  C   UNK     0      10.709   4.615  -0.999  0.00  0.00    -0.016 A 
HETATM    8  C   UNK     0      10.440   4.467  -2.367  0.00  0.00    -0.031 A 
HETATM    9  C   UNK     0      10.423   5.793  -3.026  0.00  0.00     0.080 A 
HETATM   10  C   UNK     0      10.795   3.509  -0.139  0.00  0.00     0.042 A 
HETATM   11  C   UNK     0      10.603   2.211  -0.663  0.00  0.00     0.036 A 
HETATM   12  C   UNK     0      10.360   2.067  -2.051  0.00  0.00     0.043 A 
HETATM   13  C   UNK     0      10.263   3.177  -2.933  0.00  0.00    -0.009 A 
ENDROOT
BRANCH  13  14
HETATM   14  C   UNK     0      10.009   2.952  -4.320  0.00  0.00     0.015 A 
HETATM   15  C   UNK     0      10.725   2.166  -5.239  0.00  0.00     0.020 A 
HETATM   16  C   UNK     0      10.240   2.145  -6.557  0.00  0.00     0.008 A 
HETATM   17  C   UNK     0       9.113   2.933  -6.783  0.00  0.00     0.050 A 
HETATM   18  S   UNK     0       8.702   3.673  -5.251  0.00  0.00    -0.101 SA
ENDBRANCH  13  14
BRANCH  11  19
HETATM   19  N   UNK     0      10.655   1.060   0.076  0.00  0.00    -0.327 N 
HETATM   20  C   UNK     0      11.749   0.347   0.475  0.00  0.00     0.223 C 
HETATM   21  O   UNK     0      12.924   0.704   0.221  0.00  0.00    -0.273 OA
HETATM   22  H   UNK     0       9.800   0.727   0.392  0.00  0.00     0.169 HD
BRANCH  20  23
HETATM   23  C   UNK     0      11.561  -0.875   1.286  0.00  0.00     0.118 C 
BRANCH  23  24
HETATM   24  C   UNK     0      12.628  -1.947   0.969  0.00  0.00     0.124 C 
HETATM   25 Cl   UNK     0      12.204  -3.484   1.716  0.00  0.00    -0.130 Cl
ENDBRANCH  23  24
ENDBRANCH  20  23
ENDBRANCH  11  19
TORSDOF 4
ENDMDL
MODEL 7
REMARK VINA RESULT:      -6.0      4.141      8.497
REMARK  4 active torsions:
REMARK  status: ('A' for Active; 'I' for Inactive)
REMARK    1  A    between atoms: C_11  and  N_19 
REMARK    2  A    between atoms: C_13  and  C_14 
REMARK       I    between atoms: N_19  and  C_21 
REMARK    3  A    between atoms: C_21  and  C_22 
REMARK    4  A    between atoms: C_22  and  C_23 
ROOT
HETATM    1  C   UNK     0      -3.835  -1.674 -15.287  0.00  0.00     0.008 A 
HETATM    2  C   UNK     0      -3.741  -2.805 -16.124  0.00  0.00     0.001 A 
HETATM    3  C   UNK     0      -2.614  -3.652 -16.053  0.00  0.00     0.001 A 
HETATM    4  C   UNK     0      -1.573  -3.382 -15.140  0.00  0.00     0.013 A 
HETATM    5  C   UNK     0      -1.686  -2.255 -14.302  0.00  0.00    -0.019 A 
HETATM    6  C   UNK     0      -2.791  -1.408 -14.383  0.00  0.00    -0.043 A 
HETATM    7  C   UNK     0      -0.846  -1.771 -13.308  0.00  0.00    -0.016 A 
HETATM    8  C   UNK     0      -1.401  -0.603 -12.764  0.00  0.00    -0.031 A 
HETATM    9  C   UNK     0      -2.678  -0.285 -13.444  0.00  0.00     0.080 A 
HETATM   10  C   UNK     0       0.362  -2.305 -12.833  0.00  0.00     0.042 A 
HETATM   11  C   UNK     0       1.041  -1.649 -11.782  0.00  0.00     0.036 A 
HETATM   12  C   UNK     0       0.460  -0.486 -11.218  0.00  0.00     0.043 A 
HETATM   13  C   UNK     0      -0.759   0.071 -11.692  0.00  0.00    -0.009 A 
ENDROOT
BRANCH  13  14
HETATM   14  C   UNK     0      -1.278   1.250 -11.077  0.00  0.00     0.015 A 
HETATM   15  C   UNK     0      -0.814   2.574 -11.160  0.00  0.00     0.020 A 
HETATM   16  C   UNK     0      -1.529   3.535 -10.426  0.00  0.00     0.008 A 
HETATM   17  C   UNK     0      -2.602   3.037  -9.690  0.00  0.00     0.050 A 
HETATM   18  S   UNK     0      -2.661   1.314  -9.992  0.00  0.00    -0.101 SA
ENDBRANCH  13  14
BRANCH  11  19
HETATM   19  N   UNK     0       2.227  -2.068 -11.242  0.00  0.00    -0.327 N 
HETATM   20  C   UNK     0       2.485  -3.192 -10.511  0.00  0.00     0.223 C 
HETATM   21  O   UNK     0       1.610  -4.053 -10.253  0.00  0.00    -0.273 OA
HETATM   22  H   UNK     0       2.997  -1.511 -11.439  0.00  0.00     0.169 HD
BRANCH  20  23
HETATM   23  C   UNK     0       3.862  -3.447 -10.036  0.00  0.00     0.118 C 
BRANCH  23  24
HETATM   24  C   UNK     0       4.349  -4.863 -10.413  0.00  0.00     0.124 C 
HETATM   25 Cl   UNK     0       4.659  -5.819  -8.967  0.00  0.00    -0.130 Cl
ENDBRANCH  23  24
ENDBRANCH  20  23
ENDBRANCH  11  19
TORSDOF 4
ENDMDL
MODEL 8
REMARK VINA RESULT:      -6.0      3.446      7.459
REMARK  4 active torsions:
REMARK  status: ('A' for Active; 'I' for Inactive)
REMARK    1  A    between atoms: C_11  and  N_19 
REMARK    2  A    between atoms: C_13  and  C_14 
REMARK       I    between atoms: N_19  and  C_21 
REMARK    3  A    between atoms: C_21  and  C_22 
REMARK    4  A    between atoms: C_22  and  C_23 
ROOT
HETATM    1  C   UNK     0      -3.967   0.972 -11.658  0.00  0.00     0.008 A 
HETATM    2  C   UNK     0      -3.907   1.790 -10.511  0.00  0.00     0.001 A 
HETATM    3  C   UNK     0      -2.773   1.759  -9.671  0.00  0.00     0.001 A 
HETATM    4  C   UNK     0      -1.683   0.916  -9.973  0.00  0.00     0.013 A 
HETATM    5  C   UNK     0      -1.751   0.112 -11.128  0.00  0.00    -0.019 A 
HETATM    6  C   UNK     0      -2.879   0.130 -11.950  0.00  0.00    -0.043 A 
HETATM    7  C   UNK     0      -0.834  -0.774 -11.678  0.00  0.00    -0.016 A 
HETATM    8  C   UNK     0      -1.379  -1.340 -12.841  0.00  0.00    -0.031 A 
HETATM    9  C   UNK     0      -2.742  -0.809 -13.070  0.00  0.00     0.080 A 
HETATM   10  C   UNK     0       0.459  -1.095 -11.236  0.00  0.00     0.042 A 
HETATM   11  C   UNK     0       1.233  -2.016 -11.978  0.00  0.00     0.036 A 
HETATM   12  C   UNK     0       0.687  -2.562 -13.166  0.00  0.00     0.043 A 
HETATM   13  C   UNK     0      -0.623  -2.251 -13.623  0.00  0.00    -0.009 A 
ENDROOT
BRANCH  13  14
HETATM   14  C   UNK     0      -1.106  -2.847 -14.827  0.00  0.00     0.015 A 
HETATM   15  C   UNK     0      -1.462  -4.184 -15.077  0.00  0.00     0.020 A 
HETATM   16  C   UNK     0      -1.898  -4.484 -16.378  0.00  0.00     0.008 A 
HETATM   17  C   UNK     0      -1.898  -3.407 -17.263  0.00  0.00     0.050 A 
HETATM   18  S   UNK     0      -1.341  -2.014 -16.358  0.00  0.00    -0.101 SA
ENDBRANCH  13  14
BRANCH  11  19
HETATM   19  N   UNK     0       2.499  -2.413 -11.643  0.00  0.00    -0.327 N 
HETATM   20  C   UNK     0       2.889  -3.376 -10.758  0.00  0.00     0.223 C 
HETATM   21  O   UNK     0       2.073  -4.086 -10.122  0.00  0.00    -0.273 OA
HETATM   22  H   UNK     0       3.217  -1.977 -12.130  0.00  0.00     0.169 HD
BRANCH  20  23
HETATM   23  C   UNK     0       4.330  -3.642 -10.564  0.00  0.00     0.118 C 
BRANCH  23  24
HETATM   24  C   UNK     0       4.649  -5.153 -10.615  0.00  0.00     0.124 C 
HETATM   25 Cl   UNK     0       4.825  -5.806  -8.989  0.00  0.00    -0.130 Cl
ENDBRANCH  23  24
ENDBRANCH  20  23
ENDBRANCH  11  19
TORSDOF 4
ENDMDL
MODEL 9
REMARK VINA RESULT:      -5.9      2.430      3.162
REMARK  4 active torsions:
REMARK  status: ('A' for Active; 'I' for Inactive)
REMARK    1  A    between atoms: C_11  and  N_19 
REMARK    2  A    between atoms: C_13  and  C_14 
REMARK       I    between atoms: N_19  and  C_21 
REMARK    3  A    between atoms: C_21  and  C_22 
REMARK    4  A    between atoms: C_22  and  C_23 
ROOT
HETATM    1  C   UNK     0       7.680  -9.585  -9.100  0.00  0.00     0.008 A 
HETATM    2  C   UNK     0       7.658  -9.685  -7.694  0.00  0.00     0.001 A 
HETATM    3  C   UNK     0       7.017  -8.695  -6.919  0.00  0.00     0.001 A 
HETATM    4  C   UNK     0       6.385  -7.598  -7.541  0.00  0.00     0.013 A 
HETATM    5  C   UNK     0       6.406  -7.516  -8.947  0.00  0.00    -0.019 A 
HETATM    6  C   UNK     0       7.053  -8.485  -9.714  0.00  0.00    -0.043 A 
HETATM    7  C   UNK     0       5.851  -6.584  -9.815  0.00  0.00    -0.016 A 
HETATM    8  C   UNK     0       6.159  -6.942 -11.136  0.00  0.00    -0.031 A 
HETATM    9  C   UNK     0       6.976  -8.177 -11.147  0.00  0.00     0.080 A 
HETATM   10  C   UNK     0       5.073  -5.454  -9.518  0.00  0.00     0.042 A 
HETATM   11  C   UNK     0       4.588  -4.653 -10.576  0.00  0.00     0.036 A 
HETATM   12  C   UNK     0       4.879  -5.037 -11.908  0.00  0.00     0.043 A 
HETATM   13  C   UNK     0       5.671  -6.174 -12.225  0.00  0.00    -0.009 A 
ENDROOT
BRANCH  13  14
HETATM   14  C   UNK     0       5.927  -6.493 -13.592  0.00  0.00     0.015 A 
HETATM   15  C   UNK     0       5.199  -7.324 -14.463  0.00  0.00     0.020 A 
HETATM   16  C   UNK     0       5.705  -7.461 -15.766  0.00  0.00     0.008 A 
HETATM   17  C   UNK     0       6.885  -6.763 -16.018  0.00  0.00     0.050 A 
HETATM   18  S   UNK     0       7.298  -5.925 -14.537  0.00  0.00    -0.101 SA
ENDBRANCH  13  14
BRANCH  11  19
HETATM   19  N   UNK     0       3.828  -3.526 -10.412  0.00  0.00    -0.327 N 
HETATM   20  C   UNK     0       2.471  -3.416 -10.301  0.00  0.00     0.223 C 
HETATM   21  O   UNK     0       1.705  -4.410 -10.306  0.00  0.00    -0.273 OA
HETATM   22  H   UNK     0       4.323  -2.696 -10.323  0.00  0.00     0.169 HD
BRANCH  20  23
HETATM   23  C   UNK     0       1.865  -2.081 -10.117  0.00  0.00     0.118 C 
BRANCH  23  24
HETATM   24  C   UNK     0       0.964  -1.688 -11.309  0.00  0.00     0.124 C 
HETATM   25 Cl   UNK     0      -0.652  -1.264 -10.752  0.00  0.00    -0.130 Cl
ENDBRANCH  23  24
ENDBRANCH  20  23
ENDBRANCH  11  19
TORSDOF 4
ENDMDL
