MODEL 1
REMARK VINA RESULT:      -6.5      0.000      0.000
REMARK  2 active torsions:
REMARK  status: ('A' for Active; 'I' for Inactive)
REMARK    1  A    between atoms: C_10  and  C_17 
REMARK    2  A    between atoms: C_12  and  N_14 
ROOT
HETATM    1  C   UNK     0       8.944   3.999  -4.603  0.00  0.00     0.013 A 
HETATM    2  C   UNK     0       8.723   3.575  -5.931  0.00  0.00     0.001 A 
HETATM    3  C   UNK     0       9.234   2.339  -6.382  0.00  0.00     0.001 A 
HETATM    4  C   UNK     0       9.979   1.513  -5.514  0.00  0.00     0.008 A 
HETATM    5  C   UNK     0      10.196   1.944  -4.191  0.00  0.00    -0.043 A 
HETATM    6  C   UNK     0       9.687   3.168  -3.743  0.00  0.00    -0.019 A 
HETATM    7  C   UNK     0      10.932   1.249  -3.128  0.00  0.00     0.080 A 
HETATM    8  C   UNK     0      10.782   2.201  -2.006  0.00  0.00    -0.032 A 
HETATM    9  C   UNK     0      10.061   3.334  -2.411  0.00  0.00    -0.016 A 
HETATM   10  C   UNK     0      11.290   2.098  -0.686  0.00  0.00    -0.016 A 
HETATM   11  C   UNK     0      11.087   3.196   0.189  0.00  0.00     0.042 A 
HETATM   12  C   UNK     0      10.388   4.350  -0.234  0.00  0.00     0.027 A 
HETATM   13  C   UNK     0       9.851   4.415  -1.537  0.00  0.00     0.042 A 
ENDROOT
BRANCH  10  14
HETATM   14  C   UNK     0      12.017   0.955  -0.251  0.00  0.00    -0.023 A 
HETATM   15  C   UNK     0      13.310   0.694  -0.755  0.00  0.00     0.029 A 
HETATM   16  C   UNK     0      14.000  -0.464  -0.350  0.00  0.00     0.090 A 
HETATM   17  N   UNK     0      13.438  -1.351   0.530  0.00  0.00    -0.371 N 
HETATM   18  C   UNK     0      12.193  -1.106   1.045  0.00  0.00     0.090 A 
HETATM   19  C   UNK     0      14.171  -2.524   0.939  0.00  0.00     0.154 C 
HETATM   20  C   UNK     0      11.469   0.044   0.679  0.00  0.00     0.029 A 
ENDBRANCH  10  14
BRANCH  12  21
HETATM   21  N   UNK     0      10.253   5.401   0.600  0.00  0.00    -0.399 N 
HETATM   22  H   UNK     0      10.640   6.261   0.367  0.00  0.00     0.156 HD
HETATM   23  H   UNK     0       9.762   5.304   1.431  0.00  0.00     0.156 HD
ENDBRANCH  12  21
TORSDOF 2
ENDMDL
MODEL 2
REMARK VINA RESULT:      -6.4     12.931     15.453
REMARK  2 active torsions:
REMARK  status: ('A' for Active; 'I' for Inactive)
REMARK    1  A    between atoms: C_10  and  C_17 
REMARK    2  A    between atoms: C_12  and  N_14 
ROOT
HETATM    1  C   UNK     0       4.792  -5.108 -11.944  0.00  0.00     0.013 A 
HETATM    2  C   UNK     0       5.373  -5.785 -10.851  0.00  0.00     0.001 A 
HETATM    3  C   UNK     0       4.964  -5.499  -9.531  0.00  0.00     0.001 A 
HETATM    4  C   UNK     0       3.971  -4.527  -9.285  0.00  0.00     0.008 A 
HETATM    5  C   UNK     0       3.396  -3.855 -10.381  0.00  0.00    -0.043 A 
HETATM    6  C   UNK     0       3.800  -4.141 -11.689  0.00  0.00    -0.019 A 
HETATM    7  C   UNK     0       2.354  -2.821 -10.356  0.00  0.00     0.080 A 
HETATM    8  C   UNK     0       2.189  -2.547 -11.801  0.00  0.00    -0.032 A 
HETATM    9  C   UNK     0       3.075  -3.327 -12.557  0.00  0.00    -0.016 A 
HETATM   10  C   UNK     0       1.319  -1.619 -12.429  0.00  0.00    -0.016 A 
HETATM   11  C   UNK     0       1.413  -1.476 -13.838  0.00  0.00     0.042 A 
HETATM   12  C   UNK     0       2.331  -2.240 -14.593  0.00  0.00     0.027 A 
HETATM   13  C   UNK     0       3.155  -3.191 -13.955  0.00  0.00     0.042 A 
ENDROOT
BRANCH  10  14
HETATM   14  C   UNK     0       0.407  -0.823 -11.682  0.00  0.00    -0.023 A 
HETATM   15  C   UNK     0      -0.920  -1.257 -11.476  0.00  0.00     0.029 A 
HETATM   16  C   UNK     0      -1.825  -0.438 -10.774  0.00  0.00     0.090 A 
HETATM   17  N   UNK     0      -1.440   0.781 -10.282  0.00  0.00    -0.371 N 
HETATM   18  C   UNK     0      -0.151   1.211 -10.455  0.00  0.00     0.090 A 
HETATM   19  C   UNK     0      -2.383   1.595  -9.555  0.00  0.00     0.154 C 
HETATM   20  C   UNK     0       0.791   0.423 -11.140  0.00  0.00     0.029 A 
ENDBRANCH  10  14
BRANCH  12  21
HETATM   21  N   UNK     0       2.436  -2.049 -15.924  0.00  0.00    -0.399 N 
HETATM   22  H   UNK     0       1.867  -2.546 -16.535  0.00  0.00     0.156 HD
HETATM   23  H   UNK     0       3.074  -1.408 -16.275  0.00  0.00     0.156 HD
ENDBRANCH  12  21
TORSDOF 2
ENDMDL
MODEL 3
REMARK VINA RESULT:      -6.2     12.860     14.922
REMARK  2 active torsions:
REMARK  status: ('A' for Active; 'I' for Inactive)
REMARK    1  A    between atoms: C_10  and  C_17 
REMARK    2  A    between atoms: C_12  and  N_14 
ROOT
HETATM    1  C   UNK     0       6.788  -7.649 -10.202  0.00  0.00     0.013 A 
HETATM    2  C   UNK     0       6.902  -8.342  -8.979  0.00  0.00     0.001 A 
HETATM    3  C   UNK     0       6.012  -8.071  -7.917  0.00  0.00     0.001 A 
HETATM    4  C   UNK     0       5.000  -7.099  -8.062  0.00  0.00     0.008 A 
HETATM    5  C   UNK     0       4.893  -6.411  -9.287  0.00  0.00    -0.043 A 
HETATM    6  C   UNK     0       5.774  -6.682 -10.340  0.00  0.00    -0.019 A 
HETATM    7  C   UNK     0       3.922  -5.374  -9.654  0.00  0.00     0.080 A 
HETATM    8  C   UNK     0       4.329  -5.081 -11.046  0.00  0.00    -0.032 A 
HETATM    9  C   UNK     0       5.440  -5.855 -11.410  0.00  0.00    -0.016 A 
HETATM   10  C   UNK     0       3.769  -4.143 -11.951  0.00  0.00    -0.016 A 
HETATM   11  C   UNK     0       4.402  -3.982 -13.211  0.00  0.00     0.042 A 
HETATM   12  C   UNK     0       5.542  -4.739 -13.561  0.00  0.00     0.027 A 
HETATM   13  C   UNK     0       6.057  -5.701 -12.665  0.00  0.00     0.042 A 
ENDROOT
BRANCH  10  14
HETATM   14  C   UNK     0       2.638  -3.353 -11.606  0.00  0.00    -0.023 A 
HETATM   15  C   UNK     0       1.373  -3.630 -12.169  0.00  0.00     0.029 A 
HETATM   16  C   UNK     0       0.271  -2.812 -11.853  0.00  0.00     0.090 A 
HETATM   17  N   UNK     0       0.402  -1.746 -11.004  0.00  0.00    -0.371 N 
HETATM   18  C   UNK     0       1.616  -1.472 -10.433  0.00  0.00     0.090 A 
HETATM   19  C   UNK     0      -0.746  -0.931 -10.687  0.00  0.00     0.154 C 
HETATM   20  C   UNK     0       2.743  -2.268 -10.709  0.00  0.00     0.029 A 
ENDBRANCH  10  14
BRANCH  12  21
HETATM   21  N   UNK     0       6.155  -4.531 -14.744  0.00  0.00    -0.399 N 
HETATM   22  H   UNK     0       6.123  -3.655 -15.162  0.00  0.00     0.156 HD
HETATM   23  H   UNK     0       6.636  -5.253 -15.178  0.00  0.00     0.156 HD
ENDBRANCH  12  21
TORSDOF 2
ENDMDL
MODEL 4
REMARK VINA RESULT:      -6.2     21.345     22.624
REMARK  2 active torsions:
REMARK  status: ('A' for Active; 'I' for Inactive)
REMARK    1  A    between atoms: C_10  and  C_17 
REMARK    2  A    between atoms: C_12  and  N_14 
ROOT
HETATM    1  C   UNK     0      -9.751  -3.023  -3.640  0.00  0.00     0.013 A 
HETATM    2  C   UNK     0     -10.531  -2.419  -2.631  0.00  0.00     0.001 A 
HETATM    3  C   UNK     0     -11.189  -3.211  -1.665  0.00  0.00     0.001 A 
HETATM    4  C   UNK     0     -11.082  -4.617  -1.699  0.00  0.00     0.008 A 
HETATM    5  C   UNK     0     -10.302  -5.212  -2.710  0.00  0.00    -0.043 A 
HETATM    6  C   UNK     0      -9.647  -4.427  -3.665  0.00  0.00    -0.019 A 
HETATM    7  C   UNK     0     -10.051  -6.642  -2.928  0.00  0.00     0.080 A 
HETATM    8  C   UNK     0      -9.165  -6.599  -4.112  0.00  0.00    -0.032 A 
HETATM    9  C   UNK     0      -8.967  -5.277  -4.534  0.00  0.00    -0.016 A 
HETATM   10  C   UNK     0      -8.583  -7.683  -4.818  0.00  0.00    -0.016 A 
HETATM   11  C   UNK     0      -7.838  -7.385  -5.988  0.00  0.00     0.042 A 
HETATM   12  C   UNK     0      -7.668  -6.053  -6.430  0.00  0.00     0.027 A 
HETATM   13  C   UNK     0      -8.217  -4.985  -5.688  0.00  0.00     0.042 A 
ENDROOT
BRANCH  10  14
HETATM   14  C   UNK     0      -8.765  -9.031  -4.403  0.00  0.00    -0.023 A 
HETATM   15  C   UNK     0      -7.800  -9.667  -3.592  0.00  0.00     0.029 A 
HETATM   16  C   UNK     0      -7.971 -11.016  -3.227  0.00  0.00     0.090 A 
HETATM   17  N   UNK     0      -9.063 -11.729  -3.644  0.00  0.00    -0.371 N 
HETATM   18  C   UNK     0     -10.019 -11.125  -4.416  0.00  0.00     0.090 A 
HETATM   19  C   UNK     0      -9.220 -13.107  -3.245  0.00  0.00     0.154 C 
HETATM   20  C   UNK     0      -9.898  -9.776  -4.797  0.00  0.00     0.029 A 
ENDBRANCH  10  14
BRANCH  12  21
HETATM   21  N   UNK     0      -6.999  -5.800  -7.573  0.00  0.00    -0.399 N 
HETATM   22  H   UNK     0      -7.472  -5.779  -8.421  0.00  0.00     0.156 HD
HETATM   23  H   UNK     0      -6.044  -5.630  -7.551  0.00  0.00     0.156 HD
ENDBRANCH  12  21
TORSDOF 2
ENDMDL
MODEL 5
REMARK VINA RESULT:      -6.2     13.348     16.542
REMARK  2 active torsions:
REMARK  status: ('A' for Active; 'I' for Inactive)
REMARK    1  A    between atoms: C_10  and  C_17 
REMARK    2  A    between atoms: C_12  and  N_14 
ROOT
HETATM    1  C   UNK     0       1.958  -4.311 -12.209  0.00  0.00     0.013 A 
HETATM    2  C   UNK     0       3.065  -4.688 -11.420  0.00  0.00     0.001 A 
HETATM    3  C   UNK     0       3.456  -3.904 -10.312  0.00  0.00     0.001 A 
HETATM    4  C   UNK     0       2.749  -2.729  -9.984  0.00  0.00     0.008 A 
HETATM    5  C   UNK     0       1.646  -2.358 -10.777  0.00  0.00    -0.043 A 
HETATM    6  C   UNK     0       1.257  -3.138 -11.872  0.00  0.00    -0.019 A 
HETATM    7  C   UNK     0       0.773  -1.189 -10.615  0.00  0.00     0.080 A 
HETATM    8  C   UNK     0      -0.176  -1.383 -11.733  0.00  0.00    -0.032 A 
HETATM    9  C   UNK     0       0.153  -2.531 -12.468  0.00  0.00    -0.016 A 
HETATM   10  C   UNK     0      -1.268  -0.564 -12.116  0.00  0.00    -0.016 A 
HETATM   11  C   UNK     0      -1.980  -0.918 -13.292  0.00  0.00     0.042 A 
HETATM   12  C   UNK     0      -1.624  -2.057 -14.049  0.00  0.00     0.027 A 
HETATM   13  C   UNK     0      -0.563  -2.885 -13.626  0.00  0.00     0.042 A 
ENDROOT
BRANCH  10  14
HETATM   14  C   UNK     0      -1.625   0.600 -11.381  0.00  0.00    -0.023 A 
HETATM   15  C   UNK     0      -2.552   0.520 -10.318  0.00  0.00     0.029 A 
HETATM   16  C   UNK     0      -2.930   1.688  -9.629  0.00  0.00     0.090 A 
HETATM   17  N   UNK     0      -2.413   2.910  -9.969  0.00  0.00    -0.371 N 
HETATM   18  C   UNK     0      -1.498   3.005 -10.984  0.00  0.00     0.090 A 
HETATM   19  C   UNK     0      -2.808   4.089  -9.238  0.00  0.00     0.154 C 
HETATM   20  C   UNK     0      -1.081   1.865 -11.695  0.00  0.00     0.029 A 
ENDBRANCH  10  14
BRANCH  12  21
HETATM   21  N   UNK     0      -2.283  -2.343 -15.190  0.00  0.00    -0.399 N 
HETATM   22  H   UNK     0      -3.132  -1.912 -15.383  0.00  0.00     0.156 HD
HETATM   23  H   UNK     0      -1.908  -2.974 -15.825  0.00  0.00     0.156 HD
ENDBRANCH  12  21
TORSDOF 2
ENDMDL
MODEL 6
REMARK VINA RESULT:      -6.2     21.395     22.973
REMARK  2 active torsions:
REMARK  status: ('A' for Active; 'I' for Inactive)
REMARK    1  A    between atoms: C_10  and  C_17 
REMARK    2  A    between atoms: C_12  and  N_14 
ROOT
HETATM    1  C   UNK     0     -10.443  -3.338  -1.808  0.00  0.00     0.013 A 
HETATM    2  C   UNK     0      -9.780  -2.095  -1.737  0.00  0.00     0.001 A 
HETATM    3  C   UNK     0      -8.763  -1.771  -2.661  0.00  0.00     0.001 A 
HETATM    4  C   UNK     0      -8.390  -2.689  -3.665  0.00  0.00     0.008 A 
HETATM    5  C   UNK     0      -9.056  -3.929  -3.729  0.00  0.00    -0.043 A 
HETATM    6  C   UNK     0     -10.065  -4.248  -2.815  0.00  0.00    -0.019 A 
HETATM    7  C   UNK     0      -8.834  -5.020  -4.685  0.00  0.00     0.080 A 
HETATM    8  C   UNK     0      -9.839  -6.006  -4.231  0.00  0.00    -0.032 A 
HETATM    9  C   UNK     0     -10.532  -5.527  -3.111  0.00  0.00    -0.016 A 
HETATM   10  C   UNK     0     -10.112  -7.294  -4.758  0.00  0.00    -0.016 A 
HETATM   11  C   UNK     0     -11.070  -8.094  -4.084  0.00  0.00     0.042 A 
HETATM   12  C   UNK     0     -11.743  -7.621  -2.935  0.00  0.00     0.027 A 
HETATM   13  C   UNK     0     -11.491  -6.319  -2.453  0.00  0.00     0.042 A 
ENDROOT
BRANCH  10  14
HETATM   14  C   UNK     0      -9.426  -7.798  -5.898  0.00  0.00    -0.023 A 
HETATM   15  C   UNK     0      -9.792  -7.380  -7.196  0.00  0.00     0.029 A 
HETATM   16  C   UNK     0      -9.135  -7.921  -8.318  0.00  0.00     0.090 A 
HETATM   17  N   UNK     0      -8.140  -8.851  -8.175  0.00  0.00    -0.371 N 
HETATM   18  C   UNK     0      -7.758  -9.256  -6.923  0.00  0.00     0.090 A 
HETATM   19  C   UNK     0      -7.475  -9.380  -9.340  0.00  0.00     0.154 C 
HETATM   20  C   UNK     0      -8.377  -8.735  -5.772  0.00  0.00     0.029 A 
ENDBRANCH  10  14
BRANCH  12  21
HETATM   21  N   UNK     0     -12.612  -8.419  -2.283  0.00  0.00    -0.399 N 
HETATM   22  H   UNK     0     -13.374  -8.034  -1.819  0.00  0.00     0.156 HD
HETATM   23  H   UNK     0     -12.484  -9.381  -2.281  0.00  0.00     0.156 HD
ENDBRANCH  12  21
TORSDOF 2
ENDMDL
MODEL 7
REMARK VINA RESULT:      -6.1     20.426     22.348
REMARK  2 active torsions:
REMARK  status: ('A' for Active; 'I' for Inactive)
REMARK    1  A    between atoms: C_10  and  C_17 
REMARK    2  A    between atoms: C_12  and  N_14 
ROOT
HETATM    1  C   UNK     0      -7.923  -9.651  -7.531  0.00  0.00     0.013 A 
HETATM    2  C   UNK     0      -7.128 -10.672  -6.968  0.00  0.00     0.001 A 
HETATM    3  C   UNK     0      -6.547 -10.506  -5.692  0.00  0.00     0.001 A 
HETATM    4  C   UNK     0      -6.748  -9.315  -4.964  0.00  0.00     0.008 A 
HETATM    5  C   UNK     0      -7.543  -8.300  -5.533  0.00  0.00    -0.043 A 
HETATM    6  C   UNK     0      -8.121  -8.467  -6.797  0.00  0.00    -0.019 A 
HETATM    7  C   UNK     0      -7.885  -6.995  -4.955  0.00  0.00     0.080 A 
HETATM    8  C   UNK     0      -8.738  -6.425  -6.021  0.00  0.00    -0.032 A 
HETATM    9  C   UNK     0      -8.837  -7.311  -7.103  0.00  0.00    -0.016 A 
HETATM   10  C   UNK     0      -9.376  -5.159  -6.059  0.00  0.00    -0.016 A 
HETATM   11  C   UNK     0     -10.072  -4.804  -7.243  0.00  0.00     0.042 A 
HETATM   12  C   UNK     0     -10.141  -5.687  -8.345  0.00  0.00     0.027 A 
HETATM   13  C   UNK     0      -9.539  -6.961  -8.271  0.00  0.00     0.042 A 
ENDROOT
BRANCH  10  14
HETATM   14  C   UNK     0      -9.296  -4.247  -4.970  0.00  0.00    -0.023 A 
HETATM   15  C   UNK     0      -8.311  -3.235  -4.954  0.00  0.00     0.029 A 
HETATM   16  C   UNK     0      -8.214  -2.369  -3.849  0.00  0.00     0.090 A 
HETATM   17  N   UNK     0      -9.062  -2.487  -2.780  0.00  0.00    -0.371 N 
HETATM   18  C   UNK     0     -10.036  -3.450  -2.785  0.00  0.00     0.090 A 
HETATM   19  C   UNK     0      -8.950  -1.578  -1.666  0.00  0.00     0.154 C 
HETATM   20  C   UNK     0     -10.180  -4.332  -3.872  0.00  0.00     0.029 A 
ENDBRANCH  10  14
BRANCH  12  21
HETATM   21  N   UNK     0     -10.765  -5.306  -9.478  0.00  0.00    -0.399 N 
HETATM   22  H   UNK     0     -11.029  -4.379  -9.602  0.00  0.00     0.156 HD
HETATM   23  H   UNK     0     -10.946  -5.955 -10.177  0.00  0.00     0.156 HD
ENDBRANCH  12  21
TORSDOF 2
ENDMDL
MODEL 8
REMARK VINA RESULT:      -6.1     12.648     14.582
REMARK  2 active torsions:
REMARK  status: ('A' for Active; 'I' for Inactive)
REMARK    1  A    between atoms: C_10  and  C_17 
REMARK    2  A    between atoms: C_12  and  N_14 
ROOT
HETATM    1  C   UNK     0       7.825  -7.393 -12.435  0.00  0.00     0.013 A 
HETATM    2  C   UNK     0       8.497  -7.290 -13.671  0.00  0.00     0.001 A 
HETATM    3  C   UNK     0       8.081  -6.348 -14.636  0.00  0.00     0.001 A 
HETATM    4  C   UNK     0       6.984  -5.500 -14.381  0.00  0.00     0.008 A 
HETATM    5  C   UNK     0       6.317  -5.609 -13.145  0.00  0.00    -0.043 A 
HETATM    6  C   UNK     0       6.732  -6.541 -12.188  0.00  0.00    -0.019 A 
HETATM    7  C   UNK     0       5.166  -4.831 -12.673  0.00  0.00     0.080 A 
HETATM    8  C   UNK     0       4.965  -5.408 -11.325  0.00  0.00    -0.032 A 
HETATM    9  C   UNK     0       5.892  -6.430 -11.081  0.00  0.00    -0.016 A 
HETATM   10  C   UNK     0       3.980  -5.074 -10.360  0.00  0.00    -0.016 A 
HETATM   11  C   UNK     0       3.938  -5.841  -9.167  0.00  0.00     0.042 A 
HETATM   12  C   UNK     0       4.853  -6.894  -8.939  0.00  0.00     0.027 A 
HETATM   13  C   UNK     0       5.854  -7.181  -9.892  0.00  0.00     0.042 A 
ENDROOT
BRANCH  10  14
HETATM   14  C   UNK     0       3.035  -4.035 -10.583  0.00  0.00    -0.023 A 
HETATM   15  C   UNK     0       3.370  -2.690 -10.312  0.00  0.00     0.029 A 
HETATM   16  C   UNK     0       2.410  -1.678 -10.495  0.00  0.00     0.090 A 
HETATM   17  N   UNK     0       1.146  -1.972 -10.933  0.00  0.00    -0.371 N 
HETATM   18  C   UNK     0       0.807  -3.268 -11.219  0.00  0.00     0.090 A 
HETATM   19  C   UNK     0       0.185  -0.914 -11.124  0.00  0.00     0.154 C 
HETATM   20  C   UNK     0       1.736  -4.313 -11.063  0.00  0.00     0.029 A 
ENDBRANCH  10  14
BRANCH  12  21
HETATM   21  N   UNK     0       4.759  -7.641  -7.821  0.00  0.00    -0.399 N 
HETATM   22  H   UNK     0       5.445  -7.581  -7.135  0.00  0.00     0.156 HD
HETATM   23  H   UNK     0       4.003  -8.235  -7.693  0.00  0.00     0.156 HD
ENDBRANCH  12  21
TORSDOF 2
ENDMDL
MODEL 9
REMARK VINA RESULT:      -6.0     23.200     24.761
REMARK  2 active torsions:
REMARK  status: ('A' for Active; 'I' for Inactive)
REMARK    1  A    between atoms: C_10  and  C_17 
REMARK    2  A    between atoms: C_12  and  N_14 
ROOT
HETATM    1  C   UNK     0      -8.625  -3.052  -4.185  0.00  0.00     0.013 A 
HETATM    2  C   UNK     0      -8.189  -2.036  -3.309  0.00  0.00     0.001 A 
HETATM    3  C   UNK     0      -8.884  -1.780  -2.107  0.00  0.00     0.001 A 
HETATM    4  C   UNK     0     -10.028  -2.532  -1.768  0.00  0.00     0.008 A 
HETATM    5  C   UNK     0     -10.457  -3.544  -2.649  0.00  0.00    -0.043 A 
HETATM    6  C   UNK     0      -9.766  -3.799  -3.838  0.00  0.00    -0.019 A 
HETATM    7  C   UNK     0     -11.608  -4.442  -2.495  0.00  0.00     0.080 A 
HETATM    8  C   UNK     0     -11.501  -5.259  -3.724  0.00  0.00    -0.032 A 
HETATM    9  C   UNK     0     -10.416  -4.837  -4.505  0.00  0.00    -0.016 A 
HETATM   10  C   UNK     0     -12.345  -6.311  -4.162  0.00  0.00    -0.016 A 
HETATM   11  C   UNK     0     -12.084  -6.883  -5.434  0.00  0.00     0.042 A 
HETATM   12  C   UNK     0     -11.009  -6.431  -6.233  0.00  0.00     0.027 A 
HETATM   13  C   UNK     0     -10.152  -5.415  -5.760  0.00  0.00     0.042 A 
ENDROOT
BRANCH  10  14
HETATM   14  C   UNK     0     -13.447  -6.760  -3.382  0.00  0.00    -0.023 A 
HETATM   15  C   UNK     0     -13.331  -7.914  -2.577  0.00  0.00     0.029 A 
HETATM   16  C   UNK     0     -14.443  -8.373  -1.846  0.00  0.00     0.090 A 
HETATM   17  N   UNK     0     -15.645  -7.718  -1.899  0.00  0.00    -0.371 N 
HETATM   18  C   UNK     0     -15.772  -6.586  -2.660  0.00  0.00     0.090 A 
HETATM   19  C   UNK     0     -16.765  -8.202  -1.131  0.00  0.00     0.154 C 
HETATM   20  C   UNK     0     -14.686  -6.082  -3.399  0.00  0.00     0.029 A 
ENDBRANCH  10  14
BRANCH  12  21
HETATM   21  N   UNK     0     -10.812  -6.956  -7.460  0.00  0.00    -0.399 N 
HETATM   22  H   UNK     0     -10.578  -7.894  -7.557  0.00  0.00     0.156 HD
HETATM   23  H   UNK     0     -10.910  -6.401  -8.249  0.00  0.00     0.156 HD
ENDBRANCH  12  21
TORSDOF 2
ENDMDL
