MODEL 1
REMARK VINA RESULT:      -6.3      0.000      0.000
REMARK  4 active torsions:
REMARK  status: ('A' for Active; 'I' for Inactive)
REMARK    1  A    between atoms: C_11  and  N_19 
REMARK    2  A    between atoms: C_13  and  C_14 
REMARK       I    between atoms: N_19  and  C_21 
REMARK    3  A    between atoms: C_21  and  C_22 
REMARK    4  A    between atoms: C_22  and  C_23 
ROOT
HETATM    1  C   UNK     0       6.503  -4.952  -5.044  0.00  0.00     0.008 A 
HETATM    2  C   UNK     0       6.440  -4.495  -3.712  0.00  0.00     0.001 A 
HETATM    3  C   UNK     0       5.372  -4.885  -2.875  0.00  0.00     0.001 A 
HETATM    4  C   UNK     0       4.360  -5.740  -3.358  0.00  0.00     0.013 A 
HETATM    5  C   UNK     0       4.442  -6.198  -4.688  0.00  0.00    -0.019 A 
HETATM    6  C   UNK     0       5.488  -5.801  -5.521  0.00  0.00    -0.043 A 
HETATM    7  C   UNK     0       3.621  -7.055  -5.409  0.00  0.00    -0.016 A 
HETATM    8  C   UNK     0       4.127  -7.193  -6.710  0.00  0.00    -0.031 A 
HETATM    9  C   UNK     0       5.348  -6.370  -6.867  0.00  0.00     0.080 A 
HETATM   10  C   UNK     0       2.471  -7.741  -4.987  0.00  0.00     0.042 A 
HETATM   11  C   UNK     0       1.803  -8.591  -5.897  0.00  0.00     0.036 A 
HETATM   12  C   UNK     0       2.335  -8.747  -7.200  0.00  0.00     0.043 A 
HETATM   13  C   UNK     0       3.495  -8.055  -7.644  0.00  0.00    -0.009 A 
ENDROOT
BRANCH  13  14
HETATM   14  C   UNK     0       3.968  -8.259  -8.975  0.00  0.00     0.015 A 
HETATM   15  C   UNK     0       3.498  -7.708 -10.180  0.00  0.00     0.020 A 
HETATM   16  C   UNK     0       4.162  -8.108 -11.352  0.00  0.00     0.008 A 
HETATM   17  C   UNK     0       5.194  -9.024 -11.162  0.00  0.00     0.050 A 
HETATM   18  S   UNK     0       5.284  -9.329  -9.440  0.00  0.00    -0.101 SA
ENDBRANCH  13  14
BRANCH  11  19
HETATM   19  N   UNK     0       0.671  -9.304  -5.604  0.00  0.00    -0.327 N 
HETATM   20  C   UNK     0      -0.635  -8.923  -5.720  0.00  0.00     0.223 C 
HETATM   21  O   UNK     0      -0.980  -7.804  -6.170  0.00  0.00    -0.273 OA
HETATM   22  H   UNK     0       0.816 -10.218  -5.312  0.00  0.00     0.169 HD
BRANCH  20  23
HETATM   23  C   UNK     0      -1.703  -9.875  -5.351  0.00  0.00     0.118 C 
BRANCH  23  24
HETATM   24  C   UNK     0      -2.694  -9.265  -4.334  0.00  0.00     0.124 C 
HETATM   25 Cl   UNK     0      -4.175 -10.215  -4.263  0.00  0.00    -0.130 Cl
ENDBRANCH  23  24
ENDBRANCH  20  23
ENDBRANCH  11  19
TORSDOF 4
ENDMDL
MODEL 2
REMARK VINA RESULT:      -6.2     10.252     12.064
REMARK  4 active torsions:
REMARK  status: ('A' for Active; 'I' for Inactive)
REMARK    1  A    between atoms: C_11  and  N_19 
REMARK    2  A    between atoms: C_13  and  C_14 
REMARK       I    between atoms: N_19  and  C_21 
REMARK    3  A    between atoms: C_21  and  C_22 
REMARK    4  A    between atoms: C_22  and  C_23 
ROOT
HETATM    1  C   UNK     0      -7.015  -0.855  -5.082  0.00  0.00     0.008 A 
HETATM    2  C   UNK     0      -6.491  -0.181  -3.960  0.00  0.00     0.001 A 
HETATM    3  C   UNK     0      -5.278   0.534  -4.061  0.00  0.00     0.001 A 
HETATM    4  C   UNK     0      -4.580   0.589  -5.286  0.00  0.00     0.013 A 
HETATM    5  C   UNK     0      -5.121  -0.080  -6.402  0.00  0.00    -0.019 A 
HETATM    6  C   UNK     0      -6.312  -0.800  -6.299  0.00  0.00    -0.043 A 
HETATM    7  C   UNK     0      -4.677  -0.171  -7.714  0.00  0.00    -0.016 A 
HETATM    8  C   UNK     0      -5.569  -0.965  -8.449  0.00  0.00    -0.031 A 
HETATM    9  C   UNK     0      -6.664  -1.440  -7.572  0.00  0.00     0.080 A 
HETATM   10  C   UNK     0      -3.552   0.421  -8.309  0.00  0.00     0.042 A 
HETATM   11  C   UNK     0      -3.307   0.209  -9.685  0.00  0.00     0.036 A 
HETATM   12  C   UNK     0      -4.227  -0.571 -10.427  0.00  0.00     0.043 A 
HETATM   13  C   UNK     0      -5.368  -1.182  -9.838  0.00  0.00    -0.009 A 
ENDROOT
BRANCH  13  14
HETATM   14  C   UNK     0      -6.246  -1.960 -10.650  0.00  0.00     0.015 A 
HETATM   15  C   UNK     0      -7.474  -1.598 -11.232  0.00  0.00     0.020 A 
HETATM   16  C   UNK     0      -8.130  -2.590 -11.979  0.00  0.00     0.008 A 
HETATM   17  C   UNK     0      -7.478  -3.821 -12.025  0.00  0.00     0.050 A 
HETATM   18  S   UNK     0      -6.004  -3.644 -11.098  0.00  0.00    -0.101 SA
ENDBRANCH  13  14
BRANCH  11  19
HETATM   19  N   UNK     0      -2.242   0.725 -10.372  0.00  0.00    -0.327 N 
HETATM   20  C   UNK     0      -1.146   0.076 -10.867  0.00  0.00     0.223 C 
HETATM   21  O   UNK     0      -0.989  -1.164 -10.770  0.00  0.00    -0.273 OA
HETATM   22  H   UNK     0      -2.290   1.674 -10.569  0.00  0.00     0.169 HD
BRANCH  20  23
HETATM   23  C   UNK     0      -0.115   0.847 -11.593  0.00  0.00     0.118 C 
BRANCH  23  24
HETATM   24  C   UNK     0       1.313   0.378 -11.236  0.00  0.00     0.124 C 
HETATM   25 Cl   UNK     0       1.617   0.569  -9.512  0.00  0.00    -0.130 Cl
ENDBRANCH  23  24
ENDBRANCH  20  23
ENDBRANCH  11  19
TORSDOF 4
ENDMDL
MODEL 3
REMARK VINA RESULT:      -6.2      1.554      4.864
REMARK  4 active torsions:
REMARK  status: ('A' for Active; 'I' for Inactive)
REMARK    1  A    between atoms: C_11  and  N_19 
REMARK    2  A    between atoms: C_13  and  C_14 
REMARK       I    between atoms: N_19  and  C_21 
REMARK    3  A    between atoms: C_21  and  C_22 
REMARK    4  A    between atoms: C_22  and  C_23 
ROOT
HETATM    1  C   UNK     0       5.714  -6.647 -10.034  0.00  0.00     0.008 A 
HETATM    2  C   UNK     0       5.351  -7.115 -11.314  0.00  0.00     0.001 A 
HETATM    3  C   UNK     0       4.235  -7.965 -11.471  0.00  0.00     0.001 A 
HETATM    4  C   UNK     0       3.466  -8.350 -10.353  0.00  0.00     0.013 A 
HETATM    5  C   UNK     0       3.834  -7.866  -9.082  0.00  0.00    -0.019 A 
HETATM    6  C   UNK     0       4.946  -7.039  -8.923  0.00  0.00    -0.043 A 
HETATM    7  C   UNK     0       3.255  -8.051  -7.834  0.00  0.00    -0.016 A 
HETATM    8  C   UNK     0       4.006  -7.362  -6.870  0.00  0.00    -0.031 A 
HETATM    9  C   UNK     0       5.158  -6.689  -7.513  0.00  0.00     0.080 A 
HETATM   10  C   UNK     0       2.096  -8.767  -7.494  0.00  0.00     0.042 A 
HETATM   11  C   UNK     0       1.676  -8.798  -6.145  0.00  0.00     0.036 A 
HETATM   12  C   UNK     0       2.423  -8.076  -5.182  0.00  0.00     0.043 A 
HETATM   13  C   UNK     0       3.602  -7.352  -5.510  0.00  0.00    -0.009 A 
ENDROOT
BRANCH  13  14
HETATM   14  C   UNK     0       4.305  -6.654  -4.482  0.00  0.00     0.015 A 
HETATM   15  C   UNK     0       4.332  -5.277  -4.200  0.00  0.00     0.020 A 
HETATM   16  C   UNK     0       5.135  -4.875  -3.120  0.00  0.00     0.008 A 
HETATM   17  C   UNK     0       5.822  -5.904  -2.480  0.00  0.00     0.050 A 
HETATM   18  S   UNK     0       5.383  -7.387  -3.301  0.00  0.00    -0.101 SA
ENDBRANCH  13  14
BRANCH  11  19
HETATM   19  N   UNK     0       0.570  -9.467  -5.692  0.00  0.00    -0.327 N 
HETATM   20  C   UNK     0      -0.732  -9.054  -5.670  0.00  0.00     0.223 C 
HETATM   21  O   UNK     0      -1.102  -7.946  -6.125  0.00  0.00    -0.273 OA
HETATM   22  H   UNK     0       0.727 -10.372  -5.379  0.00  0.00     0.169 HD
BRANCH  20  23
HETATM   23  C   UNK     0      -1.770  -9.961  -5.138  0.00  0.00     0.118 C 
BRANCH  23  24
HETATM   24  C   UNK     0      -2.843  -9.198  -4.330  0.00  0.00     0.124 C 
HETATM   25 Cl   UNK     0      -4.326 -10.142  -4.220  0.00  0.00    -0.130 Cl
ENDBRANCH  23  24
ENDBRANCH  20  23
ENDBRANCH  11  19
TORSDOF 4
ENDMDL
MODEL 4
REMARK VINA RESULT:      -6.2     17.954     21.336
REMARK  4 active torsions:
REMARK  status: ('A' for Active; 'I' for Inactive)
REMARK    1  A    between atoms: C_11  and  N_19 
REMARK    2  A    between atoms: C_13  and  C_14 
REMARK       I    between atoms: N_19  and  C_21 
REMARK    3  A    between atoms: C_21  and  C_22 
REMARK    4  A    between atoms: C_22  and  C_23 
ROOT
HETATM    1  C   UNK     0       2.063   5.293   6.171  0.00  0.00     0.008 A 
HETATM    2  C   UNK     0       2.883   4.343   5.528  0.00  0.00     0.001 A 
HETATM    3  C   UNK     0       3.563   4.679   4.337  0.00  0.00     0.001 A 
HETATM    4  C   UNK     0       3.437   5.970   3.781  0.00  0.00     0.013 A 
HETATM    5  C   UNK     0       2.623   6.912   4.440  0.00  0.00    -0.019 A 
HETATM    6  C   UNK     0       1.937   6.576   5.608  0.00  0.00    -0.043 A 
HETATM    7  C   UNK     0       2.342   8.239   4.145  0.00  0.00    -0.016 A 
HETATM    8  C   UNK     0       1.461   8.750   5.110  0.00  0.00    -0.031 A 
HETATM    9  C   UNK     0       1.126   7.698   6.097  0.00  0.00     0.080 A 
HETATM   10  C   UNK     0       2.831   9.034   3.097  0.00  0.00     0.042 A 
HETATM   11  C   UNK     0       2.424  10.384   3.007  0.00  0.00     0.036 A 
HETATM   12  C   UNK     0       1.556  10.901   4.000  0.00  0.00     0.043 A 
HETATM   13  C   UNK     0       1.047  10.107   5.064  0.00  0.00    -0.009 A 
ENDROOT
BRANCH  13  14
HETATM   14  C   UNK     0       0.172  10.698   6.024  0.00  0.00     0.015 A 
HETATM   15  C   UNK     0      -1.180  11.062   5.889  0.00  0.00     0.020 A 
HETATM   16  C   UNK     0      -1.787  11.643   7.015  0.00  0.00     0.008 A 
HETATM   17  C   UNK     0      -0.952  11.800   8.120  0.00  0.00     0.050 A 
HETATM   18  S   UNK     0       0.613  11.165   7.661  0.00  0.00    -0.101 SA
ENDBRANCH  13  14
BRANCH  11  19
HETATM   19  N   UNK     0       2.825  11.252   2.027  0.00  0.00    -0.327 N 
HETATM   20  C   UNK     0       4.055  11.814   1.832  0.00  0.00     0.223 C 
HETATM   21  O   UNK     0       5.043  11.558   2.560  0.00  0.00    -0.273 OA
HETATM   22  H   UNK     0       2.156  11.468   1.359  0.00  0.00     0.169 HD
BRANCH  20  23
HETATM   23  C   UNK     0       4.261  12.726   0.687  0.00  0.00     0.118 C 
BRANCH  23  24
HETATM   24  C   UNK     0       3.599  12.191  -0.602  0.00  0.00     0.124 C 
HETATM   25 Cl   UNK     0       4.801  11.451  -1.656  0.00  0.00    -0.130 Cl
ENDBRANCH  23  24
ENDBRANCH  20  23
ENDBRANCH  11  19
TORSDOF 4
ENDMDL
MODEL 5
REMARK VINA RESULT:      -6.0      4.712      7.823
REMARK  4 active torsions:
REMARK  status: ('A' for Active; 'I' for Inactive)
REMARK    1  A    between atoms: C_11  and  N_19 
REMARK    2  A    between atoms: C_13  and  C_14 
REMARK       I    between atoms: N_19  and  C_21 
REMARK    3  A    between atoms: C_21  and  C_22 
REMARK    4  A    between atoms: C_22  and  C_23 
ROOT
HETATM    1  C   UNK     0       0.065  -9.760  -4.970  0.00  0.00     0.008 A 
HETATM    2  C   UNK     0      -0.877  -9.481  -5.982  0.00  0.00     0.001 A 
HETATM    3  C   UNK     0      -0.552  -8.597  -7.033  0.00  0.00     0.001 A 
HETATM    4  C   UNK     0       0.719  -7.988  -7.088  0.00  0.00     0.013 A 
HETATM    5  C   UNK     0       1.653  -8.285  -6.077  0.00  0.00    -0.019 A 
HETATM    6  C   UNK     0       1.328  -9.146  -5.028  0.00  0.00    -0.043 A 
HETATM    7  C   UNK     0       2.964  -7.864  -5.895  0.00  0.00    -0.016 A 
HETATM    8  C   UNK     0       3.474  -8.437  -4.720  0.00  0.00    -0.031 A 
HETATM    9  C   UNK     0       2.439  -9.278  -4.078  0.00  0.00     0.080 A 
HETATM   10  C   UNK     0       3.745  -7.029  -6.709  0.00  0.00     0.042 A 
HETATM   11  C   UNK     0       5.081  -6.754  -6.336  0.00  0.00     0.036 A 
HETATM   12  C   UNK     0       5.598  -7.359  -5.164  0.00  0.00     0.043 A 
HETATM   13  C   UNK     0       4.817  -8.202  -4.326  0.00  0.00    -0.009 A 
ENDROOT
BRANCH  13  14
HETATM   14  C   UNK     0       5.407  -8.770  -3.157  0.00  0.00     0.015 A 
HETATM   15  C   UNK     0       5.650  -8.177  -1.905  0.00  0.00     0.020 A 
HETATM   16  C   UNK     0       6.264  -8.989  -0.937  0.00  0.00     0.008 A 
HETATM   17  C   UNK     0       6.572 -10.281  -1.358  0.00  0.00     0.050 A 
HETATM   18  S   UNK     0       6.031 -10.409  -3.019  0.00  0.00    -0.101 SA
ENDBRANCH  13  14
BRANCH  11  19
HETATM   19  N   UNK     0       5.935  -5.951  -7.042  0.00  0.00    -0.327 N 
HETATM   20  C   UNK     0       6.542  -4.792  -6.650  0.00  0.00     0.223 C 
HETATM   21  O   UNK     0       6.404  -4.306  -5.502  0.00  0.00    -0.273 OA
HETATM   22  H   UNK     0       6.171  -6.268  -7.928  0.00  0.00     0.169 HD
BRANCH  20  23
HETATM   23  C   UNK     0       7.443  -4.092  -7.590  0.00  0.00     0.118 C 
BRANCH  23  24
HETATM   24  C   UNK     0       8.902  -4.073  -7.083  0.00  0.00     0.124 C 
HETATM   25 Cl   UNK     0       9.834  -2.836  -7.921  0.00  0.00    -0.130 Cl
ENDBRANCH  23  24
ENDBRANCH  20  23
ENDBRANCH  11  19
TORSDOF 4
ENDMDL
MODEL 6
REMARK VINA RESULT:      -6.0     18.346     21.240
REMARK  4 active torsions:
REMARK  status: ('A' for Active; 'I' for Inactive)
REMARK    1  A    between atoms: C_11  and  N_19 
REMARK    2  A    between atoms: C_13  and  C_14 
REMARK       I    between atoms: N_19  and  C_21 
REMARK    3  A    between atoms: C_21  and  C_22 
REMARK    4  A    between atoms: C_22  and  C_23 
ROOT
HETATM    1  C   UNK     0       4.056   5.731   4.357  0.00  0.00     0.008 A 
HETATM    2  C   UNK     0       3.580   4.565   4.990  0.00  0.00     0.001 A 
HETATM    3  C   UNK     0       2.431   4.617   5.808  0.00  0.00     0.001 A 
HETATM    4  C   UNK     0       1.742   5.833   5.997  0.00  0.00     0.013 A 
HETATM    5  C   UNK     0       2.223   6.989   5.351  0.00  0.00    -0.019 A 
HETATM    6  C   UNK     0       3.368   6.942   4.554  0.00  0.00    -0.043 A 
HETATM    7  C   UNK     0       1.741   8.290   5.331  0.00  0.00    -0.016 A 
HETATM    8  C   UNK     0       2.585   9.084   4.540  0.00  0.00    -0.031 A 
HETATM    9  C   UNK     0       3.701   8.265   4.013  0.00  0.00     0.080 A 
HETATM   10  C   UNK     0       0.593   8.817   5.944  0.00  0.00     0.042 A 
HETATM   11  C   UNK     0       0.279  10.183   5.763  0.00  0.00     0.036 A 
HETATM   12  C   UNK     0       1.121  10.971   4.941  0.00  0.00     0.043 A 
HETATM   13  C   UNK     0       2.290  10.454   4.318  0.00  0.00    -0.009 A 
ENDROOT
BRANCH  13  14
HETATM   14  C   UNK     0       3.092  11.313   3.508  0.00  0.00     0.015 A 
HETATM   15  C   UNK     0       3.116  11.450   2.109  0.00  0.00     0.020 A 
HETATM   16  C   UNK     0       4.032  12.378   1.586  0.00  0.00     0.008 A 
HETATM   17  C   UNK     0       4.817  13.030   2.534  0.00  0.00     0.050 A 
HETATM   18  S   UNK     0       4.323  12.422   4.100  0.00  0.00    -0.101 SA
ENDBRANCH  13  14
BRANCH  11  19
HETATM   19  N   UNK     0      -0.805  10.810   6.315  0.00  0.00    -0.327 N 
HETATM   20  C   UNK     0      -0.977  11.256   7.595  0.00  0.00     0.223 C 
HETATM   21  O   UNK     0      -0.086  11.166   8.472  0.00  0.00    -0.273 OA
HETATM   22  H   UNK     0      -1.536  10.998   5.705  0.00  0.00     0.169 HD
BRANCH  20  23
HETATM   23  C   UNK     0      -2.244  11.921   7.965  0.00  0.00     0.118 C 
BRANCH  23  24
HETATM   24  C   UNK     0      -3.331  11.734   6.884  0.00  0.00     0.124 C 
HETATM   25 Cl   UNK     0      -4.850  11.220   7.612  0.00  0.00    -0.130 Cl
ENDBRANCH  23  24
ENDBRANCH  20  23
ENDBRANCH  11  19
TORSDOF 4
ENDMDL
MODEL 7
REMARK VINA RESULT:      -5.8     18.710     21.732
REMARK  4 active torsions:
REMARK  status: ('A' for Active; 'I' for Inactive)
REMARK    1  A    between atoms: C_11  and  N_19 
REMARK    2  A    between atoms: C_13  and  C_14 
REMARK       I    between atoms: N_19  and  C_21 
REMARK    3  A    between atoms: C_21  and  C_22 
REMARK    4  A    between atoms: C_22  and  C_23 
ROOT
HETATM    1  C   UNK     0      -1.222  13.970   4.534  0.00  0.00     0.008 A 
HETATM    2  C   UNK     0      -2.544  13.820   5.001  0.00  0.00     0.001 A 
HETATM    3  C   UNK     0      -2.959  12.603   5.583  0.00  0.00     0.001 A 
HETATM    4  C   UNK     0      -2.056  11.526   5.711  0.00  0.00     0.013 A 
HETATM    5  C   UNK     0      -0.736  11.695   5.250  0.00  0.00    -0.019 A 
HETATM    6  C   UNK     0      -0.329  12.892   4.660  0.00  0.00    -0.043 A 
HETATM    7  C   UNK     0       0.354  10.836   5.273  0.00  0.00    -0.016 A 
HETATM    8  C   UNK     0       1.456  11.471   4.680  0.00  0.00    -0.031 A 
HETATM    9  C   UNK     0       1.072  12.827   4.225  0.00  0.00     0.080 A 
HETATM   10  C   UNK     0       0.447   9.540   5.805  0.00  0.00     0.042 A 
HETATM   11  C   UNK     0       1.681   8.854   5.739  0.00  0.00     0.036 A 
HETATM   12  C   UNK     0       2.796   9.512   5.164  0.00  0.00     0.043 A 
HETATM   13  C   UNK     0       2.716  10.822   4.616  0.00  0.00    -0.009 A 
ENDROOT
BRANCH  13  14
HETATM   14  C   UNK     0       3.882  11.417   4.048  0.00  0.00     0.015 A 
HETATM   15  C   UNK     0       5.061  11.847   4.682  0.00  0.00     0.020 A 
HETATM   16  C   UNK     0       6.046  12.415   3.856  0.00  0.00     0.008 A 
HETATM   17  C   UNK     0       5.709  12.495   2.506  0.00  0.00     0.050 A 
HETATM   18  S   UNK     0       4.107  11.805   2.347  0.00  0.00    -0.101 SA
ENDBRANCH  13  14
BRANCH  11  19
HETATM   19  N   UNK     0       1.892   7.587   6.214  0.00  0.00    -0.327 N 
HETATM   20  C   UNK     0       1.648   6.391   5.601  0.00  0.00     0.223 C 
HETATM   21  O   UNK     0       1.198   6.304   4.434  0.00  0.00    -0.273 OA
HETATM   22  H   UNK     0       2.307   7.532   7.089  0.00  0.00     0.169 HD
BRANCH  20  23
HETATM   23  C   UNK     0       1.968   5.135   6.311  0.00  0.00     0.118 C 
BRANCH  23  24
HETATM   24  C   UNK     0       2.896   4.223   5.479  0.00  0.00     0.124 C 
HETATM   25 Cl   UNK     0       4.224   5.153   4.789  0.00  0.00    -0.130 Cl
ENDBRANCH  23  24
ENDBRANCH  20  23
ENDBRANCH  11  19
TORSDOF 4
ENDMDL
MODEL 8
REMARK VINA RESULT:      -5.8      3.638      5.790
REMARK  4 active torsions:
REMARK  status: ('A' for Active; 'I' for Inactive)
REMARK    1  A    between atoms: C_11  and  N_19 
REMARK    2  A    between atoms: C_13  and  C_14 
REMARK       I    between atoms: N_19  and  C_21 
REMARK    3  A    between atoms: C_21  and  C_22 
REMARK    4  A    between atoms: C_22  and  C_23 
ROOT
HETATM    1  C   UNK     0       4.614  -5.624  -3.125  0.00  0.00     0.008 A 
HETATM    2  C   UNK     0       5.801  -4.863  -3.091  0.00  0.00     0.001 A 
HETATM    3  C   UNK     0       6.574  -4.696  -4.260  0.00  0.00     0.001 A 
HETATM    4  C   UNK     0       6.165  -5.282  -5.476  0.00  0.00     0.013 A 
HETATM    5  C   UNK     0       4.972  -6.030  -5.499  0.00  0.00    -0.019 A 
HETATM    6  C   UNK     0       4.216  -6.209  -4.340  0.00  0.00    -0.043 A 
HETATM    7  C   UNK     0       4.324  -6.682  -6.539  0.00  0.00    -0.016 A 
HETATM    8  C   UNK     0       3.163  -7.296  -6.047  0.00  0.00    -0.031 A 
HETATM    9  C   UNK     0       3.039  -7.049  -4.592  0.00  0.00     0.080 A 
HETATM   10  C   UNK     0       4.676  -6.748  -7.896  0.00  0.00     0.042 A 
HETATM   11  C   UNK     0       3.842  -7.455  -8.792  0.00  0.00     0.036 A 
HETATM   12  C   UNK     0       2.657  -8.049  -8.293  0.00  0.00     0.043 A 
HETATM   13  C   UNK     0       2.290  -7.996  -6.920  0.00  0.00    -0.009 A 
ENDROOT
BRANCH  13  14
HETATM   14  C   UNK     0       1.083  -8.625  -6.491  0.00  0.00     0.015 A 
HETATM   15  C   UNK     0      -0.244  -8.174  -6.603  0.00  0.00     0.020 A 
HETATM   16  C   UNK     0      -1.238  -9.012  -6.071  0.00  0.00     0.008 A 
HETATM   17  C   UNK     0      -0.768 -10.182  -5.478  0.00  0.00     0.050 A 
HETATM   18  S   UNK     0       0.975 -10.165  -5.648  0.00  0.00    -0.101 SA
ENDBRANCH  13  14
BRANCH  11  19
HETATM   19  N   UNK     0       4.084  -7.596 -10.132  0.00  0.00    -0.327 N 
HETATM   20  C   UNK     0       4.813  -8.556 -10.774  0.00  0.00     0.223 C 
HETATM   21  O   UNK     0       5.361  -9.510 -10.173  0.00  0.00    -0.273 OA
HETATM   22  H   UNK     0       3.647  -6.948 -10.707  0.00  0.00     0.169 HD
BRANCH  20  23
HETATM   23  C   UNK     0       4.930  -8.512 -12.247  0.00  0.00     0.118 C 
BRANCH  23  24
HETATM   24  C   UNK     0       3.778  -7.711 -12.893  0.00  0.00     0.124 C 
HETATM   25 Cl   UNK     0       4.317  -6.092 -13.330  0.00  0.00    -0.130 Cl
ENDBRANCH  23  24
ENDBRANCH  20  23
ENDBRANCH  11  19
TORSDOF 4
ENDMDL
MODEL 9
REMARK VINA RESULT:      -5.7      3.405      6.273
REMARK  4 active torsions:
REMARK  status: ('A' for Active; 'I' for Inactive)
REMARK    1  A    between atoms: C_11  and  N_19 
REMARK    2  A    between atoms: C_13  and  C_14 
REMARK       I    between atoms: N_19  and  C_21 
REMARK    3  A    between atoms: C_21  and  C_22 
REMARK    4  A    between atoms: C_22  and  C_23 
ROOT
HETATM    1  C   UNK     0       3.829  -7.703 -11.188  0.00  0.00     0.008 A 
HETATM    2  C   UNK     0       5.059  -7.287 -11.738  0.00  0.00     0.001 A 
HETATM    3  C   UNK     0       6.125  -6.906 -10.893  0.00  0.00     0.001 A 
HETATM    4  C   UNK     0       5.974  -6.944  -9.491  0.00  0.00     0.013 A 
HETATM    5  C   UNK     0       4.743  -7.373  -8.956  0.00  0.00    -0.019 A 
HETATM    6  C   UNK     0       3.684  -7.734  -9.790  0.00  0.00    -0.043 A 
HETATM    7  C   UNK     0       4.328  -7.536  -7.641  0.00  0.00    -0.016 A 
HETATM    8  C   UNK     0       2.998  -7.981  -7.629  0.00  0.00    -0.031 A 
HETATM    9  C   UNK     0       2.495  -8.110  -9.016  0.00  0.00     0.080 A 
HETATM   10  C   UNK     0       5.053  -7.342  -6.455  0.00  0.00     0.042 A 
HETATM   11  C   UNK     0       4.427  -7.598  -5.214  0.00  0.00     0.036 A 
HETATM   12  C   UNK     0       3.093  -8.074  -5.210  0.00  0.00     0.043 A 
HETATM   13  C   UNK     0       2.344  -8.270  -6.402  0.00  0.00    -0.009 A 
ENDROOT
BRANCH  13  14
HETATM   14  C   UNK     0       1.001  -8.747  -6.318  0.00  0.00     0.015 A 
HETATM   15  C   UNK     0      -0.203  -8.063  -6.562  0.00  0.00     0.020 A 
HETATM   16  C   UNK     0      -1.387  -8.797  -6.383  0.00  0.00     0.008 A 
HETATM   17  C   UNK     0      -1.208 -10.113  -5.961  0.00  0.00     0.050 A 
HETATM   18  S   UNK     0       0.519 -10.365  -5.826  0.00  0.00    -0.101 SA
ENDBRANCH  13  14
BRANCH  11  19
HETATM   19  N   UNK     0       5.027  -7.437  -3.994  0.00  0.00    -0.327 N 
HETATM   20  C   UNK     0       5.117  -6.312  -3.225  0.00  0.00     0.223 C 
HETATM   21  O   UNK     0       4.595  -5.220  -3.553  0.00  0.00    -0.273 OA
HETATM   22  H   UNK     0       5.408  -8.241  -3.605  0.00  0.00     0.169 HD
BRANCH  20  23
HETATM   23  C   UNK     0       5.812  -6.379  -1.922  0.00  0.00     0.118 C 
BRANCH  23  24
HETATM   24  C   UNK     0       5.490  -7.686  -1.163  0.00  0.00     0.124 C 
HETATM   25 Cl   UNK     0       6.832  -8.820  -1.283  0.00  0.00    -0.130 Cl
ENDBRANCH  23  24
ENDBRANCH  20  23
ENDBRANCH  11  19
TORSDOF 4
ENDMDL
