MODEL 1
REMARK VINA RESULT:      -6.4      0.000      0.000
REMARK  4 active torsions:
REMARK  status: ('A' for Active; 'I' for Inactive)
REMARK    1  A    between atoms: C_11  and  N_14 
REMARK    2  A    between atoms: C_13  and  C_21 
REMARK       I    between atoms: N_14  and  C_15 
REMARK    3  A    between atoms: C_15  and  C_16 
REMARK    4  A    between atoms: C_16  and  C_17 
ROOT
HETATM    1  C   UNK     0       5.251  -6.940  -9.933  0.00  0.00     0.008 A 
HETATM    2  C   UNK     0       4.824  -7.409 -11.193  0.00  0.00     0.001 A 
HETATM    3  C   UNK     0       3.638  -8.167 -11.308  0.00  0.00     0.001 A 
HETATM    4  C   UNK     0       2.874  -8.473 -10.164  0.00  0.00     0.013 A 
HETATM    5  C   UNK     0       3.316  -8.004  -8.912  0.00  0.00    -0.019 A 
HETATM    6  C   UNK     0       4.483  -7.246  -8.793  0.00  0.00    -0.043 A 
HETATM    7  C   UNK     0       2.771  -8.153  -7.641  0.00  0.00    -0.016 A 
HETATM    8  C   UNK     0       3.588  -7.500  -6.710  0.00  0.00    -0.032 A 
HETATM    9  C   UNK     0       4.741  -6.867  -7.393  0.00  0.00     0.080 A 
HETATM   10  C   UNK     0       1.591  -8.807  -7.249  0.00  0.00     0.042 A 
HETATM   11  C   UNK     0       1.214  -8.811  -5.885  0.00  0.00     0.036 A 
HETATM   12  C   UNK     0       2.039  -8.142  -4.946  0.00  0.00     0.042 A 
HETATM   13  C   UNK     0       3.240  -7.487  -5.333  0.00  0.00    -0.016 A 
ENDROOT
BRANCH  13  14
HETATM   14  C   UNK     0       4.046  -6.836  -4.358  0.00  0.00    -0.023 A 
HETATM   15  C   UNK     0       4.967  -7.566  -3.567  0.00  0.00     0.029 A 
HETATM   16  C   UNK     0       5.769  -6.893  -2.630  0.00  0.00     0.088 A 
HETATM   17  N   UNK     0       5.645  -5.552  -2.470  0.00  0.00    -0.375 N 
HETATM   18  C   UNK     0       4.759  -4.814  -3.188  0.00  0.00     0.088 A 
HETATM   19  HN  UNK     0       6.238  -5.080  -1.787  1.00  0.00     0.164 HD
HETATM   20  C   UNK     0       3.938  -5.440  -4.145  0.00  0.00     0.029 A 
ENDBRANCH  13  14
BRANCH  11  21
HETATM   21  N   UNK     0       0.053  -9.381  -5.434  0.00  0.00    -0.327 N 
HETATM   22  C   UNK     0      -1.186  -8.814  -5.330  0.00  0.00     0.223 C 
HETATM   23  O   UNK     0      -1.452  -7.686  -5.812  0.00  0.00    -0.273 OA
HETATM   24  H   UNK     0       0.114 -10.312  -5.165  0.00  0.00     0.169 HD
BRANCH  22  25
HETATM   25  C   UNK     0      -2.266  -9.552  -4.640  0.00  0.00     0.118 C 
BRANCH  25  26
HETATM   26  C   UNK     0      -3.404  -9.933  -5.619  0.00  0.00     0.124 C 
HETATM   27 Cl   UNK     0      -2.762 -10.648  -7.094  0.00  0.00    -0.130 Cl
ENDBRANCH  25  26
ENDBRANCH  22  25
ENDBRANCH  11  21
TORSDOF 4
ENDMDL
MODEL 2
REMARK VINA RESULT:      -6.3     10.146     12.998
REMARK  4 active torsions:
REMARK  status: ('A' for Active; 'I' for Inactive)
REMARK    1  A    between atoms: C_11  and  N_14 
REMARK    2  A    between atoms: C_13  and  C_21 
REMARK       I    between atoms: N_14  and  C_15 
REMARK    3  A    between atoms: C_15  and  C_16 
REMARK    4  A    between atoms: C_16  and  C_17 
ROOT
HETATM    1  C   UNK     0      -6.938  -0.756  -5.064  0.00  0.00     0.008 A 
HETATM    2  C   UNK     0      -6.319  -0.173  -3.938  0.00  0.00     0.001 A 
HETATM    3  C   UNK     0      -5.078   0.487  -4.066  0.00  0.00     0.001 A 
HETATM    4  C   UNK     0      -4.437   0.562  -5.318  0.00  0.00     0.013 A 
HETATM    5  C   UNK     0      -5.062  -0.029  -6.434  0.00  0.00    -0.019 A 
HETATM    6  C   UNK     0      -6.295  -0.675  -6.314  0.00  0.00    -0.043 A 
HETATM    7  C   UNK     0      -4.666  -0.105  -7.765  0.00  0.00    -0.016 A 
HETATM    8  C   UNK     0      -5.635  -0.804  -8.495  0.00  0.00    -0.032 A 
HETATM    9  C   UNK     0      -6.751  -1.210  -7.608  0.00  0.00     0.080 A 
HETATM   10  C   UNK     0      -3.518   0.418  -8.383  0.00  0.00     0.042 A 
HETATM   11  C   UNK     0      -3.331   0.238  -9.774  0.00  0.00     0.036 A 
HETATM   12  C   UNK     0      -4.318  -0.462 -10.512  0.00  0.00     0.042 A 
HETATM   13  C   UNK     0      -5.477  -1.004  -9.892  0.00  0.00    -0.016 A 
ENDROOT
BRANCH  13  14
HETATM   14  C   UNK     0      -6.439  -1.710 -10.666  0.00  0.00    -0.023 A 
HETATM   15  C   UNK     0      -7.522  -1.032 -11.277  0.00  0.00     0.029 A 
HETATM   16  C   UNK     0      -8.444  -1.751 -12.058  0.00  0.00     0.088 A 
HETATM   17  N   UNK     0      -8.306  -3.092 -12.207  0.00  0.00    -0.375 N 
HETATM   18  C   UNK     0      -7.298  -3.788 -11.620  0.00  0.00     0.088 A 
HETATM   19  HN  UNK     0      -8.983  -3.597 -12.780  1.00  0.00     0.164 HD
HETATM   20  C   UNK     0      -6.344  -3.113 -10.834  0.00  0.00     0.029 A 
ENDBRANCH  13  14
BRANCH  11  21
HETATM   21  N   UNK     0      -2.265   0.763 -10.457  0.00  0.00    -0.327 N 
HETATM   22  C   UNK     0      -1.132   0.127 -10.880  0.00  0.00     0.223 C 
HETATM   23  O   UNK     0      -1.001  -1.120 -10.826  0.00  0.00    -0.273 OA
HETATM   24  H   UNK     0      -2.327   1.707 -10.680  0.00  0.00     0.169 HD
BRANCH  22  25
HETATM   25  C   UNK     0      -0.018   0.925 -11.437  0.00  0.00     0.118 C 
BRANCH  25  26
HETATM   26  C   UNK     0       1.353   0.395 -10.950  0.00  0.00     0.124 C 
HETATM   27 Cl   UNK     0       1.518   0.562  -9.206  0.00  0.00    -0.130 Cl
ENDBRANCH  25  26
ENDBRANCH  22  25
ENDBRANCH  11  21
TORSDOF 4
ENDMDL
MODEL 3
REMARK VINA RESULT:      -6.2      2.789      5.812
REMARK  4 active torsions:
REMARK  status: ('A' for Active; 'I' for Inactive)
REMARK    1  A    between atoms: C_11  and  N_14 
REMARK    2  A    between atoms: C_13  and  C_21 
REMARK       I    between atoms: N_14  and  C_15 
REMARK    3  A    between atoms: C_15  and  C_16 
REMARK    4  A    between atoms: C_16  and  C_17 
ROOT
HETATM    1  C   UNK     0       3.406  -8.195 -11.183  0.00  0.00     0.008 A 
HETATM    2  C   UNK     0       4.569  -7.663 -11.777  0.00  0.00     0.001 A 
HETATM    3  C   UNK     0       5.551  -7.031 -10.985  0.00  0.00     0.001 A 
HETATM    4  C   UNK     0       5.375  -6.913  -9.592  0.00  0.00     0.013 A 
HETATM    5  C   UNK     0       4.207  -7.443  -9.011  0.00  0.00    -0.019 A 
HETATM    6  C   UNK     0       3.236  -8.078  -9.790  0.00  0.00    -0.043 A 
HETATM    7  C   UNK     0       3.779  -7.470  -7.688  0.00  0.00    -0.016 A 
HETATM    8  C   UNK     0       2.537  -8.112  -7.618  0.00  0.00    -0.032 A 
HETATM    9  C   UNK     0       2.110  -8.552  -8.967  0.00  0.00     0.080 A 
HETATM   10  C   UNK     0       4.420  -6.985  -6.535  0.00  0.00     0.042 A 
HETATM   11  C   UNK     0       3.802  -7.146  -5.273  0.00  0.00     0.036 A 
HETATM   12  C   UNK     0       2.548  -7.804  -5.204  0.00  0.00     0.042 A 
HETATM   13  C   UNK     0       1.888  -8.287  -6.366  0.00  0.00    -0.016 A 
ENDROOT
BRANCH  13  14
HETATM   14  C   UNK     0       0.625  -8.933  -6.256  0.00  0.00    -0.023 A 
HETATM   15  C   UNK     0      -0.578  -8.226  -6.495  0.00  0.00     0.029 A 
HETATM   16  C   UNK     0      -1.811  -8.895  -6.404  0.00  0.00     0.088 A 
HETATM   17  N   UNK     0      -1.846 -10.209  -6.068  0.00  0.00    -0.375 N 
HETATM   18  C   UNK     0      -0.720 -10.921  -5.807  0.00  0.00     0.088 A 
HETATM   19  HN  UNK     0      -2.750 -10.678  -6.010  1.00  0.00     0.164 HD
HETATM   20  C   UNK     0       0.540 -10.298  -5.892  0.00  0.00     0.029 A 
ENDBRANCH  13  14
BRANCH  11  21
HETATM   21  N   UNK     0       4.388  -6.748  -4.100  0.00  0.00    -0.327 N 
HETATM   22  C   UNK     0       4.763  -5.488  -3.724  0.00  0.00     0.223 C 
HETATM   23  O   UNK     0       4.451  -4.469  -4.385  0.00  0.00    -0.273 OA
HETATM   24  H   UNK     0       4.547  -7.448  -3.446  0.00  0.00     0.169 HD
BRANCH  22  25
HETATM   25  C   UNK     0       5.552  -5.306  -2.487  0.00  0.00     0.118 C 
BRANCH  25  26
HETATM   26  C   UNK     0       6.342  -6.589  -2.128  0.00  0.00     0.124 C 
HETATM   27 Cl   UNK     0       5.430  -7.610  -1.022  0.00  0.00    -0.130 Cl
ENDBRANCH  25  26
ENDBRANCH  22  25
ENDBRANCH  11  21
TORSDOF 4
ENDMDL
MODEL 4
REMARK VINA RESULT:      -6.2     17.810     21.353
REMARK  4 active torsions:
REMARK  status: ('A' for Active; 'I' for Inactive)
REMARK    1  A    between atoms: C_11  and  N_14 
REMARK    2  A    between atoms: C_13  and  C_21 
REMARK       I    between atoms: N_14  and  C_15 
REMARK    3  A    between atoms: C_15  and  C_16 
REMARK    4  A    between atoms: C_16  and  C_17 
ROOT
HETATM    1  C   UNK     0       2.001   5.342   6.275  0.00  0.00     0.008 A 
HETATM    2  C   UNK     0       2.754   4.350   5.613  0.00  0.00     0.001 A 
HETATM    3  C   UNK     0       3.440   4.652   4.418  0.00  0.00     0.001 A 
HETATM    4  C   UNK     0       3.372   5.946   3.864  0.00  0.00     0.013 A 
HETATM    5  C   UNK     0       2.612   6.927   4.532  0.00  0.00    -0.019 A 
HETATM    6  C   UNK     0       1.938   6.635   5.721  0.00  0.00    -0.043 A 
HETATM    7  C   UNK     0       2.373   8.261   4.221  0.00  0.00    -0.016 A 
HETATM    8  C   UNK     0       1.544   8.822   5.200  0.00  0.00    -0.032 A 
HETATM    9  C   UNK     0       1.216   7.812   6.234  0.00  0.00     0.080 A 
HETATM   10  C   UNK     0       2.853   9.023   3.142  0.00  0.00     0.042 A 
HETATM   11  C   UNK     0       2.495  10.388   3.038  0.00  0.00     0.036 A 
HETATM   12  C   UNK     0       1.663  10.955   4.036  0.00  0.00     0.042 A 
HETATM   13  C   UNK     0       1.164  10.188   5.124  0.00  0.00    -0.016 A 
ENDROOT
BRANCH  13  14
HETATM   14  C   UNK     0       0.323  10.792   6.099  0.00  0.00    -0.023 A 
HETATM   15  C   UNK     0       0.843  11.223   7.344  0.00  0.00     0.029 A 
HETATM   16  C   UNK     0      -0.006  11.840   8.279  0.00  0.00     0.088 A 
HETATM   17  N   UNK     0      -1.323  12.002   7.996  0.00  0.00    -0.375 N 
HETATM   18  C   UNK     0      -1.870  11.582   6.826  0.00  0.00     0.088 A 
HETATM   19  HN  UNK     0      -1.923  12.454   8.685  1.00  0.00     0.164 HD
HETATM   20  C   UNK     0      -1.061  10.965   5.853  0.00  0.00     0.029 A 
ENDBRANCH  13  14
BRANCH  11  21
HETATM   21  N   UNK     0       2.966  11.208   2.047  0.00  0.00    -0.327 N 
HETATM   22  C   UNK     0       4.151  11.887   1.999  0.00  0.00     0.223 C 
HETATM   23  O   UNK     0       5.067  11.702   2.836  0.00  0.00    -0.273 OA
HETATM   24  H   UNK     0       2.389  11.311   1.272  0.00  0.00     0.169 HD
BRANCH  22  25
HETATM   25  C   UNK     0       4.381  12.868   0.916  0.00  0.00     0.118 C 
BRANCH  25  26
HETATM   26  C   UNK     0       3.353  12.695  -0.229  0.00  0.00     0.124 C 
HETATM   27 Cl   UNK     0       4.014  11.719  -1.536  0.00  0.00    -0.130 Cl
ENDBRANCH  25  26
ENDBRANCH  22  25
ENDBRANCH  11  21
TORSDOF 4
ENDMDL
MODEL 5
REMARK VINA RESULT:      -6.2     10.019     11.681
REMARK  4 active torsions:
REMARK  status: ('A' for Active; 'I' for Inactive)
REMARK    1  A    between atoms: C_11  and  N_14 
REMARK    2  A    between atoms: C_13  and  C_21 
REMARK       I    between atoms: N_14  and  C_15 
REMARK    3  A    between atoms: C_15  and  C_16 
REMARK    4  A    between atoms: C_16  and  C_17 
ROOT
HETATM    1  C   UNK     0      -7.776  -4.531  -9.586  0.00  0.00     0.008 A 
HETATM    2  C   UNK     0      -7.785  -5.179 -10.839  0.00  0.00     0.001 A 
HETATM    3  C   UNK     0      -6.907  -4.765 -11.864  0.00  0.00     0.001 A 
HETATM    4  C   UNK     0      -6.019  -3.692 -11.651  0.00  0.00     0.013 A 
HETATM    5  C   UNK     0      -6.025  -3.049 -10.397  0.00  0.00    -0.019 A 
HETATM    6  C   UNK     0      -6.885  -3.461  -9.376  0.00  0.00    -0.043 A 
HETATM    7  C   UNK     0      -5.271  -1.983  -9.917  0.00  0.00    -0.016 A 
HETATM    8  C   UNK     0      -5.650  -1.707  -8.599  0.00  0.00    -0.032 A 
HETATM    9  C   UNK     0      -6.710  -2.646  -8.162  0.00  0.00     0.080 A 
HETATM   10  C   UNK     0      -4.256  -1.251 -10.557  0.00  0.00     0.042 A 
HETATM   11  C   UNK     0      -3.599  -0.211  -9.859  0.00  0.00     0.036 A 
HETATM   12  C   UNK     0      -3.980   0.060  -8.521  0.00  0.00     0.042 A 
HETATM   13  C   UNK     0      -5.013  -0.668  -7.870  0.00  0.00    -0.016 A 
ENDROOT
BRANCH  13  14
HETATM   14  C   UNK     0      -5.372  -0.357  -6.529  0.00  0.00    -0.023 A 
HETATM   15  C   UNK     0      -6.668  -0.645  -6.037  0.00  0.00     0.029 A 
HETATM   16  C   UNK     0      -6.988  -0.351  -4.700  0.00  0.00     0.088 A 
HETATM   17  N   UNK     0      -6.063   0.225  -3.892  0.00  0.00    -0.375 N 
HETATM   18  C   UNK     0      -4.816   0.541  -4.327  0.00  0.00     0.088 A 
HETATM   19  HN  UNK     0      -6.313   0.428  -2.924  1.00  0.00     0.164 HD
HETATM   20  C   UNK     0      -4.444   0.260  -5.656  0.00  0.00     0.029 A 
ENDBRANCH  13  14
BRANCH  11  21
HETATM   21  N   UNK     0      -2.566   0.511 -10.396  0.00  0.00    -0.327 N 
HETATM   22  C   UNK     0      -1.344   0.062 -10.812  0.00  0.00     0.223 C 
HETATM   23  O   UNK     0      -1.071  -1.159 -10.900  0.00  0.00    -0.273 OA
HETATM   24  H   UNK     0      -2.726   1.462 -10.508  0.00  0.00     0.169 HD
BRANCH  22  25
HETATM   25  C   UNK     0      -0.302   1.042 -11.190  0.00  0.00     0.118 C 
BRANCH  25  26
HETATM   26  C   UNK     0       1.060   0.695 -10.541  0.00  0.00     0.124 C 
HETATM   27 Cl   UNK     0       2.076   2.124 -10.390  0.00  0.00    -0.130 Cl
ENDBRANCH  25  26
ENDBRANCH  22  25
ENDBRANCH  11  21
TORSDOF 4
ENDMDL
MODEL 6
REMARK VINA RESULT:      -6.1      2.130      5.102
REMARK  4 active torsions:
REMARK  status: ('A' for Active; 'I' for Inactive)
REMARK    1  A    between atoms: C_11  and  N_14 
REMARK    2  A    between atoms: C_13  and  C_21 
REMARK       I    between atoms: N_14  and  C_15 
REMARK    3  A    between atoms: C_15  and  C_16 
REMARK    4  A    between atoms: C_16  and  C_17 
ROOT
HETATM    1  C   UNK     0       6.411  -5.095  -5.009  0.00  0.00     0.008 A 
HETATM    2  C   UNK     0       6.213  -4.613  -3.698  0.00  0.00     0.001 A 
HETATM    3  C   UNK     0       5.078  -5.003  -2.957  0.00  0.00     0.001 A 
HETATM    4  C   UNK     0       4.122  -5.871  -3.522  0.00  0.00     0.013 A 
HETATM    5  C   UNK     0       4.328  -6.341  -4.834  0.00  0.00    -0.019 A 
HETATM    6  C   UNK     0       5.455  -5.965  -5.569  0.00  0.00    -0.043 A 
HETATM    7  C   UNK     0       3.565  -7.192  -5.626  0.00  0.00    -0.016 A 
HETATM    8  C   UNK     0       4.194  -7.354  -6.866  0.00  0.00    -0.032 A 
HETATM    9  C   UNK     0       5.457  -6.580  -6.907  0.00  0.00     0.080 A 
HETATM   10  C   UNK     0       2.361  -7.850  -5.323  0.00  0.00     0.042 A 
HETATM   11  C   UNK     0       1.767  -8.698  -6.287  0.00  0.00     0.036 A 
HETATM   12  C   UNK     0       2.411  -8.868  -7.538  0.00  0.00     0.042 A 
HETATM   13  C   UNK     0       3.623  -8.197  -7.858  0.00  0.00    -0.016 A 
ENDROOT
BRANCH  13  14
HETATM   14  C   UNK     0       4.232  -8.385  -9.129  0.00  0.00    -0.023 A 
HETATM   15  C   UNK     0       5.089  -9.487  -9.370  0.00  0.00     0.029 A 
HETATM   16  C   UNK     0       5.657  -9.663 -10.644  0.00  0.00     0.088 A 
HETATM   17  N   UNK     0       5.401  -8.768 -11.631  0.00  0.00    -0.375 N 
HETATM   18  C   UNK     0       4.606  -7.684 -11.438  0.00  0.00     0.088 A 
HETATM   19  HN  UNK     0       5.820  -8.914 -12.549  1.00  0.00     0.164 HD
HETATM   20  C   UNK     0       4.007  -7.467 -10.182  0.00  0.00     0.029 A 
ENDBRANCH  13  14
BRANCH  11  21
HETATM   21  N   UNK     0       0.624  -9.415  -6.046  0.00  0.00    -0.327 N 
HETATM   22  C   UNK     0      -0.651  -8.949  -5.885  0.00  0.00     0.223 C 
HETATM   23  O   UNK     0      -0.963  -7.755  -6.110  0.00  0.00    -0.273 OA
HETATM   24  H   UNK     0       0.731 -10.379  -5.994  0.00  0.00     0.169 HD
BRANCH  22  25
HETATM   25  C   UNK     0      -1.712  -9.880  -5.445  0.00  0.00     0.118 C 
BRANCH  25  26
HETATM   26  C   UNK     0      -2.734  -9.174  -4.521  0.00  0.00     0.124 C 
HETATM   27 Cl   UNK     0      -4.106 -10.221  -4.172  0.00  0.00    -0.130 Cl
ENDBRANCH  25  26
ENDBRANCH  22  25
ENDBRANCH  11  21
TORSDOF 4
ENDMDL
MODEL 7
REMARK VINA RESULT:      -6.0     11.010     12.729
REMARK  4 active torsions:
REMARK  status: ('A' for Active; 'I' for Inactive)
REMARK    1  A    between atoms: C_11  and  N_14 
REMARK    2  A    between atoms: C_13  and  C_21 
REMARK       I    between atoms: N_14  and  C_15 
REMARK    3  A    between atoms: C_15  and  C_16 
REMARK    4  A    between atoms: C_16  and  C_17 
ROOT
HETATM    1  C   UNK     0      -9.398   0.221 -10.572  0.00  0.00     0.008 A 
HETATM    2  C   UNK     0      -9.790   0.614 -11.869  0.00  0.00     0.001 A 
HETATM    3  C   UNK     0      -8.831   1.068 -12.799  0.00  0.00     0.001 A 
HETATM    4  C   UNK     0      -7.470   1.146 -12.439  0.00  0.00     0.013 A 
HETATM    5  C   UNK     0      -7.092   0.757 -11.139  0.00  0.00    -0.019 A 
HETATM    6  C   UNK     0      -8.037   0.298 -10.217  0.00  0.00    -0.043 A 
HETATM    7  C   UNK     0      -5.846   0.730 -10.523  0.00  0.00    -0.016 A 
HETATM    8  C   UNK     0      -5.990   0.263  -9.211  0.00  0.00    -0.032 A 
HETATM    9  C   UNK     0      -7.411  -0.052  -8.931  0.00  0.00     0.080 A 
HETATM   10  C   UNK     0      -4.587   1.069 -11.047  0.00  0.00     0.042 A 
HETATM   11  C   UNK     0      -3.435   0.939 -10.235  0.00  0.00     0.036 A 
HETATM   12  C   UNK     0      -3.583   0.458  -8.910  0.00  0.00     0.042 A 
HETATM   13  C   UNK     0      -4.854   0.123  -8.369  0.00  0.00    -0.016 A 
ENDROOT
BRANCH  13  14
HETATM   14  C   UNK     0      -4.961  -0.346  -7.031  0.00  0.00    -0.023 A 
HETATM   15  C   UNK     0      -5.476  -1.636  -6.749  0.00  0.00     0.029 A 
HETATM   16  C   UNK     0      -5.546  -2.084  -5.418  0.00  0.00     0.088 A 
HETATM   17  N   UNK     0      -5.142  -1.274  -4.408  0.00  0.00    -0.375 N 
HETATM   18  C   UNK     0      -4.666  -0.022  -4.628  0.00  0.00     0.088 A 
HETATM   19  HN  UNK     0      -5.198  -1.617  -3.449  1.00  0.00     0.164 HD
HETATM   20  C   UNK     0      -4.568   0.471  -5.944  0.00  0.00     0.029 A 
ENDBRANCH  13  14
BRANCH  11  21
HETATM   21  N   UNK     0      -2.169   1.199 -10.691  0.00  0.00    -0.327 N 
HETATM   22  C   UNK     0      -1.213   0.309 -11.093  0.00  0.00     0.223 C 
HETATM   23  O   UNK     0      -1.454  -0.912 -11.249  0.00  0.00    -0.273 OA
HETATM   24  H   UNK     0      -1.923   2.137 -10.747  0.00  0.00     0.169 HD
BRANCH  22  25
HETATM   25  C   UNK     0       0.156   0.794 -11.372  0.00  0.00     0.118 C 
BRANCH  25  26
HETATM   26  C   UNK     0       1.219  -0.068 -10.648  0.00  0.00     0.124 C 
HETATM   27 Cl   UNK     0       1.684   0.654  -9.111  0.00  0.00    -0.130 Cl
ENDBRANCH  25  26
ENDBRANCH  22  25
ENDBRANCH  11  21
TORSDOF 4
ENDMDL
MODEL 8
REMARK VINA RESULT:      -5.9      3.349      6.842
REMARK  4 active torsions:
REMARK  status: ('A' for Active; 'I' for Inactive)
REMARK    1  A    between atoms: C_11  and  N_14 
REMARK    2  A    between atoms: C_13  and  C_21 
REMARK       I    between atoms: N_14  and  C_15 
REMARK    3  A    between atoms: C_15  and  C_16 
REMARK    4  A    between atoms: C_16  and  C_17 
ROOT
HETATM    1  C   UNK     0       4.639  -5.726  -3.113  0.00  0.00     0.008 A 
HETATM    2  C   UNK     0       5.805  -4.935  -3.057  0.00  0.00     0.001 A 
HETATM    3  C   UNK     0       6.553  -4.679  -4.227  0.00  0.00     0.001 A 
HETATM    4  C   UNK     0       6.148  -5.221  -5.463  0.00  0.00     0.013 A 
HETATM    5  C   UNK     0       4.985  -6.014  -5.505  0.00  0.00    -0.019 A 
HETATM    6  C   UNK     0       4.236  -6.263  -4.351  0.00  0.00    -0.043 A 
HETATM    7  C   UNK     0       4.364  -6.664  -6.566  0.00  0.00    -0.016 A 
HETATM    8  C   UNK     0       3.227  -7.332  -6.096  0.00  0.00    -0.032 A 
HETATM    9  C   UNK     0       3.067  -7.111  -4.639  0.00  0.00     0.080 A 
HETATM   10  C   UNK     0       4.720  -6.690  -7.925  0.00  0.00     0.042 A 
HETATM   11  C   UNK     0       3.916  -7.405  -8.844  0.00  0.00     0.036 A 
HETATM   12  C   UNK     0       2.761  -8.074  -8.366  0.00  0.00     0.042 A 
HETATM   13  C   UNK     0       2.400  -8.062  -6.991  0.00  0.00    -0.016 A 
ENDROOT
BRANCH  13  14
HETATM   14  C   UNK     0       1.239  -8.754  -6.550  0.00  0.00    -0.023 A 
HETATM   15  C   UNK     0      -0.040  -8.148  -6.613  0.00  0.00     0.029 A 
HETATM   16  C   UNK     0      -1.174  -8.865  -6.194  0.00  0.00     0.088 A 
HETATM   17  N   UNK     0      -1.039 -10.126  -5.713  0.00  0.00    -0.375 N 
HETATM   18  C   UNK     0       0.168 -10.739  -5.612  0.00  0.00     0.088 A 
HETATM   19  HN  UNK     0      -1.874 -10.632  -5.417  1.00  0.00     0.164 HD
HETATM   20  C   UNK     0       1.334 -10.066  -6.025  0.00  0.00     0.029 A 
ENDBRANCH  13  14
BRANCH  11  21
HETATM   21  N   UNK     0       4.169  -7.433 -10.190  0.00  0.00    -0.327 N 
HETATM   22  C   UNK     0       4.906  -8.343 -10.896  0.00  0.00     0.223 C 
HETATM   23  O   UNK     0       5.329  -9.407 -10.385  0.00  0.00    -0.273 OA
HETATM   24  H   UNK     0       3.763  -6.723 -10.713  0.00  0.00     0.169 HD
BRANCH  22  25
HETATM   25  C   UNK     0       5.208  -8.081 -12.321  0.00  0.00     0.118 C 
BRANCH  25  26
HETATM   26  C   UNK     0       5.336  -6.564 -12.601  0.00  0.00     0.124 C 
HETATM   27 Cl   UNK     0       3.978  -5.975 -13.553  0.00  0.00    -0.130 Cl
ENDBRANCH  25  26
ENDBRANCH  22  25
ENDBRANCH  11  21
TORSDOF 4
ENDMDL
MODEL 9
REMARK VINA RESULT:      -5.9     11.519     12.192
REMARK  4 active torsions:
REMARK  status: ('A' for Active; 'I' for Inactive)
REMARK    1  A    between atoms: C_11  and  N_14 
REMARK    2  A    between atoms: C_13  and  C_21 
REMARK       I    between atoms: N_14  and  C_15 
REMARK    3  A    between atoms: C_15  and  C_16 
REMARK    4  A    between atoms: C_16  and  C_17 
ROOT
HETATM    1  C   UNK     0      -3.561   4.855 -13.137  0.00  0.00     0.008 A 
HETATM    2  C   UNK     0      -4.703   5.676 -13.033  0.00  0.00     0.001 A 
HETATM    3  C   UNK     0      -5.759   5.323 -12.165  0.00  0.00     0.001 A 
HETATM    4  C   UNK     0      -5.689   4.141 -11.402  0.00  0.00     0.013 A 
HETATM    5  C   UNK     0      -4.546   3.326 -11.520  0.00  0.00    -0.019 A 
HETATM    6  C   UNK     0      -3.494   3.676 -12.371  0.00  0.00    -0.043 A 
HETATM    7  C   UNK     0      -4.214   2.127 -10.899  0.00  0.00    -0.016 A 
HETATM    8  C   UNK     0      -2.959   1.704 -11.354  0.00  0.00    -0.032 A 
HETATM    9  C   UNK     0      -2.410   2.679 -12.327  0.00  0.00     0.080 A 
HETATM   10  C   UNK     0      -4.933   1.391  -9.943  0.00  0.00     0.042 A 
HETATM   11  C   UNK     0      -4.383   0.195  -9.424  0.00  0.00     0.036 A 
HETATM   12  C   UNK     0      -3.109  -0.226  -9.880  0.00  0.00     0.042 A 
HETATM   13  C   UNK     0      -2.379   0.507 -10.856  0.00  0.00    -0.016 A 
ENDROOT
BRANCH  13  14
HETATM   14  C   UNK     0      -1.108   0.045 -11.295  0.00  0.00    -0.023 A 
HETATM   15  C   UNK     0      -0.971  -0.660 -12.516  0.00  0.00     0.029 A 
HETATM   16  C   UNK     0       0.302  -1.082 -12.938  0.00  0.00     0.088 A 
HETATM   17  N   UNK     0       1.390  -0.833 -12.168  0.00  0.00    -0.375 N 
HETATM   18  C   UNK     0       1.303  -0.182 -10.979  0.00  0.00     0.088 A 
HETATM   19  HN  UNK     0       2.305  -1.144 -12.492  1.00  0.00     0.164 HD
HETATM   20  C   UNK     0       0.052   0.268 -10.514  0.00  0.00     0.029 A 
ENDBRANCH  13  14
BRANCH  11  21
HETATM   21  N   UNK     0      -5.000  -0.548  -8.452  0.00  0.00    -0.327 N 
HETATM   22  C   UNK     0      -4.761  -0.550  -7.106  0.00  0.00     0.223 C 
HETATM   23  O   UNK     0      -4.014   0.294  -6.555  0.00  0.00    -0.273 OA
HETATM   24  H   UNK     0      -5.707  -1.142  -8.756  0.00  0.00     0.169 HD
BRANCH  22  25
HETATM   25  C   UNK     0      -5.414  -1.569  -6.256  0.00  0.00     0.118 C 
BRANCH  25  26
HETATM   26  C   UNK     0      -5.349  -1.180  -4.759  0.00  0.00     0.124 C 
HETATM   27 Cl   UNK     0      -6.825  -0.370  -4.247  0.00  0.00    -0.130 Cl
ENDBRANCH  25  26
ENDBRANCH  22  25
ENDBRANCH  11  21
TORSDOF 4
ENDMDL
