MODEL 1
REMARK VINA RESULT:      -6.5      0.000      0.000
REMARK  4 active torsions:
REMARK  status: ('A' for Active; 'I' for Inactive)
REMARK    1  A    between atoms: C_11  and  N_14 
REMARK    2  A    between atoms: C_13  and  C_21 
REMARK       I    between atoms: N_14  and  C_15 
REMARK    3  A    between atoms: C_15  and  C_16 
REMARK    4  A    between atoms: C_16  and  C_17 
ROOT
HETATM    1  C   UNK     0       5.180  -6.980 -10.056  0.00  0.00     0.016 A 
HETATM    2  C   UNK     0       4.762  -7.457 -11.316  0.00  0.00     0.001 A 
HETATM    3  C   UNK     0       3.593  -8.243 -11.434  0.00  0.00     0.001 A 
HETATM    4  C   UNK     0       2.821  -8.555 -10.294  0.00  0.00     0.013 A 
HETATM    5  C   UNK     0       3.241  -8.062  -9.043  0.00  0.00    -0.011 A 
HETATM    6  C   UNK     0       4.404  -7.297  -8.925  0.00  0.00     0.026 A 
HETATM    7  C   UNK     0       2.692  -8.190  -7.766  0.00  0.00    -0.008 A 
HETATM    8  C   UNK     0       3.532  -7.544  -6.850  0.00  0.00     0.037 A 
HETATM    9  C   UNK     0       4.587  -6.966  -7.581  0.00  0.00     0.195 A 
HETATM   10  C   UNK     0       1.505  -8.815  -7.357  0.00  0.00     0.043 A 
HETATM   11  C   UNK     0       1.156  -8.815  -5.985  0.00  0.00     0.036 A 
HETATM   12  C   UNK     0       2.024  -8.179  -5.063  0.00  0.00     0.043 A 
HETATM   13  C   UNK     0       3.228  -7.542  -5.466  0.00  0.00    -0.009 A 
HETATM   14  O   UNK     0       5.522  -6.258  -7.142  0.00  0.00    -0.287 OA
ENDROOT
BRANCH  13  15
HETATM   15  C   UNK     0       4.082  -6.948  -4.494  0.00  0.00    -0.022 A 
HETATM   16  C   UNK     0       3.926  -5.591  -4.120  0.00  0.00     0.029 A 
HETATM   17  C   UNK     0       4.793  -5.029  -3.167  0.00  0.00     0.088 A 
HETATM   18  N   UNK     0       5.779  -5.786  -2.621  0.00  0.00    -0.375 N 
HETATM   19  C   UNK     0       5.966  -7.088  -2.953  0.00  0.00     0.088 A 
HETATM   20  HN  UNK     0       6.403  -5.359  -1.936  1.00  0.00     0.164 HD
HETATM   21  C   UNK     0       5.118  -7.701  -3.894  0.00  0.00     0.029 A 
ENDBRANCH  13  15
BRANCH  11  22
HETATM   22  N   UNK     0       0.008  -9.373  -5.492  0.00  0.00    -0.327 N 
HETATM   23  C   UNK     0      -1.238  -8.813  -5.420  0.00  0.00     0.223 C 
HETATM   24  O   UNK     0      -1.499  -7.686  -5.903  0.00  0.00    -0.273 OA
HETATM   25  H   UNK     0       0.083 -10.287  -5.177  0.00  0.00     0.169 HD
BRANCH  23  26
HETATM   26  C   UNK     0      -2.341  -9.567  -4.787  0.00  0.00     0.118 C 
BRANCH  26  27
HETATM   27  C   UNK     0      -3.463  -9.911  -5.795  0.00  0.00     0.124 C 
HETATM   28 Cl   UNK     0      -2.801 -10.605  -7.271  0.00  0.00    -0.130 Cl
ENDBRANCH  26  27
ENDBRANCH  23  26
ENDBRANCH  11  22
TORSDOF 4
ENDMDL
MODEL 2
REMARK VINA RESULT:      -6.5      9.926     12.940
REMARK  4 active torsions:
REMARK  status: ('A' for Active; 'I' for Inactive)
REMARK    1  A    between atoms: C_11  and  N_14 
REMARK    2  A    between atoms: C_13  and  C_21 
REMARK       I    between atoms: N_14  and  C_15 
REMARK    3  A    between atoms: C_15  and  C_16 
REMARK    4  A    between atoms: C_16  and  C_17 
ROOT
HETATM    1  C   UNK     0      -6.973  -0.802  -5.070  0.00  0.00     0.016 A 
HETATM    2  C   UNK     0      -6.397  -0.188  -3.937  0.00  0.00     0.001 A 
HETATM    3  C   UNK     0      -5.159   0.485  -4.038  0.00  0.00     0.001 A 
HETATM    4  C   UNK     0      -4.482   0.562  -5.274  0.00  0.00     0.013 A 
HETATM    5  C   UNK     0      -5.073  -0.043  -6.401  0.00  0.00    -0.011 A 
HETATM    6  C   UNK     0      -6.290  -0.721  -6.298  0.00  0.00     0.026 A 
HETATM    7  C   UNK     0      -4.658  -0.123  -7.731  0.00  0.00    -0.008 A 
HETATM    8  C   UNK     0      -5.592  -0.884  -8.446  0.00  0.00     0.037 A 
HETATM    9  C   UNK     0      -6.622  -1.234  -7.553  0.00  0.00     0.195 A 
HETATM   10  C   UNK     0      -3.535   0.437  -8.358  0.00  0.00     0.043 A 
HETATM   11  C   UNK     0      -3.325   0.210  -9.740  0.00  0.00     0.036 A 
HETATM   12  C   UNK     0      -4.263  -0.581 -10.449  0.00  0.00     0.043 A 
HETATM   13  C   UNK     0      -5.404  -1.151  -9.825  0.00  0.00    -0.009 A 
HETATM   14  O   UNK     0      -7.671  -1.868  -7.809  0.00  0.00    -0.287 OA
ENDROOT
BRANCH  13  15
HETATM   15  C   UNK     0      -6.296  -1.966 -10.577  0.00  0.00    -0.022 A 
HETATM   16  C   UNK     0      -6.126  -3.370 -10.635  0.00  0.00     0.029 A 
HETATM   17  C   UNK     0      -7.016  -4.148 -11.398  0.00  0.00     0.088 A 
HETATM   18  N   UNK     0      -8.023  -3.547 -12.081  0.00  0.00    -0.375 N 
HETATM   19  C   UNK     0      -8.221  -2.204 -12.056  0.00  0.00     0.088 A 
HETATM   20  HN  UNK     0      -8.655  -4.126 -12.634  1.00  0.00     0.164 HD
HETATM   21  C   UNK     0      -7.365  -1.384 -11.299  0.00  0.00     0.029 A 
ENDBRANCH  13  15
BRANCH  11  22
HETATM   22  N   UNK     0      -2.276   0.734 -10.446  0.00  0.00    -0.327 N 
HETATM   23  C   UNK     0      -1.135   0.102 -10.854  0.00  0.00     0.223 C 
HETATM   24  O   UNK     0      -0.949  -1.127 -10.688  0.00  0.00    -0.273 OA
HETATM   25  H   UNK     0      -2.366   1.664 -10.708  0.00  0.00     0.169 HD
BRANCH  23  26
HETATM   26  C   UNK     0      -0.086   0.870 -11.556  0.00  0.00     0.118 C 
BRANCH  26  27
HETATM   27  C   UNK     0       1.337   0.384 -11.188  0.00  0.00     0.124 C 
HETATM   28 Cl   UNK     0       1.687   0.674  -9.487  0.00  0.00    -0.130 Cl
ENDBRANCH  26  27
ENDBRANCH  23  26
ENDBRANCH  11  22
TORSDOF 4
ENDMDL
MODEL 3
REMARK VINA RESULT:      -6.4      3.083      6.774
REMARK  4 active torsions:
REMARK  status: ('A' for Active; 'I' for Inactive)
REMARK    1  A    between atoms: C_11  and  N_14 
REMARK    2  A    between atoms: C_13  and  C_21 
REMARK       I    between atoms: N_14  and  C_15 
REMARK    3  A    between atoms: C_15  and  C_16 
REMARK    4  A    between atoms: C_16  and  C_17 
ROOT
HETATM    1  C   UNK     0       4.764  -5.509  -3.225  0.00  0.00     0.016 A 
HETATM    2  C   UNK     0       5.962  -4.767  -3.170  0.00  0.00     0.001 A 
HETATM    3  C   UNK     0       6.760  -4.604  -4.325  0.00  0.00     0.001 A 
HETATM    4  C   UNK     0       6.365  -5.173  -5.555  0.00  0.00     0.013 A 
HETATM    5  C   UNK     0       5.160  -5.902  -5.601  0.00  0.00    -0.011 A 
HETATM    6  C   UNK     0       4.380  -6.075  -4.456  0.00  0.00     0.026 A 
HETATM    7  C   UNK     0       4.516  -6.558  -6.651  0.00  0.00    -0.008 A 
HETATM    8  C   UNK     0       3.361  -7.174  -6.154  0.00  0.00     0.037 A 
HETATM    9  C   UNK     0       3.266  -6.848  -4.788  0.00  0.00     0.195 A 
HETATM   10  C   UNK     0       4.862  -6.637  -8.009  0.00  0.00     0.043 A 
HETATM   11  C   UNK     0       4.039  -7.375  -8.893  0.00  0.00     0.036 A 
HETATM   12  C   UNK     0       2.885  -8.013  -8.376  0.00  0.00     0.043 A 
HETATM   13  C   UNK     0       2.524  -7.939  -7.004  0.00  0.00    -0.009 A 
HETATM   14  O   UNK     0       2.351  -7.158  -3.991  0.00  0.00    -0.287 OA
ENDROOT
BRANCH  13  15
HETATM   15  C   UNK     0       1.373  -8.628  -6.530  0.00  0.00    -0.022 A 
HETATM   16  C   UNK     0       1.487  -9.897  -5.913  0.00  0.00     0.029 A 
HETATM   17  C   UNK     0       0.329 -10.559  -5.467  0.00  0.00     0.088 A 
HETATM   18  N   UNK     0      -0.888  -9.984  -5.641  0.00  0.00    -0.375 N 
HETATM   19  C   UNK     0      -1.043  -8.771  -6.229  0.00  0.00     0.088 A 
HETATM   20  HN  UNK     0      -1.717 -10.482  -5.316  1.00  0.00     0.164 HD
HETATM   21  C   UNK     0       0.085  -8.063  -6.683  0.00  0.00     0.029 A 
ENDBRANCH  13  15
BRANCH  11  22
HETATM   22  N   UNK     0       4.276  -7.488 -10.237  0.00  0.00    -0.327 N 
HETATM   23  C   UNK     0       5.135  -8.342 -10.871  0.00  0.00     0.223 C 
HETATM   24  O   UNK     0       5.779  -9.228 -10.261  0.00  0.00    -0.273 OA
HETATM   25  H   UNK     0       3.753  -6.906 -10.810  0.00  0.00     0.169 HD
BRANCH  23  26
HETATM   26  C   UNK     0       5.294  -8.261 -12.339  0.00  0.00     0.118 C 
BRANCH  26  27
HETATM   27  C   UNK     0       5.590  -6.818 -12.813  0.00  0.00     0.124 C 
HETATM   28 Cl   UNK     0       4.136  -6.039 -13.428  0.00  0.00    -0.130 Cl
ENDBRANCH  26  27
ENDBRANCH  23  26
ENDBRANCH  11  22
TORSDOF 4
ENDMDL
MODEL 4
REMARK VINA RESULT:      -6.3      1.384      1.472
REMARK  4 active torsions:
REMARK  status: ('A' for Active; 'I' for Inactive)
REMARK    1  A    between atoms: C_11  and  N_14 
REMARK    2  A    between atoms: C_13  and  C_21 
REMARK       I    between atoms: N_14  and  C_15 
REMARK    3  A    between atoms: C_15  and  C_16 
REMARK    4  A    between atoms: C_16  and  C_17 
ROOT
HETATM    1  C   UNK     0       6.379  -6.561  -9.654  0.00  0.00     0.016 A 
HETATM    2  C   UNK     0       6.146  -6.980 -10.981  0.00  0.00     0.001 A 
HETATM    3  C   UNK     0       4.969  -7.688 -11.314  0.00  0.00     0.001 A 
HETATM    4  C   UNK     0       4.003  -7.978 -10.327  0.00  0.00     0.013 A 
HETATM    5  C   UNK     0       4.240  -7.544  -9.008  0.00  0.00    -0.011 A 
HETATM    6  C   UNK     0       5.410  -6.857  -8.676  0.00  0.00     0.026 A 
HETATM    7  C   UNK     0       3.482  -7.669  -7.842  0.00  0.00    -0.008 A 
HETATM    8  C   UNK     0       4.196  -7.100  -6.780  0.00  0.00     0.037 A 
HETATM    9  C   UNK     0       5.388  -6.571  -7.310  0.00  0.00     0.195 A 
HETATM   10  C   UNK     0       2.209  -8.228  -7.654  0.00  0.00     0.043 A 
HETATM   11  C   UNK     0       1.641  -8.240  -6.358  0.00  0.00     0.036 A 
HETATM   12  C   UNK     0       2.380  -7.683  -5.285  0.00  0.00     0.043 A 
HETATM   13  C   UNK     0       3.669  -7.113  -5.465  0.00  0.00    -0.009 A 
HETATM   14  O   UNK     0       6.277  -5.935  -6.700  0.00  0.00    -0.287 OA
ENDROOT
BRANCH  13  15
HETATM   15  C   UNK     0       4.384  -6.598  -4.347  0.00  0.00    -0.022 A 
HETATM   16  C   UNK     0       4.309  -5.227  -4.004  0.00  0.00     0.029 A 
HETATM   17  C   UNK     0       5.038  -4.745  -2.902  0.00  0.00     0.088 A 
HETATM   18  N   UNK     0       5.816  -5.594  -2.183  0.00  0.00    -0.375 N 
HETATM   19  C   UNK     0       5.919  -6.914  -2.479  0.00  0.00     0.088 A 
HETATM   20  HN  UNK     0       6.342  -5.226  -1.391  1.00  0.00     0.164 HD
HETATM   21  C   UNK     0       5.201  -7.448  -3.565  0.00  0.00     0.029 A 
ENDBRANCH  13  15
BRANCH  11  22
HETATM   22  N   UNK     0       0.397  -8.737  -6.078  0.00  0.00    -0.327 N 
HETATM   23  C   UNK     0       0.071  -9.982  -5.617  0.00  0.00     0.223 C 
HETATM   24  O   UNK     0       0.937 -10.832  -5.302  0.00  0.00    -0.273 OA
HETATM   25  H   UNK     0      -0.343  -8.120  -6.199  0.00  0.00     0.169 HD
BRANCH  23  26
HETATM   26  C   UNK     0      -1.351 -10.345  -5.438  0.00  0.00     0.118 C 
BRANCH  26  27
HETATM   27  C   UNK     0      -2.279  -9.108  -5.493  0.00  0.00     0.124 C 
HETATM   28 Cl   UNK     0      -3.054  -8.825  -3.938  0.00  0.00    -0.130 Cl
ENDBRANCH  26  27
ENDBRANCH  23  26
ENDBRANCH  11  22
TORSDOF 4
ENDMDL
MODEL 5
REMARK VINA RESULT:      -6.0      2.040      4.963
REMARK  4 active torsions:
REMARK  status: ('A' for Active; 'I' for Inactive)
REMARK    1  A    between atoms: C_11  and  N_14 
REMARK    2  A    between atoms: C_13  and  C_21 
REMARK       I    between atoms: N_14  and  C_15 
REMARK    3  A    between atoms: C_15  and  C_16 
REMARK    4  A    between atoms: C_16  and  C_17 
ROOT
HETATM    1  C   UNK     0       6.381  -5.048  -5.117  0.00  0.00     0.016 A 
HETATM    2  C   UNK     0       6.218  -4.512  -3.822  0.00  0.00     0.001 A 
HETATM    3  C   UNK     0       5.104  -4.875  -3.031  0.00  0.00     0.001 A 
HETATM    4  C   UNK     0       4.144  -5.786  -3.519  0.00  0.00     0.013 A 
HETATM    5  C   UNK     0       4.325  -6.325  -4.808  0.00  0.00    -0.011 A 
HETATM    6  C   UNK     0       5.418  -5.956  -5.596  0.00  0.00     0.026 A 
HETATM    7  C   UNK     0       3.567  -7.239  -5.544  0.00  0.00    -0.008 A 
HETATM    8  C   UNK     0       4.162  -7.405  -6.800  0.00  0.00     0.037 A 
HETATM    9  C   UNK     0       5.331  -6.621  -6.820  0.00  0.00     0.195 A 
HETATM   10  C   UNK     0       2.409  -7.943  -5.182  0.00  0.00     0.043 A 
HETATM   11  C   UNK     0       1.813  -8.825  -6.115  0.00  0.00     0.036 A 
HETATM   12  C   UNK     0       2.409  -8.969  -7.392  0.00  0.00     0.043 A 
HETATM   13  C   UNK     0       3.582  -8.262  -7.768  0.00  0.00    -0.009 A 
HETATM   14  O   UNK     0       6.175  -6.533  -7.740  0.00  0.00    -0.287 OA
ENDROOT
BRANCH  13  15
HETATM   15  C   UNK     0       4.120  -8.417  -9.077  0.00  0.00    -0.022 A 
HETATM   16  C   UNK     0       3.734  -7.553 -10.130  0.00  0.00     0.029 A 
HETATM   17  C   UNK     0       4.272  -7.740 -11.415  0.00  0.00     0.088 A 
HETATM   18  N   UNK     0       5.148  -8.752 -11.640  0.00  0.00    -0.375 N 
HETATM   19  C   UNK     0       5.543  -9.605 -10.661  0.00  0.00     0.088 A 
HETATM   20  HN  UNK     0       5.524  -8.876 -12.580  1.00  0.00     0.164 HD
HETATM   21  C   UNK     0       5.041  -9.454  -9.355  0.00  0.00     0.029 A 
ENDBRANCH  13  15
BRANCH  11  22
HETATM   22  N   UNK     0       0.700  -9.576  -5.847  0.00  0.00    -0.327 N 
HETATM   23  C   UNK     0      -0.590  -9.147  -5.697  0.00  0.00     0.223 C 
HETATM   24  O   UNK     0      -0.929  -7.954  -5.880  0.00  0.00    -0.273 OA
HETATM   25  H   UNK     0       0.841 -10.533  -5.779  0.00  0.00     0.169 HD
BRANCH  23  26
HETATM   26  C   UNK     0      -1.646 -10.119  -5.344  0.00  0.00     0.118 C 
BRANCH  26  27
HETATM   27  C   UNK     0      -2.861  -9.439  -4.668  0.00  0.00     0.124 C 
HETATM   28 Cl   UNK     0      -4.351 -10.309  -5.017  0.00  0.00    -0.130 Cl
ENDBRANCH  26  27
ENDBRANCH  23  26
ENDBRANCH  11  22
TORSDOF 4
ENDMDL
MODEL 6
REMARK VINA RESULT:      -6.0      3.116      6.011
REMARK  4 active torsions:
REMARK  status: ('A' for Active; 'I' for Inactive)
REMARK    1  A    between atoms: C_11  and  N_14 
REMARK    2  A    between atoms: C_13  and  C_21 
REMARK       I    between atoms: N_14  and  C_15 
REMARK    3  A    between atoms: C_15  and  C_16 
REMARK    4  A    between atoms: C_16  and  C_17 
ROOT
HETATM    1  C   UNK     0      -0.132  -9.516  -5.002  0.00  0.00     0.016 A 
HETATM    2  C   UNK     0      -1.085 -10.130  -5.842  0.00  0.00     0.001 A 
HETATM    3  C   UNK     0      -0.930 -10.097  -7.246  0.00  0.00     0.001 A 
HETATM    4  C   UNK     0       0.185  -9.457  -7.830  0.00  0.00     0.013 A 
HETATM    5  C   UNK     0       1.136  -8.858  -6.981  0.00  0.00    -0.011 A 
HETATM    6  C   UNK     0       0.975  -8.879  -5.593  0.00  0.00     0.026 A 
HETATM    7  C   UNK     0       2.322  -8.176  -7.256  0.00  0.00    -0.008 A 
HETATM    8  C   UNK     0       2.877  -7.736  -6.047  0.00  0.00     0.037 A 
HETATM    9  C   UNK     0       2.046  -8.199  -5.010  0.00  0.00     0.195 A 
HETATM   10  C   UNK     0       2.954  -7.931  -8.484  0.00  0.00     0.043 A 
HETATM   11  C   UNK     0       4.168  -7.203  -8.508  0.00  0.00     0.036 A 
HETATM   12  C   UNK     0       4.709  -6.742  -7.282  0.00  0.00     0.043 A 
HETATM   13  C   UNK     0       4.078  -6.985  -6.033  0.00  0.00    -0.009 A 
HETATM   14  O   UNK     0       2.218  -8.064  -3.777  0.00  0.00    -0.287 OA
ENDROOT
BRANCH  13  15
HETATM   15  C   UNK     0       4.647  -6.469  -4.834  0.00  0.00    -0.022 A 
HETATM   16  C   UNK     0       4.313  -5.175  -4.368  0.00  0.00     0.029 A 
HETATM   17  C   UNK     0       4.901  -4.688  -3.188  0.00  0.00     0.088 A 
HETATM   18  N   UNK     0       5.792  -5.456  -2.510  0.00  0.00    -0.375 N 
HETATM   19  C   UNK     0       6.143  -6.700  -2.922  0.00  0.00     0.088 A 
HETATM   20  HN  UNK     0       6.213  -5.083  -1.659  1.00  0.00     0.164 HD
HETATM   21  C   UNK     0       5.574  -7.238  -4.092  0.00  0.00     0.029 A 
ENDBRANCH  13  15
BRANCH  11  22
HETATM   22  N   UNK     0       4.873  -6.937  -9.651  0.00  0.00    -0.327 N 
HETATM   23  C   UNK     0       5.823  -7.713 -10.255  0.00  0.00     0.223 C 
HETATM   24  O   UNK     0       6.113  -8.863  -9.848  0.00  0.00    -0.273 OA
HETATM   25  H   UNK     0       4.653  -6.105 -10.100  0.00  0.00     0.169 HD
BRANCH  23  26
HETATM   26  C   UNK     0       6.518  -7.211 -11.459  0.00  0.00     0.118 C 
BRANCH  26  27
HETATM   27  C   UNK     0       7.947  -6.708 -11.139  0.00  0.00     0.124 C 
HETATM   28 Cl   UNK     0       8.064  -6.142  -9.476  0.00  0.00    -0.130 Cl
ENDBRANCH  26  27
ENDBRANCH  23  26
ENDBRANCH  11  22
TORSDOF 4
ENDMDL
MODEL 7
REMARK VINA RESULT:      -6.0     10.105     11.677
REMARK  4 active torsions:
REMARK  status: ('A' for Active; 'I' for Inactive)
REMARK    1  A    between atoms: C_11  and  N_14 
REMARK    2  A    between atoms: C_13  and  C_21 
REMARK       I    between atoms: N_14  and  C_15 
REMARK    3  A    between atoms: C_15  and  C_16 
REMARK    4  A    between atoms: C_16  and  C_17 
ROOT
HETATM    1  C   UNK     0      -4.332   0.749  -5.432  0.00  0.00     0.016 A 
HETATM    2  C   UNK     0      -4.948   0.636  -4.167  0.00  0.00     0.001 A 
HETATM    3  C   UNK     0      -5.978  -0.308  -3.953  0.00  0.00     0.001 A 
HETATM    4  C   UNK     0      -6.400  -1.159  -4.997  0.00  0.00     0.013 A 
HETATM    5  C   UNK     0      -5.768  -1.046  -6.251  0.00  0.00    -0.011 A 
HETATM    6  C   UNK     0      -4.760  -0.103  -6.467  0.00  0.00     0.026 A 
HETATM    7  C   UNK     0      -5.955  -1.742  -7.447  0.00  0.00    -0.008 A 
HETATM    8  C   UNK     0      -5.098  -1.206  -8.416  0.00  0.00     0.037 A 
HETATM    9  C   UNK     0      -4.335  -0.200  -7.793  0.00  0.00     0.195 A 
HETATM   10  C   UNK     0      -6.808  -2.818  -7.737  0.00  0.00     0.043 A 
HETATM   11  C   UNK     0      -6.821  -3.361  -9.044  0.00  0.00     0.036 A 
HETATM   12  C   UNK     0      -5.967  -2.796 -10.024  0.00  0.00     0.043 A 
HETATM   13  C   UNK     0      -5.098  -1.708  -9.741  0.00  0.00    -0.009 A 
HETATM   14  O   UNK     0      -3.418   0.486  -8.300  0.00  0.00    -0.287 OA
ENDROOT
BRANCH  13  15
HETATM   15  C   UNK     0      -4.286  -1.157 -10.771  0.00  0.00    -0.022 A 
HETATM   16  C   UNK     0      -4.745  -0.073 -11.558  0.00  0.00     0.029 A 
HETATM   17  C   UNK     0      -3.925   0.442 -12.578  0.00  0.00     0.088 A 
HETATM   18  N   UNK     0      -2.706  -0.110 -12.808  0.00  0.00    -0.375 N 
HETATM   19  C   UNK     0      -2.228  -1.151 -12.080  0.00  0.00     0.088 A 
HETATM   20  HN  UNK     0      -2.127   0.272 -13.556  1.00  0.00     0.164 HD
HETATM   21  C   UNK     0      -3.006  -1.695 -11.041  0.00  0.00     0.029 A 
ENDBRANCH  13  15
BRANCH  11  22
HETATM   22  N   UNK     0      -7.596  -4.425  -9.418  0.00  0.00    -0.327 N 
HETATM   23  C   UNK     0      -8.905  -4.418  -9.813  0.00  0.00     0.223 C 
HETATM   24  O   UNK     0      -9.556  -3.357  -9.966  0.00  0.00    -0.273 OA
HETATM   25  H   UNK     0      -7.154  -5.289  -9.425  0.00  0.00     0.169 HD
BRANCH  23  26
HETATM   26  C   UNK     0      -9.583  -5.695 -10.115  0.00  0.00     0.118 C 
BRANCH  26  27
HETATM   27  C   UNK     0      -9.518  -6.684  -8.927  0.00  0.00     0.124 C 
HETATM   28 Cl   UNK     0     -10.379  -6.053  -7.527  0.00  0.00    -0.130 Cl
ENDBRANCH  26  27
ENDBRANCH  23  26
ENDBRANCH  11  22
TORSDOF 4
ENDMDL
MODEL 8
REMARK VINA RESULT:      -6.0      2.959      4.369
REMARK  4 active torsions:
REMARK  status: ('A' for Active; 'I' for Inactive)
REMARK    1  A    between atoms: C_11  and  N_14 
REMARK    2  A    between atoms: C_13  and  C_21 
REMARK       I    between atoms: N_14  and  C_15 
REMARK    3  A    between atoms: C_15  and  C_16 
REMARK    4  A    between atoms: C_16  and  C_17 
ROOT
HETATM    1  C   UNK     0       6.229 -11.980  -3.907  0.00  0.00     0.016 A 
HETATM    2  C   UNK     0       6.125 -13.386  -3.846  0.00  0.00     0.001 A 
HETATM    3  C   UNK     0       4.900 -14.028  -4.136  0.00  0.00     0.001 A 
HETATM    4  C   UNK     0       3.764 -13.274  -4.500  0.00  0.00     0.013 A 
HETATM    5  C   UNK     0       3.883 -11.872  -4.570  0.00  0.00    -0.011 A 
HETATM    6  C   UNK     0       5.090 -11.236  -4.269  0.00  0.00     0.026 A 
HETATM    7  C   UNK     0       2.959 -10.880  -4.904  0.00  0.00    -0.008 A 
HETATM    8  C   UNK     0       3.575  -9.630  -4.772  0.00  0.00     0.037 A 
HETATM    9  C   UNK     0       4.913  -9.858  -4.399  0.00  0.00     0.195 A 
HETATM   10  C   UNK     0       1.628 -11.000  -5.332  0.00  0.00     0.043 A 
HETATM   11  C   UNK     0       0.881  -9.830  -5.614  0.00  0.00     0.036 A 
HETATM   12  C   UNK     0       1.507  -8.569  -5.454  0.00  0.00     0.043 A 
HETATM   13  C   UNK     0       2.854  -8.436  -5.023  0.00  0.00    -0.009 A 
HETATM   14  O   UNK     0       5.814  -9.005  -4.231  0.00  0.00    -0.287 OA
ENDROOT
BRANCH  13  15
HETATM   15  C   UNK     0       3.423  -7.144  -4.846  0.00  0.00    -0.022 A 
HETATM   16  C   UNK     0       4.085  -6.488  -5.912  0.00  0.00     0.029 A 
HETATM   17  C   UNK     0       4.649  -5.217  -5.702  0.00  0.00     0.088 A 
HETATM   18  N   UNK     0       4.565  -4.634  -4.479  0.00  0.00    -0.375 N 
HETATM   19  C   UNK     0       3.942  -5.228  -3.430  0.00  0.00     0.088 A 
HETATM   20  HN  UNK     0       4.985  -3.714  -4.344  1.00  0.00     0.164 HD
HETATM   21  C   UNK     0       3.353  -6.495  -3.591  0.00  0.00     0.029 A 
ENDBRANCH  13  15
BRANCH  11  22
HETATM   22  N   UNK     0      -0.412  -9.844  -6.062  0.00  0.00    -0.327 N 
HETATM   23  C   UNK     0      -1.541  -9.468  -5.388  0.00  0.00     0.223 C 
HETATM   24  O   UNK     0      -1.505  -8.960  -4.242  0.00  0.00    -0.273 OA
HETATM   25  H   UNK     0      -0.540 -10.134  -6.979  0.00  0.00     0.169 HD
BRANCH  23  26
HETATM   26  C   UNK     0      -2.861  -9.621  -6.034  0.00  0.00     0.118 C 
BRANCH  26  27
HETATM   27  C   UNK     0      -3.599 -10.895  -5.556  0.00  0.00     0.124 C 
HETATM   28 Cl   UNK     0      -4.732 -10.524  -4.260  0.00  0.00    -0.130 Cl
ENDBRANCH  26  27
ENDBRANCH  23  26
ENDBRANCH  11  22
TORSDOF 4
ENDMDL
MODEL 9
REMARK VINA RESULT:      -5.9      9.998     10.870
REMARK  4 active torsions:
REMARK  status: ('A' for Active; 'I' for Inactive)
REMARK    1  A    between atoms: C_11  and  N_14 
REMARK    2  A    between atoms: C_13  and  C_21 
REMARK       I    between atoms: N_14  and  C_15 
REMARK    3  A    between atoms: C_15  and  C_16 
REMARK    4  A    between atoms: C_16  and  C_17 
ROOT
HETATM    1  C   UNK     0      -4.546  -4.400 -13.373  0.00  0.00     0.016 A 
HETATM    2  C   UNK     0      -5.455  -5.476 -13.286  0.00  0.00     0.001 A 
HETATM    3  C   UNK     0      -6.315  -5.600 -12.171  0.00  0.00     0.001 A 
HETATM    4  C   UNK     0      -6.285  -4.645 -11.132  0.00  0.00     0.013 A 
HETATM    5  C   UNK     0      -5.383  -3.568 -11.236  0.00  0.00    -0.011 A 
HETATM    6  C   UNK     0      -4.523  -3.453 -12.331  0.00  0.00     0.026 A 
HETATM    7  C   UNK     0      -5.136  -2.484 -10.393  0.00  0.00    -0.008 A 
HETATM    8  C   UNK     0      -4.097  -1.719 -10.939  0.00  0.00     0.037 A 
HETATM    9  C   UNK     0      -3.734  -2.314 -12.161  0.00  0.00     0.195 A 
HETATM   10  C   UNK     0      -5.768  -2.113  -9.197  0.00  0.00     0.043 A 
HETATM   11  C   UNK     0      -5.332  -0.954  -8.511  0.00  0.00     0.036 A 
HETATM   12  C   UNK     0      -4.265  -0.200  -9.058  0.00  0.00     0.043 A 
HETATM   13  C   UNK     0      -3.619  -0.565 -10.270  0.00  0.00    -0.009 A 
HETATM   14  O   UNK     0      -2.881  -1.909 -12.984  0.00  0.00    -0.287 OA
ENDROOT
BRANCH  13  15
HETATM   15  C   UNK     0      -2.528   0.208 -10.758  0.00  0.00    -0.022 A 
HETATM   16  C   UNK     0      -1.191  -0.154 -10.466  0.00  0.00     0.029 A 
HETATM   17  C   UNK     0      -0.134   0.637 -10.951  0.00  0.00     0.088 A 
HETATM   18  N   UNK     0      -0.404   1.747 -11.684  0.00  0.00    -0.375 N 
HETATM   19  C   UNK     0      -1.670   2.132 -11.985  0.00  0.00     0.088 A 
HETATM   20  HN  UNK     0       0.375   2.313 -12.023  1.00  0.00     0.164 HD
HETATM   21  C   UNK     0      -2.761   1.368 -11.532  0.00  0.00     0.029 A 
ENDBRANCH  13  15
BRANCH  11  22
HETATM   22  N   UNK     0      -5.902  -0.496  -7.353  0.00  0.00    -0.327 N 
HETATM   23  C   UNK     0      -5.925  -1.103  -6.128  0.00  0.00     0.223 C 
HETATM   24  O   UNK     0      -5.317  -2.174  -5.895  0.00  0.00    -0.273 OA
HETATM   25  H   UNK     0      -6.321   0.377  -7.404  0.00  0.00     0.169 HD
BRANCH  23  26
HETATM   26  C   UNK     0      -6.655  -0.466  -5.012  0.00  0.00     0.118 C 
BRANCH  26  27
HETATM   27  C   UNK     0      -5.697   0.195  -3.992  0.00  0.00     0.124 C 
HETATM   28 Cl   UNK     0      -4.186   0.675  -4.757  0.00  0.00    -0.130 Cl
ENDBRANCH  26  27
ENDBRANCH  23  26
ENDBRANCH  11  22
TORSDOF 4
ENDMDL
