MODEL 1
REMARK VINA RESULT:      -6.8      0.000      0.000
REMARK  2 active torsions:
REMARK  status: ('A' for Active; 'I' for Inactive)
REMARK    1  A    between atoms: C_10  and  C_17 
REMARK    2  A    between atoms: C_12  and  N_14 
ROOT
HETATM    1  C   UNK     0       2.764  -7.509  -4.534  0.00  0.00     0.013 A 
HETATM    2  C   UNK     0       1.916  -8.273  -5.363  0.00  0.00     0.001 A 
HETATM    3  C   UNK     0       2.163  -8.365  -6.750  0.00  0.00     0.001 A 
HETATM    4  C   UNK     0       3.257  -7.689  -7.328  0.00  0.00     0.008 A 
HETATM    5  C   UNK     0       4.099  -6.928  -6.494  0.00  0.00    -0.043 A 
HETATM    6  C   UNK     0       3.856  -6.839  -5.119  0.00  0.00    -0.019 A 
HETATM    7  C   UNK     0       5.286  -6.155  -6.879  0.00  0.00     0.080 A 
HETATM    8  C   UNK     0       5.714  -5.617  -5.568  0.00  0.00    -0.032 A 
HETATM    9  C   UNK     0       4.834  -6.022  -4.556  0.00  0.00    -0.016 A 
HETATM   10  C   UNK     0       6.815  -4.771  -5.279  0.00  0.00    -0.016 A 
HETATM   11  C   UNK     0       6.963  -4.313  -3.944  0.00  0.00     0.042 A 
HETATM   12  C   UNK     0       6.054  -4.696  -2.932  0.00  0.00     0.027 A 
HETATM   13  C   UNK     0       4.991  -5.575  -3.231  0.00  0.00     0.042 A 
ENDROOT
BRANCH  10  14
HETATM   14  C   UNK     0       7.725  -4.354  -6.289  0.00  0.00    -0.023 A 
HETATM   15  C   UNK     0       9.080  -4.751  -6.242  0.00  0.00     0.029 A 
HETATM   16  C   UNK     0       9.979  -4.293  -7.223  0.00  0.00     0.090 A 
HETATM   17  N   UNK     0       9.564  -3.465  -8.232  0.00  0.00    -0.371 N 
HETATM   18  C   UNK     0       8.251  -3.084  -8.306  0.00  0.00     0.090 A 
HETATM   19  C   UNK     0      10.504  -3.021  -9.233  0.00  0.00     0.154 C 
HETATM   20  C   UNK     0       7.313  -3.524  -7.355  0.00  0.00     0.029 A 
ENDBRANCH  10  14
BRANCH  12  21
HETATM   21  N   UNK     0       6.187  -4.206  -1.683  0.00  0.00    -0.399 N 
HETATM   22  H   UNK     0       5.442  -4.249  -1.061  0.00  0.00     0.156 HD
HETATM   23  H   UNK     0       7.029  -3.817  -1.399  0.00  0.00     0.156 HD
ENDBRANCH  12  21
TORSDOF 2
ENDMDL
MODEL 2
REMARK VINA RESULT:      -6.5      2.165      6.182
REMARK  2 active torsions:
REMARK  status: ('A' for Active; 'I' for Inactive)
REMARK    1  A    between atoms: C_10  and  C_17 
REMARK    2  A    between atoms: C_12  and  N_14 
ROOT
HETATM    1  C   UNK     0       8.333  -3.929  -6.735  0.00  0.00     0.013 A 
HETATM    2  C   UNK     0       8.880  -3.977  -8.035  0.00  0.00     0.001 A 
HETATM    3  C   UNK     0       8.468  -4.971  -8.949  0.00  0.00     0.001 A 
HETATM    4  C   UNK     0       7.509  -5.935  -8.574  0.00  0.00     0.008 A 
HETATM    5  C   UNK     0       6.969  -5.881  -7.274  0.00  0.00    -0.043 A 
HETATM    6  C   UNK     0       7.375  -4.893  -6.370  0.00  0.00    -0.019 A 
HETATM    7  C   UNK     0       5.965  -6.772  -6.680  0.00  0.00     0.080 A 
HETATM    8  C   UNK     0       5.823  -6.183  -5.330  0.00  0.00    -0.032 A 
HETATM    9  C   UNK     0       6.687  -5.090  -5.174  0.00  0.00    -0.016 A 
HETATM   10  C   UNK     0       4.993  -6.611  -4.263  0.00  0.00    -0.016 A 
HETATM   11  C   UNK     0       5.105  -5.929  -3.024  0.00  0.00     0.042 A 
HETATM   12  C   UNK     0       6.002  -4.848  -2.860  0.00  0.00     0.027 A 
HETATM   13  C   UNK     0       6.785  -4.408  -3.947  0.00  0.00     0.042 A 
ENDROOT
BRANCH  10  14
HETATM   14  C   UNK     0       4.104  -7.713  -4.401  0.00  0.00    -0.023 A 
HETATM   15  C   UNK     0       4.539  -9.025  -4.113  0.00  0.00     0.029 A 
HETATM   16  C   UNK     0       3.662 -10.111  -4.298  0.00  0.00     0.090 A 
HETATM   17  N   UNK     0       2.385  -9.919  -4.754  0.00  0.00    -0.371 N 
HETATM   18  C   UNK     0       1.938  -8.652  -5.021  0.00  0.00     0.090 A 
HETATM   19  C   UNK     0       1.502 -11.047  -4.923  0.00  0.00     0.154 C 
HETATM   20  C   UNK     0       2.774  -7.535  -4.841  0.00  0.00     0.029 A 
ENDBRANCH  10  14
BRANCH  12  21
HETATM   21  N   UNK     0       6.126  -4.249  -1.658  0.00  0.00    -0.399 N 
HETATM   22  H   UNK     0       6.769  -4.583  -1.011  0.00  0.00     0.156 HD
HETATM   23  H   UNK     0       5.579  -3.479  -1.439  0.00  0.00     0.156 HD
ENDBRANCH  12  21
TORSDOF 2
ENDMDL
MODEL 3
REMARK VINA RESULT:      -6.5      3.381      7.859
REMARK  2 active torsions:
REMARK  status: ('A' for Active; 'I' for Inactive)
REMARK    1  A    between atoms: C_10  and  C_17 
REMARK    2  A    between atoms: C_12  and  N_14 
ROOT
HETATM    1  C   UNK     0       6.165  -5.297  -5.526  0.00  0.00     0.013 A 
HETATM    2  C   UNK     0       6.563  -4.698  -4.312  0.00  0.00     0.001 A 
HETATM    3  C   UNK     0       5.775  -4.844  -3.150  0.00  0.00     0.001 A 
HETATM    4  C   UNK     0       4.575  -5.585  -3.187  0.00  0.00     0.008 A 
HETATM    5  C   UNK     0       4.184  -6.179  -4.404  0.00  0.00    -0.043 A 
HETATM    6  C   UNK     0       4.967  -6.036  -5.554  0.00  0.00    -0.019 A 
HETATM    7  C   UNK     0       2.989  -6.989  -4.666  0.00  0.00     0.080 A 
HETATM    8  C   UNK     0       3.171  -7.313  -6.098  0.00  0.00    -0.032 A 
HETATM    9  C   UNK     0       4.337  -6.715  -6.596  0.00  0.00    -0.016 A 
HETATM   10  C   UNK     0       2.326  -8.073  -6.946  0.00  0.00    -0.016 A 
HETATM   11  C   UNK     0       2.676  -8.165  -8.318  0.00  0.00     0.042 A 
HETATM   12  C   UNK     0       3.835  -7.533  -8.823  0.00  0.00     0.027 A 
HETATM   13  C   UNK     0       4.687  -6.819  -7.954  0.00  0.00     0.042 A 
ENDROOT
BRANCH  10  14
HETATM   14  C   UNK     0       1.142  -8.695  -6.460  0.00  0.00    -0.023 A 
HETATM   15  C   UNK     0       1.196  -9.978  -5.872  0.00  0.00     0.029 A 
HETATM   16  C   UNK     0       0.010 -10.599  -5.438  0.00  0.00     0.090 A 
HETATM   17  N   UNK     0      -1.204  -9.981  -5.573  0.00  0.00    -0.371 N 
HETATM   18  C   UNK     0      -1.275  -8.729  -6.124  0.00  0.00     0.090 A 
HETATM   19  C   UNK     0      -2.403 -10.635  -5.108  0.00  0.00     0.154 C 
HETATM   20  C   UNK     0      -0.117  -8.063  -6.563  0.00  0.00     0.029 A 
ENDBRANCH  10  14
BRANCH  12  21
HETATM   21  N   UNK     0       4.118  -7.593 -10.140  0.00  0.00    -0.399 N 
HETATM   22  H   UNK     0       4.348  -8.443 -10.551  0.00  0.00     0.156 HD
HETATM   23  H   UNK     0       4.085  -6.790 -10.683  0.00  0.00     0.156 HD
ENDBRANCH  12  21
TORSDOF 2
ENDMDL
MODEL 4
REMARK VINA RESULT:      -6.4     11.100     12.397
REMARK  2 active torsions:
REMARK  status: ('A' for Active; 'I' for Inactive)
REMARK    1  A    between atoms: C_10  and  C_17 
REMARK    2  A    between atoms: C_12  and  N_14 
ROOT
HETATM    1  C   UNK     0      -6.569  -1.185  -5.577  0.00  0.00     0.013 A 
HETATM    2  C   UNK     0      -6.428  -0.589  -4.306  0.00  0.00     0.001 A 
HETATM    3  C   UNK     0      -5.422   0.374  -4.073  0.00  0.00     0.001 A 
HETATM    4  C   UNK     0      -4.539   0.749  -5.107  0.00  0.00     0.008 A 
HETATM    5  C   UNK     0      -4.686   0.149  -6.373  0.00  0.00    -0.043 A 
HETATM    6  C   UNK     0      -5.685  -0.803  -6.604  0.00  0.00    -0.019 A 
HETATM    7  C   UNK     0      -3.888   0.392  -7.581  0.00  0.00     0.080 A 
HETATM    8  C   UNK     0      -4.545  -0.518  -8.546  0.00  0.00    -0.032 A 
HETATM    9  C   UNK     0      -5.587  -1.225  -7.928  0.00  0.00    -0.016 A 
HETATM   10  C   UNK     0      -4.218  -0.747  -9.907  0.00  0.00    -0.016 A 
HETATM   11  C   UNK     0      -4.947  -1.746 -10.602  0.00  0.00     0.042 A 
HETATM   12  C   UNK     0      -5.974  -2.480  -9.966  0.00  0.00     0.027 A 
HETATM   13  C   UNK     0      -6.315  -2.206  -8.625  0.00  0.00     0.042 A 
ENDROOT
BRANCH  10  14
HETATM   14  C   UNK     0      -3.171  -0.036 -10.555  0.00  0.00    -0.023 A 
HETATM   15  C   UNK     0      -1.876  -0.593 -10.645  0.00  0.00     0.029 A 
HETATM   16  C   UNK     0      -0.838   0.141 -11.250  0.00  0.00     0.090 A 
HETATM   17  N   UNK     0      -1.060   1.394 -11.758  0.00  0.00    -0.371 N 
HETATM   18  C   UNK     0      -2.313   1.944 -11.697  0.00  0.00     0.090 A 
HETATM   19  C   UNK     0       0.019   2.119 -12.383  0.00  0.00     0.154 C 
HETATM   20  C   UNK     0      -3.384   1.244 -11.112  0.00  0.00     0.029 A 
ENDBRANCH  10  14
BRANCH  12  21
HETATM   21  N   UNK     0      -6.618  -3.460 -10.634  0.00  0.00    -0.399 N 
HETATM   22  H   UNK     0      -7.117  -4.135 -10.146  0.00  0.00     0.156 HD
HETATM   23  H   UNK     0      -6.591  -3.488 -11.603  0.00  0.00     0.156 HD
ENDBRANCH  12  21
TORSDOF 2
ENDMDL
MODEL 5
REMARK VINA RESULT:      -6.4      0.885      1.513
REMARK  2 active torsions:
REMARK  status: ('A' for Active; 'I' for Inactive)
REMARK    1  A    between atoms: C_10  and  C_17 
REMARK    2  A    between atoms: C_12  and  N_14 
ROOT
HETATM    1  C   UNK     0       2.998  -7.626  -6.099  0.00  0.00     0.013 A 
HETATM    2  C   UNK     0       2.332  -8.342  -7.116  0.00  0.00     0.001 A 
HETATM    3  C   UNK     0       2.827  -8.338  -8.438  0.00  0.00     0.001 A 
HETATM    4  C   UNK     0       3.992  -7.612  -8.763  0.00  0.00     0.008 A 
HETATM    5  C   UNK     0       4.651  -6.898  -7.742  0.00  0.00    -0.043 A 
HETATM    6  C   UNK     0       4.161  -6.906  -6.432  0.00  0.00    -0.019 A 
HETATM    7  C   UNK     0       5.869  -6.087  -7.855  0.00  0.00     0.080 A 
HETATM    8  C   UNK     0       6.040  -5.633  -6.457  0.00  0.00    -0.032 A 
HETATM    9  C   UNK     0       5.001  -6.116  -5.649  0.00  0.00    -0.016 A 
HETATM   10  C   UNK     0       7.050  -4.796  -5.919  0.00  0.00    -0.016 A 
HETATM   11  C   UNK     0       6.944  -4.427  -4.553  0.00  0.00     0.042 A 
HETATM   12  C   UNK     0       5.877  -4.889  -3.750  0.00  0.00     0.027 A 
HETATM   13  C   UNK     0       4.907  -5.758  -4.292  0.00  0.00     0.042 A 
ENDROOT
BRANCH  10  14
HETATM   14  C   UNK     0       8.118  -4.301  -6.718  0.00  0.00    -0.023 A 
HETATM   15  C   UNK     0       7.881  -3.308  -7.694  0.00  0.00     0.029 A 
HETATM   16  C   UNK     0       8.938  -2.860  -8.509  0.00  0.00     0.090 A 
HETATM   17  N   UNK     0      10.202  -3.370  -8.373  0.00  0.00    -0.371 N 
HETATM   18  C   UNK     0      10.456  -4.320  -7.419  0.00  0.00     0.090 A 
HETATM   19  C   UNK     0      11.269  -2.885  -9.212  0.00  0.00     0.154 C 
HETATM   20  C   UNK     0       9.434  -4.791  -6.574  0.00  0.00     0.029 A 
ENDBRANCH  10  14
BRANCH  12  21
HETATM   21  N   UNK     0       5.770  -4.483  -2.468  0.00  0.00    -0.399 N 
HETATM   22  H   UNK     0       4.959  -4.045  -2.161  0.00  0.00     0.156 HD
HETATM   23  H   UNK     0       6.500  -4.633  -1.847  0.00  0.00     0.156 HD
ENDBRANCH  12  21
TORSDOF 2
ENDMDL
MODEL 6
REMARK VINA RESULT:      -6.3      1.589      2.232
REMARK  2 active torsions:
REMARK  status: ('A' for Active; 'I' for Inactive)
REMARK    1  A    between atoms: C_10  and  C_17 
REMARK    2  A    between atoms: C_12  and  N_14 
ROOT
HETATM    1  C   UNK     0       1.548  -8.971  -4.654  0.00  0.00     0.013 A 
HETATM    2  C   UNK     0       0.591  -9.189  -5.669  0.00  0.00     0.001 A 
HETATM    3  C   UNK     0       0.820  -8.721  -6.981  0.00  0.00     0.001 A 
HETATM    4  C   UNK     0       2.005  -8.023  -7.295  0.00  0.00     0.008 A 
HETATM    5  C   UNK     0       2.954  -7.809  -6.276  0.00  0.00    -0.043 A 
HETATM    6  C   UNK     0       2.728  -8.276  -4.977  0.00  0.00    -0.019 A 
HETATM    7  C   UNK     0       4.245  -7.118  -6.381  0.00  0.00     0.080 A 
HETATM    8  C   UNK     0       4.751  -7.247  -4.996  0.00  0.00    -0.032 A 
HETATM    9  C   UNK     0       3.820  -7.916  -4.189  0.00  0.00    -0.016 A 
HETATM   10  C   UNK     0       5.969  -6.764  -4.453  0.00  0.00    -0.016 A 
HETATM   11  C   UNK     0       6.186  -6.936  -3.062  0.00  0.00     0.042 A 
HETATM   12  C   UNK     0       5.230  -7.581  -2.245  0.00  0.00     0.027 A 
HETATM   13  C   UNK     0       4.045  -8.096  -2.812  0.00  0.00     0.042 A 
ENDROOT
BRANCH  10  14
HETATM   14  C   UNK     0       6.931  -6.090  -5.255  0.00  0.00    -0.023 A 
HETATM   15  C   UNK     0       7.970  -6.810  -5.884  0.00  0.00     0.029 A 
HETATM   16  C   UNK     0       8.942  -6.124  -6.638  0.00  0.00     0.090 A 
HETATM   17  N   UNK     0       8.900  -4.762  -6.775  0.00  0.00    -0.371 N 
HETATM   18  C   UNK     0       7.889  -4.048  -6.188  0.00  0.00     0.090 A 
HETATM   19  C   UNK     0       9.900  -4.086  -7.563  0.00  0.00     0.154 C 
HETATM   20  C   UNK     0       6.889  -4.690  -5.435  0.00  0.00     0.029 A 
ENDBRANCH  10  14
BRANCH  12  21
HETATM   21  N   UNK     0       5.437  -7.688  -0.916  0.00  0.00    -0.399 N 
HETATM   22  H   UNK     0       5.319  -8.543  -0.472  0.00  0.00     0.156 HD
HETATM   23  H   UNK     0       5.713  -6.912  -0.402  0.00  0.00     0.156 HD
ENDBRANCH  12  21
TORSDOF 2
ENDMDL
MODEL 7
REMARK VINA RESULT:      -6.2     12.598     14.663
REMARK  2 active torsions:
REMARK  status: ('A' for Active; 'I' for Inactive)
REMARK    1  A    between atoms: C_10  and  C_17 
REMARK    2  A    between atoms: C_12  and  N_14 
ROOT
HETATM    1  C   UNK     0      -0.398 -12.589   2.933  0.00  0.00     0.013 A 
HETATM    2  C   UNK     0      -1.375 -13.493   2.466  0.00  0.00     0.001 A 
HETATM    3  C   UNK     0      -2.733 -13.325   2.815  0.00  0.00     0.001 A 
HETATM    4  C   UNK     0      -3.131 -12.253   3.641  0.00  0.00     0.008 A 
HETATM    5  C   UNK     0      -2.149 -11.355   4.104  0.00  0.00    -0.043 A 
HETATM    6  C   UNK     0      -0.805 -11.521   3.755  0.00  0.00    -0.019 A 
HETATM    7  C   UNK     0      -2.339 -10.179   4.962  0.00  0.00     0.080 A 
HETATM    8  C   UNK     0      -0.953  -9.672   5.063  0.00  0.00    -0.032 A 
HETATM    9  C   UNK     0      -0.070 -10.502   4.358  0.00  0.00    -0.016 A 
HETATM   10  C   UNK     0      -0.476  -8.544   5.778  0.00  0.00    -0.016 A 
HETATM   11  C   UNK     0       0.925  -8.316   5.794  0.00  0.00     0.042 A 
HETATM   12  C   UNK     0       1.815  -9.174   5.109  0.00  0.00     0.027 A 
HETATM   13  C   UNK     0       1.317 -10.264   4.366  0.00  0.00     0.042 A 
ENDROOT
BRANCH  10  14
HETATM   14  C   UNK     0      -1.354  -7.684   6.494  0.00  0.00    -0.023 A 
HETATM   15  C   UNK     0      -2.037  -6.643   5.829  0.00  0.00     0.029 A 
HETATM   16  C   UNK     0      -2.868  -5.772   6.559  0.00  0.00     0.090 A 
HETATM   17  N   UNK     0      -3.030  -5.915   7.911  0.00  0.00    -0.371 N 
HETATM   18  C   UNK     0      -2.391  -6.931   8.571  0.00  0.00     0.090 A 
HETATM   19  C   UNK     0      -3.898  -5.017   8.633  0.00  0.00     0.154 C 
HETATM   20  C   UNK     0      -1.559  -7.833   7.883  0.00  0.00     0.029 A 
ENDBRANCH  10  14
BRANCH  12  21
HETATM   21  N   UNK     0       3.146  -8.965   5.182  0.00  0.00    -0.399 N 
HETATM   22  H   UNK     0       3.509  -8.372   5.860  0.00  0.00     0.156 HD
HETATM   23  H   UNK     0       3.744  -9.411   4.562  0.00  0.00     0.156 HD
ENDBRANCH  12  21
TORSDOF 2
ENDMDL
MODEL 8
REMARK VINA RESULT:      -6.2      3.415      5.520
REMARK  2 active torsions:
REMARK  status: ('A' for Active; 'I' for Inactive)
REMARK    1  A    between atoms: C_10  and  C_17 
REMARK    2  A    between atoms: C_12  and  N_14 
ROOT
HETATM    1  C   UNK     0       0.111  -9.810  -8.014  0.00  0.00     0.013 A 
HETATM    2  C   UNK     0      -0.969 -10.464  -7.385  0.00  0.00     0.001 A 
HETATM    3  C   UNK     0      -1.119 -10.414  -5.982  0.00  0.00     0.001 A 
HETATM    4  C   UNK     0      -0.187  -9.713  -5.188  0.00  0.00     0.008 A 
HETATM    5  C   UNK     0       0.889  -9.063  -5.823  0.00  0.00    -0.043 A 
HETATM    6  C   UNK     0       1.035  -9.112  -7.214  0.00  0.00    -0.019 A 
HETATM    7  C   UNK     0       1.963  -8.281  -5.198  0.00  0.00     0.080 A 
HETATM    8  C   UNK     0       2.744  -7.868  -6.385  0.00  0.00    -0.032 A 
HETATM    9  C   UNK     0       2.181  -8.396  -7.556  0.00  0.00    -0.016 A 
HETATM   10  C   UNK     0       3.927  -7.089  -6.436  0.00  0.00    -0.016 A 
HETATM   11  C   UNK     0       4.544  -6.905  -7.700  0.00  0.00     0.042 A 
HETATM   12  C   UNK     0       3.992  -7.466  -8.874  0.00  0.00     0.027 A 
HETATM   13  C   UNK     0       2.789  -8.200  -8.810  0.00  0.00     0.042 A 
ENDROOT
BRANCH  10  14
HETATM   14  C   UNK     0       4.512  -6.538  -5.262  0.00  0.00    -0.023 A 
HETATM   15  C   UNK     0       5.411  -7.299  -4.484  0.00  0.00     0.029 A 
HETATM   16  C   UNK     0       5.946  -6.757  -3.300  0.00  0.00     0.090 A 
HETATM   17  N   UNK     0       5.611  -5.496  -2.884  0.00  0.00    -0.371 N 
HETATM   18  C   UNK     0       4.755  -4.734  -3.635  0.00  0.00     0.090 A 
HETATM   19  C   UNK     0       6.184  -4.960  -1.674  0.00  0.00     0.154 C 
HETATM   20  C   UNK     0       4.204  -5.228  -4.831  0.00  0.00     0.029 A 
ENDBRANCH  10  14
BRANCH  12  21
HETATM   21  N   UNK     0       4.625  -7.320 -10.056  0.00  0.00    -0.399 N 
HETATM   22  H   UNK     0       4.153  -6.946 -10.818  0.00  0.00     0.156 HD
HETATM   23  H   UNK     0       5.555  -7.580 -10.146  0.00  0.00     0.156 HD
ENDBRANCH  12  21
TORSDOF 2
ENDMDL
MODEL 9
REMARK VINA RESULT:      -6.2      4.098      6.915
REMARK  2 active torsions:
REMARK  status: ('A' for Active; 'I' for Inactive)
REMARK    1  A    between atoms: C_10  and  C_17 
REMARK    2  A    between atoms: C_12  and  N_14 
ROOT
HETATM    1  C   UNK     0       7.380  -8.798  -1.524  0.00  0.00     0.013 A 
HETATM    2  C   UNK     0       8.003  -9.999  -1.123  0.00  0.00     0.001 A 
HETATM    3  C   UNK     0       7.500 -11.246  -1.556  0.00  0.00     0.001 A 
HETATM    4  C   UNK     0       6.365 -11.308  -2.390  0.00  0.00     0.008 A 
HETATM    5  C   UNK     0       5.748 -10.105  -2.785  0.00  0.00    -0.043 A 
HETATM    6  C   UNK     0       6.248  -8.870  -2.358  0.00  0.00    -0.019 A 
HETATM    7  C   UNK     0       4.570  -9.938  -3.644  0.00  0.00     0.080 A 
HETATM    8  C   UNK     0       4.448  -8.464  -3.680  0.00  0.00    -0.032 A 
HETATM    9  C   UNK     0       5.441  -7.866  -2.891  0.00  0.00    -0.016 A 
HETATM   10  C   UNK     0       3.479  -7.674  -4.350  0.00  0.00    -0.016 A 
HETATM   11  C   UNK     0       3.522  -6.269  -4.154  0.00  0.00     0.042 A 
HETATM   12  C   UNK     0       4.504  -5.673  -3.331  0.00  0.00     0.027 A 
HETATM   13  C   UNK     0       5.487  -6.472  -2.710  0.00  0.00     0.042 A 
ENDROOT
BRANCH  10  14
HETATM   14  C   UNK     0       2.468  -8.258  -5.162  0.00  0.00    -0.023 A 
HETATM   15  C   UNK     0       2.469  -8.062  -6.560  0.00  0.00     0.029 A 
HETATM   16  C   UNK     0       1.436  -8.608  -7.345  0.00  0.00     0.090 A 
HETATM   17  N   UNK     0       0.423  -9.334  -6.777  0.00  0.00    -0.371 N 
HETATM   18  C   UNK     0       0.414  -9.552  -5.425  0.00  0.00     0.090 A 
HETATM   19  C   UNK     0      -0.616  -9.893  -7.606  0.00  0.00     0.154 C 
HETATM   20  C   UNK     0       1.431  -9.035  -4.600  0.00  0.00     0.029 A 
ENDBRANCH  10  14
BRANCH  12  21
HETATM   21  N   UNK     0       4.492  -4.341  -3.120  0.00  0.00    -0.399 N 
HETATM   22  H   UNK     0       3.822  -3.786  -3.553  0.00  0.00     0.156 HD
HETATM   23  H   UNK     0       5.146  -3.935  -2.530  0.00  0.00     0.156 HD
ENDBRANCH  12  21
TORSDOF 2
ENDMDL
