MODEL 1
REMARK VINA RESULT:      -6.5      0.000      0.000
REMARK  2 active torsions:
REMARK  status: ('A' for Active; 'I' for Inactive)
REMARK    1  A    between atoms: C_10  and  C_17 
REMARK    2  A    between atoms: C_12  and  N_14 
ROOT
HETATM    1  C   UNK     0       7.939  -5.819   6.752  0.00  0.00     0.013 A 
HETATM    2  C   UNK     0       7.212  -6.735   7.541  0.00  0.00     0.001 A 
HETATM    3  C   UNK     0       6.408  -7.724   6.933  0.00  0.00     0.001 A 
HETATM    4  C   UNK     0       6.315  -7.806   5.528  0.00  0.00     0.008 A 
HETATM    5  C   UNK     0       7.044  -6.887   4.747  0.00  0.00    -0.043 A 
HETATM    6  C   UNK     0       7.842  -5.910   5.350  0.00  0.00    -0.019 A 
HETATM    7  C   UNK     0       7.097  -6.795   3.283  0.00  0.00     0.080 A 
HETATM    8  C   UNK     0       8.028  -5.660   3.102  0.00  0.00    -0.032 A 
HETATM    9  C   UNK     0       8.430  -5.147   4.343  0.00  0.00    -0.016 A 
HETATM   10  C   UNK     0       8.479  -5.072   1.892  0.00  0.00    -0.016 A 
HETATM   11  C   UNK     0       9.307  -3.924   1.984  0.00  0.00     0.042 A 
HETATM   12  C   UNK     0       9.683  -3.389   3.237  0.00  0.00     0.027 A 
HETATM   13  C   UNK     0       9.262  -4.015   4.429  0.00  0.00     0.042 A 
ENDROOT
BRANCH  10  14
HETATM   14  C   UNK     0       8.090  -5.581   0.622  0.00  0.00    -0.023 A 
HETATM   15  C   UNK     0       8.878  -6.552  -0.033  0.00  0.00     0.029 A 
HETATM   16  C   UNK     0       8.505  -7.013  -1.310  0.00  0.00     0.090 A 
HETATM   17  N   UNK     0       7.383  -6.537  -1.934  0.00  0.00    -0.371 N 
HETATM   18  C   UNK     0       6.595  -5.608  -1.307  0.00  0.00     0.090 A 
HETATM   19  C   UNK     0       7.016  -7.035  -3.237  0.00  0.00     0.154 C 
HETATM   20  C   UNK     0       6.921  -5.126  -0.026  0.00  0.00     0.029 A 
ENDBRANCH  10  14
BRANCH  12  21
HETATM   21  N   UNK     0      10.428  -2.267   3.297  0.00  0.00    -0.399 N 
HETATM   22  H   UNK     0      11.100  -2.091   2.617  0.00  0.00     0.156 HD
HETATM   23  H   UNK     0      10.291  -1.628   4.014  0.00  0.00     0.156 HD
ENDBRANCH  12  21
TORSDOF 2
ENDMDL
MODEL 2
REMARK VINA RESULT:      -6.1      2.542      3.763
REMARK  2 active torsions:
REMARK  status: ('A' for Active; 'I' for Inactive)
REMARK    1  A    between atoms: C_10  and  C_17 
REMARK    2  A    between atoms: C_12  and  N_14 
ROOT
HETATM    1  C   UNK     0       8.612  -6.046   8.764  0.00  0.00     0.013 A 
HETATM    2  C   UNK     0       8.319  -4.968   9.625  0.00  0.00     0.001 A 
HETATM    3  C   UNK     0       7.916  -3.721   9.100  0.00  0.00     0.001 A 
HETATM    4  C   UNK     0       7.807  -3.533   7.706  0.00  0.00     0.008 A 
HETATM    5  C   UNK     0       8.103  -4.615   6.853  0.00  0.00    -0.043 A 
HETATM    6  C   UNK     0       8.499  -5.851   7.374  0.00  0.00    -0.019 A 
HETATM    7  C   UNK     0       8.052  -4.643   5.386  0.00  0.00     0.080 A 
HETATM    8  C   UNK     0       8.451  -6.041   5.113  0.00  0.00    -0.032 A 
HETATM    9  C   UNK     0       8.730  -6.718   6.309  0.00  0.00    -0.016 A 
HETATM   10  C   UNK     0       8.602  -6.687   3.860  0.00  0.00    -0.016 A 
HETATM   11  C   UNK     0       9.089  -8.020   3.857  0.00  0.00     0.042 A 
HETATM   12  C   UNK     0       9.401  -8.688   5.063  0.00  0.00     0.027 A 
HETATM   13  C   UNK     0       9.201  -8.044   6.302  0.00  0.00     0.042 A 
ENDROOT
BRANCH  10  14
HETATM   14  C   UNK     0       8.317  -6.022   2.635  0.00  0.00    -0.023 A 
HETATM   15  C   UNK     0       7.272  -6.473   1.800  0.00  0.00     0.029 A 
HETATM   16  C   UNK     0       7.031  -5.833   0.570  0.00  0.00     0.090 A 
HETATM   17  N   UNK     0       7.795  -4.772   0.163  0.00  0.00    -0.371 N 
HETATM   18  C   UNK     0       8.802  -4.307   0.967  0.00  0.00     0.090 A 
HETATM   19  C   UNK     0       7.519  -4.125  -1.097  0.00  0.00     0.154 C 
HETATM   20  C   UNK     0       9.073  -4.907   2.210  0.00  0.00     0.029 A 
ENDBRANCH  10  14
BRANCH  12  21
HETATM   21  N   UNK     0       9.910  -9.937   5.032  0.00  0.00    -0.399 N 
HETATM   22  H   UNK     0       9.593 -10.576   4.373  0.00  0.00     0.156 HD
HETATM   23  H   UNK     0      10.600 -10.197   5.661  0.00  0.00     0.156 HD
ENDBRANCH  12  21
TORSDOF 2
ENDMDL
MODEL 3
REMARK VINA RESULT:      -6.1      2.032      6.296
REMARK  2 active torsions:
REMARK  status: ('A' for Active; 'I' for Inactive)
REMARK    1  A    between atoms: C_10  and  C_17 
REMARK    2  A    between atoms: C_12  and  N_14 
ROOT
HETATM    1  C   UNK     0       8.523  -4.317  -2.316  0.00  0.00     0.013 A 
HETATM    2  C   UNK     0       7.480  -4.640  -3.210  0.00  0.00     0.001 A 
HETATM    3  C   UNK     0       6.318  -5.297  -2.748  0.00  0.00     0.001 A 
HETATM    4  C   UNK     0       6.188  -5.645  -1.387  0.00  0.00     0.008 A 
HETATM    5  C   UNK     0       7.234  -5.320  -0.502  0.00  0.00    -0.043 A 
HETATM    6  C   UNK     0       8.383  -4.667  -0.960  0.00  0.00    -0.019 A 
HETATM    7  C   UNK     0       7.305  -5.582   0.941  0.00  0.00     0.080 A 
HETATM    8  C   UNK     0       8.622  -4.995   1.273  0.00  0.00    -0.032 A 
HETATM    9  C   UNK     0       9.240  -4.484   0.123  0.00  0.00    -0.016 A 
HETATM   10  C   UNK     0       9.272  -4.942   2.532  0.00  0.00    -0.016 A 
HETATM   11  C   UNK     0      10.584  -4.402   2.577  0.00  0.00     0.042 A 
HETATM   12  C   UNK     0      11.217  -3.919   1.409  0.00  0.00     0.027 A 
HETATM   13  C   UNK     0      10.536  -3.938   0.174  0.00  0.00     0.042 A 
ENDROOT
BRANCH  10  14
HETATM   14  C   UNK     0       8.660  -5.447   3.713  0.00  0.00    -0.023 A 
HETATM   15  C   UNK     0       8.273  -4.571   4.750  0.00  0.00     0.029 A 
HETATM   16  C   UNK     0       7.711  -5.089   5.932  0.00  0.00     0.090 A 
HETATM   17  N   UNK     0       7.528  -6.436   6.098  0.00  0.00    -0.371 N 
HETATM   18  C   UNK     0       7.880  -7.301   5.096  0.00  0.00     0.090 A 
HETATM   19  C   UNK     0       6.937  -6.939   7.313  0.00  0.00     0.154 C 
HETATM   20  C   UNK     0       8.435  -6.830   3.892  0.00  0.00     0.029 A 
ENDBRANCH  10  14
BRANCH  12  21
HETATM   21  N   UNK     0      12.483  -3.458   1.469  0.00  0.00    -0.399 N 
HETATM   22  H   UNK     0      12.923  -3.137   0.664  0.00  0.00     0.156 HD
HETATM   23  H   UNK     0      12.956  -3.439   2.316  0.00  0.00     0.156 HD
ENDBRANCH  12  21
TORSDOF 2
ENDMDL
MODEL 4
REMARK VINA RESULT:      -6.0      2.153      6.922
REMARK  2 active torsions:
REMARK  status: ('A' for Active; 'I' for Inactive)
REMARK    1  A    between atoms: C_10  and  C_17 
REMARK    2  A    between atoms: C_12  and  N_14 
ROOT
HETATM    1  C   UNK     0       7.399  -6.677  -2.211  0.00  0.00     0.013 A 
HETATM    2  C   UNK     0       7.104  -5.652  -3.135  0.00  0.00     0.001 A 
HETATM    3  C   UNK     0       7.114  -4.299  -2.730  0.00  0.00     0.001 A 
HETATM    4  C   UNK     0       7.412  -3.954  -1.396  0.00  0.00     0.008 A 
HETATM    5  C   UNK     0       7.704  -4.984  -0.479  0.00  0.00    -0.043 A 
HETATM    6  C   UNK     0       7.697  -6.324  -0.882  0.00  0.00    -0.019 A 
HETATM    7  C   UNK     0       8.042  -4.853   0.943  0.00  0.00     0.080 A 
HETATM    8  C   UNK     0       8.244  -6.269   1.320  0.00  0.00    -0.032 A 
HETATM    9  C   UNK     0       8.009  -7.111   0.225  0.00  0.00    -0.016 A 
HETATM   10  C   UNK     0       8.585  -6.804   2.589  0.00  0.00    -0.016 A 
HETATM   11  C   UNK     0       8.632  -8.216   2.719  0.00  0.00     0.042 A 
HETATM   12  C   UNK     0       8.362  -9.063   1.620  0.00  0.00     0.027 A 
HETATM   13  C   UNK     0       8.069  -8.511   0.355  0.00  0.00     0.042 A 
ENDROOT
BRANCH  10  14
HETATM   14  C   UNK     0       8.835  -5.968   3.712  0.00  0.00    -0.023 A 
HETATM   15  C   UNK     0       7.791  -5.633   4.601  0.00  0.00     0.029 A 
HETATM   16  C   UNK     0       8.042  -4.767   5.683  0.00  0.00     0.090 A 
HETATM   17  N   UNK     0       9.289  -4.241   5.893  0.00  0.00    -0.371 N 
HETATM   18  C   UNK     0      10.319  -4.569   5.053  0.00  0.00     0.090 A 
HETATM   19  C   UNK     0       9.523  -3.367   7.017  0.00  0.00     0.154 C 
HETATM   20  C   UNK     0      10.120  -5.439   3.965  0.00  0.00     0.029 A 
ENDBRANCH  10  14
BRANCH  12  21
HETATM   21  N   UNK     0       8.363 -10.402   1.782  0.00  0.00    -0.399 N 
HETATM   22  H   UNK     0       7.538 -10.867   2.000  0.00  0.00     0.156 HD
HETATM   23  H   UNK     0       9.185 -10.906   1.675  0.00  0.00     0.156 HD
ENDBRANCH  12  21
TORSDOF 2
ENDMDL
MODEL 5
REMARK VINA RESULT:      -5.9     14.459     16.850
REMARK  2 active torsions:
REMARK  status: ('A' for Active; 'I' for Inactive)
REMARK    1  A    between atoms: C_10  and  C_17 
REMARK    2  A    between atoms: C_12  and  N_14 
ROOT
HETATM    1  C   UNK     0      -5.639   1.060  12.183  0.00  0.00     0.013 A 
HETATM    2  C   UNK     0      -5.062   2.066  12.986  0.00  0.00     0.001 A 
HETATM    3  C   UNK     0      -4.014   1.756  13.881  0.00  0.00     0.001 A 
HETATM    4  C   UNK     0      -3.535   0.434  13.989  0.00  0.00     0.008 A 
HETATM    5  C   UNK     0      -4.116  -0.565  13.185  0.00  0.00    -0.043 A 
HETATM    6  C   UNK     0      -5.152  -0.257  12.296  0.00  0.00    -0.019 A 
HETATM    7  C   UNK     0      -3.772  -1.991  13.133  0.00  0.00     0.080 A 
HETATM    8  C   UNK     0      -4.717  -2.476  12.102  0.00  0.00    -0.032 A 
HETATM    9  C   UNK     0      -5.532  -1.430  11.647  0.00  0.00    -0.016 A 
HETATM   10  C   UNK     0      -4.883  -3.794  11.607  0.00  0.00    -0.016 A 
HETATM   11  C   UNK     0      -5.930  -4.024  10.677  0.00  0.00     0.042 A 
HETATM   12  C   UNK     0      -6.771  -2.973  10.246  0.00  0.00     0.027 A 
HETATM   13  C   UNK     0      -6.561  -1.659  10.715  0.00  0.00     0.042 A 
ENDROOT
BRANCH  10  14
HETATM   14  C   UNK     0      -4.063  -4.869  12.049  0.00  0.00    -0.023 A 
HETATM   15  C   UNK     0      -4.644  -6.049  12.564  0.00  0.00     0.029 A 
HETATM   16  C   UNK     0      -3.819  -7.086  13.040  0.00  0.00     0.090 A 
HETATM   17  N   UNK     0      -2.455  -6.974  13.013  0.00  0.00    -0.371 N 
HETATM   18  C   UNK     0      -1.872  -5.846  12.500  0.00  0.00     0.090 A 
HETATM   19  C   UNK     0      -1.633  -8.057  13.495  0.00  0.00     0.154 C 
HETATM   20  C   UNK     0      -2.654  -4.787  12.002  0.00  0.00     0.029 A 
ENDBRANCH  10  14
BRANCH  12  21
HETATM   21  N   UNK     0      -7.791  -3.227   9.401  0.00  0.00    -0.399 N 
HETATM   22  H   UNK     0      -8.386  -3.977   9.566  0.00  0.00     0.156 HD
HETATM   23  H   UNK     0      -7.938  -2.658   8.629  0.00  0.00     0.156 HD
ENDBRANCH  12  21
TORSDOF 2
ENDMDL
MODEL 6
REMARK VINA RESULT:      -5.9      2.314      6.245
REMARK  2 active torsions:
REMARK  status: ('A' for Active; 'I' for Inactive)
REMARK    1  A    between atoms: C_10  and  C_17 
REMARK    2  A    between atoms: C_12  and  N_14 
ROOT
HETATM    1  C   UNK     0       8.464  -5.863  -1.043  0.00  0.00     0.013 A 
HETATM    2  C   UNK     0       7.526  -6.752  -1.608  0.00  0.00     0.001 A 
HETATM    3  C   UNK     0       6.624  -7.460  -0.784  0.00  0.00     0.001 A 
HETATM    4  C   UNK     0       6.653  -7.293   0.616  0.00  0.00     0.008 A 
HETATM    5  C   UNK     0       7.594  -6.404   1.173  0.00  0.00    -0.043 A 
HETATM    6  C   UNK     0       8.485  -5.701   0.355  0.00  0.00    -0.019 A 
HETATM    7  C   UNK     0       7.795  -6.078   2.589  0.00  0.00     0.080 A 
HETATM    8  C   UNK     0       8.896  -5.094   2.503  0.00  0.00    -0.032 A 
HETATM    9  C   UNK     0       9.294  -4.913   1.171  0.00  0.00    -0.016 A 
HETATM   10  C   UNK     0       9.552  -4.409   3.557  0.00  0.00    -0.016 A 
HETATM   11  C   UNK     0      10.651  -3.577   3.221  0.00  0.00     0.042 A 
HETATM   12  C   UNK     0      11.071  -3.423   1.880  0.00  0.00     0.027 A 
HETATM   13  C   UNK     0      10.377  -4.077   0.841  0.00  0.00     0.042 A 
ENDROOT
BRANCH  10  14
HETATM   14  C   UNK     0       9.160  -4.572   4.915  0.00  0.00    -0.023 A 
HETATM   15  C   UNK     0       8.483  -3.536   5.594  0.00  0.00     0.029 A 
HETATM   16  C   UNK     0       8.141  -3.693   6.951  0.00  0.00     0.090 A 
HETATM   17  N   UNK     0       8.454  -4.840   7.630  0.00  0.00    -0.371 N 
HETATM   18  C   UNK     0       9.094  -5.864   6.984  0.00  0.00     0.090 A 
HETATM   19  C   UNK     0       8.081  -4.981   9.017  0.00  0.00     0.154 C 
HETATM   20  C   UNK     0       9.446  -5.758   5.626  0.00  0.00     0.029 A 
ENDBRANCH  10  14
BRANCH  12  21
HETATM   21  N   UNK     0      12.150  -2.666   1.592  0.00  0.00    -0.399 N 
HETATM   22  H   UNK     0      12.816  -2.987   0.961  0.00  0.00     0.156 HD
HETATM   23  H   UNK     0      12.262  -1.797   2.009  0.00  0.00     0.156 HD
ENDBRANCH  12  21
TORSDOF 2
ENDMDL
MODEL 7
REMARK VINA RESULT:      -5.9      2.276      3.354
REMARK  2 active torsions:
REMARK  status: ('A' for Active; 'I' for Inactive)
REMARK    1  A    between atoms: C_10  and  C_17 
REMARK    2  A    between atoms: C_12  and  N_14 
ROOT
HETATM    1  C   UNK     0       8.868  -6.399   7.518  0.00  0.00     0.013 A 
HETATM    2  C   UNK     0       8.634  -5.400   8.486  0.00  0.00     0.001 A 
HETATM    3  C   UNK     0       8.230  -4.104   8.095  0.00  0.00     0.001 A 
HETATM    4  C   UNK     0       8.063  -3.789   6.731  0.00  0.00     0.008 A 
HETATM    5  C   UNK     0       8.300  -4.792   5.770  0.00  0.00    -0.043 A 
HETATM    6  C   UNK     0       8.696  -6.076   6.159  0.00  0.00    -0.019 A 
HETATM    7  C   UNK     0       8.183  -4.686   4.311  0.00  0.00     0.080 A 
HETATM    8  C   UNK     0       8.544  -6.059   3.894  0.00  0.00    -0.032 A 
HETATM    9  C   UNK     0       8.864  -6.846   5.009  0.00  0.00    -0.016 A 
HETATM   10  C   UNK     0       8.626  -6.590   2.582  0.00  0.00    -0.016 A 
HETATM   11  C   UNK     0       9.088  -7.924   2.437  0.00  0.00     0.042 A 
HETATM   12  C   UNK     0       9.441  -8.704   3.561  0.00  0.00     0.027 A 
HETATM   13  C   UNK     0       9.309  -8.172   4.862  0.00  0.00     0.042 A 
ENDROOT
BRANCH  10  14
HETATM   14  C   UNK     0       8.299  -5.812   1.437  0.00  0.00    -0.023 A 
HETATM   15  C   UNK     0       6.986  -5.818   0.918  0.00  0.00     0.029 A 
HETATM   16  C   UNK     0       6.687  -5.079  -0.243  0.00  0.00     0.090 A 
HETATM   17  N   UNK     0       7.652  -4.346  -0.883  0.00  0.00    -0.371 N 
HETATM   18  C   UNK     0       8.927  -4.312  -0.384  0.00  0.00     0.090 A 
HETATM   19  C   UNK     0       7.316  -3.588  -2.062  0.00  0.00     0.154 C 
HETATM   20  C   UNK     0       9.270  -5.026   0.779  0.00  0.00     0.029 A 
ENDBRANCH  10  14
BRANCH  12  21
HETATM   21  N   UNK     0       9.926  -9.951   3.393  0.00  0.00    -0.399 N 
HETATM   22  H   UNK     0      10.579 -10.308   4.018  0.00  0.00     0.156 HD
HETATM   23  H   UNK     0       9.619 -10.498   2.653  0.00  0.00     0.156 HD
ENDBRANCH  12  21
TORSDOF 2
ENDMDL
MODEL 8
REMARK VINA RESULT:      -5.8      2.562      3.925
REMARK  2 active torsions:
REMARK  status: ('A' for Active; 'I' for Inactive)
REMARK    1  A    between atoms: C_10  and  C_17 
REMARK    2  A    between atoms: C_12  and  N_14 
ROOT
HETATM    1  C   UNK     0       9.077  -5.602   4.944  0.00  0.00     0.013 A 
HETATM    2  C   UNK     0       9.316  -4.374   5.594  0.00  0.00     0.001 A 
HETATM    3  C   UNK     0       9.338  -3.167   4.861  0.00  0.00     0.001 A 
HETATM    4  C   UNK     0       9.127  -3.174   3.467  0.00  0.00     0.008 A 
HETATM    5  C   UNK     0       8.889  -4.405   2.824  0.00  0.00    -0.043 A 
HETATM    6  C   UNK     0       8.865  -5.600   3.552  0.00  0.00    -0.019 A 
HETATM    7  C   UNK     0       8.642  -4.641   1.397  0.00  0.00     0.080 A 
HETATM    8  C   UNK     0       8.459  -6.110   1.378  0.00  0.00    -0.032 A 
HETATM    9  C   UNK     0       8.620  -6.645   2.664  0.00  0.00    -0.016 A 
HETATM   10  C   UNK     0       8.196  -6.952   0.268  0.00  0.00    -0.016 A 
HETATM   11  C   UNK     0       8.152  -8.352   0.496  0.00  0.00     0.042 A 
HETATM   12  C   UNK     0       8.349  -8.890   1.788  0.00  0.00     0.027 A 
HETATM   13  C   UNK     0       8.563  -8.033   2.888  0.00  0.00     0.042 A 
ENDROOT
BRANCH  10  14
HETATM   14  C   UNK     0       8.022  -6.430  -1.044  0.00  0.00    -0.023 A 
HETATM   15  C   UNK     0       6.743  -6.034  -1.493  0.00  0.00     0.029 A 
HETATM   16  C   UNK     0       6.577  -5.562  -2.809  0.00  0.00     0.090 A 
HETATM   17  N   UNK     0       7.640  -5.476  -3.669  0.00  0.00    -0.371 N 
HETATM   18  C   UNK     0       8.891  -5.837  -3.246  0.00  0.00     0.090 A 
HETATM   19  C   UNK     0       7.445  -4.977  -5.008  0.00  0.00     0.154 C 
HETATM   20  C   UNK     0       9.108  -6.305  -1.937  0.00  0.00     0.029 A 
ENDBRANCH  10  14
BRANCH  12  21
HETATM   21  N   UNK     0       8.353 -10.227   1.970  0.00  0.00    -0.399 N 
HETATM   22  H   UNK     0       9.114 -10.756   1.679  0.00  0.00     0.156 HD
HETATM   23  H   UNK     0       7.600 -10.662   2.399  0.00  0.00     0.156 HD
ENDBRANCH  12  21
TORSDOF 2
ENDMDL
MODEL 9
REMARK VINA RESULT:      -5.8      2.997      7.427
REMARK  2 active torsions:
REMARK  status: ('A' for Active; 'I' for Inactive)
REMARK    1  A    between atoms: C_10  and  C_17 
REMARK    2  A    between atoms: C_12  and  N_14 
ROOT
HETATM    1  C   UNK     0       7.846  -6.316   1.484  0.00  0.00     0.013 A 
HETATM    2  C   UNK     0       8.358  -5.660   0.345  0.00  0.00     0.001 A 
HETATM    3  C   UNK     0       9.121  -4.479   0.481  0.00  0.00     0.001 A 
HETATM    4  C   UNK     0       9.376  -3.936   1.757  0.00  0.00     0.008 A 
HETATM    5  C   UNK     0       8.861  -4.597   2.889  0.00  0.00    -0.043 A 
HETATM    6  C   UNK     0       8.107  -5.768   2.754  0.00  0.00    -0.019 A 
HETATM    7  C   UNK     0       9.007  -4.214   4.299  0.00  0.00     0.080 A 
HETATM    8  C   UNK     0       8.264  -5.303   4.970  0.00  0.00    -0.032 A 
HETATM    9  C   UNK     0       7.727  -6.190   4.026  0.00  0.00    -0.016 A 
HETATM   10  C   UNK     0       8.034  -5.491   6.357  0.00  0.00    -0.016 A 
HETATM   11  C   UNK     0       7.206  -6.574   6.748  0.00  0.00     0.042 A 
HETATM   12  C   UNK     0       6.638  -7.447   5.792  0.00  0.00     0.027 A 
HETATM   13  C   UNK     0       6.915  -7.270   4.420  0.00  0.00     0.042 A 
ENDROOT
BRANCH  10  14
HETATM   14  C   UNK     0       8.576  -4.609   7.332  0.00  0.00    -0.023 A 
HETATM   15  C   UNK     0       9.935  -4.699   7.703  0.00  0.00     0.029 A 
HETATM   16  C   UNK     0      10.447  -3.849   8.702  0.00  0.00     0.090 A 
HETATM   17  N   UNK     0       9.647  -2.928   9.326  0.00  0.00    -0.371 N 
HETATM   18  C   UNK     0       8.330  -2.813   8.966  0.00  0.00     0.090 A 
HETATM   19  C   UNK     0      10.199  -2.061  10.337  0.00  0.00     0.154 C 
HETATM   20  C   UNK     0       7.777  -3.632   7.965  0.00  0.00     0.029 A 
ENDBRANCH  10  14
BRANCH  12  21
HETATM   21  N   UNK     0       5.813  -8.438   6.186  0.00  0.00    -0.399 N 
HETATM   22  H   UNK     0       5.864  -9.311   5.765  0.00  0.00     0.156 HD
HETATM   23  H   UNK     0       5.170  -8.283   6.897  0.00  0.00     0.156 HD
ENDBRANCH  12  21
TORSDOF 2
ENDMDL
