MODEL 1
REMARK VINA RESULT:      -6.5      0.000      0.000
REMARK  4 active torsions:
REMARK  status: ('A' for Active; 'I' for Inactive)
REMARK    1  A    between atoms: C_11  and  N_14 
REMARK    2  A    between atoms: C_13  and  C_21 
REMARK       I    between atoms: N_14  and  C_15 
REMARK    3  A    between atoms: C_15  and  C_16 
REMARK    4  A    between atoms: C_16  and  C_17 
ROOT
HETATM    1  C   UNK     0       7.242  -6.564   5.941  0.00  0.00     0.016 A 
HETATM    2  C   UNK     0       7.763  -6.383   7.240  0.00  0.00     0.001 A 
HETATM    3  C   UNK     0       8.949  -5.640   7.439  0.00  0.00     0.001 A 
HETATM    4  C   UNK     0       9.625  -5.060   6.344  0.00  0.00     0.013 A 
HETATM    5  C   UNK     0       9.087  -5.236   5.054  0.00  0.00    -0.011 A 
HETATM    6  C   UNK     0       7.923  -5.983   4.855  0.00  0.00     0.026 A 
HETATM    7  C   UNK     0       9.514  -4.784   3.804  0.00  0.00    -0.008 A 
HETATM    8  C   UNK     0       8.644  -5.281   2.826  0.00  0.00     0.037 A 
HETATM    9  C   UNK     0       7.637  -6.009   3.489  0.00  0.00     0.195 A 
HETATM   10  C   UNK     0      10.596  -3.955   3.470  0.00  0.00     0.043 A 
HETATM   11  C   UNK     0      10.830  -3.633   2.112  0.00  0.00     0.036 A 
HETATM   12  C   UNK     0       9.958  -4.160   1.127  0.00  0.00     0.043 A 
HETATM   13  C   UNK     0       8.858  -4.998   1.455  0.00  0.00    -0.009 A 
HETATM   14  O   UNK     0       6.640  -6.569   2.980  0.00  0.00    -0.287 OA
ENDROOT
BRANCH  13  15
HETATM   15  C   UNK     0       8.034  -5.529   0.424  0.00  0.00    -0.022 A 
HETATM   16  C   UNK     0       8.263  -6.826  -0.096  0.00  0.00     0.029 A 
HETATM   17  C   UNK     0       7.439  -7.318  -1.125  0.00  0.00     0.088 A 
HETATM   18  N   UNK     0       6.440  -6.544  -1.619  0.00  0.00    -0.375 N 
HETATM   19  C   UNK     0       6.188  -5.294  -1.152  0.00  0.00     0.088 A 
HETATM   20  HN  UNK     0       5.857  -6.914  -2.369  1.00  0.00     0.164 HD
HETATM   21  C   UNK     0       6.976  -4.760  -0.117  0.00  0.00     0.029 A 
ENDBRANCH  13  15
BRANCH  11  22
HETATM   22  N   UNK     0      11.840  -2.812   1.688  0.00  0.00    -0.327 N 
HETATM   23  C   UNK     0      13.104  -3.163   1.302  0.00  0.00     0.223 C 
HETATM   24  O   UNK     0      13.473  -4.358   1.208  0.00  0.00    -0.273 OA
HETATM   25  H   UNK     0      11.625  -1.868   1.634  0.00  0.00     0.169 HD
BRANCH  23  26
HETATM   26  C   UNK     0      14.075  -2.109   0.937  0.00  0.00     0.118 C 
BRANCH  26  27
HETATM   27  C   UNK     0      15.492  -2.411   1.480  0.00  0.00     0.124 C 
HETATM   28 Cl   UNK     0      15.506  -2.438   3.241  0.00  0.00    -0.130 Cl
ENDBRANCH  26  27
ENDBRANCH  23  26
ENDBRANCH  11  22
TORSDOF 4
ENDMDL
MODEL 2
REMARK VINA RESULT:      -6.2      4.125      7.601
REMARK  4 active torsions:
REMARK  status: ('A' for Active; 'I' for Inactive)
REMARK    1  A    between atoms: C_11  and  N_14 
REMARK    2  A    between atoms: C_13  and  C_21 
REMARK       I    between atoms: N_14  and  C_15 
REMARK    3  A    between atoms: C_15  and  C_16 
REMARK    4  A    between atoms: C_16  and  C_17 
ROOT
HETATM    1  C   UNK     0       7.386  -3.937  -1.312  0.00  0.00     0.016 A 
HETATM    2  C   UNK     0       7.133  -4.250  -2.665  0.00  0.00     0.001 A 
HETATM    3  C   UNK     0       7.159  -5.591  -3.108  0.00  0.00     0.001 A 
HETATM    4  C   UNK     0       7.429  -6.641  -2.203  0.00  0.00     0.013 A 
HETATM    5  C   UNK     0       7.667  -6.317  -0.852  0.00  0.00    -0.011 A 
HETATM    6  C   UNK     0       7.655  -4.990  -0.418  0.00  0.00     0.026 A 
HETATM    7  C   UNK     0       7.944  -7.120   0.256  0.00  0.00    -0.008 A 
HETATM    8  C   UNK     0       8.146  -6.293   1.368  0.00  0.00     0.037 A 
HETATM    9  C   UNK     0       7.940  -4.965   0.949  0.00  0.00     0.195 A 
HETATM   10  C   UNK     0       8.013  -8.517   0.359  0.00  0.00     0.043 A 
HETATM   11  C   UNK     0       8.317  -9.107   1.609  0.00  0.00     0.036 A 
HETATM   12  C   UNK     0       8.543  -8.262   2.723  0.00  0.00     0.043 A 
HETATM   13  C   UNK     0       8.474  -6.846   2.631  0.00  0.00    -0.009 A 
HETATM   14  O   UNK     0       7.974  -3.929   1.651  0.00  0.00    -0.287 OA
ENDROOT
BRANCH  13  15
HETATM   15  C   UNK     0       8.744  -6.042   3.774  0.00  0.00    -0.022 A 
HETATM   16  C   UNK     0      10.045  -5.540   4.020  0.00  0.00     0.029 A 
HETATM   17  C   UNK     0      10.284  -4.759   5.165  0.00  0.00     0.088 A 
HETATM   18  N   UNK     0       9.270  -4.503   6.031  0.00  0.00    -0.375 N 
HETATM   19  C   UNK     0       8.010  -4.966   5.835  0.00  0.00     0.088 A 
HETATM   20  HN  UNK     0       9.464  -3.940   6.859  1.00  0.00     0.164 HD
HETATM   21  C   UNK     0       7.717  -5.743   4.699  0.00  0.00     0.029 A 
ENDBRANCH  13  15
BRANCH  11  22
HETATM   22  N   UNK     0       8.380 -10.459   1.817  0.00  0.00    -0.327 N 
HETATM   23  C   UNK     0       9.443 -11.294   1.612  0.00  0.00     0.223 C 
HETATM   24  O   UNK     0      10.573 -10.875   1.267  0.00  0.00    -0.273 OA
HETATM   25  H   UNK     0       7.578 -10.870   2.176  0.00  0.00     0.169 HD
BRANCH  23  26
HETATM   26  C   UNK     0       9.284 -12.746   1.838  0.00  0.00     0.118 C 
BRANCH  26  27
HETATM   27  C   UNK     0       7.887 -13.253   1.407  0.00  0.00     0.124 C 
HETATM   28 Cl   UNK     0       7.638 -13.038  -0.323  0.00  0.00    -0.130 Cl
ENDBRANCH  26  27
ENDBRANCH  23  26
ENDBRANCH  11  22
TORSDOF 4
ENDMDL
MODEL 3
REMARK VINA RESULT:      -6.2      2.742      7.098
REMARK  4 active torsions:
REMARK  status: ('A' for Active; 'I' for Inactive)
REMARK    1  A    between atoms: C_11  and  N_14 
REMARK    2  A    between atoms: C_13  and  C_21 
REMARK       I    between atoms: N_14  and  C_15 
REMARK    3  A    between atoms: C_15  and  C_16 
REMARK    4  A    between atoms: C_16  and  C_17 
ROOT
HETATM    1  C   UNK     0       8.519  -4.360  -2.669  0.00  0.00     0.016 A 
HETATM    2  C   UNK     0       7.254  -4.595  -3.251  0.00  0.00     0.001 A 
HETATM    3  C   UNK     0       6.250  -5.280  -2.531  0.00  0.00     0.001 A 
HETATM    4  C   UNK     0       6.492  -5.732  -1.215  0.00  0.00     0.013 A 
HETATM    5  C   UNK     0       7.753  -5.479  -0.640  0.00  0.00    -0.011 A 
HETATM    6  C   UNK     0       8.751  -4.814  -1.358  0.00  0.00     0.026 A 
HETATM    7  C   UNK     0       8.275  -5.785   0.618  0.00  0.00    -0.008 A 
HETATM    8  C   UNK     0       9.605  -5.351   0.669  0.00  0.00     0.037 A 
HETATM    9  C   UNK     0       9.891  -4.723  -0.557  0.00  0.00     0.195 A 
HETATM   10  C   UNK     0       7.661  -6.399   1.720  0.00  0.00     0.043 A 
HETATM   11  C   UNK     0       8.407  -6.606   2.905  0.00  0.00     0.036 A 
HETATM   12  C   UNK     0       9.759  -6.185   2.939  0.00  0.00     0.043 A 
HETATM   13  C   UNK     0      10.391  -5.562   1.830  0.00  0.00    -0.009 A 
HETATM   14  O   UNK     0      10.954  -4.154  -0.894  0.00  0.00    -0.287 OA
ENDROOT
BRANCH  13  15
HETATM   15  C   UNK     0      11.762  -5.189   1.906  0.00  0.00    -0.022 A 
HETATM   16  C   UNK     0      12.782  -6.074   1.480  0.00  0.00     0.029 A 
HETATM   17  C   UNK     0      14.129  -5.683   1.580  0.00  0.00     0.088 A 
HETATM   18  N   UNK     0      14.442  -4.466   2.094  0.00  0.00    -0.375 N 
HETATM   19  C   UNK     0      13.498  -3.588   2.516  0.00  0.00     0.088 A 
HETATM   20  HN  UNK     0      15.425  -4.202   2.165  1.00  0.00     0.164 HD
HETATM   21  C   UNK     0      12.135  -3.928   2.427  0.00  0.00     0.029 A 
ENDBRANCH  13  15
BRANCH  11  22
HETATM   22  N   UNK     0       7.891  -7.170   4.040  0.00  0.00    -0.327 N 
HETATM   23  C   UNK     0       7.213  -6.553   5.055  0.00  0.00     0.223 C 
HETATM   24  O   UNK     0       6.899  -5.339   5.015  0.00  0.00    -0.273 OA
HETATM   25  H   UNK     0       7.998  -8.131   4.122  0.00  0.00     0.169 HD
BRANCH  23  26
HETATM   26  C   UNK     0       6.791  -7.337   6.234  0.00  0.00     0.118 C 
BRANCH  26  27
HETATM   27  C   UNK     0       7.453  -6.830   7.538  0.00  0.00     0.124 C 
HETATM   28 Cl   UNK     0       9.190  -6.630   7.332  0.00  0.00    -0.130 Cl
ENDBRANCH  26  27
ENDBRANCH  23  26
ENDBRANCH  11  22
TORSDOF 4
ENDMDL
MODEL 4
REMARK VINA RESULT:      -6.2      4.627      7.817
REMARK  4 active torsions:
REMARK  status: ('A' for Active; 'I' for Inactive)
REMARK    1  A    between atoms: C_11  and  N_14 
REMARK    2  A    between atoms: C_13  and  C_21 
REMARK       I    between atoms: N_14  and  C_15 
REMARK    3  A    between atoms: C_15  and  C_16 
REMARK    4  A    between atoms: C_16  and  C_17 
ROOT
HETATM    1  C   UNK     0      11.372  -7.464  11.128  0.00  0.00     0.016 A 
HETATM    2  C   UNK     0      12.306  -8.414  10.662  0.00  0.00     0.001 A 
HETATM    3  C   UNK     0      12.631  -8.486   9.289  0.00  0.00     0.001 A 
HETATM    4  C   UNK     0      12.035  -7.603   8.363  0.00  0.00     0.013 A 
HETATM    5  C   UNK     0      11.114  -6.650   8.842  0.00  0.00    -0.011 A 
HETATM    6  C   UNK     0      10.782  -6.589  10.198  0.00  0.00     0.026 A 
HETATM    7  C   UNK     0      10.385  -5.657   8.186  0.00  0.00    -0.008 A 
HETATM    8  C   UNK     0       9.570  -5.007   9.121  0.00  0.00     0.037 A 
HETATM    9  C   UNK     0       9.839  -5.575  10.381  0.00  0.00     0.195 A 
HETATM   10  C   UNK     0      10.400  -5.274   6.837  0.00  0.00     0.043 A 
HETATM   11  C   UNK     0       9.557  -4.223   6.403  0.00  0.00     0.036 A 
HETATM   12  C   UNK     0       8.719  -3.587   7.352  0.00  0.00     0.043 A 
HETATM   13  C   UNK     0       8.696  -3.966   8.721  0.00  0.00    -0.009 A 
HETATM   14  O   UNK     0       9.358  -5.241  11.487  0.00  0.00    -0.287 OA
ENDROOT
BRANCH  13  15
HETATM   15  C   UNK     0       7.810  -3.318   9.626  0.00  0.00    -0.022 A 
HETATM   16  C   UNK     0       8.229  -2.193  10.376  0.00  0.00     0.029 A 
HETATM   17  C   UNK     0       7.334  -1.582  11.273  0.00  0.00     0.088 A 
HETATM   18  N   UNK     0       6.081  -2.081  11.421  0.00  0.00    -0.375 N 
HETATM   19  C   UNK     0       5.638  -3.158  10.725  0.00  0.00     0.088 A 
HETATM   20  HN  UNK     0       5.447  -1.628  12.081  1.00  0.00     0.164 HD
HETATM   21  C   UNK     0       6.491  -3.799   9.808  0.00  0.00     0.029 A 
ENDBRANCH  13  15
BRANCH  11  22
HETATM   22  N   UNK     0       9.520  -3.760   5.115  0.00  0.00    -0.327 N 
HETATM   23  C   UNK     0       8.674  -4.135   4.109  0.00  0.00     0.223 C 
HETATM   24  O   UNK     0       7.726  -4.935   4.288  0.00  0.00    -0.273 OA
HETATM   25  H   UNK     0      10.159  -3.062   4.898  0.00  0.00     0.169 HD
BRANCH  23  26
HETATM   26  C   UNK     0       8.843  -3.555   2.760  0.00  0.00     0.118 C 
BRANCH  26  27
HETATM   27  C   UNK     0       9.045  -4.644   1.679  0.00  0.00     0.124 C 
HETATM   28 Cl   UNK     0       7.673  -4.708   0.577  0.00  0.00    -0.130 Cl
ENDBRANCH  26  27
ENDBRANCH  23  26
ENDBRANCH  11  22
TORSDOF 4
ENDMDL
MODEL 5
REMARK VINA RESULT:      -6.2     12.043     14.772
REMARK  4 active torsions:
REMARK  status: ('A' for Active; 'I' for Inactive)
REMARK    1  A    between atoms: C_11  and  N_14 
REMARK    2  A    between atoms: C_13  and  C_21 
REMARK       I    between atoms: N_14  and  C_15 
REMARK    3  A    between atoms: C_15  and  C_16 
REMARK    4  A    between atoms: C_16  and  C_17 
ROOT
HETATM    1  C   UNK     0      -3.886 -14.818   7.896  0.00  0.00     0.016 A 
HETATM    2  C   UNK     0      -5.288 -14.819   7.733  0.00  0.00     0.001 A 
HETATM    3  C   UNK     0      -5.877 -14.252   6.580  0.00  0.00     0.001 A 
HETATM    4  C   UNK     0      -5.072 -13.684   5.569  0.00  0.00     0.013 A 
HETATM    5  C   UNK     0      -3.673 -13.700   5.737  0.00  0.00    -0.011 A 
HETATM    6  C   UNK     0      -3.092 -14.248   6.883  0.00  0.00     0.026 A 
HETATM    7  C   UNK     0      -2.639 -13.235   4.923  0.00  0.00    -0.008 A 
HETATM    8  C   UNK     0      -1.421 -13.453   5.578  0.00  0.00     0.037 A 
HETATM    9  C   UNK     0      -1.706 -14.109   6.791  0.00  0.00     0.195 A 
HETATM   10  C   UNK     0      -2.691 -12.654   3.647  0.00  0.00     0.043 A 
HETATM   11  C   UNK     0      -1.488 -12.256   3.015  0.00  0.00     0.036 A 
HETATM   12  C   UNK     0      -0.263 -12.459   3.696  0.00  0.00     0.043 A 
HETATM   13  C   UNK     0      -0.198 -13.048   4.987  0.00  0.00    -0.009 A 
HETATM   14  O   UNK     0      -0.890 -14.526   7.643  0.00  0.00    -0.287 OA
ENDROOT
BRANCH  13  15
HETATM   15  C   UNK     0       1.057 -13.198   5.641  0.00  0.00    -0.022 A 
HETATM   16  C   UNK     0       1.900 -14.298   5.355  0.00  0.00     0.029 A 
HETATM   17  C   UNK     0       3.129 -14.426   6.028  0.00  0.00     0.088 A 
HETATM   18  N   UNK     0       3.491 -13.502   6.953  0.00  0.00    -0.375 N 
HETATM   19  C   UNK     0       2.713 -12.434   7.261  0.00  0.00     0.088 A 
HETATM   20  HN  UNK     0       4.383 -13.614   7.436  1.00  0.00     0.164 HD
HETATM   21  C   UNK     0       1.479 -12.255   6.608  0.00  0.00     0.029 A 
ENDBRANCH  13  15
BRANCH  11  22
HETATM   22  N   UNK     0      -1.433 -11.706   1.763  0.00  0.00    -0.327 N 
HETATM   23  C   UNK     0      -1.797 -10.445   1.380  0.00  0.00     0.223 C 
HETATM   24  O   UNK     0      -2.167  -9.571   2.200  0.00  0.00    -0.273 OA
HETATM   25  H   UNK     0      -1.069 -12.274   1.066  0.00  0.00     0.169 HD
BRANCH  23  26
HETATM   26  C   UNK     0      -1.720 -10.065  -0.046  0.00  0.00     0.118 C 
BRANCH  26  27
HETATM   27  C   UNK     0      -3.115  -9.766  -0.646  0.00  0.00     0.124 C 
HETATM   28 Cl   UNK     0      -3.266  -8.069  -1.090  0.00  0.00    -0.130 Cl
ENDBRANCH  26  27
ENDBRANCH  23  26
ENDBRANCH  11  22
TORSDOF 4
ENDMDL
MODEL 6
REMARK VINA RESULT:      -6.1      4.213      5.404
REMARK  4 active torsions:
REMARK  status: ('A' for Active; 'I' for Inactive)
REMARK    1  A    between atoms: C_11  and  N_14 
REMARK    2  A    between atoms: C_13  and  C_21 
REMARK       I    between atoms: N_14  and  C_15 
REMARK    3  A    between atoms: C_15  and  C_16 
REMARK    4  A    between atoms: C_16  and  C_17 
ROOT
HETATM    1  C   UNK     0       7.917  -3.423   6.994  0.00  0.00     0.016 A 
HETATM    2  C   UNK     0       7.806  -3.677   8.378  0.00  0.00     0.001 A 
HETATM    3  C   UNK     0       8.025  -4.977   8.888  0.00  0.00     0.001 A 
HETATM    4  C   UNK     0       8.367  -6.039   8.023  0.00  0.00     0.013 A 
HETATM    5  C   UNK     0       8.487  -5.771   6.646  0.00  0.00    -0.011 A 
HETATM    6  C   UNK     0       8.257  -4.489   6.139  0.00  0.00     0.026 A 
HETATM    7  C   UNK     0       8.816  -6.595   5.568  0.00  0.00    -0.008 A 
HETATM    8  C   UNK     0       8.750  -5.840   4.390  0.00  0.00     0.037 A 
HETATM    9  C   UNK     0       8.425  -4.520   4.754  0.00  0.00     0.195 A 
HETATM   10  C   UNK     0       9.185  -7.948   5.551  0.00  0.00     0.043 A 
HETATM   11  C   UNK     0       9.474  -8.574   4.315  0.00  0.00     0.036 A 
HETATM   12  C   UNK     0       9.382  -7.809   3.127  0.00  0.00     0.043 A 
HETATM   13  C   UNK     0       9.011  -6.437   3.132  0.00  0.00    -0.009 A 
HETATM   14  O   UNK     0       8.321  -3.524   4.001  0.00  0.00    -0.287 OA
ENDROOT
BRANCH  13  15
HETATM   15  C   UNK     0       8.899  -5.723   1.906  0.00  0.00    -0.022 A 
HETATM   16  C   UNK     0      10.011  -5.040   1.358  0.00  0.00     0.029 A 
HETATM   17  C   UNK     0       9.866  -4.332   0.151  0.00  0.00     0.088 A 
HETATM   18  N   UNK     0       8.660  -4.299  -0.472  0.00  0.00    -0.375 N 
HETATM   19  C   UNK     0       7.568  -4.937   0.019  0.00  0.00     0.088 A 
HETATM   20  HN  UNK     0       8.572  -3.775  -1.343  1.00  0.00     0.164 HD
HETATM   21  C   UNK     0       7.664  -5.668   1.217  0.00  0.00     0.029 A 
ENDBRANCH  13  15
BRANCH  11  22
HETATM   22  N   UNK     0       9.869  -9.880   4.198  0.00  0.00    -0.327 N 
HETATM   23  C   UNK     0      11.126 -10.397   4.345  0.00  0.00     0.223 C 
HETATM   24  O   UNK     0      12.103  -9.700   4.707  0.00  0.00    -0.273 OA
HETATM   25  H   UNK     0       9.164 -10.520   4.011  0.00  0.00     0.169 HD
BRANCH  23  26
HETATM   26  C   UNK     0      11.354 -11.839   4.111  0.00  0.00     0.118 C 
BRANCH  26  27
HETATM   27  C   UNK     0      10.383 -12.418   3.055  0.00  0.00     0.124 C 
HETATM   28 Cl   UNK     0       9.504 -13.805   3.691  0.00  0.00    -0.130 Cl
ENDBRANCH  26  27
ENDBRANCH  23  26
ENDBRANCH  11  22
TORSDOF 4
ENDMDL
MODEL 7
REMARK VINA RESULT:      -6.1      2.825      5.860
REMARK  4 active torsions:
REMARK  status: ('A' for Active; 'I' for Inactive)
REMARK    1  A    between atoms: C_11  and  N_14 
REMARK    2  A    between atoms: C_13  and  C_21 
REMARK       I    between atoms: N_14  and  C_15 
REMARK    3  A    between atoms: C_15  and  C_16 
REMARK    4  A    between atoms: C_16  and  C_17 
ROOT
HETATM    1  C   UNK     0      13.272  -3.901  -0.043  0.00  0.00     0.016 A 
HETATM    2  C   UNK     0      14.435  -3.371   0.555  0.00  0.00     0.001 A 
HETATM    3  C   UNK     0      14.516  -3.221   1.957  0.00  0.00     0.001 A 
HETATM    4  C   UNK     0      13.438  -3.607   2.783  0.00  0.00     0.013 A 
HETATM    5  C   UNK     0      12.287  -4.146   2.176  0.00  0.00    -0.011 A 
HETATM    6  C   UNK     0      12.202  -4.281   0.789  0.00  0.00     0.026 A 
HETATM    7  C   UNK     0      11.090  -4.617   2.718  0.00  0.00    -0.008 A 
HETATM    8  C   UNK     0      10.246  -5.005   1.671  0.00  0.00     0.037 A 
HETATM    9  C   UNK     0      10.953  -4.817   0.468  0.00  0.00     0.195 A 
HETATM   10  C   UNK     0      10.700  -4.746   4.060  0.00  0.00     0.043 A 
HETATM   11  C   UNK     0       9.415  -5.257   4.364  0.00  0.00     0.036 A 
HETATM   12  C   UNK     0       8.559  -5.625   3.296  0.00  0.00     0.043 A 
HETATM   13  C   UNK     0       8.944  -5.500   1.934  0.00  0.00    -0.009 A 
HETATM   14  O   UNK     0      10.572  -5.092  -0.692  0.00  0.00    -0.287 OA
ENDROOT
BRANCH  13  15
HETATM   15  C   UNK     0       8.033  -5.852   0.900  0.00  0.00    -0.022 A 
HETATM   16  C   UNK     0       7.815  -7.206   0.551  0.00  0.00     0.029 A 
HETATM   17  C   UNK     0       6.917  -7.522  -0.485  0.00  0.00     0.088 A 
HETATM   18  N   UNK     0       6.277  -6.527  -1.150  0.00  0.00    -0.375 N 
HETATM   19  C   UNK     0       6.458  -5.216  -0.851  0.00  0.00     0.088 A 
HETATM   20  HN  UNK     0       5.634  -6.774  -1.903  1.00  0.00     0.164 HD
HETATM   21  C   UNK     0       7.337  -4.848   0.185  0.00  0.00     0.029 A 
ENDBRANCH  13  15
BRANCH  11  22
HETATM   22  N   UNK     0       8.954  -5.445   5.639  0.00  0.00    -0.327 N 
HETATM   23  C   UNK     0       8.024  -4.706   6.316  0.00  0.00     0.223 C 
HETATM   24  O   UNK     0       7.390  -3.766   5.781  0.00  0.00    -0.273 OA
HETATM   25  H   UNK     0       9.315  -6.212   6.111  0.00  0.00     0.169 HD
BRANCH  23  26
HETATM   26  C   UNK     0       7.709  -5.040   7.721  0.00  0.00     0.118 C 
BRANCH  26  27
HETATM   27  C   UNK     0       7.635  -6.568   7.954  0.00  0.00     0.124 C 
HETATM   28 Cl   UNK     0       6.403  -7.307   6.936  0.00  0.00    -0.130 Cl
ENDBRANCH  26  27
ENDBRANCH  23  26
ENDBRANCH  11  22
TORSDOF 4
ENDMDL
MODEL 8
REMARK VINA RESULT:      -6.1     12.446     13.869
REMARK  4 active torsions:
REMARK  status: ('A' for Active; 'I' for Inactive)
REMARK    1  A    between atoms: C_11  and  N_14 
REMARK    2  A    between atoms: C_13  and  C_21 
REMARK       I    between atoms: N_14  and  C_15 
REMARK    3  A    between atoms: C_15  and  C_16 
REMARK    4  A    between atoms: C_16  and  C_17 
ROOT
HETATM    1  C   UNK     0       8.749   5.310   2.583  0.00  0.00     0.016 A 
HETATM    2  C   UNK     0       9.954   4.809   3.120  0.00  0.00     0.001 A 
HETATM    3  C   UNK     0      10.119   4.684   4.518  0.00  0.00     0.001 A 
HETATM    4  C   UNK     0       9.078   5.051   5.399  0.00  0.00     0.013 A 
HETATM    5  C   UNK     0       7.875   5.538   4.850  0.00  0.00    -0.011 A 
HETATM    6  C   UNK     0       7.718   5.674   3.469  0.00  0.00     0.026 A 
HETATM    7  C   UNK     0       6.689   5.960   5.452  0.00  0.00    -0.008 A 
HETATM    8  C   UNK     0       5.811   6.398   4.453  0.00  0.00     0.037 A 
HETATM    9  C   UNK     0       6.448   6.194   3.214  0.00  0.00     0.195 A 
HETATM   10  C   UNK     0       6.321   5.970   6.806  0.00  0.00     0.043 A 
HETATM   11  C   UNK     0       5.044   6.455   7.176  0.00  0.00     0.036 A 
HETATM   12  C   UNK     0       4.172   6.918   6.160  0.00  0.00     0.043 A 
HETATM   13  C   UNK     0       4.533   6.911   4.785  0.00  0.00    -0.009 A 
HETATM   14  O   UNK     0       5.981   6.407   2.072  0.00  0.00    -0.287 OA
ENDROOT
BRANCH  13  15
HETATM   15  C   UNK     0       3.632   7.420   3.808  0.00  0.00    -0.022 A 
HETATM   16  C   UNK     0       3.643   8.790   3.451  0.00  0.00     0.029 A 
HETATM   17  C   UNK     0       2.731   9.266   2.492  0.00  0.00     0.088 A 
HETATM   18  N   UNK     0       1.841   8.412   1.925  0.00  0.00    -0.375 N 
HETATM   19  C   UNK     0       1.793   7.093   2.240  0.00  0.00     0.088 A 
HETATM   20  HN  UNK     0       1.183   8.776   1.235  1.00  0.00     0.164 HD
HETATM   21  C   UNK     0       2.691   6.566   3.186  0.00  0.00     0.029 A 
ENDBRANCH  13  15
BRANCH  11  22
HETATM   22  N   UNK     0       4.584   6.480   8.465  0.00  0.00    -0.327 N 
HETATM   23  C   UNK     0       3.648   5.667   9.041  0.00  0.00     0.223 C 
HETATM   24  O   UNK     0       3.136   4.695   8.438  0.00  0.00    -0.273 OA
HETATM   25  H   UNK     0       4.990   7.142   9.046  0.00  0.00     0.169 HD
BRANCH  23  26
HETATM   26  C   UNK     0       3.241   5.903  10.443  0.00  0.00     0.118 C 
BRANCH  26  27
HETATM   27  C   UNK     0       1.845   5.310  10.750  0.00  0.00     0.124 C 
HETATM   28 Cl   UNK     0       0.566   6.311  10.069  0.00  0.00    -0.130 Cl
ENDBRANCH  26  27
ENDBRANCH  23  26
ENDBRANCH  11  22
TORSDOF 4
ENDMDL
MODEL 9
REMARK VINA RESULT:      -6.1      2.019      5.051
REMARK  4 active torsions:
REMARK  status: ('A' for Active; 'I' for Inactive)
REMARK    1  A    between atoms: C_11  and  N_14 
REMARK    2  A    between atoms: C_13  and  C_21 
REMARK       I    between atoms: N_14  and  C_15 
REMARK    3  A    between atoms: C_15  and  C_16 
REMARK    4  A    between atoms: C_16  and  C_17 
ROOT
HETATM    1  C   UNK     0       6.435  -5.586  -0.945  0.00  0.00     0.016 A 
HETATM    2  C   UNK     0       6.546  -4.972  -2.211  0.00  0.00     0.001 A 
HETATM    3  C   UNK     0       7.629  -4.110  -2.497  0.00  0.00     0.001 A 
HETATM    4  C   UNK     0       8.621  -3.858  -1.525  0.00  0.00     0.013 A 
HETATM    5  C   UNK     0       8.506  -4.487  -0.269  0.00  0.00    -0.011 A 
HETATM    6  C   UNK     0       7.428  -5.327   0.018  0.00  0.00     0.026 A 
HETATM    7  C   UNK     0       9.318  -4.443   0.866  0.00  0.00    -0.008 A 
HETATM    8  C   UNK     0       8.726  -5.218   1.870  0.00  0.00     0.037 A 
HETATM    9  C   UNK     0       7.559  -5.789   1.329  0.00  0.00     0.195 A 
HETATM   10  C   UNK     0      10.541  -3.788   1.070  0.00  0.00     0.043 A 
HETATM   11  C   UNK     0      11.183  -3.892   2.328  0.00  0.00     0.036 A 
HETATM   12  C   UNK     0      10.565  -4.660   3.345  0.00  0.00     0.043 A 
HETATM   13  C   UNK     0       9.327  -5.328   3.149  0.00  0.00    -0.009 A 
HETATM   14  O   UNK     0       6.772  -6.589   1.885  0.00  0.00    -0.287 OA
ENDROOT
BRANCH  13  15
HETATM   15  C   UNK     0       8.732  -6.058   4.216  0.00  0.00    -0.022 A 
HETATM   16  C   UNK     0       7.831  -5.434   5.111  0.00  0.00     0.029 A 
HETATM   17  C   UNK     0       7.270  -6.178   6.165  0.00  0.00     0.088 A 
HETATM   18  N   UNK     0       7.605  -7.484   6.322  0.00  0.00    -0.375 N 
HETATM   19  C   UNK     0       8.466  -8.121   5.489  0.00  0.00     0.088 A 
HETATM   20  HN  UNK     0       7.193  -8.006   7.096  1.00  0.00     0.164 HD
HETATM   21  C   UNK     0       9.046  -7.424   4.414  0.00  0.00     0.029 A 
ENDBRANCH  13  15
BRANCH  11  22
HETATM   22  N   UNK     0      12.390  -3.314   2.616  0.00  0.00    -0.327 N 
HETATM   23  C   UNK     0      13.638  -3.753   2.273  0.00  0.00     0.223 C 
HETATM   24  O   UNK     0      13.823  -4.753   1.540  0.00  0.00    -0.273 OA
HETATM   25  H   UNK     0      12.352  -2.476   3.104  0.00  0.00     0.169 HD
BRANCH  23  26
HETATM   26  C   UNK     0      14.828  -3.010   2.741  0.00  0.00     0.118 C 
BRANCH  26  27
HETATM   27  C   UNK     0      15.514  -2.229   1.595  0.00  0.00     0.124 C 
HETATM   28 Cl   UNK     0      14.359  -1.219   0.732  0.00  0.00    -0.130 Cl
ENDBRANCH  26  27
ENDBRANCH  23  26
ENDBRANCH  11  22
TORSDOF 4
ENDMDL
