MODEL 1
REMARK VINA RESULT:      -6.0      0.000      0.000
REMARK  4 active torsions:
REMARK  status: ('A' for Active; 'I' for Inactive)
REMARK    1  A    between atoms: C_11  and  N_19 
REMARK    2  A    between atoms: C_13  and  C_14 
REMARK       I    between atoms: N_19  and  C_21 
REMARK    3  A    between atoms: C_21  and  C_22 
REMARK    4  A    between atoms: C_22  and  C_23 
ROOT
HETATM    1  C   UNK     0       8.460  -4.378  -2.791  0.00  0.00     0.008 A 
HETATM    2  C   UNK     0       7.190  -4.662  -3.333  0.00  0.00     0.001 A 
HETATM    3  C   UNK     0       6.231  -5.362  -2.570  0.00  0.00     0.001 A 
HETATM    4  C   UNK     0       6.528  -5.779  -1.256  0.00  0.00     0.013 A 
HETATM    5  C   UNK     0       7.797  -5.478  -0.723  0.00  0.00    -0.019 A 
HETATM    6  C   UNK     0       8.752  -4.801  -1.482  0.00  0.00    -0.043 A 
HETATM    7  C   UNK     0       8.344  -5.732   0.527  0.00  0.00    -0.016 A 
HETATM    8  C   UNK     0       9.656  -5.237   0.566  0.00  0.00    -0.031 A 
HETATM    9  C   UNK     0      10.006  -4.630  -0.738  0.00  0.00     0.080 A 
HETATM   10  C   UNK     0       7.754  -6.349   1.642  0.00  0.00     0.042 A 
HETATM   11  C   UNK     0       8.501  -6.478   2.834  0.00  0.00     0.036 A 
HETATM   12  C   UNK     0       9.815  -5.951   2.875  0.00  0.00     0.043 A 
HETATM   13  C   UNK     0      10.429  -5.330   1.753  0.00  0.00    -0.009 A 
ENDROOT
BRANCH  13  14
HETATM   14  C   UNK     0      11.760  -4.828   1.870  0.00  0.00     0.015 A 
HETATM   15  C   UNK     0      12.198  -3.509   2.079  0.00  0.00     0.020 A 
HETATM   16  C   UNK     0      13.588  -3.313   2.138  0.00  0.00     0.008 A 
HETATM   17  C   UNK     0      14.354  -4.463   1.957  0.00  0.00     0.050 A 
HETATM   18  S   UNK     0      13.229  -5.785   1.730  0.00  0.00    -0.101 SA
ENDBRANCH  13  14
BRANCH  11  19
HETATM   19  N   UNK     0       8.037  -7.067   3.980  0.00  0.00    -0.327 N 
HETATM   20  C   UNK     0       7.293  -6.517   4.985  0.00  0.00     0.223 C 
HETATM   21  O   UNK     0       6.889  -5.330   4.961  0.00  0.00    -0.273 OA
HETATM   22  H   UNK     0       8.232  -8.013   4.074  0.00  0.00     0.169 HD
BRANCH  20  23
HETATM   23  C   UNK     0       6.895  -7.357   6.134  0.00  0.00     0.118 C 
BRANCH  23  24
HETATM   24  C   UNK     0       7.541  -6.874   7.452  0.00  0.00     0.124 C 
HETATM   25 Cl   UNK     0       9.277  -6.655   7.249  0.00  0.00    -0.130 Cl
ENDBRANCH  23  24
ENDBRANCH  20  23
ENDBRANCH  11  19
TORSDOF 4
ENDMDL
MODEL 2
REMARK VINA RESULT:      -5.9      2.553      3.716
REMARK  4 active torsions:
REMARK  status: ('A' for Active; 'I' for Inactive)
REMARK    1  A    between atoms: C_11  and  N_19 
REMARK    2  A    between atoms: C_13  and  C_14 
REMARK       I    between atoms: N_19  and  C_21 
REMARK    3  A    between atoms: C_21  and  C_22 
REMARK    4  A    between atoms: C_22  and  C_23 
ROOT
HETATM    1  C   UNK     0       7.732  -6.066  -2.990  0.00  0.00     0.008 A 
HETATM    2  C   UNK     0       7.356  -4.773  -3.407  0.00  0.00     0.001 A 
HETATM    3  C   UNK     0       7.257  -3.722  -2.469  0.00  0.00     0.001 A 
HETATM    4  C   UNK     0       7.540  -3.952  -1.106  0.00  0.00     0.013 A 
HETATM    5  C   UNK     0       7.926  -5.246  -0.706  0.00  0.00    -0.019 A 
HETATM    6  C   UNK     0       8.009  -6.289  -1.629  0.00  0.00    -0.043 A 
HETATM    7  C   UNK     0       8.287  -5.746   0.539  0.00  0.00    -0.016 A 
HETATM    8  C   UNK     0       8.581  -7.112   0.419  0.00  0.00    -0.031 A 
HETATM    9  C   UNK     0       8.393  -7.550  -0.983  0.00  0.00     0.080 A 
HETATM   10  C   UNK     0       8.398  -5.070   1.764  0.00  0.00     0.042 A 
HETATM   11  C   UNK     0       8.813  -5.785   2.910  0.00  0.00     0.036 A 
HETATM   12  C   UNK     0       9.135  -7.158   2.777  0.00  0.00     0.043 A 
HETATM   13  C   UNK     0       9.022  -7.857   1.544  0.00  0.00    -0.009 A 
ENDROOT
BRANCH  13  14
HETATM   14  C   UNK     0       9.359  -9.243   1.490  0.00  0.00     0.015 A 
HETATM   15  C   UNK     0       8.531 -10.350   1.236  0.00  0.00     0.020 A 
HETATM   16  C   UNK     0       9.148 -11.612   1.260  0.00  0.00     0.008 A 
HETATM   17  C   UNK     0      10.509 -11.598   1.556  0.00  0.00     0.050 A 
HETATM   18  S   UNK     0      10.957  -9.920   1.781  0.00  0.00    -0.101 SA
ENDBRANCH  13  14
BRANCH  11  19
HETATM   19  N   UNK     0       8.949  -5.239   4.158  0.00  0.00    -0.327 N 
HETATM   20  C   UNK     0       8.007  -5.090   5.136  0.00  0.00     0.223 C 
HETATM   21  O   UNK     0       6.826  -5.493   5.010  0.00  0.00    -0.273 OA
HETATM   22  H   UNK     0       9.846  -4.954   4.395  0.00  0.00     0.169 HD
BRANCH  20  23
HETATM   23  C   UNK     0       8.391  -4.474   6.423  0.00  0.00     0.118 C 
BRANCH  23  24
HETATM   24  C   UNK     0       9.500  -5.277   7.139  0.00  0.00     0.124 C 
HETATM   25 Cl   UNK     0       8.952  -6.913   7.493  0.00  0.00    -0.130 Cl
ENDBRANCH  23  24
ENDBRANCH  20  23
ENDBRANCH  11  19
TORSDOF 4
ENDMDL
MODEL 3
REMARK VINA RESULT:      -5.8      3.178      5.558
REMARK  4 active torsions:
REMARK  status: ('A' for Active; 'I' for Inactive)
REMARK    1  A    between atoms: C_11  and  N_19 
REMARK    2  A    between atoms: C_13  and  C_14 
REMARK       I    between atoms: N_19  and  C_21 
REMARK    3  A    between atoms: C_21  and  C_22 
REMARK    4  A    between atoms: C_22  and  C_23 
ROOT
HETATM    1  C   UNK     0       6.324  -5.566  -1.438  0.00  0.00     0.008 A 
HETATM    2  C   UNK     0       6.620  -5.008  -2.699  0.00  0.00     0.001 A 
HETATM    3  C   UNK     0       7.781  -4.224  -2.876  0.00  0.00     0.001 A 
HETATM    4  C   UNK     0       8.660  -3.995  -1.798  0.00  0.00     0.013 A 
HETATM    5  C   UNK     0       8.358  -4.568  -0.547  0.00  0.00    -0.019 A 
HETATM    6  C   UNK     0       7.203  -5.330  -0.366  0.00  0.00    -0.043 A 
HETATM    7  C   UNK     0       9.044  -4.537   0.660  0.00  0.00    -0.016 A 
HETATM    8  C   UNK     0       8.321  -5.260   1.621  0.00  0.00    -0.031 A 
HETATM    9  C   UNK     0       7.076  -5.793   1.021  0.00  0.00     0.080 A 
HETATM   10  C   UNK     0      10.275  -3.934   0.962  0.00  0.00     0.042 A 
HETATM   11  C   UNK     0      10.801  -4.055   2.268  0.00  0.00     0.036 A 
HETATM   12  C   UNK     0      10.079  -4.810   3.225  0.00  0.00     0.043 A 
HETATM   13  C   UNK     0       8.828  -5.421   2.937  0.00  0.00    -0.009 A 
ENDROOT
BRANCH  13  14
HETATM   14  C   UNK     0       8.157  -6.162   3.956  0.00  0.00     0.015 A 
HETATM   15  C   UNK     0       7.605  -7.454   3.899  0.00  0.00     0.020 A 
HETATM   16  C   UNK     0       6.987  -7.922   5.070  0.00  0.00     0.008 A 
HETATM   17  C   UNK     0       6.986  -7.025   6.136  0.00  0.00     0.050 A 
HETATM   18  S   UNK     0       7.815  -5.586   5.582  0.00  0.00    -0.101 SA
ENDBRANCH  13  14
BRANCH  11  19
HETATM   19  N   UNK     0      11.984  -3.506   2.682  0.00  0.00    -0.327 N 
HETATM   20  C   UNK     0      13.253  -3.985   2.523  0.00  0.00     0.223 C 
HETATM   21  O   UNK     0      13.507  -5.046   1.905  0.00  0.00    -0.273 OA
HETATM   22  H   UNK     0      11.915  -2.640   3.114  0.00  0.00     0.169 HD
BRANCH  20  23
HETATM   23  C   UNK     0      14.393  -3.206   3.050  0.00  0.00     0.118 C 
BRANCH  23  24
HETATM   24  C   UNK     0      15.247  -2.595   1.918  0.00  0.00     0.124 C 
HETATM   25 Cl   UNK     0      14.241  -1.657   0.817  0.00  0.00    -0.130 Cl
ENDBRANCH  23  24
ENDBRANCH  20  23
ENDBRANCH  11  19
TORSDOF 4
ENDMDL
MODEL 4
REMARK VINA RESULT:      -5.7      3.718      7.093
REMARK  4 active torsions:
REMARK  status: ('A' for Active; 'I' for Inactive)
REMARK    1  A    between atoms: C_11  and  N_19 
REMARK    2  A    between atoms: C_13  and  C_14 
REMARK       I    between atoms: N_19  and  C_21 
REMARK    3  A    between atoms: C_21  and  C_22 
REMARK    4  A    between atoms: C_22  and  C_23 
ROOT
HETATM    1  C   UNK     0       8.601  -6.751   6.762  0.00  0.00     0.008 A 
HETATM    2  C   UNK     0       8.324  -5.542   7.433  0.00  0.00     0.001 A 
HETATM    3  C   UNK     0       8.145  -4.347   6.702  0.00  0.00     0.001 A 
HETATM    4  C   UNK     0       8.234  -4.350   5.294  0.00  0.00     0.013 A 
HETATM    5  C   UNK     0       8.501  -5.567   4.637  0.00  0.00    -0.019 A 
HETATM    6  C   UNK     0       8.694  -6.745   5.359  0.00  0.00    -0.043 A 
HETATM    7  C   UNK     0       8.613  -5.868   3.286  0.00  0.00    -0.016 A 
HETATM    8  C   UNK     0       8.897  -7.234   3.140  0.00  0.00    -0.031 A 
HETATM    9  C   UNK     0       8.993  -7.876   4.472  0.00  0.00     0.080 A 
HETATM   10  C   UNK     0       8.455  -5.023   2.177  0.00  0.00     0.042 A 
HETATM   11  C   UNK     0       8.590  -5.561   0.876  0.00  0.00     0.036 A 
HETATM   12  C   UNK     0       8.849  -6.946   0.736  0.00  0.00     0.043 A 
HETATM   13  C   UNK     0       9.017  -7.813   1.850  0.00  0.00    -0.009 A 
ENDROOT
BRANCH  13  14
HETATM   14  C   UNK     0       9.283  -9.198   1.628  0.00  0.00     0.015 A 
HETATM   15  C   UNK     0       8.407 -10.217   1.217  0.00  0.00     0.020 A 
HETATM   16  C   UNK     0       8.956 -11.504   1.096  0.00  0.00     0.008 A 
HETATM   17  C   UNK     0      10.307 -11.602   1.423  0.00  0.00     0.050 A 
HETATM   18  S   UNK     0      10.834  -9.993   1.868  0.00  0.00    -0.101 SA
ENDBRANCH  13  14
BRANCH  11  19
HETATM   19  N   UNK     0       8.467  -4.837  -0.279  0.00  0.00    -0.327 N 
HETATM   20  C   UNK     0       7.332  -4.471  -0.945  0.00  0.00     0.223 C 
HETATM   21  O   UNK     0       6.181  -4.748  -0.530  0.00  0.00    -0.273 OA
HETATM   22  H   UNK     0       9.298  -4.505  -0.656  0.00  0.00     0.169 HD
BRANCH  20  23
HETATM   23  C   UNK     0       7.444  -3.671  -2.182  0.00  0.00     0.118 C 
BRANCH  23  24
HETATM   24  C   UNK     0       7.738  -4.555  -3.415  0.00  0.00     0.124 C 
HETATM   25 Cl   UNK     0       6.431  -5.705  -3.681  0.00  0.00    -0.130 Cl
ENDBRANCH  23  24
ENDBRANCH  20  23
ENDBRANCH  11  19
TORSDOF 4
ENDMDL
MODEL 5
REMARK VINA RESULT:      -5.7      1.660      4.930
REMARK  4 active torsions:
REMARK  status: ('A' for Active; 'I' for Inactive)
REMARK    1  A    between atoms: C_11  and  N_19 
REMARK    2  A    between atoms: C_13  and  C_14 
REMARK       I    between atoms: N_19  and  C_21 
REMARK    3  A    between atoms: C_21  and  C_22 
REMARK    4  A    between atoms: C_22  and  C_23 
ROOT
HETATM    1  C   UNK     0      13.303  -3.413   0.314  0.00  0.00     0.008 A 
HETATM    2  C   UNK     0      14.372  -3.371   1.232  0.00  0.00     0.001 A 
HETATM    3  C   UNK     0      14.220  -3.907   2.529  0.00  0.00     0.001 A 
HETATM    4  C   UNK     0      12.999  -4.496   2.920  0.00  0.00     0.013 A 
HETATM    5  C   UNK     0      11.943  -4.541   1.989  0.00  0.00    -0.019 A 
HETATM    6  C   UNK     0      12.087  -3.998   0.712  0.00  0.00    -0.043 A 
HETATM    7  C   UNK     0      10.665  -5.076   2.085  0.00  0.00    -0.016 A 
HETATM    8  C   UNK     0       9.982  -4.859   0.879  0.00  0.00    -0.031 A 
HETATM    9  C   UNK     0      10.852  -4.126  -0.070  0.00  0.00     0.080 A 
HETATM   10  C   UNK     0      10.073  -5.764   3.156  0.00  0.00     0.042 A 
HETATM   11  C   UNK     0       8.752  -6.248   3.019  0.00  0.00     0.036 A 
HETATM   12  C   UNK     0       8.079  -6.050   1.789  0.00  0.00     0.043 A 
HETATM   13  C   UNK     0       8.663  -5.350   0.697  0.00  0.00    -0.009 A 
ENDROOT
BRANCH  13  14
HETATM   14  C   UNK     0       7.919  -5.185  -0.509  0.00  0.00     0.015 A 
HETATM   15  C   UNK     0       7.746  -4.033  -1.297  0.00  0.00     0.020 A 
HETATM   16  C   UNK     0       6.938  -4.170  -2.438  0.00  0.00     0.008 A 
HETATM   17  C   UNK     0       6.392  -5.438  -2.626  0.00  0.00     0.050 A 
HETATM   18  S   UNK     0       6.968  -6.433  -1.305  0.00  0.00    -0.101 SA
ENDBRANCH  13  14
BRANCH  11  19
HETATM   19  N   UNK     0       8.068  -6.923   3.994  0.00  0.00    -0.327 N 
HETATM   20  C   UNK     0       7.229  -6.429   4.950  0.00  0.00     0.223 C 
HETATM   21  O   UNK     0       6.938  -5.212   5.037  0.00  0.00    -0.273 OA
HETATM   22  H   UNK     0       8.163  -7.889   3.979  0.00  0.00     0.169 HD
BRANCH  20  23
HETATM   23  C   UNK     0       6.587  -7.359   5.902  0.00  0.00     0.118 C 
BRANCH  23  24
HETATM   24  C   UNK     0       6.823  -6.937   7.369  0.00  0.00     0.124 C 
HETATM   25 Cl   UNK     0       8.545  -6.764   7.696  0.00  0.00    -0.130 Cl
ENDBRANCH  23  24
ENDBRANCH  20  23
ENDBRANCH  11  19
TORSDOF 4
ENDMDL
MODEL 6
REMARK VINA RESULT:      -5.7     15.376     16.144
REMARK  4 active torsions:
REMARK  status: ('A' for Active; 'I' for Inactive)
REMARK    1  A    between atoms: C_11  and  N_19 
REMARK    2  A    between atoms: C_13  and  C_14 
REMARK       I    between atoms: N_19  and  C_21 
REMARK    3  A    between atoms: C_21  and  C_22 
REMARK    4  A    between atoms: C_22  and  C_23 
ROOT
HETATM    1  C   UNK     0       5.018  10.091  -1.681  0.00  0.00     0.008 A 
HETATM    2  C   UNK     0       4.506  10.958  -2.668  0.00  0.00     0.001 A 
HETATM    3  C   UNK     0       3.118  11.206  -2.748  0.00  0.00     0.001 A 
HETATM    4  C   UNK     0       2.230  10.597  -1.838  0.00  0.00     0.013 A 
HETATM    5  C   UNK     0       2.756   9.742  -0.850  0.00  0.00    -0.019 A 
HETATM    6  C   UNK     0       4.125   9.482  -0.780  0.00  0.00    -0.043 A 
HETATM    7  C   UNK     0       2.135   9.042   0.176  0.00  0.00    -0.016 A 
HETATM    8  C   UNK     0       3.100   8.319   0.892  0.00  0.00    -0.031 A 
HETATM    9  C   UNK     0       4.439   8.540   0.300  0.00  0.00     0.080 A 
HETATM   10  C   UNK     0       0.778   9.021   0.536  0.00  0.00     0.042 A 
HETATM   11  C   UNK     0       0.372   8.248   1.647  0.00  0.00     0.036 A 
HETATM   12  C   UNK     0       1.355   7.543   2.382  0.00  0.00     0.043 A 
HETATM   13  C   UNK     0       2.732   7.549   2.027  0.00  0.00    -0.009 A 
ENDROOT
BRANCH  13  14
HETATM   14  C   UNK     0       3.664   6.807   2.813  0.00  0.00     0.015 A 
HETATM   15  C   UNK     0       4.206   5.531   2.580  0.00  0.00     0.020 A 
HETATM   16  C   UNK     0       5.101   5.045   3.548  0.00  0.00     0.008 A 
HETATM   17  C   UNK     0       5.317   5.895   4.631  0.00  0.00     0.050 A 
HETATM   18  S   UNK     0       4.350   7.326   4.347  0.00  0.00    -0.101 SA
ENDBRANCH  13  14
BRANCH  11  19
HETATM   19  N   UNK     0      -0.920   8.143   2.088  0.00  0.00    -0.327 N 
HETATM   20  C   UNK     0      -1.978   7.512   1.498  0.00  0.00     0.223 C 
HETATM   21  O   UNK     0      -1.878   6.881   0.419  0.00  0.00    -0.273 OA
HETATM   22  H   UNK     0      -1.100   8.537   2.957  0.00  0.00     0.169 HD
BRANCH  20  23
HETATM   23  C   UNK     0      -3.294   7.520   2.171  0.00  0.00     0.118 C 
BRANCH  23  24
HETATM   24  C   UNK     0      -3.827   8.955   2.377  0.00  0.00     0.124 C 
HETATM   25 Cl   UNK     0      -3.891   9.355   4.091  0.00  0.00    -0.130 Cl
ENDBRANCH  23  24
ENDBRANCH  20  23
ENDBRANCH  11  19
TORSDOF 4
ENDMDL
MODEL 7
REMARK VINA RESULT:      -5.6      2.990      5.176
REMARK  4 active torsions:
REMARK  status: ('A' for Active; 'I' for Inactive)
REMARK    1  A    between atoms: C_11  and  N_19 
REMARK    2  A    between atoms: C_13  and  C_14 
REMARK       I    between atoms: N_19  and  C_21 
REMARK    3  A    between atoms: C_21  and  C_22 
REMARK    4  A    between atoms: C_22  and  C_23 
ROOT
HETATM    1  C   UNK     0       9.659 -10.953   0.088  0.00  0.00     0.008 A 
HETATM    2  C   UNK     0      10.195 -11.888   0.997  0.00  0.00     0.001 A 
HETATM    3  C   UNK     0      10.485 -11.504   2.324  0.00  0.00     0.001 A 
HETATM    4  C   UNK     0      10.238 -10.185   2.758  0.00  0.00     0.013 A 
HETATM    5  C   UNK     0       9.692  -9.265   1.842  0.00  0.00    -0.019 A 
HETATM    6  C   UNK     0       9.420  -9.638   0.525  0.00  0.00    -0.043 A 
HETATM    7  C   UNK     0       9.324  -7.935   1.995  0.00  0.00    -0.016 A 
HETATM    8  C   UNK     0       8.835  -7.447   0.774  0.00  0.00    -0.031 A 
HETATM    9  C   UNK     0       8.892  -8.511  -0.254  0.00  0.00     0.080 A 
HETATM   10  C   UNK     0       9.369  -7.133   3.146  0.00  0.00     0.042 A 
HETATM   11  C   UNK     0       8.912  -5.797   3.075  0.00  0.00     0.036 A 
HETATM   12  C   UNK     0       8.393  -5.320   1.846  0.00  0.00     0.043 A 
HETATM   13  C   UNK     0       8.347  -6.118   0.670  0.00  0.00    -0.009 A 
ENDROOT
BRANCH  13  14
HETATM   14  C   UNK     0       7.815  -5.565  -0.533  0.00  0.00     0.015 A 
HETATM   15  C   UNK     0       6.587  -5.828  -1.166  0.00  0.00     0.020 A 
HETATM   16  C   UNK     0       6.338  -5.134  -2.362  0.00  0.00     0.008 A 
HETATM   17  C   UNK     0       7.363  -4.285  -2.776  0.00  0.00     0.050 A 
HETATM   18  S   UNK     0       8.629  -4.402  -1.572  0.00  0.00    -0.101 SA
ENDBRANCH  13  14
BRANCH  11  19
HETATM   19  N   UNK     0       8.914  -4.919   4.125  0.00  0.00    -0.327 N 
HETATM   20  C   UNK     0       7.958  -4.724   5.080  0.00  0.00     0.223 C 
HETATM   21  O   UNK     0       6.901  -5.397   5.133  0.00  0.00    -0.273 OA
HETATM   22  H   UNK     0       9.721  -4.389   4.226  0.00  0.00     0.169 HD
BRANCH  20  23
HETATM   23  C   UNK     0       8.184  -3.715   6.136  0.00  0.00     0.118 C 
BRANCH  23  24
HETATM   24  C   UNK     0       8.035  -4.317   7.551  0.00  0.00     0.124 C 
HETATM   25 Cl   UNK     0       9.082  -5.721   7.742  0.00  0.00    -0.130 Cl
ENDBRANCH  23  24
ENDBRANCH  20  23
ENDBRANCH  11  19
TORSDOF 4
ENDMDL
MODEL 8
REMARK VINA RESULT:      -5.6      4.897      8.478
REMARK  4 active torsions:
REMARK  status: ('A' for Active; 'I' for Inactive)
REMARK    1  A    between atoms: C_11  and  N_19 
REMARK    2  A    between atoms: C_13  and  C_14 
REMARK       I    between atoms: N_19  and  C_21 
REMARK    3  A    between atoms: C_21  and  C_22 
REMARK    4  A    between atoms: C_22  and  C_23 
ROOT
HETATM    1  C   UNK     0       7.617  -2.271  11.558  0.00  0.00     0.008 A 
HETATM    2  C   UNK     0       6.258  -2.589  11.754  0.00  0.00     0.001 A 
HETATM    3  C   UNK     0       5.523  -3.235  10.736  0.00  0.00     0.001 A 
HETATM    4  C   UNK     0       6.141  -3.575   9.515  0.00  0.00     0.013 A 
HETATM    5  C   UNK     0       7.503  -3.261   9.337  0.00  0.00    -0.019 A 
HETATM    6  C   UNK     0       8.226  -2.608  10.335  0.00  0.00    -0.043 A 
HETATM    7  C   UNK     0       8.361  -3.499   8.272  0.00  0.00    -0.016 A 
HETATM    8  C   UNK     0       9.629  -2.982   8.577  0.00  0.00    -0.031 A 
HETATM    9  C   UNK     0       9.609  -2.353   9.918  0.00  0.00     0.080 A 
HETATM   10  C   UNK     0       8.106  -4.163   7.062  0.00  0.00     0.042 A 
HETATM   11  C   UNK     0       9.152  -4.312   6.123  0.00  0.00     0.036 A 
HETATM   12  C   UNK     0      10.436  -3.813   6.450  0.00  0.00     0.043 A 
HETATM   13  C   UNK     0      10.709  -3.133   7.668  0.00  0.00    -0.009 A 
ENDROOT
BRANCH  13  14
HETATM   14  C   UNK     0      12.028  -2.652   7.924  0.00  0.00     0.015 A 
HETATM   15  C   UNK     0      12.642  -1.464   7.489  0.00  0.00     0.020 A 
HETATM   16  C   UNK     0      13.972  -1.262   7.892  0.00  0.00     0.008 A 
HETATM   17  C   UNK     0      14.518  -2.288   8.660  0.00  0.00     0.050 A 
HETATM   18  S   UNK     0      13.263  -3.494   8.852  0.00  0.00    -0.101 SA
ENDBRANCH  13  14
BRANCH  11  19
HETATM   19  N   UNK     0       9.022  -4.931   4.909  0.00  0.00    -0.327 N 
HETATM   20  C   UNK     0       8.706  -4.385   3.698  0.00  0.00     0.223 C 
HETATM   21  O   UNK     0       8.513  -3.156   3.535  0.00  0.00    -0.273 OA
HETATM   22  H   UNK     0       9.220  -5.882   4.900  0.00  0.00     0.169 HD
BRANCH  20  23
HETATM   23  C   UNK     0       8.633  -5.256   2.507  0.00  0.00     0.118 C 
BRANCH  23  24
HETATM   24  C   UNK     0       8.644  -4.441   1.194  0.00  0.00     0.124 C 
HETATM   25 Cl   UNK     0       7.196  -4.769   0.247  0.00  0.00    -0.130 Cl
ENDBRANCH  23  24
ENDBRANCH  20  23
ENDBRANCH  11  19
TORSDOF 4
ENDMDL
MODEL 9
REMARK VINA RESULT:      -5.6      3.182      7.071
REMARK  4 active torsions:
REMARK  status: ('A' for Active; 'I' for Inactive)
REMARK    1  A    between atoms: C_11  and  N_19 
REMARK    2  A    between atoms: C_13  and  C_14 
REMARK       I    between atoms: N_19  and  C_21 
REMARK    3  A    between atoms: C_21  and  C_22 
REMARK    4  A    between atoms: C_22  and  C_23 
ROOT
HETATM    1  C   UNK     0       7.219  -6.762   5.778  0.00  0.00     0.008 A 
HETATM    2  C   UNK     0       7.679  -6.568   7.096  0.00  0.00     0.001 A 
HETATM    3  C   UNK     0       8.827  -5.783   7.342  0.00  0.00     0.001 A 
HETATM    4  C   UNK     0       9.521  -5.178   6.274  0.00  0.00     0.013 A 
HETATM    5  C   UNK     0       9.044  -5.372   4.963  0.00  0.00    -0.019 A 
HETATM    6  C   UNK     0       7.920  -6.160   4.717  0.00  0.00    -0.043 A 
HETATM    7  C   UNK     0       9.499  -4.883   3.745  0.00  0.00    -0.016 A 
HETATM    8  C   UNK     0       8.682  -5.374   2.716  0.00  0.00    -0.031 A 
HETATM    9  C   UNK     0       7.629  -6.249   3.281  0.00  0.00     0.080 A 
HETATM   10  C   UNK     0      10.572  -4.015   3.487  0.00  0.00     0.042 A 
HETATM   11  C   UNK     0      10.839  -3.626   2.155  0.00  0.00     0.036 A 
HETATM   12  C   UNK     0       9.992  -4.103   1.124  0.00  0.00     0.043 A 
HETATM   13  C   UNK     0       8.906  -4.987   1.369  0.00  0.00    -0.009 A 
ENDROOT
BRANCH  13  14
HETATM   14  C   UNK     0       8.100  -5.429   0.277  0.00  0.00     0.015 A 
HETATM   15  C   UNK     0       6.941  -4.848  -0.266  0.00  0.00     0.020 A 
HETATM   16  C   UNK     0       6.347  -5.525  -1.345  0.00  0.00     0.008 A 
HETATM   17  C   UNK     0       6.983  -6.706  -1.722  0.00  0.00     0.050 A 
HETATM   18  S   UNK     0       8.363  -6.895  -0.660  0.00  0.00    -0.101 SA
ENDBRANCH  13  14
BRANCH  11  19
HETATM   19  N   UNK     0      11.858  -2.794   1.778  0.00  0.00    -0.327 N 
HETATM   20  C   UNK     0      13.080  -3.116   1.259  0.00  0.00     0.223 C 
HETATM   21  O   UNK     0      13.427  -4.297   1.018  0.00  0.00    -0.273 OA
HETATM   22  H   UNK     0      11.674  -1.844   1.855  0.00  0.00     0.169 HD
BRANCH  20  23
HETATM   23  C   UNK     0      14.028  -2.036   0.914  0.00  0.00     0.118 C 
BRANCH  23  24
HETATM   24  C   UNK     0      15.446  -2.317   1.459  0.00  0.00     0.124 C 
HETATM   25 Cl   UNK     0      15.431  -2.387   3.219  0.00  0.00    -0.130 Cl
ENDBRANCH  23  24
ENDBRANCH  20  23
ENDBRANCH  11  19
TORSDOF 4
ENDMDL
