MODEL 1
REMARK VINA RESULT:      -6.3      0.000      0.000
REMARK  4 active torsions:
REMARK  status: ('A' for Active; 'I' for Inactive)
REMARK    1  A    between atoms: C_11  and  N_14 
REMARK    2  A    between atoms: C_13  and  C_21 
REMARK       I    between atoms: N_14  and  C_15 
REMARK    3  A    between atoms: C_15  and  C_16 
REMARK    4  A    between atoms: C_16  and  C_17 
ROOT
HETATM    1  C   UNK     0      11.384  -7.499  11.060  0.00  0.00     0.008 A 
HETATM    2  C   UNK     0      12.355  -8.402  10.578  0.00  0.00     0.001 A 
HETATM    3  C   UNK     0      12.675  -8.440   9.204  0.00  0.00     0.001 A 
HETATM    4  C   UNK     0      12.019  -7.585   8.295  0.00  0.00     0.013 A 
HETATM    5  C   UNK     0      11.046  -6.693   8.789  0.00  0.00    -0.019 A 
HETATM    6  C   UNK     0      10.733  -6.645  10.150  0.00  0.00    -0.043 A 
HETATM    7  C   UNK     0      10.258  -5.753   8.134  0.00  0.00    -0.016 A 
HETATM    8  C   UNK     0       9.436  -5.110   9.068  0.00  0.00    -0.032 A 
HETATM    9  C   UNK     0       9.695  -5.638  10.429  0.00  0.00     0.080 A 
HETATM   10  C   UNK     0      10.228  -5.410   6.772  0.00  0.00     0.042 A 
HETATM   11  C   UNK     0       9.350  -4.393   6.328  0.00  0.00     0.036 A 
HETATM   12  C   UNK     0       8.526  -3.738   7.277  0.00  0.00     0.042 A 
HETATM   13  C   UNK     0       8.543  -4.086   8.655  0.00  0.00    -0.016 A 
ENDROOT
BRANCH  13  14
HETATM   14  C   UNK     0       7.692  -3.412   9.574  0.00  0.00    -0.023 A 
HETATM   15  C   UNK     0       6.347  -3.816   9.754  0.00  0.00     0.029 A 
HETATM   16  C   UNK     0       5.537  -3.148  10.689  0.00  0.00     0.088 A 
HETATM   17  N   UNK     0       6.037  -2.106  11.398  0.00  0.00    -0.375 N 
HETATM   18  C   UNK     0       7.313  -1.668  11.241  0.00  0.00     0.088 A 
HETATM   19  HN  UNK     0       5.435  -1.635  12.074  1.00  0.00     0.164 HD
HETATM   20  C   UNK     0       8.168  -2.309  10.323  0.00  0.00     0.029 A 
ENDBRANCH  13  14
BRANCH  11  21
HETATM   21  N   UNK     0       9.302  -3.967   5.026  0.00  0.00    -0.327 N 
HETATM   22  C   UNK     0       8.571  -4.481   3.992  0.00  0.00     0.223 C 
HETATM   23  O   UNK     0       7.687  -5.355   4.163  0.00  0.00    -0.273 OA
HETATM   24  H   UNK     0       9.848  -3.193   4.812  0.00  0.00     0.169 HD
BRANCH  22  25
HETATM   25  C   UNK     0       8.809  -3.985   2.619  0.00  0.00     0.118 C 
BRANCH  25  26
HETATM   26  C   UNK     0       8.437  -5.052   1.561  0.00  0.00     0.124 C 
HETATM   27 Cl   UNK     0       7.696  -4.314   0.145  0.00  0.00    -0.130 Cl
ENDBRANCH  25  26
ENDBRANCH  22  25
ENDBRANCH  11  21
TORSDOF 4
ENDMDL
MODEL 2
REMARK VINA RESULT:      -6.2      3.766      8.329
REMARK  4 active torsions:
REMARK  status: ('A' for Active; 'I' for Inactive)
REMARK    1  A    between atoms: C_11  and  N_14 
REMARK    2  A    between atoms: C_13  and  C_21 
REMARK       I    between atoms: N_14  and  C_15 
REMARK    3  A    between atoms: C_15  and  C_16 
REMARK    4  A    between atoms: C_16  and  C_17 
ROOT
HETATM    1  C   UNK     0      13.262  -3.837   0.116  0.00  0.00     0.008 A 
HETATM    2  C   UNK     0      14.430  -3.411   0.783  0.00  0.00     0.001 A 
HETATM    3  C   UNK     0      14.478  -3.383   2.193  0.00  0.00     0.001 A 
HETATM    4  C   UNK     0      13.355  -3.769   2.952  0.00  0.00     0.013 A 
HETATM    5  C   UNK     0      12.193  -4.186   2.274  0.00  0.00    -0.019 A 
HETATM    6  C   UNK     0      12.143  -4.225   0.879  0.00  0.00    -0.043 A 
HETATM    7  C   UNK     0      10.961  -4.614   2.759  0.00  0.00    -0.016 A 
HETATM    8  C   UNK     0      10.123  -4.919   1.680  0.00  0.00    -0.032 A 
HETATM    9  C   UNK     0      10.833  -4.695   0.398  0.00  0.00     0.080 A 
HETATM   10  C   UNK     0      10.534  -4.774   4.088  0.00  0.00     0.042 A 
HETATM   11  C   UNK     0       9.229  -5.253   4.348  0.00  0.00     0.036 A 
HETATM   12  C   UNK     0       8.385  -5.569   3.254  0.00  0.00     0.042 A 
HETATM   13  C   UNK     0       8.805  -5.400   1.907  0.00  0.00    -0.016 A 
ENDROOT
BRANCH  13  14
HETATM   14  C   UNK     0       7.925  -5.718   0.837  0.00  0.00    -0.023 A 
HETATM   15  C   UNK     0       7.319  -4.698   0.062  0.00  0.00     0.029 A 
HETATM   16  C   UNK     0       6.473  -5.042  -1.006  0.00  0.00     0.088 A 
HETATM   17  N   UNK     0       6.222  -6.347  -1.280  0.00  0.00    -0.375 N 
HETATM   18  C   UNK     0       6.760  -7.358  -0.550  0.00  0.00     0.088 A 
HETATM   19  HN  UNK     0       5.608  -6.577  -2.061  1.00  0.00     0.164 HD
HETATM   20  C   UNK     0       7.621  -7.066   0.526  0.00  0.00     0.029 A 
ENDBRANCH  13  14
BRANCH  11  21
HETATM   21  N   UNK     0       8.759  -5.485   5.615  0.00  0.00    -0.327 N 
HETATM   22  C   UNK     0       8.065  -4.636   6.430  0.00  0.00     0.223 C 
HETATM   23  O   UNK     0       7.614  -3.536   6.029  0.00  0.00    -0.273 OA
HETATM   24  H   UNK     0       8.931  -6.370   5.975  0.00  0.00     0.169 HD
BRANCH  22  25
HETATM   25  C   UNK     0       7.816  -5.024   7.836  0.00  0.00     0.118 C 
BRANCH  25  26
HETATM   26  C   UNK     0       7.740  -6.563   7.991  0.00  0.00     0.124 C 
HETATM   27 Cl   UNK     0       6.284  -7.208   7.242  0.00  0.00    -0.130 Cl
ENDBRANCH  25  26
ENDBRANCH  22  25
ENDBRANCH  11  21
TORSDOF 4
ENDMDL
MODEL 3
REMARK VINA RESULT:      -6.1      2.775      3.560
REMARK  4 active torsions:
REMARK  status: ('A' for Active; 'I' for Inactive)
REMARK    1  A    between atoms: C_11  and  N_14 
REMARK    2  A    between atoms: C_13  and  C_21 
REMARK       I    between atoms: N_14  and  C_15 
REMARK    3  A    between atoms: C_15  and  C_16 
REMARK    4  A    between atoms: C_16  and  C_17 
ROOT
HETATM    1  C   UNK     0      12.358  -1.103   9.060  0.00  0.00     0.008 A 
HETATM    2  C   UNK     0      13.455  -0.928   8.190  0.00  0.00     0.001 A 
HETATM    3  C   UNK     0      13.580  -1.723   7.030  0.00  0.00     0.001 A 
HETATM    4  C   UNK     0      12.617  -2.709   6.734  0.00  0.00     0.013 A 
HETATM    5  C   UNK     0      11.530  -2.877   7.615  0.00  0.00    -0.019 A 
HETATM    6  C   UNK     0      11.396  -2.086   8.759  0.00  0.00    -0.043 A 
HETATM    7  C   UNK     0      10.452  -3.755   7.572  0.00  0.00    -0.016 A 
HETATM    8  C   UNK     0       9.635  -3.535   8.687  0.00  0.00    -0.032 A 
HETATM    9  C   UNK     0      10.186  -2.440   9.520  0.00  0.00     0.080 A 
HETATM   10  C   UNK     0      10.130  -4.723   6.606  0.00  0.00     0.042 A 
HETATM   11  C   UNK     0       8.954  -5.495   6.757  0.00  0.00     0.036 A 
HETATM   12  C   UNK     0       8.124  -5.264   7.882  0.00  0.00     0.042 A 
HETATM   13  C   UNK     0       8.448  -4.295   8.870  0.00  0.00    -0.016 A 
ENDROOT
BRANCH  13  14
HETATM   14  C   UNK     0       7.594  -4.100   9.990  0.00  0.00    -0.023 A 
HETATM   15  C   UNK     0       6.302  -3.543   9.834  0.00  0.00     0.029 A 
HETATM   16  C   UNK     0       5.468  -3.386  10.955  0.00  0.00     0.088 A 
HETATM   17  N   UNK     0       5.911  -3.748  12.185  0.00  0.00    -0.375 N 
HETATM   18  C   UNK     0       7.151  -4.264  12.386  0.00  0.00     0.088 A 
HETATM   19  HN  UNK     0       5.291  -3.630  12.986  1.00  0.00     0.164 HD
HETATM   20  C   UNK     0       8.021  -4.448  11.295  0.00  0.00     0.029 A 
ENDBRANCH  13  14
BRANCH  11  21
HETATM   21  N   UNK     0       8.546  -6.420   5.832  0.00  0.00    -0.327 N 
HETATM   22  C   UNK     0       7.498  -6.340   4.959  0.00  0.00     0.223 C 
HETATM   23  O   UNK     0       6.846  -5.282   4.785  0.00  0.00    -0.273 OA
HETATM   24  H   UNK     0       9.077  -7.232   5.781  0.00  0.00     0.169 HD
BRANCH  22  25
HETATM   25  C   UNK     0       7.118  -7.534   4.172  0.00  0.00     0.118 C 
BRANCH  25  26
HETATM   26  C   UNK     0       7.278  -7.282   2.652  0.00  0.00     0.124 C 
HETATM   27 Cl   UNK     0       8.868  -6.627   2.279  0.00  0.00    -0.130 Cl
ENDBRANCH  25  26
ENDBRANCH  22  25
ENDBRANCH  11  21
TORSDOF 4
ENDMDL
MODEL 4
REMARK VINA RESULT:      -6.1      4.531      9.432
REMARK  4 active torsions:
REMARK  status: ('A' for Active; 'I' for Inactive)
REMARK    1  A    between atoms: C_11  and  N_14 
REMARK    2  A    between atoms: C_13  and  C_21 
REMARK       I    between atoms: N_14  and  C_15 
REMARK    3  A    between atoms: C_15  and  C_16 
REMARK    4  A    between atoms: C_16  and  C_17 
ROOT
HETATM    1  C   UNK     0       8.574  -4.327  -2.586  0.00  0.00     0.008 A 
HETATM    2  C   UNK     0       7.290  -4.508  -3.142  0.00  0.00     0.001 A 
HETATM    3  C   UNK     0       6.271  -5.137  -2.396  0.00  0.00     0.001 A 
HETATM    4  C   UNK     0       6.527  -5.603  -1.091  0.00  0.00     0.013 A 
HETATM    5  C   UNK     0       7.815  -5.423  -0.550  0.00  0.00    -0.019 A 
HETATM    6  C   UNK     0       8.825  -4.792  -1.280  0.00  0.00    -0.043 A 
HETATM    7  C   UNK     0       8.340  -5.775   0.689  0.00  0.00    -0.016 A 
HETATM    8  C   UNK     0       9.681  -5.381   0.751  0.00  0.00    -0.032 A 
HETATM    9  C   UNK     0      10.079  -4.715  -0.512  0.00  0.00     0.080 A 
HETATM   10  C   UNK     0       7.709  -6.404   1.777  0.00  0.00     0.042 A 
HETATM   11  C   UNK     0       8.441  -6.645   2.963  0.00  0.00     0.036 A 
HETATM   12  C   UNK     0       9.797  -6.237   3.026  0.00  0.00     0.042 A 
HETATM   13  C   UNK     0      10.445  -5.611   1.926  0.00  0.00    -0.016 A 
ENDROOT
BRANCH  13  14
HETATM   14  C   UNK     0      11.810  -5.226   2.025  0.00  0.00    -0.023 A 
HETATM   15  C   UNK     0      12.176  -3.966   2.561  0.00  0.00     0.029 A 
HETATM   16  C   UNK     0      13.534  -3.622   2.671  0.00  0.00     0.088 A 
HETATM   17  N   UNK     0      14.489  -4.486   2.246  0.00  0.00    -0.375 N 
HETATM   18  C   UNK     0      14.186  -5.693   1.703  0.00  0.00     0.088 A 
HETATM   19  HN  UNK     0      15.470  -4.220   2.336  1.00  0.00     0.164 HD
HETATM   20  C   UNK     0      12.840  -6.089   1.578  0.00  0.00     0.029 A 
ENDBRANCH  13  14
BRANCH  11  21
HETATM   21  N   UNK     0       7.882  -7.204   4.082  0.00  0.00    -0.327 N 
HETATM   22  C   UNK     0       7.211  -6.581   5.097  0.00  0.00     0.223 C 
HETATM   23  O   UNK     0       6.874  -5.374   5.038  0.00  0.00    -0.273 OA
HETATM   24  H   UNK     0       7.961  -8.169   4.160  0.00  0.00     0.169 HD
BRANCH  22  25
HETATM   25  C   UNK     0       6.851  -7.351   6.308  0.00  0.00     0.118 C 
BRANCH  25  26
HETATM   26  C   UNK     0       7.480  -6.730   7.579  0.00  0.00     0.124 C 
HETATM   27 Cl   UNK     0       9.211  -6.486   7.378  0.00  0.00    -0.130 Cl
ENDBRANCH  25  26
ENDBRANCH  22  25
ENDBRANCH  11  21
TORSDOF 4
ENDMDL
MODEL 5
REMARK VINA RESULT:      -6.1      4.073      6.006
REMARK  4 active torsions:
REMARK  status: ('A' for Active; 'I' for Inactive)
REMARK    1  A    between atoms: C_11  and  N_14 
REMARK    2  A    between atoms: C_13  and  C_21 
REMARK       I    between atoms: N_14  and  C_15 
REMARK    3  A    between atoms: C_15  and  C_16 
REMARK    4  A    between atoms: C_16  and  C_17 
ROOT
HETATM    1  C   UNK     0      10.548  -9.960   4.111  0.00  0.00     0.008 A 
HETATM    2  C   UNK     0      10.687 -11.042   3.218  0.00  0.00     0.001 A 
HETATM    3  C   UNK     0      10.434 -10.869   1.840  0.00  0.00     0.001 A 
HETATM    4  C   UNK     0      10.028  -9.615   1.343  0.00  0.00     0.013 A 
HETATM    5  C   UNK     0       9.887  -8.543   2.246  0.00  0.00    -0.019 A 
HETATM    6  C   UNK     0      10.146  -8.707   3.609  0.00  0.00    -0.043 A 
HETATM    7  C   UNK     0       9.509  -7.221   2.038  0.00  0.00    -0.016 A 
HETATM    8  C   UNK     0       9.517  -6.541   3.262  0.00  0.00    -0.032 A 
HETATM    9  C   UNK     0       9.935  -7.453   4.353  0.00  0.00     0.080 A 
HETATM   10  C   UNK     0       9.178  -6.568   0.839  0.00  0.00     0.042 A 
HETATM   11  C   UNK     0       8.844  -5.193   0.862  0.00  0.00     0.036 A 
HETATM   12  C   UNK     0       8.861  -4.506   2.102  0.00  0.00     0.042 A 
HETATM   13  C   UNK     0       9.185  -5.161   3.321  0.00  0.00    -0.016 A 
ENDROOT
BRANCH  13  14
HETATM   14  C   UNK     0       9.181  -4.438   4.545  0.00  0.00    -0.023 A 
HETATM   15  C   UNK     0       8.022  -4.387   5.358  0.00  0.00     0.029 A 
HETATM   16  C   UNK     0       8.053  -3.686   6.576  0.00  0.00     0.088 A 
HETATM   17  N   UNK     0       9.185  -3.045   6.960  0.00  0.00    -0.375 N 
HETATM   18  C   UNK     0      10.312  -3.046   6.202  0.00  0.00     0.088 A 
HETATM   19  HN  UNK     0       9.190  -2.544   7.849  1.00  0.00     0.164 HD
HETATM   20  C   UNK     0      10.334  -3.740   4.977  0.00  0.00     0.029 A 
ENDBRANCH  13  14
BRANCH  11  21
HETATM   21  N   UNK     0       8.562  -4.476  -0.271  0.00  0.00    -0.327 N 
HETATM   22  C   UNK     0       7.366  -4.356  -0.923  0.00  0.00     0.223 C 
HETATM   23  O   UNK     0       6.291  -4.788  -0.441  0.00  0.00    -0.273 OA
HETATM   24  H   UNK     0       9.303  -3.978  -0.654  0.00  0.00     0.169 HD
BRANCH  22  25
HETATM   25  C   UNK     0       7.323  -3.681  -2.238  0.00  0.00     0.118 C 
BRANCH  25  26
HETATM   26  C   UNK     0       7.682  -4.658  -3.385  0.00  0.00     0.124 C 
HETATM   27 Cl   UNK     0       6.360  -5.775  -3.707  0.00  0.00    -0.130 Cl
ENDBRANCH  25  26
ENDBRANCH  22  25
ENDBRANCH  11  21
TORSDOF 4
ENDMDL
MODEL 6
REMARK VINA RESULT:      -6.1      4.050      8.910
REMARK  4 active torsions:
REMARK  status: ('A' for Active; 'I' for Inactive)
REMARK    1  A    between atoms: C_11  and  N_14 
REMARK    2  A    between atoms: C_13  and  C_21 
REMARK       I    between atoms: N_14  and  C_15 
REMARK    3  A    between atoms: C_15  and  C_16 
REMARK    4  A    between atoms: C_16  and  C_17 
ROOT
HETATM    1  C   UNK     0      13.637  -4.277  -0.907  0.00  0.00     0.008 A 
HETATM    2  C   UNK     0      14.862  -3.793  -0.402  0.00  0.00     0.001 A 
HETATM    3  C   UNK     0      14.931  -3.231   0.891  0.00  0.00     0.001 A 
HETATM    4  C   UNK     0      13.772  -3.136   1.688  0.00  0.00     0.013 A 
HETATM    5  C   UNK     0      12.554  -3.617   1.170  0.00  0.00    -0.019 A 
HETATM    6  C   UNK     0      12.483  -4.183  -0.106  0.00  0.00    -0.043 A 
HETATM    7  C   UNK     0      11.279  -3.652   1.725  0.00  0.00    -0.016 A 
HETATM    8  C   UNK     0      10.393  -4.229   0.808  0.00  0.00    -0.032 A 
HETATM    9  C   UNK     0      11.113  -4.615  -0.429  0.00  0.00     0.080 A 
HETATM   10  C   UNK     0      10.849  -3.227   2.993  0.00  0.00     0.042 A 
HETATM   11  C   UNK     0       9.491  -3.384   3.358  0.00  0.00     0.036 A 
HETATM   12  C   UNK     0       8.598  -3.977   2.431  0.00  0.00     0.042 A 
HETATM   13  C   UNK     0       9.022  -4.399   1.141  0.00  0.00    -0.016 A 
ENDROOT
BRANCH  13  14
HETATM   14  C   UNK     0       8.093  -4.979   0.235  0.00  0.00    -0.023 A 
HETATM   15  C   UNK     0       7.606  -4.251  -0.877  0.00  0.00     0.029 A 
HETATM   16  C   UNK     0       6.707  -4.858  -1.771  0.00  0.00     0.088 A 
HETATM   17  N   UNK     0       6.293  -6.132  -1.555  0.00  0.00    -0.375 N 
HETATM   18  C   UNK     0       6.713  -6.860  -0.489  0.00  0.00     0.088 A 
HETATM   19  HN  UNK     0       5.643  -6.557  -2.216  1.00  0.00     0.164 HD
HETATM   20  C   UNK     0       7.620  -6.300   0.432  0.00  0.00     0.029 A 
ENDBRANCH  13  14
BRANCH  11  21
HETATM   21  N   UNK     0       9.007  -3.044   4.594  0.00  0.00    -0.327 N 
HETATM   22  C   UNK     0       8.822  -3.848   5.683  0.00  0.00     0.223 C 
HETATM   23  O   UNK     0       9.245  -5.028   5.727  0.00  0.00    -0.273 OA
HETATM   24  H   UNK     0       8.778  -2.108   4.717  0.00  0.00     0.169 HD
BRANCH  22  25
HETATM   25  C   UNK     0       8.110  -3.315   6.865  0.00  0.00     0.118 C 
BRANCH  25  26
HETATM   26  C   UNK     0       7.861  -4.420   7.920  0.00  0.00     0.124 C 
HETATM   27 Cl   UNK     0       6.708  -3.889   9.139  0.00  0.00    -0.130 Cl
ENDBRANCH  25  26
ENDBRANCH  22  25
ENDBRANCH  11  21
TORSDOF 4
ENDMDL
MODEL 7
REMARK VINA RESULT:      -6.0     18.090     21.712
REMARK  4 active torsions:
REMARK  status: ('A' for Active; 'I' for Inactive)
REMARK    1  A    between atoms: C_11  and  N_14 
REMARK    2  A    between atoms: C_13  and  C_21 
REMARK       I    between atoms: N_14  and  C_15 
REMARK    3  A    between atoms: C_15  and  C_16 
REMARK    4  A    between atoms: C_16  and  C_17 
ROOT
HETATM    1  C   UNK     0       1.668  -0.516 -11.971  0.00  0.00     0.008 A 
HETATM    2  C   UNK     0       0.531  -0.796 -12.758  0.00  0.00     0.001 A 
HETATM    3  C   UNK     0      -0.506   0.154 -12.878  0.00  0.00     0.001 A 
HETATM    4  C   UNK     0      -0.423   1.388 -12.202  0.00  0.00     0.013 A 
HETATM    5  C   UNK     0       0.714   1.652 -11.415  0.00  0.00    -0.019 A 
HETATM    6  C   UNK     0       1.748   0.719 -11.300  0.00  0.00    -0.043 A 
HETATM    7  C   UNK     0       1.056   2.765 -10.654  0.00  0.00    -0.016 A 
HETATM    8  C   UNK     0       2.298   2.545 -10.047  0.00  0.00    -0.032 A 
HETATM    9  C   UNK     0       2.828   1.215 -10.431  0.00  0.00     0.080 A 
HETATM   10  C   UNK     0       0.355   3.970 -10.474  0.00  0.00     0.042 A 
HETATM   11  C   UNK     0       0.912   4.987  -9.664  0.00  0.00     0.036 A 
HETATM   12  C   UNK     0       2.175   4.765  -9.059  0.00  0.00     0.042 A 
HETATM   13  C   UNK     0       2.885   3.545  -9.226  0.00  0.00    -0.016 A 
ENDROOT
BRANCH  13  14
HETATM   14  C   UNK     0       4.144   3.357  -8.593  0.00  0.00    -0.023 A 
HETATM   15  C   UNK     0       4.528   2.088  -8.095  0.00  0.00     0.029 A 
HETATM   16  C   UNK     0       5.789   1.925  -7.497  0.00  0.00     0.088 A 
HETATM   17  N   UNK     0       6.626   2.986  -7.379  0.00  0.00    -0.375 N 
HETATM   18  C   UNK     0       6.292   4.226  -7.820  0.00  0.00     0.088 A 
HETATM   19  HN  UNK     0       7.539   2.847  -6.945  1.00  0.00     0.164 HD
HETATM   20  C   UNK     0       5.042   4.440  -8.433  0.00  0.00     0.029 A 
ENDBRANCH  13  14
BRANCH  11  21
HETATM   21  N   UNK     0       0.315   6.207  -9.484  0.00  0.00    -0.327 N 
HETATM   22  C   UNK     0       0.330   7.290 -10.318  0.00  0.00     0.223 C 
HETATM   23  O   UNK     0       0.788   7.234 -11.485  0.00  0.00    -0.273 OA
HETATM   24  H   UNK     0      -0.195   6.313  -8.665  0.00  0.00     0.169 HD
BRANCH  22  25
HETATM   25  C   UNK     0      -0.225   8.577  -9.845  0.00  0.00     0.118 C 
BRANCH  25  26
HETATM   26  C   UNK     0       0.592   9.141  -8.657  0.00  0.00     0.124 C 
HETATM   27 Cl   UNK     0       2.320   9.073  -8.983  0.00  0.00    -0.130 Cl
ENDBRANCH  25  26
ENDBRANCH  22  25
ENDBRANCH  11  21
TORSDOF 4
ENDMDL
MODEL 8
REMARK VINA RESULT:      -6.0      4.219      7.606
REMARK  4 active torsions:
REMARK  status: ('A' for Active; 'I' for Inactive)
REMARK    1  A    between atoms: C_11  and  N_14 
REMARK    2  A    between atoms: C_13  and  C_21 
REMARK       I    between atoms: N_14  and  C_15 
REMARK    3  A    between atoms: C_15  and  C_16 
REMARK    4  A    between atoms: C_16  and  C_17 
ROOT
HETATM    1  C   UNK     0       8.793  -5.951   6.908  0.00  0.00     0.008 A 
HETATM    2  C   UNK     0       8.568  -4.698   7.516  0.00  0.00     0.001 A 
HETATM    3  C   UNK     0       8.363  -3.547   6.726  0.00  0.00     0.001 A 
HETATM    4  C   UNK     0       8.392  -3.634   5.320  0.00  0.00     0.013 A 
HETATM    5  C   UNK     0       8.624  -4.890   4.725  0.00  0.00    -0.019 A 
HETATM    6  C   UNK     0       8.818  -6.034   5.503  0.00  0.00    -0.043 A 
HETATM    7  C   UNK     0       8.703  -5.263   3.388  0.00  0.00    -0.016 A 
HETATM    8  C   UNK     0       8.956  -6.638   3.307  0.00  0.00    -0.032 A 
HETATM    9  C   UNK     0       9.039  -7.225   4.665  0.00  0.00     0.080 A 
HETATM   10  C   UNK     0       8.548  -4.477   2.233  0.00  0.00     0.042 A 
HETATM   11  C   UNK     0       8.648  -5.082   0.958  0.00  0.00     0.036 A 
HETATM   12  C   UNK     0       8.894  -6.475   0.880  0.00  0.00     0.042 A 
HETATM   13  C   UNK     0       9.063  -7.276   2.042  0.00  0.00    -0.016 A 
ENDROOT
BRANCH  13  14
HETATM   14  C   UNK     0       9.320  -8.669   1.921  0.00  0.00    -0.023 A 
HETATM   15  C   UNK     0       8.351  -9.544   1.370  0.00  0.00     0.029 A 
HETATM   16  C   UNK     0       8.642 -10.913   1.238  0.00  0.00     0.088 A 
HETATM   17  N   UNK     0       9.838 -11.396   1.656  0.00  0.00    -0.375 N 
HETATM   18  C   UNK     0      10.787 -10.600   2.212  0.00  0.00     0.088 A 
HETATM   19  HN  UNK     0      10.032 -12.392   1.550  1.00  0.00     0.164 HD
HETATM   20  C   UNK     0      10.549  -9.220   2.360  0.00  0.00     0.029 A 
ENDBRANCH  13  14
BRANCH  11  21
HETATM   21  N   UNK     0       8.456  -4.392  -0.210  0.00  0.00    -0.327 N 
HETATM   22  C   UNK     0       7.320  -4.300  -0.965  0.00  0.00     0.223 C 
HETATM   23  O   UNK     0       6.212  -4.734  -0.567  0.00  0.00    -0.273 OA
HETATM   24  H   UNK     0       9.223  -3.894  -0.540  0.00  0.00     0.169 HD
BRANCH  22  25
HETATM   25  C   UNK     0       7.383  -3.654  -2.293  0.00  0.00     0.118 C 
BRANCH  25  26
HETATM   26  C   UNK     0       7.731  -4.677  -3.402  0.00  0.00     0.124 C 
HETATM   27 Cl   UNK     0       6.361  -5.723  -3.756  0.00  0.00    -0.130 Cl
ENDBRANCH  25  26
ENDBRANCH  22  25
ENDBRANCH  11  21
TORSDOF 4
ENDMDL
MODEL 9
REMARK VINA RESULT:      -6.0     14.402     17.320
REMARK  4 active torsions:
REMARK  status: ('A' for Active; 'I' for Inactive)
REMARK    1  A    between atoms: C_11  and  N_14 
REMARK    2  A    between atoms: C_13  and  C_21 
REMARK       I    between atoms: N_14  and  C_15 
REMARK    3  A    between atoms: C_15  and  C_16 
REMARK    4  A    between atoms: C_16  and  C_17 
ROOT
HETATM    1  C   UNK     0       5.155   9.962  -1.481  0.00  0.00     0.008 A 
HETATM    2  C   UNK     0       4.656  10.792  -2.507  0.00  0.00     0.001 A 
HETATM    3  C   UNK     0       3.271  11.044  -2.612  0.00  0.00     0.001 A 
HETATM    4  C   UNK     0       2.370  10.460  -1.700  0.00  0.00     0.013 A 
HETATM    5  C   UNK     0       2.880   9.629  -0.684  0.00  0.00    -0.019 A 
HETATM    6  C   UNK     0       4.251   9.383  -0.569  0.00  0.00    -0.043 A 
HETATM    7  C   UNK     0       2.235   8.935   0.335  0.00  0.00    -0.016 A 
HETATM    8  C   UNK     0       3.185   8.241   1.094  0.00  0.00    -0.032 A 
HETATM    9  C   UNK     0       4.547   8.492   0.564  0.00  0.00     0.080 A 
HETATM   10  C   UNK     0       0.867   8.888   0.652  0.00  0.00     0.042 A 
HETATM   11  C   UNK     0       0.434   8.126   1.762  0.00  0.00     0.036 A 
HETATM   12  C   UNK     0       1.399   7.432   2.534  0.00  0.00     0.042 A 
HETATM   13  C   UNK     0       2.783   7.465   2.213  0.00  0.00    -0.016 A 
ENDROOT
BRANCH  13  14
HETATM   14  C   UNK     0       3.719   6.746   3.006  0.00  0.00    -0.023 A 
HETATM   15  C   UNK     0       4.160   5.455   2.624  0.00  0.00     0.029 A 
HETATM   16  C   UNK     0       5.105   4.778   3.414  0.00  0.00     0.088 A 
HETATM   17  N   UNK     0       5.577   5.352   4.549  0.00  0.00    -0.375 N 
HETATM   18  C   UNK     0       5.165   6.576   4.967  0.00  0.00     0.088 A 
HETATM   19  HN  UNK     0       6.265   4.846   5.107  1.00  0.00     0.164 HD
HETATM   20  C   UNK     0       4.225   7.299   4.208  0.00  0.00     0.029 A 
ENDBRANCH  13  14
BRANCH  11  21
HETATM   21  N   UNK     0      -0.875   8.074   2.165  0.00  0.00    -0.327 N 
HETATM   22  C   UNK     0      -1.911   7.385   1.599  0.00  0.00     0.223 C 
HETATM   23  O   UNK     0      -1.738   6.545   0.683  0.00  0.00    -0.273 OA
HETATM   24  H   UNK     0      -1.094   8.583   2.963  0.00  0.00     0.169 HD
BRANCH  22  25
HETATM   25  C   UNK     0      -3.288   7.617   2.086  0.00  0.00     0.118 C 
BRANCH  25  26
HETATM   26  C   UNK     0      -3.511   9.103   2.460  0.00  0.00     0.124 C 
HETATM   27 Cl   UNK     0      -4.038   9.266   4.131  0.00  0.00    -0.130 Cl
ENDBRANCH  25  26
ENDBRANCH  22  25
ENDBRANCH  11  21
TORSDOF 4
ENDMDL
