MODEL 1
REMARK VINA RESULT:      -8.3      0.000      0.000
REMARK  Name = 73386748
REMARK  7 active torsions:
REMARK  status: ('A' for Active; 'I' for Inactive)
REMARK    1  A    between atoms: N_3  and  O_21
REMARK    2  A    between atoms: C_7  and  C_12
REMARK    3  A    between atoms: N_11  and  O_14
REMARK    4  A    between atoms: O_14  and  C_15
REMARK    5  A    between atoms: C_15  and  C_16
REMARK    6  A    between atoms: C_16  and  N_17
REMARK    7  A    between atoms: O_21  and  S_22
REMARK                            x       y       z     vdW  Elec       q    Type
REMARK                         _______ _______ _______ _____ _____    ______ ____
ROOT
ATOM      1  O   UNL     1      36.630 -27.158 -15.320  0.00  0.00    -0.250 OA
ATOM      2  N   UNL     1      35.880 -24.867 -15.455  0.00  0.00    -0.254 N 
ATOM      3  N   UNL     1      37.961 -25.300 -14.709  0.00  0.00    -0.126 N 
ATOM      4  C   UNL     1      37.650 -23.909 -14.417  0.00  0.00    +0.127 C 
ATOM      5  C   UNL     1      36.685 -23.651 -15.560  0.00  0.00    +0.118 C 
ATOM      6  C   UNL     1      36.844 -23.747 -13.102  0.00  0.00    +0.026 C 
ATOM      7  C   UNL     1      34.857 -24.839 -14.417  0.00  0.00    +0.155 C 
ATOM      8  C   UNL     1      35.528 -24.578 -13.044  0.00  0.00    +0.031 C 
ATOM      9  C   UNL     1      36.840 -25.957 -15.242  0.00  0.00    +0.332 C 
ENDROOT
BRANCH   7  12
ATOM     10  O   UNL     1      33.789 -23.274 -15.860  0.00  0.00    -0.271 OA
ATOM     11  N   UNL     1      32.951 -23.567 -13.724  0.00  0.00    -0.192 N 
ATOM     12  C   UNL     1      33.823 -23.811 -14.754  0.00  0.00    +0.263 C 
ATOM     13  H   UNL     1      33.039 -24.002 -12.845  0.00  0.00    +0.183 HD
BRANCH  11  14
ATOM     14  O   UNL     1      31.923 -22.650 -14.010  0.00  0.00    -0.269 OA
BRANCH  14  15
ATOM     15  C   UNL     1      30.727 -23.376 -14.257  0.00  0.00    +0.147 C 
BRANCH  15  16
ATOM     16  C   UNL     1      30.009 -22.748 -15.442  0.00  0.00    -0.051 C 
BRANCH  16  17
ATOM     17  N   UNL     1      30.833 -22.826 -16.640  0.00  0.00    +0.382 N 
ATOM     18  H   UNL     1      30.615 -22.041 -17.254  0.00  0.00    -0.089 HD
ATOM     19  H   UNL     1      30.642 -23.702 -17.127  0.00  0.00    -0.089 HD
ATOM     20  H   UNL     1      31.818 -22.789 -16.378  0.00  0.00    -0.089 HD
ENDBRANCH  16  17
ENDBRANCH  15  16
ENDBRANCH  14  15
ENDBRANCH  11  14
ENDBRANCH   7  12
BRANCH   3  21
ATOM     21  O   UNL     1      38.910 -25.954 -13.938  0.00  0.00    -0.094 OA
BRANCH  21  22
ATOM     22  S   UNL     1      40.434 -25.761 -14.523  0.00  0.00    +0.258 S 
ATOM     23  O   UNL     1      41.264 -26.983 -13.833  0.00  0.00    -0.020 OA
ATOM     24  O   UNL     1      40.966 -24.518 -13.997  0.00  0.00    -0.114 OA
ATOM     25  O   UNL     1      40.401 -26.006 -15.953  0.00  0.00    -0.114 OA
ENDBRANCH  21  22
ENDBRANCH   3  21
TORSDOF 7
ENDMDL
MODEL 2
REMARK VINA RESULT:      -7.8      4.059      8.412
REMARK  Name = 73386748
REMARK  7 active torsions:
REMARK  status: ('A' for Active; 'I' for Inactive)
REMARK    1  A    between atoms: N_3  and  O_21
REMARK    2  A    between atoms: C_7  and  C_12
REMARK    3  A    between atoms: N_11  and  O_14
REMARK    4  A    between atoms: O_14  and  C_15
REMARK    5  A    between atoms: C_15  and  C_16
REMARK    6  A    between atoms: C_16  and  N_17
REMARK    7  A    between atoms: O_21  and  S_22
REMARK                            x       y       z     vdW  Elec       q    Type
REMARK                         _______ _______ _______ _____ _____    ______ ____
ROOT
ATOM      1  O   UNL     1      31.624 -22.173 -17.641  0.00  0.00    -0.250 OA
ATOM      2  N   UNL     1      31.929 -23.902 -15.984  0.00  0.00    -0.254 N 
ATOM      3  N   UNL     1      29.884 -23.003 -16.270  0.00  0.00    -0.126 N 
ATOM      4  C   UNL     1      29.873 -23.782 -15.041  0.00  0.00    +0.127 C 
ATOM      5  C   UNL     1      30.929 -24.806 -15.418  0.00  0.00    +0.118 C 
ATOM      6  C   UNL     1      30.429 -22.987 -13.831  0.00  0.00    +0.026 C 
ATOM      7  C   UNL     1      32.762 -23.216 -15.005  0.00  0.00    +0.155 C 
ATOM      8  C   UNL     1      31.858 -22.402 -14.044  0.00  0.00    +0.031 C 
ATOM      9  C   UNL     1      31.177 -22.955 -16.816  0.00  0.00    +0.332 C 
ENDROOT
BRANCH   7  12
ATOM     10  O   UNL     1      33.315 -24.622 -13.164  0.00  0.00    -0.271 OA
ATOM     11  N   UNL     1      34.719 -24.595 -15.001  0.00  0.00    -0.192 N 
ATOM     12  C   UNL     1      33.617 -24.210 -14.283  0.00  0.00    +0.263 C 
ATOM     13  H   UNL     1      34.933 -24.213 -15.884  0.00  0.00    +0.183 HD
BRANCH  11  14
ATOM     14  O   UNL     1      35.525 -25.574 -14.391  0.00  0.00    -0.269 OA
BRANCH  14  15
ATOM     15  C   UNL     1      36.801 -25.562 -15.016  0.00  0.00    +0.147 C 
BRANCH  15  16
ATOM     16  C   UNL     1      37.541 -24.303 -14.594  0.00  0.00    -0.051 C 
BRANCH  16  17
ATOM     17  N   UNL     1      37.967 -23.543 -15.760  0.00  0.00    +0.382 N 
ATOM     18  H   UNL     1      38.123 -22.571 -15.493  0.00  0.00    -0.089 HD
ATOM     19  H   UNL     1      37.242 -23.586 -16.477  0.00  0.00    -0.089 HD
ATOM     20  H   UNL     1      38.833 -23.939 -16.126  0.00  0.00    -0.089 HD
ENDBRANCH  16  17
ENDBRANCH  15  16
ENDBRANCH  14  15
ENDBRANCH  11  14
ENDBRANCH   7  12
BRANCH   3  21
ATOM     21  O   UNL     1      28.975 -21.966 -16.416  0.00  0.00    -0.094 OA
BRANCH  21  22
ATOM     22  S   UNL     1      27.473 -22.499 -16.817  0.00  0.00    +0.258 S 
ATOM     23  O   UNL     1      26.857 -21.276 -17.700  0.00  0.00    -0.020 OA
ATOM     24  O   UNL     1      26.689 -22.600 -15.600  0.00  0.00    -0.114 OA
ATOM     25  O   UNL     1      27.623 -23.643 -17.698  0.00  0.00    -0.114 OA
ENDBRANCH  21  22
ENDBRANCH   3  21
TORSDOF 7
ENDMDL
MODEL 3
REMARK VINA RESULT:      -7.5      4.115      7.874
REMARK  Name = 73386748
REMARK  7 active torsions:
REMARK  status: ('A' for Active; 'I' for Inactive)
REMARK    1  A    between atoms: N_3  and  O_21
REMARK    2  A    between atoms: C_7  and  C_12
REMARK    3  A    between atoms: N_11  and  O_14
REMARK    4  A    between atoms: O_14  and  C_15
REMARK    5  A    between atoms: C_15  and  C_16
REMARK    6  A    between atoms: C_16  and  N_17
REMARK    7  A    between atoms: O_21  and  S_22
REMARK                            x       y       z     vdW  Elec       q    Type
REMARK                         _______ _______ _______ _____ _____    ______ ____
ROOT
ATOM      1  O   UNL     1      30.529 -25.870 -14.367  0.00  0.00    -0.250 OA
ATOM      2  N   UNL     1      31.992 -24.053 -13.744  0.00  0.00    -0.254 N 
ATOM      3  N   UNL     1      30.501 -23.744 -15.404  0.00  0.00    -0.126 N 
ATOM      4  C   UNL     1      31.444 -22.635 -15.424  0.00  0.00    +0.127 C 
ATOM      5  C   UNL     1      31.798 -22.618 -13.947  0.00  0.00    +0.118 C 
ATOM      6  C   UNL     1      32.745 -22.979 -16.195  0.00  0.00    +0.026 C 
ATOM      7  C   UNL     1      33.286 -24.566 -14.179  0.00  0.00    +0.155 C 
ATOM      8  C   UNL     1      33.480 -24.256 -15.685  0.00  0.00    +0.031 C 
ATOM      9  C   UNL     1      30.884 -24.704 -14.454  0.00  0.00    +0.332 C 
ENDROOT
BRANCH   7  12
ATOM     10  O   UNL     1      34.307 -24.006 -12.101  0.00  0.00    -0.271 OA
ATOM     11  N   UNL     1      35.404 -23.458 -14.061  0.00  0.00    -0.192 N 
ATOM     12  C   UNL     1      34.372 -23.983 -13.329  0.00  0.00    +0.263 C 
ATOM     13  H   UNL     1      35.396 -23.437 -15.046  0.00  0.00    +0.183 HD
BRANCH  11  14
ATOM     14  O   UNL     1      36.479 -22.950 -13.309  0.00  0.00    -0.269 OA
BRANCH  14  15
ATOM     15  C   UNL     1      37.570 -23.854 -13.411  0.00  0.00    +0.147 C 
BRANCH  15  16
ATOM     16  C   UNL     1      37.918 -24.360 -12.019  0.00  0.00    -0.051 C 
BRANCH  16  17
ATOM     17  N   UNL     1      37.230 -23.577 -11.002  0.00  0.00    +0.382 N 
ATOM     18  H   UNL     1      36.743 -24.205 -10.363  0.00  0.00    -0.089 HD
ATOM     19  H   UNL     1      36.556 -22.957 -11.450  0.00  0.00    -0.089 HD
ATOM     20  H   UNL     1      37.910 -23.023 -10.482  0.00  0.00    -0.089 HD
ENDBRANCH  16  17
ENDBRANCH  15  16
ENDBRANCH  14  15
ENDBRANCH  11  14
ENDBRANCH   7  12
BRANCH   3  21
ATOM     21  O   UNL     1      29.831 -24.077 -16.572  0.00  0.00    -0.094 OA
BRANCH  21  22
ATOM     22  S   UNL     1      28.307 -23.464 -16.617  0.00  0.00    +0.258 S 
ATOM     23  O   UNL     1      28.532 -21.913 -17.065  0.00  0.00    -0.020 OA
ATOM     24  O   UNL     1      27.781 -23.458 -15.265  0.00  0.00    -0.114 OA
ATOM     25  O   UNL     1      27.587 -24.130 -17.688  0.00  0.00    -0.114 OA
ENDBRANCH  21  22
ENDBRANCH   3  21
TORSDOF 7
ENDMDL
MODEL 4
REMARK VINA RESULT:      -7.3      1.695      2.407
REMARK  Name = 73386748
REMARK  7 active torsions:
REMARK  status: ('A' for Active; 'I' for Inactive)
REMARK    1  A    between atoms: N_3  and  O_21
REMARK    2  A    between atoms: C_7  and  C_12
REMARK    3  A    between atoms: N_11  and  O_14
REMARK    4  A    between atoms: O_14  and  C_15
REMARK    5  A    between atoms: C_15  and  C_16
REMARK    6  A    between atoms: C_16  and  N_17
REMARK    7  A    between atoms: O_21  and  S_22
REMARK                            x       y       z     vdW  Elec       q    Type
REMARK                         _______ _______ _______ _____ _____    ______ ____
ROOT
ATOM      1  O   UNL     1      37.561 -22.338 -14.672  0.00  0.00    -0.250 OA
ATOM      2  N   UNL     1      36.059 -23.760 -13.428  0.00  0.00    -0.254 N 
ATOM      3  N   UNL     1      37.934 -24.646 -14.307  0.00  0.00    -0.126 N 
ATOM      4  C   UNL     1      37.069 -25.736 -13.879  0.00  0.00    +0.127 C 
ATOM      5  C   UNL     1      36.353 -25.020 -12.748  0.00  0.00    +0.118 C 
ATOM      6  C   UNL     1      35.995 -26.091 -14.940  0.00  0.00    +0.026 C 
ATOM      7  C   UNL     1      34.900 -23.794 -14.311  0.00  0.00    +0.155 C 
ATOM      8  C   UNL     1      35.107 -24.891 -15.386  0.00  0.00    +0.031 C 
ATOM      9  C   UNL     1      37.285 -23.410 -14.154  0.00  0.00    +0.332 C 
ENDROOT
BRANCH   7  12
ATOM     10  O   UNL     1      33.455 -23.392 -12.460  0.00  0.00    -0.271 OA
ATOM     11  N   UNL     1      32.805 -24.927 -14.064  0.00  0.00    -0.192 N 
ATOM     12  C   UNL     1      33.656 -24.009 -13.505  0.00  0.00    +0.263 C 
ATOM     13  H   UNL     1      33.026 -25.417 -14.890  0.00  0.00    +0.183 HD
BRANCH  11  14
ATOM     14  O   UNL     1      31.594 -25.122 -13.376  0.00  0.00    -0.269 OA
BRANCH  14  15
ATOM     15  C   UNL     1      30.554 -25.288 -14.329  0.00  0.00    +0.147 C 
BRANCH  15  16
ATOM     16  C   UNL     1      30.050 -23.915 -14.747  0.00  0.00    -0.051 C 
BRANCH  16  17
ATOM     17  N   UNL     1      28.768 -24.025 -15.428  0.00  0.00    +0.382 N 
ATOM     18  H   UNL     1      28.910 -23.942 -16.435  0.00  0.00    -0.089 HD
ATOM     19  H   UNL     1      28.150 -23.278 -15.110  0.00  0.00    -0.089 HD
ATOM     20  H   UNL     1      28.347 -24.930 -15.217  0.00  0.00    -0.089 HD
ENDBRANCH  16  17
ENDBRANCH  15  16
ENDBRANCH  14  15
ENDBRANCH  11  14
ENDBRANCH   7  12
BRANCH   3  21
ATOM     21  O   UNL     1      38.865 -24.880 -15.307  0.00  0.00    -0.094 OA
BRANCH  21  22
ATOM     22  S   UNL     1      40.278 -25.481 -14.720  0.00  0.00    +0.258 S 
ATOM     23  O   UNL     1      40.866 -26.354 -15.965  0.00  0.00    -0.020 OA
ATOM     24  O   UNL     1      39.965 -26.404 -13.646  0.00  0.00    -0.114 OA
ATOM     25  O   UNL     1      41.183 -24.368 -14.499  0.00  0.00    -0.114 OA
ENDBRANCH  21  22
ENDBRANCH   3  21
TORSDOF 7
ENDMDL
MODEL 5
REMARK VINA RESULT:      -7.1      2.229      3.106
REMARK  Name = 73386748
REMARK  7 active torsions:
REMARK  status: ('A' for Active; 'I' for Inactive)
REMARK    1  A    between atoms: N_3  and  O_21
REMARK    2  A    between atoms: C_7  and  C_12
REMARK    3  A    between atoms: N_11  and  O_14
REMARK    4  A    between atoms: O_14  and  C_15
REMARK    5  A    between atoms: C_15  and  C_16
REMARK    6  A    between atoms: C_16  and  N_17
REMARK    7  A    between atoms: O_21  and  S_22
REMARK                            x       y       z     vdW  Elec       q    Type
REMARK                         _______ _______ _______ _____ _____    ______ ____
ROOT
ATOM      1  O   UNL     1      34.727 -23.650 -11.823  0.00  0.00    -0.250 OA
ATOM      2  N   UNL     1      33.919 -24.589 -13.894  0.00  0.00    -0.254 N 
ATOM      3  N   UNL     1      36.126 -24.207 -13.648  0.00  0.00    -0.126 N 
ATOM      4  C   UNL     1      35.863 -24.481 -15.053  0.00  0.00    +0.127 C 
ATOM      5  C   UNL     1      34.652 -25.382 -14.881  0.00  0.00    +0.118 C 
ATOM      6  C   UNL     1      35.383 -23.223 -15.822  0.00  0.00    +0.026 C 
ATOM      7  C   UNL     1      33.167 -23.468 -14.443  0.00  0.00    +0.155 C 
ATOM      8  C   UNL     1      34.134 -22.525 -15.204  0.00  0.00    +0.031 C 
ATOM      9  C   UNL     1      34.925 -24.145 -12.922  0.00  0.00    +0.332 C 
ENDROOT
BRANCH   7  12
ATOM     10  O   UNL     1      32.008 -23.701 -16.510  0.00  0.00    -0.271 OA
ATOM     11  N   UNL     1      31.167 -24.769 -14.639  0.00  0.00    -0.192 N 
ATOM     12  C   UNL     1      32.061 -23.978 -15.314  0.00  0.00    +0.263 C 
ATOM     13  H   UNL     1      31.237 -24.938 -13.671  0.00  0.00    +0.183 HD
BRANCH  11  14
ATOM     14  O   UNL     1      30.140 -25.322 -15.426  0.00  0.00    -0.269 OA
BRANCH  14  15
ATOM     15  C   UNL     1      28.968 -24.538 -15.256  0.00  0.00    +0.147 C 
BRANCH  15  16
ATOM     16  C   UNL     1      28.474 -24.093 -16.623  0.00  0.00    -0.051 C 
BRANCH  16  17
ATOM     17  N   UNL     1      29.023 -22.790 -16.968  0.00  0.00    +0.382 N 
ATOM     18  H   UNL     1      28.323 -22.069 -16.791  0.00  0.00    -0.089 HD
ATOM     19  H   UNL     1      29.278 -22.779 -17.956  0.00  0.00    -0.089 HD
ATOM     20  H   UNL     1      29.850 -22.608 -16.400  0.00  0.00    -0.089 HD
ENDBRANCH  16  17
ENDBRANCH  15  16
ENDBRANCH  14  15
ENDBRANCH  11  14
ENDBRANCH   7  12
BRANCH   3  21
ATOM     21  O   UNL     1      37.242 -23.459 -13.306  0.00  0.00    -0.094 OA
BRANCH  21  22
ATOM     22  S   UNL     1      38.317 -24.312 -12.402  0.00  0.00    +0.258 S 
ATOM     23  O   UNL     1      39.404 -24.838 -13.496  0.00  0.00    -0.020 OA
ATOM     24  O   UNL     1      37.634 -25.476 -11.868  0.00  0.00    -0.114 OA
ATOM     25  O   UNL     1      38.998 -23.383 -11.518  0.00  0.00    -0.114 OA
ENDBRANCH  21  22
ENDBRANCH   3  21
TORSDOF 7
ENDMDL
MODEL 6
REMARK VINA RESULT:      -7.1     11.179     12.818
REMARK  Name = 73386748
REMARK  7 active torsions:
REMARK  status: ('A' for Active; 'I' for Inactive)
REMARK    1  A    between atoms: N_3  and  O_21
REMARK    2  A    between atoms: C_7  and  C_12
REMARK    3  A    between atoms: N_11  and  O_14
REMARK    4  A    between atoms: O_14  and  C_15
REMARK    5  A    between atoms: C_15  and  C_16
REMARK    6  A    between atoms: C_16  and  N_17
REMARK    7  A    between atoms: O_21  and  S_22
REMARK                            x       y       z     vdW  Elec       q    Type
REMARK                         _______ _______ _______ _____ _____    ______ ____
ROOT
ATOM      1  O   UNL     1      34.130 -16.868 -23.829  0.00  0.00    -0.250 OA
ATOM      2  N   UNL     1      34.237 -14.699 -22.776  0.00  0.00    -0.254 N 
ATOM      3  N   UNL     1      34.658 -16.539 -21.546  0.00  0.00    -0.126 N 
ATOM      4  C   UNL     1      34.490 -15.411 -20.641  0.00  0.00    +0.127 C 
ATOM      5  C   UNL     1      34.965 -14.308 -21.569  0.00  0.00    +0.118 C 
ATOM      6  C   UNL     1      32.999 -15.124 -20.324  0.00  0.00    +0.026 C 
ATOM      7  C   UNL     1      32.837 -14.297 -22.807  0.00  0.00    +0.155 C 
ATOM      8  C   UNL     1      32.104 -14.898 -21.580  0.00  0.00    +0.031 C 
ATOM      9  C   UNL     1      34.386 -16.156 -22.870  0.00  0.00    +0.332 C 
ENDROOT
BRANCH   7  12
ATOM     10  O   UNL     1      33.559 -12.129 -23.479  0.00  0.00    -0.271 OA
ATOM     11  N   UNL     1      31.665 -12.310 -22.164  0.00  0.00    -0.192 N 
ATOM     12  C   UNL     1      32.740 -12.804 -22.857  0.00  0.00    +0.263 C 
ATOM     13  H   UNL     1      31.053 -12.891 -21.656  0.00  0.00    +0.183 HD
BRANCH  11  14
ATOM     14  O   UNL     1      31.496 -10.915 -22.229  0.00  0.00    -0.269 OA
BRANCH  14  15
ATOM     15  C   UNL     1      31.640 -10.381 -20.921  0.00  0.00    +0.147 C 
BRANCH  15  16
ATOM     16  C   UNL     1      32.243  -8.989 -21.024  0.00  0.00    -0.051 C 
BRANCH  16  17
ATOM     17  N   UNL     1      32.607  -8.488 -19.707  0.00  0.00    +0.382 N 
ATOM     18  H   UNL     1      31.913  -8.793 -19.024  0.00  0.00    -0.089 HD
ATOM     19  H   UNL     1      32.639  -7.469 -19.727  0.00  0.00    -0.089 HD
ATOM     20  H   UNL     1      33.524  -8.853 -19.446  0.00  0.00    -0.089 HD
ENDBRANCH  16  17
ENDBRANCH  15  16
ENDBRANCH  14  15
ENDBRANCH  11  14
ENDBRANCH   7  12
BRANCH   3  21
ATOM     21  O   UNL     1      34.414 -17.820 -21.076  0.00  0.00    -0.094 OA
BRANCH  21  22
ATOM     22  S   UNL     1      35.625 -18.867 -21.450  0.00  0.00    +0.258 S 
ATOM     23  O   UNL     1      34.959 -19.831 -22.583  0.00  0.00    -0.020 OA
ATOM     24  O   UNL     1      35.894 -19.683 -20.282  0.00  0.00    -0.114 OA
ATOM     25  O   UNL     1      36.690 -18.113 -22.087  0.00  0.00    -0.114 OA
ENDBRANCH  21  22
ENDBRANCH   3  21
TORSDOF 7
ENDMDL
MODEL 7
REMARK VINA RESULT:      -6.9      8.719     10.282
REMARK  Name = 73386748
REMARK  7 active torsions:
REMARK  status: ('A' for Active; 'I' for Inactive)
REMARK    1  A    between atoms: N_3  and  O_21
REMARK    2  A    between atoms: C_7  and  C_12
REMARK    3  A    between atoms: N_11  and  O_14
REMARK    4  A    between atoms: O_14  and  C_15
REMARK    5  A    between atoms: C_15  and  C_16
REMARK    6  A    between atoms: C_16  and  N_17
REMARK    7  A    between atoms: O_21  and  S_22
REMARK                            x       y       z     vdW  Elec       q    Type
REMARK                         _______ _______ _______ _____ _____    ______ ____
ROOT
ATOM      1  O   UNL     1      37.105 -19.246 -20.329  0.00  0.00    -0.250 OA
ATOM      2  N   UNL     1      35.315 -17.881 -21.200  0.00  0.00    -0.254 N 
ATOM      3  N   UNL     1      34.893 -20.023 -20.645  0.00  0.00    -0.126 N 
ATOM      4  C   UNL     1      33.762 -19.517 -21.409  0.00  0.00    +0.127 C 
ATOM      5  C   UNL     1      33.873 -18.052 -21.026  0.00  0.00    +0.118 C 
ATOM      6  C   UNL     1      33.997 -19.601 -22.940  0.00  0.00    +0.026 C 
ATOM      7  C   UNL     1      35.749 -17.685 -22.577  0.00  0.00    +0.155 C 
ATOM      8  C   UNL     1      35.295 -18.894 -23.435  0.00  0.00    +0.031 C 
ATOM      9  C   UNL     1      35.927 -19.074 -20.602  0.00  0.00    +0.332 C 
ENDROOT
BRANCH   7  12
ATOM     10  O   UNL     1      35.017 -16.206 -24.295  0.00  0.00    -0.271 OA
ATOM     11  N   UNL     1      34.984 -15.466 -22.104  0.00  0.00    -0.192 N 
ATOM     12  C   UNL     1      35.218 -16.384 -23.095  0.00  0.00    +0.263 C 
ATOM     13  H   UNL     1      35.190 -15.647 -21.158  0.00  0.00    +0.183 HD
BRANCH  11  14
ATOM     14  O   UNL     1      34.428 -14.246 -22.532  0.00  0.00    -0.269 OA
BRANCH  14  15
ATOM     15  C   UNL     1      33.149 -14.098 -21.932  0.00  0.00    +0.147 C 
BRANCH  15  16
ATOM     16  C   UNL     1      32.298 -13.196 -22.813  0.00  0.00    -0.051 C 
BRANCH  16  17
ATOM     17  N   UNL     1      31.458 -12.329 -21.999  0.00  0.00    +0.382 N 
ATOM     18  H   UNL     1      30.554 -12.206 -22.456  0.00  0.00    -0.089 HD
ATOM     19  H   UNL     1      31.910 -11.421 -21.892  0.00  0.00    -0.089 HD
ATOM     20  H   UNL     1      31.320 -12.752 -21.082  0.00  0.00    -0.089 HD
ENDBRANCH  16  17
ENDBRANCH  15  16
ENDBRANCH  14  15
ENDBRANCH  11  14
ENDBRANCH   7  12
BRANCH   3  21
ATOM     21  O   UNL     1      35.135 -21.388 -20.627  0.00  0.00    -0.094 OA
BRANCH  21  22
ATOM     22  S   UNL     1      34.473 -22.124 -19.315  0.00  0.00    +0.258 S 
ATOM     23  O   UNL     1      34.244 -23.659 -19.814  0.00  0.00    -0.020 OA
ATOM     24  O   UNL     1      33.167 -21.540 -19.079  0.00  0.00    -0.114 OA
ATOM     25  O   UNL     1      35.473 -22.151 -18.262  0.00  0.00    -0.114 OA
ENDBRANCH  21  22
ENDBRANCH   3  21
TORSDOF 7
ENDMDL
MODEL 8
REMARK VINA RESULT:      -6.8      8.945     11.309
REMARK  Name = 73386748
REMARK  7 active torsions:
REMARK  status: ('A' for Active; 'I' for Inactive)
REMARK    1  A    between atoms: N_3  and  O_21
REMARK    2  A    between atoms: C_7  and  C_12
REMARK    3  A    between atoms: N_11  and  O_14
REMARK    4  A    between atoms: O_14  and  C_15
REMARK    5  A    between atoms: C_15  and  C_16
REMARK    6  A    between atoms: C_16  and  N_17
REMARK    7  A    between atoms: O_21  and  S_22
REMARK                            x       y       z     vdW  Elec       q    Type
REMARK                         _______ _______ _______ _____ _____    ______ ____
ROOT
ATOM      1  O   UNL     1      33.198 -16.363 -20.876  0.00  0.00    -0.250 OA
ATOM      2  N   UNL     1      35.118 -17.818 -21.029  0.00  0.00    -0.254 N 
ATOM      3  N   UNL     1      34.481 -16.644 -22.843  0.00  0.00    -0.126 N 
ATOM      4  C   UNL     1      35.449 -17.648 -23.263  0.00  0.00    +0.127 C 
ATOM      5  C   UNL     1      36.236 -17.753 -21.969  0.00  0.00    +0.118 C 
ATOM      6  C   UNL     1      34.795 -19.033 -23.507  0.00  0.00    +0.026 C 
ATOM      7  C   UNL     1      34.494 -19.129 -20.905  0.00  0.00    +0.155 C 
ATOM      8  C   UNL     1      33.988 -19.589 -22.296  0.00  0.00    +0.031 C 
ATOM      9  C   UNL     1      34.162 -16.802 -21.485  0.00  0.00    +0.332 C 
ENDROOT
BRANCH   7  12
ATOM     10  O   UNL     1      36.652 -19.809 -20.161  0.00  0.00    -0.271 OA
ATOM     11  N   UNL     1      34.883 -21.279 -19.926  0.00  0.00    -0.192 N 
ATOM     12  C   UNL     1      35.464 -20.095 -20.300  0.00  0.00    +0.263 C 
ATOM     13  H   UNL     1      33.930 -21.472 -20.086  0.00  0.00    +0.183 HD
BRANCH  11  14
ATOM     14  O   UNL     1      35.741 -22.200 -19.298  0.00  0.00    -0.269 OA
BRANCH  14  15
ATOM     15  C   UNL     1      35.468 -22.194 -17.904  0.00  0.00    +0.147 C 
BRANCH  15  16
ATOM     16  C   UNL     1      36.780 -22.053 -17.148  0.00  0.00    -0.051 C 
BRANCH  16  17
ATOM     17  N   UNL     1      37.259 -20.679 -17.204  0.00  0.00    +0.382 N 
ATOM     18  H   UNL     1      36.462 -20.043 -17.229  0.00  0.00    -0.089 HD
ATOM     19  H   UNL     1      37.823 -20.550 -18.044  0.00  0.00    -0.089 HD
ATOM     20  H   UNL     1      37.825 -20.483 -16.379  0.00  0.00    -0.089 HD
ENDBRANCH  16  17
ENDBRANCH  15  16
ENDBRANCH  14  15
ENDBRANCH  11  14
ENDBRANCH   7  12
BRANCH   3  21
ATOM     21  O   UNL     1      33.573 -16.156 -23.770  0.00  0.00    -0.094 OA
BRANCH  21  22
ATOM     22  S   UNL     1      33.598 -14.515 -23.869  0.00  0.00    +0.258 S 
ATOM     23  O   UNL     1      32.272 -14.064 -23.035  0.00  0.00    -0.020 OA
ATOM     24  O   UNL     1      33.392 -14.143 -25.256  0.00  0.00    -0.114 OA
ATOM     25  O   UNL     1      34.759 -14.039 -23.139  0.00  0.00    -0.114 OA
ENDBRANCH  21  22
ENDBRANCH   3  21
TORSDOF 7
ENDMDL
MODEL 9
REMARK VINA RESULT:      -6.6     11.614     13.261
REMARK  Name = 73386748
REMARK  7 active torsions:
REMARK  status: ('A' for Active; 'I' for Inactive)
REMARK    1  A    between atoms: N_3  and  O_21
REMARK    2  A    between atoms: C_7  and  C_12
REMARK    3  A    between atoms: N_11  and  O_14
REMARK    4  A    between atoms: O_14  and  C_15
REMARK    5  A    between atoms: C_15  and  C_16
REMARK    6  A    between atoms: C_16  and  N_17
REMARK    7  A    between atoms: O_21  and  S_22
REMARK                            x       y       z     vdW  Elec       q    Type
REMARK                         _______ _______ _______ _____ _____    ______ ____
ROOT
ATOM      1  O   UNL     1      34.011 -16.617 -23.958  0.00  0.00    -0.250 OA
ATOM      2  N   UNL     1      34.156 -14.568 -22.691  0.00  0.00    -0.254 N 
ATOM      3  N   UNL     1      34.574 -16.528 -21.663  0.00  0.00    -0.126 N 
ATOM      4  C   UNL     1      34.431 -15.498 -20.644  0.00  0.00    +0.127 C 
ATOM      5  C   UNL     1      34.904 -14.310 -21.461  0.00  0.00    +0.118 C 
ATOM      6  C   UNL     1      32.948 -15.232 -20.277  0.00  0.00    +0.026 C 
ATOM      7  C   UNL     1      32.759 -14.152 -22.658  0.00  0.00    +0.155 C 
ATOM      8  C   UNL     1      32.038 -14.870 -21.489  0.00  0.00    +0.031 C 
ATOM      9  C   UNL     1      34.288 -16.009 -22.935  0.00  0.00    +0.332 C 
ENDROOT
BRANCH   7  12
ATOM     10  O   UNL     1      32.091 -12.116 -21.621  0.00  0.00    -0.271 OA
ATOM     11  N   UNL     1      33.323 -12.014 -23.575  0.00  0.00    -0.192 N 
ATOM     12  C   UNL     1      32.678 -12.661 -22.554  0.00  0.00    +0.263 C 
ATOM     13  H   UNL     1      33.754 -12.498 -24.317  0.00  0.00    +0.183 HD
BRANCH  11  14
ATOM     14  O   UNL     1      33.326 -10.609 -23.492  0.00  0.00    -0.269 OA
BRANCH  14  15
ATOM     15  C   UNL     1      34.432 -10.115 -24.234  0.00  0.00    +0.147 C 
BRANCH  15  16
ATOM     16  C   UNL     1      34.631 -10.995 -25.458  0.00  0.00    -0.051 C 
BRANCH  16  17
ATOM     17  N   UNL     1      35.657 -10.438 -26.328  0.00  0.00    +0.382 N 
ATOM     18  H   UNL     1      35.566  -9.422 -26.352  0.00  0.00    -0.089 HD
ATOM     19  H   UNL     1      35.542 -10.812 -27.270  0.00  0.00    -0.089 HD
ATOM     20  H   UNL     1      36.579 -10.689 -25.972  0.00  0.00    -0.089 HD
ENDBRANCH  16  17
ENDBRANCH  15  16
ENDBRANCH  14  15
ENDBRANCH  11  14
ENDBRANCH   7  12
BRANCH   3  21
ATOM     21  O   UNL     1      34.324 -17.849 -21.323  0.00  0.00    -0.094 OA
BRANCH  21  22
ATOM     22  S   UNL     1      35.553 -18.852 -21.754  0.00  0.00    +0.258 S 
ATOM     23  O   UNL     1      34.980 -19.610 -23.078  0.00  0.00    -0.020 OA
ATOM     24  O   UNL     1      35.711 -19.848 -20.711  0.00  0.00    -0.114 OA
ATOM     25  O   UNL     1      36.676 -18.032 -22.171  0.00  0.00    -0.114 OA
ENDBRANCH  21  22
ENDBRANCH   3  21
TORSDOF 7
ENDMDL
