MODEL 1
REMARK VINA RESULT:      -5.3      0.000      0.000
REMARK  Name = 9934
REMARK  2 active torsions:
REMARK  status: ('A' for Active; 'I' for Inactive)
REMARK    1  A    between atoms: C_3  and  C_9
REMARK    2  A    between atoms: C_9  and  O_10
REMARK                            x       y       z     vdW  Elec       q    Type
REMARK                         _______ _______ _______ _____ _____    ______ ____
ROOT
ATOM      1  S   UNK     1      36.755 -25.291 -12.891  0.00  0.00    -0.166 S 
ATOM      2  N   UNK     1      37.856 -25.335 -15.313  0.00  0.00    +0.399 N 
ATOM      3  C   UNK     1      38.860 -25.834 -14.362  0.00  0.00    +0.052 C 
ATOM      4  C   UNK     1      38.560 -25.231 -12.998  0.00  0.00    +0.045 C 
ATOM      5  C   UNK     1      36.557 -25.554 -14.672  0.00  0.00    -0.021 C 
ATOM      6  H   UNK     1      37.911 -25.851 -16.192  0.00  0.00    -0.082 HD
ATOM      7  H   UNK     1      38.005 -24.351 -15.535  0.00  0.00    -0.082 HD
ENDROOT
BRANCH   3   9
ATOM      8  O   UNK     1      40.975 -24.676 -14.277  0.00  0.00    -0.253 OA
ATOM      9  C   UNK     1      40.200 -25.411 -14.870  0.00  0.00    +0.294 C 
BRANCH   9  10
ATOM     10  O   UNK     1      40.444 -25.956 -16.087  0.00  0.00    -0.482 OA
ATOM     11  H   UNK     1      40.299 -26.870 -16.230  0.00  0.00    +0.295 HD
ENDBRANCH   9  10
ENDBRANCH   3   9
TORSDOF 2
ENDMDL
MODEL 2
REMARK VINA RESULT:      -5.0      9.573     10.621
REMARK  Name = 9934
REMARK  2 active torsions:
REMARK  status: ('A' for Active; 'I' for Inactive)
REMARK    1  A    between atoms: C_3  and  C_9
REMARK    2  A    between atoms: C_9  and  O_10
REMARK                            x       y       z     vdW  Elec       q    Type
REMARK                         _______ _______ _______ _____ _____    ______ ____
ROOT
ATOM      1  S   UNK     1      30.624 -24.542 -14.972  0.00  0.00    -0.166 S 
ATOM      2  N   UNK     1      30.204 -22.672 -16.819  0.00  0.00    +0.399 N 
ATOM      3  C   UNK     1      28.953 -22.838 -16.065  0.00  0.00    +0.052 C 
ATOM      4  C   UNK     1      28.920 -24.253 -15.508  0.00  0.00    +0.045 C 
ATOM      5  C   UNK     1      31.269 -23.148 -15.931  0.00  0.00    -0.021 C 
ATOM      6  H   UNK     1      30.350 -21.690 -17.055  0.00  0.00    -0.082 HD
ATOM      7  H   UNK     1      30.186 -23.192 -17.696  0.00  0.00    -0.082 HD
ENDROOT
BRANCH   3   9
ATOM      8  O   UNK     1      27.229 -21.535 -17.138  0.00  0.00    -0.253 OA
ATOM      9  C   UNK     1      27.827 -22.593 -17.017  0.00  0.00    +0.294 C 
BRANCH   9  10
ATOM     10  O   UNK     1      27.556 -23.710 -17.734  0.00  0.00    -0.482 OA
ATOM     11  H   UNK     1      26.945 -23.676 -18.444  0.00  0.00    +0.295 HD
ENDBRANCH   9  10
ENDBRANCH   3   9
TORSDOF 2
ENDMDL
MODEL 3
REMARK VINA RESULT:      -4.8      2.393      2.911
REMARK  Name = 9934
REMARK  2 active torsions:
REMARK  status: ('A' for Active; 'I' for Inactive)
REMARK    1  A    between atoms: C_3  and  C_9
REMARK    2  A    between atoms: C_9  and  O_10
REMARK                            x       y       z     vdW  Elec       q    Type
REMARK                         _______ _______ _______ _____ _____    ______ ____
ROOT
ATOM      1  S   UNK     1      37.015 -23.580 -12.856  0.00  0.00    -0.166 S 
ATOM      2  N   UNK     1      37.369 -24.368 -15.373  0.00  0.00    +0.399 N 
ATOM      3  C   UNK     1      36.665 -25.449 -14.666  0.00  0.00    +0.052 C 
ATOM      4  C   UNK     1      37.021 -25.357 -13.189  0.00  0.00    +0.045 C 
ATOM      5  C   UNK     1      37.088 -23.147 -14.614  0.00  0.00    -0.021 C 
ATOM      6  H   UNK     1      37.019 -24.281 -16.328  0.00  0.00    -0.082 HD
ATOM      7  H   UNK     1      38.370 -24.550 -15.436  0.00  0.00    -0.082 HD
ENDROOT
BRANCH   3   9
ATOM      8  O   UNK     1      36.597 -27.292 -16.221  0.00  0.00    -0.253 OA
ATOM      9  C   UNK     1      37.120 -26.739 -15.266  0.00  0.00    +0.294 C 
BRANCH   9  10
ATOM     10  O   UNK     1      38.200 -27.220 -14.602  0.00  0.00    -0.482 OA
ATOM     11  H   UNK     1      38.678 -27.947 -14.949  0.00  0.00    +0.295 HD
ENDBRANCH   9  10
ENDBRANCH   3   9
TORSDOF 2
ENDMDL
MODEL 4
REMARK VINA RESULT:      -4.7      2.683      3.027
REMARK  Name = 9934
REMARK  2 active torsions:
REMARK  status: ('A' for Active; 'I' for Inactive)
REMARK    1  A    between atoms: C_3  and  C_9
REMARK    2  A    between atoms: C_9  and  O_10
REMARK                            x       y       z     vdW  Elec       q    Type
REMARK                         _______ _______ _______ _____ _____    ______ ____
ROOT
ATOM      1  S   UNK     1      35.781 -22.996 -14.997  0.00  0.00    -0.166 S 
ATOM      2  N   UNK     1      35.224 -25.598 -14.997  0.00  0.00    +0.399 N 
ATOM      3  C   UNK     1      36.621 -25.445 -14.565  0.00  0.00    +0.052 C 
ATOM      4  C   UNK     1      37.161 -24.153 -15.160  0.00  0.00    +0.045 C 
ATOM      5  C   UNK     1      34.575 -24.316 -14.709  0.00  0.00    -0.021 C 
ATOM      6  H   UNK     1      34.771 -26.351 -14.478  0.00  0.00    -0.082 HD
ATOM      7  H   UNK     1      35.161 -25.837 -15.987  0.00  0.00    -0.082 HD
ENDROOT
BRANCH   3   9
ATOM      8  O   UNK     1      38.378 -27.098 -14.544  0.00  0.00    -0.253 OA
ATOM      9  C   UNK     1      37.371 -26.639 -15.060  0.00  0.00    +0.294 C 
BRANCH   9  10
ATOM     10  O   UNK     1      36.781 -27.148 -16.169  0.00  0.00    -0.482 OA
ATOM     11  H   UNK     1      37.117 -26.939 -17.018  0.00  0.00    +0.295 HD
ENDBRANCH   9  10
ENDBRANCH   3   9
TORSDOF 2
ENDMDL
MODEL 5
REMARK VINA RESULT:      -4.7      2.638      2.988
REMARK  Name = 9934
REMARK  2 active torsions:
REMARK  status: ('A' for Active; 'I' for Inactive)
REMARK    1  A    between atoms: C_3  and  C_9
REMARK    2  A    between atoms: C_9  and  O_10
REMARK                            x       y       z     vdW  Elec       q    Type
REMARK                         _______ _______ _______ _____ _____    ______ ____
ROOT
ATOM      1  S   UNK     1      37.197 -23.568 -11.866  0.00  0.00    -0.166 S 
ATOM      2  N   UNK     1      35.702 -25.305 -13.220  0.00  0.00    +0.399 N 
ATOM      3  C   UNK     1      37.042 -25.892 -13.077  0.00  0.00    +0.052 C 
ATOM      4  C   UNK     1      38.044 -24.756 -12.935  0.00  0.00    +0.045 C 
ATOM      5  C   UNK     1      35.575 -24.331 -12.132  0.00  0.00    -0.021 C 
ATOM      6  H   UNK     1      34.986 -26.027 -13.137  0.00  0.00    -0.082 HD
ATOM      7  H   UNK     1      35.580 -24.866 -14.133  0.00  0.00    -0.082 HD
ENDROOT
BRANCH   3   9
ATOM      8  O   UNK     1      38.403 -27.081 -14.675  0.00  0.00    -0.253 OA
ATOM      9  C   UNK     1      37.302 -26.708 -14.301  0.00  0.00    +0.294 C 
BRANCH   9  10
ATOM     10  O   UNK     1      36.142 -26.981 -14.948  0.00  0.00    -0.482 OA
ATOM     11  H   UNK     1      35.747 -26.332 -15.496  0.00  0.00    +0.295 HD
ENDBRANCH   9  10
ENDBRANCH   3   9
TORSDOF 2
ENDMDL
MODEL 6
REMARK VINA RESULT:      -4.6      3.733      4.177
REMARK  Name = 9934
REMARK  2 active torsions:
REMARK  status: ('A' for Active; 'I' for Inactive)
REMARK    1  A    between atoms: C_3  and  C_9
REMARK    2  A    between atoms: C_9  and  O_10
REMARK                            x       y       z     vdW  Elec       q    Type
REMARK                         _______ _______ _______ _____ _____    ______ ____
ROOT
ATOM      1  S   UNK     1      37.226 -26.632 -14.637  0.00  0.00    -0.166 S 
ATOM      2  N   UNK     1      35.424 -24.934 -13.662  0.00  0.00    +0.399 N 
ATOM      3  C   UNK     1      36.634 -24.819 -12.834  0.00  0.00    +0.052 C 
ATOM      4  C   UNK     1      37.382 -26.143 -12.903  0.00  0.00    +0.045 C 
ATOM      5  C   UNK     1      35.873 -25.469 -14.950  0.00  0.00    -0.021 C 
ATOM      6  H   UNK     1      34.992 -24.019 -13.788  0.00  0.00    -0.082 HD
ATOM      7  H   UNK     1      34.727 -25.537 -13.227  0.00  0.00    -0.082 HD
ENDROOT
BRANCH   3   9
ATOM      8  O   UNK     1      36.858 -23.917 -10.607  0.00  0.00    -0.253 OA
ATOM      9  C   UNK     1      36.189 -24.508 -11.441  0.00  0.00    +0.294 C 
BRANCH   9  10
ATOM     10  O   UNK     1      34.935 -24.973 -11.225  0.00  0.00    -0.482 OA
ATOM     11  H   UNK     1      34.761 -25.532 -10.494  0.00  0.00    +0.295 HD
ENDBRANCH   9  10
ENDBRANCH   3   9
TORSDOF 2
ENDMDL
MODEL 7
REMARK VINA RESULT:      -4.6      3.849      4.428
REMARK  Name = 9934
REMARK  2 active torsions:
REMARK  status: ('A' for Active; 'I' for Inactive)
REMARK    1  A    between atoms: C_3  and  C_9
REMARK    2  A    between atoms: C_9  and  O_10
REMARK                            x       y       z     vdW  Elec       q    Type
REMARK                         _______ _______ _______ _____ _____    ______ ____
ROOT
ATOM      1  S   UNK     1      36.828 -23.579 -15.097  0.00  0.00    -0.166 S 
ATOM      2  N   UNK     1      35.683 -25.375 -13.501  0.00  0.00    +0.399 N 
ATOM      3  C   UNK     1      35.798 -24.120 -12.744  0.00  0.00    +0.052 C 
ATOM      4  C   UNK     1      36.970 -23.331 -13.311  0.00  0.00    +0.045 C 
ATOM      5  C   UNK     1      35.707 -24.990 -14.915  0.00  0.00    -0.021 C 
ATOM      6  H   UNK     1      34.807 -25.847 -13.275  0.00  0.00    -0.082 HD
ATOM      7  H   UNK     1      36.439 -26.021 -13.274  0.00  0.00    -0.082 HD
ENDROOT
BRANCH   3   9
ATOM      8  O   UNK     1      35.232 -25.109 -10.617  0.00  0.00    -0.253 OA
ATOM      9  C   UNK     1      36.020 -24.485 -11.312  0.00  0.00    +0.294 C 
BRANCH   9  10
ATOM     10  O   UNK     1      37.222 -24.028 -10.882  0.00  0.00    -0.482 OA
ATOM     11  H   UNK     1      38.012 -24.431 -11.184  0.00  0.00    +0.295 HD
ENDBRANCH   9  10
ENDBRANCH   3   9
TORSDOF 2
ENDMDL
MODEL 8
REMARK VINA RESULT:      -4.5      3.649      4.176
REMARK  Name = 9934
REMARK  2 active torsions:
REMARK  status: ('A' for Active; 'I' for Inactive)
REMARK    1  A    between atoms: C_3  and  C_9
REMARK    2  A    between atoms: C_9  and  O_10
REMARK                            x       y       z     vdW  Elec       q    Type
REMARK                         _______ _______ _______ _____ _____    ______ ____
ROOT
ATOM      1  S   UNK     1      35.254 -24.781 -14.836  0.00  0.00    -0.166 S 
ATOM      2  N   UNK     1      35.033 -23.693 -12.417  0.00  0.00    +0.399 N 
ATOM      3  C   UNK     1      36.338 -23.295 -12.964  0.00  0.00    +0.052 C 
ATOM      4  C   UNK     1      36.779 -24.358 -13.960  0.00  0.00    +0.045 C 
ATOM      5  C   UNK     1      34.198 -24.018 -13.577  0.00  0.00    -0.021 C 
ATOM      6  H   UNK     1      34.620 -22.926 -11.886  0.00  0.00    -0.082 HD
ATOM      7  H   UNK     1      35.118 -24.486 -11.782  0.00  0.00    -0.082 HD
ENDROOT
BRANCH   3   9
ATOM      8  O   UNK     1      38.268 -22.462 -11.777  0.00  0.00    -0.253 OA
ATOM      9  C   UNK     1      37.286 -23.189 -11.813  0.00  0.00    +0.294 C 
BRANCH   9  10
ATOM     10  O   UNK     1      36.909 -24.014 -10.806  0.00  0.00    -0.482 OA
ATOM     11  H   UNK     1      36.766 -24.924 -10.974  0.00  0.00    +0.295 HD
ENDBRANCH   9  10
ENDBRANCH   3   9
TORSDOF 2
ENDMDL
MODEL 9
REMARK VINA RESULT:      -4.5      7.847      8.581
REMARK  Name = 9934
REMARK  2 active torsions:
REMARK  status: ('A' for Active; 'I' for Inactive)
REMARK    1  A    between atoms: C_3  and  C_9
REMARK    2  A    between atoms: C_9  and  O_10
REMARK                            x       y       z     vdW  Elec       q    Type
REMARK                         _______ _______ _______ _____ _____    ______ ____
ROOT
ATOM      1  S   UNK     1      34.555 -19.443 -21.161  0.00  0.00    -0.166 S 
ATOM      2  N   UNK     1      32.855 -21.238 -20.176  0.00  0.00    +0.399 N 
ATOM      3  C   UNK     1      34.076 -21.291 -19.360  0.00  0.00    +0.052 C 
ATOM      4  C   UNK     1      35.242 -20.827 -20.221  0.00  0.00    +0.045 C 
ATOM      5  C   UNK     1      32.844 -19.907 -20.790  0.00  0.00    -0.021 C 
ATOM      6  H   UNK     1      32.029 -21.366 -19.590  0.00  0.00    -0.082 HD
ATOM      7  H   UNK     1      32.841 -21.976 -20.879  0.00  0.00    -0.082 HD
ENDROOT
BRANCH   3   9
ATOM      8  O   UNK     1      33.914 -23.691 -19.554  0.00  0.00    -0.253 OA
ATOM      9  C   UNK     1      34.249 -22.706 -18.913  0.00  0.00    +0.294 C 
BRANCH   9  10
ATOM     10  O   UNK     1      34.831 -22.754 -17.690  0.00  0.00    -0.482 OA
ATOM     11  H   UNK     1      34.370 -22.439 -16.938  0.00  0.00    +0.295 HD
ENDBRANCH   9  10
ENDBRANCH   3   9
TORSDOF 2
ENDMDL
