MODEL 1
REMARK VINA RESULT:      -9.8      0.000      0.000
REMARK  Name = 51045
REMARK  10 active torsions:
REMARK  status: ('A' for Active; 'I' for Inactive)
REMARK    1  A    between atoms: N_1  and  C_4
REMARK    2  A    between atoms: N_1  and  C_18
REMARK    3  A    between atoms: C_4  and  C_7
REMARK    4  A    between atoms: C_7  and  C_9
REMARK    5  A    between atoms: C_18  and  C_19
REMARK    6  A    between atoms: C_19  and  O_20
REMARK    7  A    between atoms: C_19  and  C_22
REMARK    8  A    between atoms: C_22  and  O_23
REMARK    9  A    between atoms: O_23  and  C_24
REMARK   10  A    between atoms: C_25  and  C_31
REMARK                            x       y       z     vdW  Elec       q    Type
REMARK                         _______ _______ _______ _____ _____    ______ ____
ROOT
ATOM      1  N   UNL     1      34.296 -11.910 -23.588  0.00  0.00    +0.388 N 
ATOM      2  H   UNL     1      34.179 -11.425 -22.700  0.00  0.00    -0.084 HD
ATOM      3  H   UNL     1      35.256 -12.243 -23.680  0.00  0.00    -0.084 HD
ENDROOT
BRANCH   1   4
ATOM      4  C   UNL     1      34.005 -10.979 -24.694  0.00  0.00    -0.042 C 
ATOM      5  C   UNL     1      35.233 -10.074 -24.857  0.00  0.00    -0.021 C 
ATOM      6  C   UNL     1      33.812 -11.827 -25.959  0.00  0.00    -0.021 C 
BRANCH   4   7
ATOM      7  C   UNL     1      32.720 -10.162 -24.337  0.00  0.00    +0.008 C 
BRANCH   7   9
ATOM      8  N   UNL     1      33.082  -7.931 -21.468  0.00  0.00    -0.312 N 
ATOM      9  C   UNL     1      32.715  -9.457 -23.039  0.00  0.00    -0.008 C 
ATOM     10  C   UNL     1      32.105  -9.904 -21.833  0.00  0.00    +0.011 C 
ATOM     11  C   UNL     1      33.307  -8.242 -22.782  0.00  0.00    +0.058 C 
ATOM     12  C   UNL     1      32.350  -8.929 -20.863  0.00  0.00    +0.048 C 
ATOM     13  C   UNL     1      31.366 -11.048 -21.473  0.00  0.00    +0.001 C 
ATOM     14  C   UNL     1      31.890  -9.042 -19.547  0.00  0.00    +0.015 C 
ATOM     15  C   UNL     1      30.900 -11.174 -20.159  0.00  0.00    +0.000 C 
ATOM     16  C   UNL     1      31.159 -10.185 -19.213  0.00  0.00    +0.001 C 
ATOM     17  H   UNL     1      33.397  -7.114 -21.020  0.00  0.00    +0.152 HD
ENDBRANCH   7   9
ENDBRANCH   4   7
ENDBRANCH   1   4
BRANCH   1  18
ATOM     18  C   UNL     1      33.396 -13.046 -23.637  0.00  0.00    -0.048 C 
BRANCH  18  19
ATOM     19  C   UNL     1      33.333 -13.787 -22.300  0.00  0.00    +0.133 C 
BRANCH  19  20
ATOM     20  O   UNL     1      32.154 -14.597 -22.293  0.00  0.00    -0.383 OA
ATOM     21  H   UNL     1      32.289 -15.371 -22.861  0.00  0.00    +0.210 HD
ENDBRANCH  19  20
BRANCH  19  22
ATOM     22  C   UNL     1      34.542 -14.687 -22.049  0.00  0.00    +0.232 C 
BRANCH  22  23
ATOM     23  O   UNL     1      35.047 -15.138 -23.303  0.00  0.00    -0.472 OA
BRANCH  23  24
ATOM     24  C   UNL     1      34.979 -16.485 -23.544  0.00  0.00    +0.148 C 
ATOM     25  C   UNL     1      34.409 -16.976 -24.716  0.00  0.00    +0.102 C 
ATOM     26  C   UNL     1      35.495 -17.359 -22.591  0.00  0.00    +0.038 C 
ATOM     27  C   UNL     1      34.353 -18.352 -24.936  0.00  0.00    +0.013 C 
ATOM     28  C   UNL     1      35.438 -18.735 -22.811  0.00  0.00    +0.003 C 
ATOM     29  C   UNL     1      34.867 -19.232 -23.983  0.00  0.00    +0.001 C 
BRANCH  25  31
ATOM     30  N   UNL     1      33.442 -15.372 -26.506  0.00  0.00    -0.191 NA
ATOM     31  C   UNL     1      33.875 -16.090 -25.705  0.00  0.00    +0.103 C 
ENDBRANCH  25  31
ENDBRANCH  23  24
ENDBRANCH  22  23
ENDBRANCH  19  22
ENDBRANCH  18  19
ENDBRANCH   1  18
TORSDOF 10
ENDMDL
MODEL 2
REMARK VINA RESULT:      -9.7      2.830      8.447
REMARK  Name = 51045
REMARK  10 active torsions:
REMARK  status: ('A' for Active; 'I' for Inactive)
REMARK    1  A    between atoms: N_1  and  C_4
REMARK    2  A    between atoms: N_1  and  C_18
REMARK    3  A    between atoms: C_4  and  C_7
REMARK    4  A    between atoms: C_7  and  C_9
REMARK    5  A    between atoms: C_18  and  C_19
REMARK    6  A    between atoms: C_19  and  O_20
REMARK    7  A    between atoms: C_19  and  C_22
REMARK    8  A    between atoms: C_22  and  O_23
REMARK    9  A    between atoms: O_23  and  C_24
REMARK   10  A    between atoms: C_25  and  C_31
REMARK                            x       y       z     vdW  Elec       q    Type
REMARK                         _______ _______ _______ _____ _____    ______ ____
ROOT
ATOM      1  N   UNL     1      34.370 -14.656 -22.285  0.00  0.00    +0.388 N 
ATOM      2  H   UNL     1      35.383 -14.542 -22.293  0.00  0.00    -0.084 HD
ATOM      3  H   UNL     1      33.930 -13.840 -21.860  0.00  0.00    -0.084 HD
ENDROOT
BRANCH   1   4
ATOM      4  C   UNL     1      34.021 -15.852 -21.496  0.00  0.00    -0.042 C 
ATOM      5  C   UNL     1      34.854 -15.803 -20.209  0.00  0.00    -0.021 C 
ATOM      6  C   UNL     1      32.528 -15.747 -21.154  0.00  0.00    -0.021 C 
BRANCH   4   7
ATOM      7  C   UNL     1      34.336 -17.125 -22.348  0.00  0.00    +0.008 C 
BRANCH   7   9
ATOM      8  N   UNL     1      36.614 -19.563 -20.863  0.00  0.00    -0.312 N 
ATOM      9  C   UNL     1      35.020 -18.239 -21.658  0.00  0.00    -0.008 C 
ATOM     10  C   UNL     1      34.399 -19.309 -20.955  0.00  0.00    +0.011 C 
ATOM     11  C   UNL     1      36.381 -18.423 -21.584  0.00  0.00    +0.058 C 
ATOM     12  C   UNL     1      35.421 -20.126 -20.466  0.00  0.00    +0.048 C 
ATOM     13  C   UNL     1      33.062 -19.662 -20.688  0.00  0.00    +0.001 C 
ATOM     14  C   UNL     1      35.170 -21.283 -19.720  0.00  0.00    +0.015 C 
ATOM     15  C   UNL     1      32.797 -20.817 -19.942  0.00  0.00    +0.000 C 
ATOM     16  C   UNL     1      33.837 -21.613 -19.466  0.00  0.00    +0.001 C 
ATOM     17  H   UNL     1      37.504 -19.929 -20.658  0.00  0.00    +0.152 HD
ENDBRANCH   7   9
ENDBRANCH   4   7
ENDBRANCH   1   4
BRANCH   1  18
ATOM     18  C   UNL     1      33.893 -14.796 -23.647  0.00  0.00    -0.048 C 
BRANCH  18  19
ATOM     19  C   UNL     1      33.197 -13.526 -24.145  0.00  0.00    +0.133 C 
BRANCH  19  20
ATOM     20  O   UNL     1      31.979 -13.368 -23.412  0.00  0.00    -0.383 OA
ATOM     21  H   UNL     1      31.332 -12.895 -23.957  0.00  0.00    +0.210 HD
ENDBRANCH  19  20
BRANCH  19  22
ATOM     22  C   UNL     1      34.039 -12.264 -23.966  0.00  0.00    +0.232 C 
BRANCH  22  23
ATOM     23  O   UNL     1      33.306 -11.149 -24.463  0.00  0.00    -0.472 OA
BRANCH  23  24
ATOM     24  C   UNL     1      33.525  -9.945 -23.847  0.00  0.00    +0.148 C 
ATOM     25  C   UNL     1      32.701  -9.508 -22.814  0.00  0.00    +0.102 C 
ATOM     26  C   UNL     1      34.594  -9.162 -24.276  0.00  0.00    +0.038 C 
ATOM     27  C   UNL     1      32.947  -8.278 -22.204  0.00  0.00    +0.013 C 
ATOM     28  C   UNL     1      34.839  -7.932 -23.667  0.00  0.00    +0.003 C 
ATOM     29  C   UNL     1      34.016  -7.489 -22.631  0.00  0.00    +0.001 C 
BRANCH  25  31
ATOM     30  N   UNL     1      30.707 -10.945 -21.996  0.00  0.00    -0.191 NA
ATOM     31  C   UNL     1      31.599 -10.302 -22.362  0.00  0.00    +0.103 C 
ENDBRANCH  25  31
ENDBRANCH  23  24
ENDBRANCH  22  23
ENDBRANCH  19  22
ENDBRANCH  18  19
ENDBRANCH   1  18
TORSDOF 10
ENDMDL
MODEL 3
REMARK VINA RESULT:      -9.4      6.304      8.840
REMARK  Name = 51045
REMARK  10 active torsions:
REMARK  status: ('A' for Active; 'I' for Inactive)
REMARK    1  A    between atoms: N_1  and  C_4
REMARK    2  A    between atoms: N_1  and  C_18
REMARK    3  A    between atoms: C_4  and  C_7
REMARK    4  A    between atoms: C_7  and  C_9
REMARK    5  A    between atoms: C_18  and  C_19
REMARK    6  A    between atoms: C_19  and  O_20
REMARK    7  A    between atoms: C_19  and  C_22
REMARK    8  A    between atoms: C_22  and  O_23
REMARK    9  A    between atoms: O_23  and  C_24
REMARK   10  A    between atoms: C_25  and  C_31
REMARK                            x       y       z     vdW  Elec       q    Type
REMARK                         _______ _______ _______ _____ _____    ______ ____
ROOT
ATOM      1  N   UNL     1      35.568 -19.745 -20.291  0.00  0.00    +0.388 N 
ATOM      2  H   UNL     1      35.203 -19.599 -19.351  0.00  0.00    -0.084 HD
ATOM      3  H   UNL     1      36.549 -19.467 -20.332  0.00  0.00    -0.084 HD
ENDROOT
BRANCH   1   4
ATOM      4  C   UNL     1      34.799 -18.926 -21.246  0.00  0.00    -0.042 C 
ATOM      5  C   UNL     1      35.043 -19.512 -22.643  0.00  0.00    -0.021 C 
ATOM      6  C   UNL     1      33.316 -19.071 -20.872  0.00  0.00    -0.021 C 
BRANCH   4   7
ATOM      7  C   UNL     1      35.285 -17.443 -21.141  0.00  0.00    +0.008 C 
BRANCH   7   9
ATOM      8  N   UNL     1      34.163 -15.419 -23.966  0.00  0.00    -0.312 N 
ATOM      9  C   UNL     1      34.690 -16.477 -22.087  0.00  0.00    -0.008 C 
ATOM     10  C   UNL     1      33.824 -15.395 -21.761  0.00  0.00    +0.011 C 
ATOM     11  C   UNL     1      34.879 -16.465 -23.449  0.00  0.00    +0.058 C 
ATOM     12  C   UNL     1      33.508 -14.748 -22.958  0.00  0.00    +0.048 C 
ATOM     13  C   UNL     1      33.278 -14.904 -20.559  0.00  0.00    +0.001 C 
ATOM     14  C   UNL     1      32.669 -13.629 -23.012  0.00  0.00    +0.015 C 
ATOM     15  C   UNL     1      32.437 -13.785 -20.599  0.00  0.00    +0.000 C 
ATOM     16  C   UNL     1      32.138 -13.160 -21.808  0.00  0.00    +0.001 C 
ATOM     17  H   UNL     1      34.122 -15.181 -24.920  0.00  0.00    +0.152 HD
ENDBRANCH   7   9
ENDBRANCH   4   7
ENDBRANCH   1   4
BRANCH   1  18
ATOM     18  C   UNL     1      35.461 -21.150 -20.634  0.00  0.00    -0.048 C 
BRANCH  18  19
ATOM     19  C   UNL     1      35.316 -22.034 -19.393  0.00  0.00    +0.133 C 
BRANCH  19  20
ATOM     20  O   UNL     1      36.159 -21.504 -18.365  0.00  0.00    -0.383 OA
ATOM     21  H   UNL     1      35.713 -21.582 -17.508  0.00  0.00    +0.210 HD
ENDBRANCH  19  20
BRANCH  19  22
ATOM     22  C   UNL     1      33.886 -22.102 -18.861  0.00  0.00    +0.232 C 
BRANCH  22  23
ATOM     23  O   UNL     1      33.715 -23.330 -18.158  0.00  0.00    -0.472 OA
BRANCH  23  24
ATOM     24  C   UNL     1      33.106 -23.257 -16.933  0.00  0.00    +0.148 C 
ATOM     25  C   UNL     1      33.846 -23.355 -15.758  0.00  0.00    +0.102 C 
ATOM     26  C   UNL     1      31.725 -23.082 -16.885  0.00  0.00    +0.038 C 
ATOM     27  C   UNL     1      33.199 -23.277 -14.524  0.00  0.00    +0.013 C 
ATOM     28  C   UNL     1      31.079 -23.005 -15.652  0.00  0.00    +0.003 C 
ATOM     29  C   UNL     1      31.816 -23.103 -14.471  0.00  0.00    +0.001 C 
BRANCH  25  31
ATOM     30  N   UNL     1      36.415 -23.678 -15.818  0.00  0.00    -0.191 NA
ATOM     31  C   UNL     1      35.265 -23.534 -15.791  0.00  0.00    +0.103 C 
ENDBRANCH  25  31
ENDBRANCH  23  24
ENDBRANCH  22  23
ENDBRANCH  19  22
ENDBRANCH  18  19
ENDBRANCH   1  18
TORSDOF 10
ENDMDL
MODEL 4
REMARK VINA RESULT:      -9.4      2.864      8.968
REMARK  Name = 51045
REMARK  10 active torsions:
REMARK  status: ('A' for Active; 'I' for Inactive)
REMARK    1  A    between atoms: N_1  and  C_4
REMARK    2  A    between atoms: N_1  and  C_18
REMARK    3  A    between atoms: C_4  and  C_7
REMARK    4  A    between atoms: C_7  and  C_9
REMARK    5  A    between atoms: C_18  and  C_19
REMARK    6  A    between atoms: C_19  and  O_20
REMARK    7  A    between atoms: C_19  and  C_22
REMARK    8  A    between atoms: C_22  and  O_23
REMARK    9  A    between atoms: O_23  and  C_24
REMARK   10  A    between atoms: C_25  and  C_31
REMARK                            x       y       z     vdW  Elec       q    Type
REMARK                         _______ _______ _______ _____ _____    ______ ____
ROOT
ATOM      1  N   UNL     1      32.603 -15.143 -21.894  0.00  0.00    +0.388 N 
ATOM      2  H   UNL     1      32.382 -14.878 -20.935  0.00  0.00    -0.084 HD
ATOM      3  H   UNL     1      31.917 -15.816 -22.237  0.00  0.00    -0.084 HD
ENDROOT
BRANCH   1   4
ATOM      4  C   UNL     1      33.941 -15.763 -21.932  0.00  0.00    -0.042 C 
ATOM      5  C   UNL     1      34.778 -14.968 -22.942  0.00  0.00    -0.021 C 
ATOM      6  C   UNL     1      34.544 -15.619 -20.528  0.00  0.00    -0.021 C 
BRANCH   4   7
ATOM      7  C   UNL     1      33.787 -17.262 -22.351  0.00  0.00    +0.008 C 
BRANCH   7   9
ATOM      8  N   UNL     1      36.539 -19.260 -21.018  0.00  0.00    -0.312 N 
ATOM      9  C   UNL     1      34.694 -18.232 -21.703  0.00  0.00    -0.008 C 
ATOM     10  C   UNL     1      34.312 -19.373 -20.942  0.00  0.00    +0.011 C 
ATOM     11  C   UNL     1      36.069 -18.190 -21.732  0.00  0.00    +0.058 C 
ATOM     12  C   UNL     1      35.487 -20.000 -20.524  0.00  0.00    +0.048 C 
ATOM     13  C   UNL     1      33.074 -19.933 -20.569  0.00  0.00    +0.001 C 
ATOM     14  C   UNL     1      35.487 -21.164 -19.748  0.00  0.00    +0.015 C 
ATOM     15  C   UNL     1      33.059 -21.098 -19.792  0.00  0.00    +0.000 C 
ATOM     16  C   UNL     1      34.248 -21.701 -19.389  0.00  0.00    +0.001 C 
ATOM     17  H   UNL     1      37.490 -19.471 -20.879  0.00  0.00    +0.152 HD
ENDBRANCH   7   9
ENDBRANCH   4   7
ENDBRANCH   1   4
BRANCH   1  18
ATOM     18  C   UNL     1      32.571 -13.964 -22.737  0.00  0.00    -0.048 C 
BRANCH  18  19
ATOM     19  C   UNL     1      31.874 -12.786 -22.051  0.00  0.00    +0.133 C 
BRANCH  19  20
ATOM     20  O   UNL     1      32.249 -12.789 -20.670  0.00  0.00    -0.383 OA
ATOM     21  H   UNL     1      32.445 -13.696 -20.389  0.00  0.00    +0.210 HD
ENDBRANCH  19  20
BRANCH  19  22
ATOM     22  C   UNL     1      32.242 -11.431 -22.652  0.00  0.00    +0.232 C 
BRANCH  22  23
ATOM     23  O   UNL     1      31.236 -10.485 -22.301  0.00  0.00    -0.472 OA
BRANCH  23  24
ATOM     24  C   UNL     1      31.620  -9.170 -22.251  0.00  0.00    +0.148 C 
ATOM     25  C   UNL     1      32.053  -8.595 -21.059  0.00  0.00    +0.102 C 
ATOM     26  C   UNL     1      31.568  -8.416 -23.420  0.00  0.00    +0.038 C 
ATOM     27  C   UNL     1      32.437  -7.254 -21.037  0.00  0.00    +0.013 C 
ATOM     28  C   UNL     1      31.951  -7.076 -23.397  0.00  0.00    +0.003 C 
ATOM     29  C   UNL     1      32.386  -6.494 -22.206  0.00  0.00    +0.001 C 
BRANCH  25  31
ATOM     30  N   UNL     1      32.159  -9.975 -18.869  0.00  0.00    -0.191 NA
ATOM     31  C   UNL     1      32.112  -9.357 -19.850  0.00  0.00    +0.103 C 
ENDBRANCH  25  31
ENDBRANCH  23  24
ENDBRANCH  22  23
ENDBRANCH  19  22
ENDBRANCH  18  19
ENDBRANCH   1  18
TORSDOF 10
ENDMDL
MODEL 5
REMARK VINA RESULT:      -9.3      9.821     14.064
REMARK  Name = 51045
REMARK  10 active torsions:
REMARK  status: ('A' for Active; 'I' for Inactive)
REMARK    1  A    between atoms: N_1  and  C_4
REMARK    2  A    between atoms: N_1  and  C_18
REMARK    3  A    between atoms: C_4  and  C_7
REMARK    4  A    between atoms: C_7  and  C_9
REMARK    5  A    between atoms: C_18  and  C_19
REMARK    6  A    between atoms: C_19  and  O_20
REMARK    7  A    between atoms: C_19  and  C_22
REMARK    8  A    between atoms: C_22  and  O_23
REMARK    9  A    between atoms: O_23  and  C_24
REMARK   10  A    between atoms: C_25  and  C_31
REMARK                            x       y       z     vdW  Elec       q    Type
REMARK                         _______ _______ _______ _____ _____    ______ ____
ROOT
ATOM      1  N   UNL     1      34.900 -22.616 -14.713  0.00  0.00    +0.388 N 
ATOM      2  H   UNL     1      35.657 -22.498 -14.041  0.00  0.00    -0.084 HD
ATOM      3  H   UNL     1      34.360 -21.753 -14.785  0.00  0.00    -0.084 HD
ENDROOT
BRANCH   1   4
ATOM      4  C   UNL     1      34.009 -23.700 -14.258  0.00  0.00    -0.042 C 
ATOM      5  C   UNL     1      32.597 -23.111 -14.155  0.00  0.00    -0.021 C 
ATOM      6  C   UNL     1      34.041 -24.792 -15.336  0.00  0.00    -0.021 C 
BRANCH   4   7
ATOM      7  C   UNL     1      34.525 -24.227 -12.878  0.00  0.00    +0.008 C 
BRANCH   7   9
ATOM      8  N   UNL     1      37.951 -23.557 -11.804  0.00  0.00    -0.312 N 
ATOM      9  C   UNL     1      35.981 -24.153 -12.637  0.00  0.00    -0.008 C 
ATOM     10  C   UNL     1      36.990 -24.908 -13.298  0.00  0.00    +0.011 C 
ATOM     11  C   UNL     1      36.603 -23.332 -11.724  0.00  0.00    +0.058 C 
ATOM     12  C   UNL     1      38.216 -24.515 -12.757  0.00  0.00    +0.048 C 
ATOM     13  C   UNL     1      36.977 -25.890 -14.307  0.00  0.00    +0.001 C 
ATOM     14  C   UNL     1      39.435 -25.059 -13.177  0.00  0.00    +0.015 C 
ATOM     15  C   UNL     1      38.189 -26.442 -14.738  0.00  0.00    +0.000 C 
ATOM     16  C   UNL     1      39.398 -26.032 -14.179  0.00  0.00    +0.001 C 
ATOM     17  H   UNL     1      38.632 -23.101 -11.260  0.00  0.00    +0.152 HD
ENDBRANCH   7   9
ENDBRANCH   4   7
ENDBRANCH   1   4
BRANCH   1  18
ATOM     18  C   UNL     1      35.457 -22.935 -16.013  0.00  0.00    -0.048 C 
BRANCH  18  19
ATOM     19  C   UNL     1      36.766 -22.187 -16.276  0.00  0.00    +0.133 C 
BRANCH  19  20
ATOM     20  O   UNL     1      37.846 -23.113 -16.135  0.00  0.00    -0.383 OA
ATOM     21  H   UNL     1      37.911 -23.659 -16.934  0.00  0.00    +0.210 HD
ENDBRANCH  19  20
BRANCH  19  22
ATOM     22  C   UNL     1      36.837 -21.565 -17.670  0.00  0.00    +0.232 C 
BRANCH  22  23
ATOM     23  O   UNL     1      35.865 -22.189 -18.502  0.00  0.00    -0.472 OA
BRANCH  23  24
ATOM     24  C   UNL     1      35.203 -21.380 -19.388  0.00  0.00    +0.148 C 
ATOM     25  C   UNL     1      33.812 -21.356 -19.436  0.00  0.00    +0.102 C 
ATOM     26  C   UNL     1      35.952 -20.577 -20.244  0.00  0.00    +0.038 C 
ATOM     27  C   UNL     1      33.164 -20.522 -20.348  0.00  0.00    +0.013 C 
ATOM     28  C   UNL     1      35.305 -19.745 -21.156  0.00  0.00    +0.003 C 
ATOM     29  C   UNL     1      33.911 -19.717 -21.209  0.00  0.00    +0.001 C 
BRANCH  25  31
ATOM     30  N   UNL     1      32.393 -22.839 -17.855  0.00  0.00    -0.191 NA
ATOM     31  C   UNL     1      33.028 -22.175 -18.562  0.00  0.00    +0.103 C 
ENDBRANCH  25  31
ENDBRANCH  23  24
ENDBRANCH  22  23
ENDBRANCH  19  22
ENDBRANCH  18  19
ENDBRANCH   1  18
TORSDOF 10
ENDMDL
MODEL 6
REMARK VINA RESULT:      -9.3      6.086      8.477
REMARK  Name = 51045
REMARK  10 active torsions:
REMARK  status: ('A' for Active; 'I' for Inactive)
REMARK    1  A    between atoms: N_1  and  C_4
REMARK    2  A    between atoms: N_1  and  C_18
REMARK    3  A    between atoms: C_4  and  C_7
REMARK    4  A    between atoms: C_7  and  C_9
REMARK    5  A    between atoms: C_18  and  C_19
REMARK    6  A    between atoms: C_19  and  O_20
REMARK    7  A    between atoms: C_19  and  C_22
REMARK    8  A    between atoms: C_22  and  O_23
REMARK    9  A    between atoms: O_23  and  C_24
REMARK   10  A    between atoms: C_25  and  C_31
REMARK                            x       y       z     vdW  Elec       q    Type
REMARK                         _______ _______ _______ _____ _____    ______ ____
ROOT
ATOM      1  N   UNL     1      35.669 -19.624 -20.385  0.00  0.00    +0.388 N 
ATOM      2  H   UNL     1      35.293 -19.169 -19.554  0.00  0.00    -0.084 HD
ATOM      3  H   UNL     1      36.632 -19.916 -20.218  0.00  0.00    -0.084 HD
ENDROOT
BRANCH   1   4
ATOM      4  C   UNL     1      35.645 -18.675 -21.513  0.00  0.00    -0.042 C 
ATOM      5  C   UNL     1      37.070 -18.607 -22.076  0.00  0.00    -0.021 C 
ATOM      6  C   UNL     1      34.694 -19.254 -22.570  0.00  0.00    -0.021 C 
BRANCH   4   7
ATOM      7  C   UNL     1      35.157 -17.284 -20.988  0.00  0.00    +0.008 C 
BRANCH   7   9
ATOM      8  N   UNL     1      34.435 -15.246 -23.932  0.00  0.00    -0.312 N 
ATOM      9  C   UNL     1      34.700 -16.311 -22.002  0.00  0.00    -0.008 C 
ATOM     10  C   UNL     1      33.808 -15.222 -21.790  0.00  0.00    +0.011 C 
ATOM     11  C   UNL     1      35.067 -16.299 -23.327  0.00  0.00    +0.058 C 
ATOM     12  C   UNL     1      33.659 -14.570 -23.016  0.00  0.00    +0.048 C 
ATOM     13  C   UNL     1      33.113 -14.728 -20.669  0.00  0.00    +0.001 C 
ATOM     14  C   UNL     1      32.844 -13.444 -23.178  0.00  0.00    +0.015 C 
ATOM     15  C   UNL     1      32.294 -13.601 -20.817  0.00  0.00    +0.000 C 
ATOM     16  C   UNL     1      32.163 -12.972 -22.053  0.00  0.00    +0.001 C 
ATOM     17  H   UNL     1      34.522 -15.006 -24.882  0.00  0.00    +0.152 HD
ENDBRANCH   7   9
ENDBRANCH   4   7
ENDBRANCH   1   4
BRANCH   1  18
ATOM     18  C   UNL     1      34.868 -20.793 -20.694  0.00  0.00    -0.048 C 
BRANCH  18  19
ATOM     19  C   UNL     1      33.745 -21.006 -19.676  0.00  0.00    +0.133 C 
BRANCH  19  20
ATOM     20  O   UNL     1      32.494 -20.827 -20.347  0.00  0.00    -0.383 OA
ATOM     21  H   UNL     1      31.860 -21.488 -20.031  0.00  0.00    +0.210 HD
ENDBRANCH  19  20
BRANCH  19  22
ATOM     22  C   UNL     1      33.760 -22.394 -19.039  0.00  0.00    +0.232 C 
BRANCH  22  23
ATOM     23  O   UNL     1      32.564 -22.567 -18.285  0.00  0.00    -0.472 OA
BRANCH  23  24
ATOM     24  C   UNL     1      32.708 -23.003 -16.995  0.00  0.00    +0.148 C 
ATOM     25  C   UNL     1      31.607 -23.122 -16.151  0.00  0.00    +0.102 C 
ATOM     26  C   UNL     1      33.983 -23.328 -16.540  0.00  0.00    +0.038 C 
ATOM     27  C   UNL     1      31.782 -23.569 -14.841  0.00  0.00    +0.013 C 
ATOM     28  C   UNL     1      34.159 -23.774 -15.230  0.00  0.00    +0.003 C 
ATOM     29  C   UNL     1      33.058 -23.895 -14.381  0.00  0.00    +0.001 C 
BRANCH  25  31
ATOM     30  N   UNL     1      29.223 -22.524 -16.972  0.00  0.00    -0.191 NA
ATOM     31  C   UNL     1      30.290 -22.792 -16.604  0.00  0.00    +0.103 C 
ENDBRANCH  25  31
ENDBRANCH  23  24
ENDBRANCH  22  23
ENDBRANCH  19  22
ENDBRANCH  18  19
ENDBRANCH   1  18
TORSDOF 10
ENDMDL
MODEL 7
REMARK VINA RESULT:      -9.2      2.557      8.206
REMARK  Name = 51045
REMARK  10 active torsions:
REMARK  status: ('A' for Active; 'I' for Inactive)
REMARK    1  A    between atoms: N_1  and  C_4
REMARK    2  A    between atoms: N_1  and  C_18
REMARK    3  A    between atoms: C_4  and  C_7
REMARK    4  A    between atoms: C_7  and  C_9
REMARK    5  A    between atoms: C_18  and  C_19
REMARK    6  A    between atoms: C_19  and  O_20
REMARK    7  A    between atoms: C_19  and  C_22
REMARK    8  A    between atoms: C_22  and  O_23
REMARK    9  A    between atoms: O_23  and  C_24
REMARK   10  A    between atoms: C_25  and  C_31
REMARK                            x       y       z     vdW  Elec       q    Type
REMARK                         _______ _______ _______ _____ _____    ______ ____
ROOT
ATOM      1  N   UNL     1      34.298 -14.303 -22.081  0.00  0.00    +0.388 N 
ATOM      2  H   UNL     1      35.259 -14.042 -21.861  0.00  0.00    -0.084 HD
ATOM      3  H   UNL     1      33.656 -13.582 -21.751  0.00  0.00    -0.084 HD
ENDROOT
BRANCH   1   4
ATOM      4  C   UNL     1      33.973 -15.575 -21.410  0.00  0.00    -0.042 C 
ATOM      5  C   UNL     1      34.797 -15.627 -20.117  0.00  0.00    -0.021 C 
ATOM      6  C   UNL     1      32.476 -15.537 -21.072  0.00  0.00    -0.021 C 
BRANCH   4   7
ATOM      7  C   UNL     1      34.323 -16.755 -22.375  0.00  0.00    +0.008 C 
BRANCH   7   9
ATOM      8  N   UNL     1      36.588 -19.346 -21.151  0.00  0.00    -0.312 N 
ATOM      9  C   UNL     1      35.003 -17.925 -21.780  0.00  0.00    -0.008 C 
ATOM     10  C   UNL     1      34.385 -19.000 -21.082  0.00  0.00    +0.011 C 
ATOM     11  C   UNL     1      36.357 -18.167 -21.806  0.00  0.00    +0.058 C 
ATOM     12  C   UNL     1      35.401 -19.878 -20.698  0.00  0.00    +0.048 C 
ATOM     13  C   UNL     1      33.054 -19.311 -20.739  0.00  0.00    +0.001 C 
ATOM     14  C   UNL     1      35.151 -21.056 -19.985  0.00  0.00    +0.015 C 
ATOM     15  C   UNL     1      32.790 -20.486 -20.025  0.00  0.00    +0.000 C 
ATOM     16  C   UNL     1      33.824 -21.343 -19.655  0.00  0.00    +0.001 C 
ATOM     17  H   UNL     1      37.473 -19.756 -21.023  0.00  0.00    +0.152 HD
ENDBRANCH   7   9
ENDBRANCH   4   7
ENDBRANCH   1   4
BRANCH   1  18
ATOM     18  C   UNL     1      34.155 -14.442 -23.517  0.00  0.00    -0.048 C 
BRANCH  18  19
ATOM     19  C   UNL     1      33.239 -13.368 -24.110  0.00  0.00    +0.133 C 
BRANCH  19  20
ATOM     20  O   UNL     1      31.883 -13.760 -23.876  0.00  0.00    -0.383 OA
ATOM     21  H   UNL     1      31.460 -13.979 -24.721  0.00  0.00    +0.210 HD
ENDBRANCH  19  20
BRANCH  19  22
ATOM     22  C   UNL     1      33.456 -11.983 -23.502  0.00  0.00    +0.232 C 
BRANCH  22  23
ATOM     23  O   UNL     1      32.188 -11.412 -23.197  0.00  0.00    -0.472 OA
BRANCH  23  24
ATOM     24  C   UNL     1      32.007 -10.968 -21.913  0.00  0.00    +0.148 C 
ATOM     25  C   UNL     1      32.096  -9.613 -21.604  0.00  0.00    +0.102 C 
ATOM     26  C   UNL     1      31.730 -11.902 -20.918  0.00  0.00    +0.038 C 
ATOM     27  C   UNL     1      31.907  -9.189 -20.288  0.00  0.00    +0.013 C 
ATOM     28  C   UNL     1      31.541 -11.477 -19.603  0.00  0.00    +0.003 C 
ATOM     29  C   UNL     1      31.630 -10.121 -19.288  0.00  0.00    +0.001 C 
BRANCH  25  31
ATOM     30  N   UNL     1      32.609  -7.855 -23.436  0.00  0.00    -0.191 NA
ATOM     31  C   UNL     1      32.380  -8.642 -22.616  0.00  0.00    +0.103 C 
ENDBRANCH  25  31
ENDBRANCH  23  24
ENDBRANCH  22  23
ENDBRANCH  19  22
ENDBRANCH  18  19
ENDBRANCH   1  18
TORSDOF 10
ENDMDL
MODEL 8
REMARK VINA RESULT:      -9.2      2.948      4.700
REMARK  Name = 51045
REMARK  10 active torsions:
REMARK  status: ('A' for Active; 'I' for Inactive)
REMARK    1  A    between atoms: N_1  and  C_4
REMARK    2  A    between atoms: N_1  and  C_18
REMARK    3  A    between atoms: C_4  and  C_7
REMARK    4  A    between atoms: C_7  and  C_9
REMARK    5  A    between atoms: C_18  and  C_19
REMARK    6  A    between atoms: C_19  and  O_20
REMARK    7  A    between atoms: C_19  and  C_22
REMARK    8  A    between atoms: C_22  and  O_23
REMARK    9  A    between atoms: O_23  and  C_24
REMARK   10  A    between atoms: C_25  and  C_31
REMARK                            x       y       z     vdW  Elec       q    Type
REMARK                         _______ _______ _______ _____ _____    ______ ____
ROOT
ATOM      1  N   UNL     1      32.659  -9.780 -22.631  0.00  0.00    +0.388 N 
ATOM      2  H   UNL     1      31.759 -10.104 -22.981  0.00  0.00    -0.084 HD
ATOM      3  H   UNL     1      32.897 -10.273 -21.770  0.00  0.00    -0.084 HD
ENDROOT
BRANCH   1   4
ATOM      4  C   UNL     1      32.581  -8.335 -22.348  0.00  0.00    -0.042 C 
ATOM      5  C   UNL     1      32.469  -8.179 -20.826  0.00  0.00    -0.021 C 
ATOM      6  C   UNL     1      33.893  -7.708 -22.840  0.00  0.00    -0.021 C 
BRANCH   4   7
ATOM      7  C   UNL     1      31.337  -7.745 -23.090  0.00  0.00    +0.008 C 
BRANCH   7   9
ATOM      8  N   UNL     1      30.645  -4.221 -22.431  0.00  0.00    -0.312 N 
ATOM      9  C   UNL     1      31.184  -6.276 -23.074  0.00  0.00    -0.008 C 
ATOM     10  C   UNL     1      31.621  -5.367 -24.078  0.00  0.00    +0.011 C 
ATOM     11  C   UNL     1      30.588  -5.541 -22.075  0.00  0.00    +0.058 C 
ATOM     12  C   UNL     1      31.271  -4.084 -23.651  0.00  0.00    +0.048 C 
ATOM     13  C   UNL     1      32.283  -5.514 -25.313  0.00  0.00    +0.001 C 
ATOM     14  C   UNL     1      31.551  -2.937 -24.400  0.00  0.00    +0.015 C 
ATOM     15  C   UNL     1      32.569  -4.373 -26.073  0.00  0.00    +0.000 C 
ATOM     16  C   UNL     1      32.208  -3.106 -25.621  0.00  0.00    +0.001 C 
ATOM     17  H   UNL     1      30.289  -3.476 -21.895  0.00  0.00    +0.152 HD
ENDBRANCH   7   9
ENDBRANCH   4   7
ENDBRANCH   1   4
BRANCH   1  18
ATOM     18  C   UNL     1      33.682 -10.043 -23.624  0.00  0.00    -0.048 C 
BRANCH  18  19
ATOM     19  C   UNL     1      33.474 -11.390 -24.321  0.00  0.00    +0.133 C 
BRANCH  19  20
ATOM     20  O   UNL     1      34.654 -11.692 -25.071  0.00  0.00    -0.383 OA
ATOM     21  H   UNL     1      34.761 -12.654 -25.132  0.00  0.00    +0.210 HD
ENDBRANCH  19  20
BRANCH  19  22
ATOM     22  C   UNL     1      33.206 -12.539 -23.352  0.00  0.00    +0.232 C 
BRANCH  22  23
ATOM     23  O   UNL     1      33.835 -13.717 -23.850  0.00  0.00    -0.472 OA
BRANCH  23  24
ATOM     24  C   UNL     1      34.182 -14.667 -22.926  0.00  0.00    +0.148 C 
ATOM     25  C   UNL     1      34.546 -15.952 -23.320  0.00  0.00    +0.102 C 
ATOM     26  C   UNL     1      34.165 -14.321 -21.577  0.00  0.00    +0.038 C 
ATOM     27  C   UNL     1      34.895 -16.899 -22.358  0.00  0.00    +0.013 C 
ATOM     28  C   UNL     1      34.513 -15.269 -20.615  0.00  0.00    +0.003 C 
ATOM     29  C   UNL     1      34.878 -16.558 -21.005  0.00  0.00    +0.001 C 
BRANCH  25  31
ATOM     30  N   UNL     1      34.586 -16.621 -25.823  0.00  0.00    -0.191 NA
ATOM     31  C   UNL     1      34.568 -16.321 -24.703  0.00  0.00    +0.103 C 
ENDBRANCH  25  31
ENDBRANCH  23  24
ENDBRANCH  22  23
ENDBRANCH  19  22
ENDBRANCH  18  19
ENDBRANCH   1  18
TORSDOF 10
ENDMDL
MODEL 9
REMARK VINA RESULT:      -9.2      9.524     13.227
REMARK  Name = 51045
REMARK  10 active torsions:
REMARK  status: ('A' for Active; 'I' for Inactive)
REMARK    1  A    between atoms: N_1  and  C_4
REMARK    2  A    between atoms: N_1  and  C_18
REMARK    3  A    between atoms: C_4  and  C_7
REMARK    4  A    between atoms: C_7  and  C_9
REMARK    5  A    between atoms: C_18  and  C_19
REMARK    6  A    between atoms: C_19  and  O_20
REMARK    7  A    between atoms: C_19  and  C_22
REMARK    8  A    between atoms: C_22  and  O_23
REMARK    9  A    between atoms: O_23  and  C_24
REMARK   10  A    between atoms: C_25  and  C_31
REMARK                            x       y       z     vdW  Elec       q    Type
REMARK                         _______ _______ _______ _____ _____    ______ ____
ROOT
ATOM      1  N   UNL     1      35.640 -22.886 -14.339  0.00  0.00    +0.388 N 
ATOM      2  H   UNL     1      36.430 -23.113 -13.735  0.00  0.00    -0.084 HD
ATOM      3  H   UNL     1      35.325 -21.932 -14.159  0.00  0.00    -0.084 HD
ENDROOT
BRANCH   1   4
ATOM      4  C   UNL     1      34.530 -23.816 -14.058  0.00  0.00    -0.042 C 
ATOM      5  C   UNL     1      34.669 -24.992 -15.033  0.00  0.00    -0.021 C 
ATOM      6  C   UNL     1      34.711 -24.312 -12.616  0.00  0.00    -0.021 C 
BRANCH   4   7
ATOM      7  C   UNL     1      33.177 -23.055 -14.248  0.00  0.00    +0.008 C 
BRANCH   7   9
ATOM      8  N   UNL     1      30.471 -25.488 -13.943  0.00  0.00    -0.312 N 
ATOM      9  C   UNL     1      31.952 -23.877 -14.319  0.00  0.00    -0.008 C 
ATOM     10  C   UNL     1      30.814 -23.636 -15.139  0.00  0.00    +0.011 C 
ATOM     11  C   UNL     1      31.711 -25.023 -13.596  0.00  0.00    +0.058 C 
ATOM     12  C   UNL     1      29.900 -24.660 -14.884  0.00  0.00    +0.048 C 
ATOM     13  C   UNL     1      30.475 -22.640 -16.076  0.00  0.00    +0.001 C 
ATOM     14  C   UNL     1      28.658 -24.739 -15.523  0.00  0.00    +0.015 C 
ATOM     15  C   UNL     1      29.234 -22.707 -16.722  0.00  0.00    +0.000 C 
ATOM     16  C   UNL     1      28.342 -23.740 -16.448  0.00  0.00    +0.001 C 
ATOM     17  H   UNL     1      30.049 -26.297 -13.575  0.00  0.00    +0.152 HD
ENDBRANCH   7   9
ENDBRANCH   4   7
ENDBRANCH   1   4
BRANCH   1  18
ATOM     18  C   UNL     1      36.049 -22.995 -15.725  0.00  0.00    -0.048 C 
BRANCH  18  19
ATOM     19  C   UNL     1      37.329 -22.206 -16.010  0.00  0.00    +0.133 C 
BRANCH  19  20
ATOM     20  O   UNL     1      38.402 -23.138 -16.172  0.00  0.00    -0.383 OA
ATOM     21  H   UNL     1      38.975 -22.849 -16.899  0.00  0.00    +0.210 HD
ENDBRANCH  19  20
BRANCH  19  22
ATOM     22  C   UNL     1      37.241 -21.343 -17.268  0.00  0.00    +0.232 C 
BRANCH  22  23
ATOM     23  O   UNL     1      36.594 -22.090 -18.293  0.00  0.00    -0.472 OA
BRANCH  23  24
ATOM     24  C   UNL     1      35.835 -21.380 -19.186  0.00  0.00    +0.148 C 
ATOM     25  C   UNL     1      34.480 -21.653 -19.352  0.00  0.00    +0.102 C 
ATOM     26  C   UNL     1      36.448 -20.374 -19.929  0.00  0.00    +0.038 C 
ATOM     27  C   UNL     1      33.731 -20.914 -20.268  0.00  0.00    +0.013 C 
ATOM     28  C   UNL     1      35.699 -19.636 -20.845  0.00  0.00    +0.003 C 
ATOM     29  C   UNL     1      34.341 -19.906 -21.015  0.00  0.00    +0.001 C 
BRANCH  25  31
ATOM     30  N   UNL     1      33.314 -23.518 -17.983  0.00  0.00    -0.191 NA
ATOM     31  C   UNL     1      33.836 -22.684 -18.596  0.00  0.00    +0.103 C 
ENDBRANCH  25  31
ENDBRANCH  23  24
ENDBRANCH  22  23
ENDBRANCH  19  22
ENDBRANCH  18  19
ENDBRANCH   1  18
TORSDOF 10
ENDMDL
