MODEL 1
REMARK VINA RESULT:      -7.4      0.000      0.000
REMARK  Name = 220401
REMARK  5 active torsions:
REMARK  status: ('A' for Active; 'I' for Inactive)
REMARK    1  A    between atoms: C_2  and  N_18
REMARK    2  A    between atoms: C_9  and  O_22
REMARK    3  A    between atoms: C_13  and  O_24
REMARK    4  A    between atoms: C_14  and  O_26
REMARK    5  A    between atoms: C_17  and  O_28
REMARK                            x       y       z     vdW  Elec       q    Type
REMARK                         _______ _______ _______ _____ _____    ______ ____
ROOT
ATOM      1  O   UNL     1      34.809 -15.346 -22.019  0.00  0.00    -0.283 OA
ATOM      2  C   UNL     1      31.817 -11.871 -20.736  0.00  0.00    -0.038 C 
ATOM      3  C   UNL     1      30.419 -11.330 -21.125  0.00  0.00    -0.012 C 
ATOM      4  C   UNL     1      30.257 -10.583 -22.455  0.00  0.00    +0.025 C 
ATOM      5  C   UNL     1      32.622 -12.523 -21.872  0.00  0.00    -0.039 C 
ATOM      6  C   UNL     1      31.420  -9.696 -22.812  0.00  0.00    -0.016 C 
ATOM      7  C   UNL     1      32.671 -10.266 -23.125  0.00  0.00    +0.033 C 
ATOM      8  C   UNL     1      32.833 -11.748 -23.105  0.00  0.00    -0.003 C 
ATOM      9  C   UNL     1      33.758  -9.430 -23.422  0.00  0.00    +0.175 C 
ATOM     10  C   UNL     1      31.276  -8.303 -22.816  0.00  0.00    +0.036 C 
ATOM     11  C   UNL     1      33.143 -13.741 -21.632  0.00  0.00    +0.039 C 
ATOM     12  C   UNL     1      33.082 -12.282 -24.316  0.00  0.00    +0.003 C 
ATOM     13  C   UNL     1      33.600  -8.044 -23.424  0.00  0.00    +0.206 C 
ATOM     14  C   UNL     1      32.362  -7.482 -23.123  0.00  0.00    +0.175 C 
ATOM     15  C   UNL     1      33.959 -14.608 -22.513  0.00  0.00    +0.229 C 
ATOM     16  C   UNL     1      33.212 -13.665 -24.695  0.00  0.00    +0.040 C 
ATOM     17  C   UNL     1      33.637 -14.696 -23.956  0.00  0.00    +0.177 C 
ENDROOT
BRANCH   2  18
ATOM     18  N   UNL     1      32.589 -10.857 -20.000  0.00  0.00    +0.386 N 
ATOM     19  C   UNL     1      31.728 -10.139 -19.079  0.00  0.00    -0.105 C 
ATOM     20  H   UNL     1      32.998 -10.198 -20.662  0.00  0.00    -0.084 HD
ATOM     21  H   UNL     1      33.327 -11.322 -19.469  0.00  0.00    -0.084 HD
ENDBRANCH   2  18
BRANCH   9  22
ATOM     22  O   UNL     1      34.980  -9.955 -23.736  0.00  0.00    -0.468 OA
ATOM     23  C   UNL     1      35.301 -10.058 -25.121  0.00  0.00    +0.253 C 
ENDBRANCH   9  22
BRANCH  13  24
ATOM     24  O   UNL     1      34.656  -7.236 -23.725  0.00  0.00    -0.465 OA
ATOM     25  C   UNL     1      34.617  -6.563 -24.981  0.00  0.00    +0.253 C 
ENDBRANCH  13  24
BRANCH  14  26
ATOM     26  O   UNL     1      32.193  -6.130 -23.133  0.00  0.00    -0.468 OA
ATOM     27  C   UNL     1      31.062  -5.613 -22.435  0.00  0.00    +0.253 C 
ENDBRANCH  14  26
BRANCH  17  28
ATOM     28  O   UNL     1      33.832 -15.946 -24.518  0.00  0.00    -0.468 OA
ATOM     29  C   UNL     1      33.477 -15.936 -25.885  0.00  0.00    +0.253 C 
ENDBRANCH  17  28
TORSDOF 5
ENDMDL
MODEL 2
REMARK VINA RESULT:      -7.0      2.066      6.976
REMARK  Name = 220401
REMARK  5 active torsions:
REMARK  status: ('A' for Active; 'I' for Inactive)
REMARK    1  A    between atoms: C_2  and  N_18
REMARK    2  A    between atoms: C_9  and  O_22
REMARK    3  A    between atoms: C_13  and  O_24
REMARK    4  A    between atoms: C_14  and  O_26
REMARK    5  A    between atoms: C_17  and  O_28
REMARK                            x       y       z     vdW  Elec       q    Type
REMARK                         _______ _______ _______ _____ _____    ______ ____
ROOT
ATOM      1  O   UNL     1      30.525  -9.841 -22.456  0.00  0.00    -0.283 OA
ATOM      2  C   UNL     1      32.542 -13.908 -21.020  0.00  0.00    -0.038 C 
ATOM      3  C   UNL     1      33.923 -14.423 -20.544  0.00  0.00    -0.012 C 
ATOM      4  C   UNL     1      35.056 -14.562 -21.570  0.00  0.00    +0.025 C 
ATOM      5  C   UNL     1      32.571 -12.738 -22.016  0.00  0.00    -0.039 C 
ATOM      6  C   UNL     1      34.610 -15.050 -22.922  0.00  0.00    -0.016 C 
ATOM      7  C   UNL     1      33.790 -14.236 -23.730  0.00  0.00    +0.033 C 
ATOM      8  C   UNL     1      33.373 -12.891 -23.241  0.00  0.00    -0.003 C 
ATOM      9  C   UNL     1      33.350 -14.714 -24.974  0.00  0.00    +0.175 C 
ATOM     10  C   UNL     1      34.986 -16.320 -23.378  0.00  0.00    +0.036 C 
ATOM     11  C   UNL     1      31.799 -11.672 -21.732  0.00  0.00    +0.039 C 
ATOM     12  C   UNL     1      33.881 -11.872 -23.961  0.00  0.00    +0.003 C 
ATOM     13  C   UNL     1      33.733 -15.981 -25.416  0.00  0.00    +0.206 C 
ATOM     14  C   UNL     1      34.551 -16.781 -24.621  0.00  0.00    +0.175 C 
ATOM     15  C   UNL     1      31.612 -10.414 -22.491  0.00  0.00    +0.229 C 
ATOM     16  C   UNL     1      33.767 -10.454 -23.741  0.00  0.00    +0.040 C 
ATOM     17  C   UNL     1      32.775  -9.778 -23.152  0.00  0.00    +0.177 C 
ENDROOT
BRANCH   2  18
ATOM     18  N   UNL     1      31.691 -15.020 -21.471  0.00  0.00    +0.386 N 
ATOM     19  C   UNL     1      31.930 -16.199 -20.660  0.00  0.00    -0.105 C 
ATOM     20  H   UNL     1      31.904 -15.233 -22.445  0.00  0.00    -0.084 HD
ATOM     21  H   UNL     1      30.712 -14.748 -21.379  0.00  0.00    -0.084 HD
ENDBRANCH   2  18
BRANCH   9  22
ATOM     22  O   UNL     1      32.560 -13.945 -25.781  0.00  0.00    -0.468 OA
ATOM     23  C   UNL     1      33.170 -13.400 -26.948  0.00  0.00    +0.253 C 
ENDBRANCH   9  22
BRANCH  13  24
ATOM     24  O   UNL     1      33.314 -16.436 -26.631  0.00  0.00    -0.465 OA
ATOM     25  C   UNL     1      32.055 -17.103 -26.671  0.00  0.00    +0.253 C 
ENDBRANCH  13  24
BRANCH  14  26
ATOM     26  O   UNL     1      34.940 -18.014 -25.049  0.00  0.00    -0.468 OA
ATOM     27  C   UNL     1      34.950 -19.062 -24.081  0.00  0.00    +0.253 C 
ENDBRANCH  14  26
BRANCH  17  28
ATOM     28  O   UNL     1      32.760  -8.393 -23.143  0.00  0.00    -0.468 OA
ATOM     29  C   UNL     1      34.076  -7.883 -23.151  0.00  0.00    +0.253 C 
ENDBRANCH  17  28
TORSDOF 5
ENDMDL
MODEL 3
REMARK VINA RESULT:      -6.7      2.684      5.021
REMARK  Name = 220401
REMARK  5 active torsions:
REMARK  status: ('A' for Active; 'I' for Inactive)
REMARK    1  A    between atoms: C_2  and  N_18
REMARK    2  A    between atoms: C_9  and  O_22
REMARK    3  A    between atoms: C_13  and  O_24
REMARK    4  A    between atoms: C_14  and  O_26
REMARK    5  A    between atoms: C_17  and  O_28
REMARK                            x       y       z     vdW  Elec       q    Type
REMARK                         _______ _______ _______ _____ _____    ______ ____
ROOT
ATOM      1  O   UNL     1      33.724 -18.617 -24.839  0.00  0.00    -0.283 OA
ATOM      2  C   UNL     1      33.300 -14.146 -26.421  0.00  0.00    -0.038 C 
ATOM      3  C   UNL     1      34.185 -12.893 -26.635  0.00  0.00    -0.012 C 
ATOM      4  C   UNL     1      34.664 -12.106 -25.408  0.00  0.00    +0.025 C 
ATOM      5  C   UNL     1      33.714 -15.068 -25.264  0.00  0.00    -0.039 C 
ATOM      6  C   UNL     1      33.647 -12.003 -24.304  0.00  0.00    -0.016 C 
ATOM      7  C   UNL     1      33.264 -13.157 -23.587  0.00  0.00    +0.033 C 
ATOM      8  C   UNL     1      33.875 -14.473 -23.927  0.00  0.00    -0.003 C 
ATOM      9  C   UNL     1      32.289 -13.056 -22.583  0.00  0.00    +0.175 C 
ATOM     10  C   UNL     1      33.058 -10.771 -23.992  0.00  0.00    +0.036 C 
ATOM     11  C   UNL     1      33.833 -16.381 -25.539  0.00  0.00    +0.039 C 
ATOM     12  C   UNL     1      34.645 -14.982 -22.946  0.00  0.00    +0.003 C 
ATOM     13  C   UNL     1      31.712 -11.822 -22.283  0.00  0.00    +0.206 C 
ATOM     14  C   UNL     1      32.097 -10.682 -22.984  0.00  0.00    +0.175 C 
ATOM     15  C   UNL     1      34.203 -17.502 -24.644  0.00  0.00    +0.229 C 
ATOM     16  C   UNL     1      35.450 -16.175 -22.944  0.00  0.00    +0.040 C 
ATOM     17  C   UNL     1      35.264 -17.309 -23.629  0.00  0.00    +0.177 C 
ENDROOT
BRANCH   2  18
ATOM     18  N   UNL     1      31.874 -13.784 -26.380  0.00  0.00    +0.386 N 
ATOM     19  C   UNL     1      31.565 -12.831 -27.429  0.00  0.00    -0.105 C 
ATOM     20  H   UNL     1      31.658 -13.368 -25.474  0.00  0.00    -0.084 HD
ATOM     21  H   UNL     1      31.313 -14.625 -26.520  0.00  0.00    -0.084 HD
ENDBRANCH   2  18
BRANCH   9  22
ATOM     22  O   UNL     1      31.904 -14.156 -21.869  0.00  0.00    -0.468 OA
ATOM     23  C   UNL     1      32.567 -14.382 -20.628  0.00  0.00    +0.253 C 
ENDBRANCH   9  22
BRANCH  13  24
ATOM     24  O   UNL     1      30.774 -11.728 -21.297  0.00  0.00    -0.465 OA
ATOM     25  C   UNL     1      31.208 -11.221 -20.039  0.00  0.00    +0.253 C 
ENDBRANCH  13  24
BRANCH  14  26
ATOM     26  O   UNL     1      31.548  -9.470 -22.691  0.00  0.00    -0.468 OA
ATOM     27  C   UNL     1      32.439  -8.443 -22.259  0.00  0.00    +0.253 C 
ENDBRANCH  14  26
BRANCH  17  28
ATOM     28  O   UNL     1      36.062 -18.418 -23.407  0.00  0.00    -0.468 OA
ATOM     29  C   UNL     1      36.251 -18.625 -22.023  0.00  0.00    +0.253 C 
ENDBRANCH  17  28
TORSDOF 5
ENDMDL
MODEL 4
REMARK VINA RESULT:      -6.3      2.341      7.178
REMARK  Name = 220401
REMARK  5 active torsions:
REMARK  status: ('A' for Active; 'I' for Inactive)
REMARK    1  A    between atoms: C_2  and  N_18
REMARK    2  A    between atoms: C_9  and  O_22
REMARK    3  A    between atoms: C_13  and  O_24
REMARK    4  A    between atoms: C_14  and  O_26
REMARK    5  A    between atoms: C_17  and  O_28
REMARK                            x       y       z     vdW  Elec       q    Type
REMARK                         _______ _______ _______ _____ _____    ______ ____
ROOT
ATOM      1  O   UNL     1      33.204  -8.857 -21.610  0.00  0.00    -0.283 OA
ATOM      2  C   UNL     1      33.545 -11.480 -25.570  0.00  0.00    -0.038 C 
ATOM      3  C   UNL     1      32.632 -12.321 -26.497  0.00  0.00    -0.012 C 
ATOM      4  C   UNL     1      32.109 -13.673 -25.993  0.00  0.00    +0.025 C 
ATOM      5  C   UNL     1      33.132 -11.430 -24.090  0.00  0.00    -0.039 C 
ATOM      6  C   UNL     1      33.102 -14.454 -25.175  0.00  0.00    -0.016 C 
ATOM      7  C   UNL     1      33.499 -13.979 -23.907  0.00  0.00    +0.033 C 
ATOM      8  C   UNL     1      32.929 -12.705 -23.384  0.00  0.00    -0.003 C 
ATOM      9  C   UNL     1      34.451 -14.696 -23.166  0.00  0.00    +0.175 C 
ATOM     10  C   UNL     1      33.652 -15.643 -25.670  0.00  0.00    +0.036 C 
ATOM     11  C   UNL     1      33.052 -10.214 -23.518  0.00  0.00    +0.039 C 
ATOM     12  C   UNL     1      32.153 -12.867 -22.294  0.00  0.00    +0.003 C 
ATOM     13  C   UNL     1      34.990 -15.879 -23.672  0.00  0.00    +0.206 C 
ATOM     14  C   UNL     1      34.591 -16.352 -24.919  0.00  0.00    +0.175 C 
ATOM     15  C   UNL     1      32.692  -9.848 -22.128  0.00  0.00    +0.229 C 
ATOM     16  C   UNL     1      31.378 -11.891 -21.573  0.00  0.00    +0.040 C 
ATOM     17  C   UNL     1      31.607 -10.580 -21.435  0.00  0.00    +0.177 C 
ENDROOT
BRANCH   2  18
ATOM     18  N   UNL     1      34.960 -11.840 -25.755  0.00  0.00    +0.386 N 
ATOM     19  C   UNL     1      35.705 -10.706 -26.268  0.00  0.00    -0.105 C 
ATOM     20  H   UNL     1      35.027 -12.613 -26.416  0.00  0.00    -0.084 HD
ATOM     21  H   UNL     1      35.353 -12.114 -24.854  0.00  0.00    -0.084 HD
ENDBRANCH   2  18
BRANCH   9  22
ATOM     22  O   UNL     1      34.850 -14.263 -21.933  0.00  0.00    -0.468 OA
ATOM     23  C   UNL     1      34.232 -14.877 -20.805  0.00  0.00    +0.253 C 
ENDBRANCH   9  22
BRANCH  13  24
ATOM     24  O   UNL     1      35.906 -16.579 -22.942  0.00  0.00    -0.465 OA
ATOM     25  C   UNL     1      35.412 -17.647 -22.139  0.00  0.00    +0.253 C 
ENDBRANCH  13  24
BRANCH  14  26
ATOM     26  O   UNL     1      35.103 -17.513 -25.417  0.00  0.00    -0.468 OA
ATOM     27  C   UNL     1      34.334 -18.698 -25.217  0.00  0.00    +0.253 C 
ENDBRANCH  14  26
BRANCH  17  28
ATOM     28  O   UNL     1      30.833  -9.804 -20.590  0.00  0.00    -0.468 OA
ATOM     29  C   UNL     1      30.875 -10.313 -19.273  0.00  0.00    +0.253 C 
ENDBRANCH  17  28
TORSDOF 5
ENDMDL
MODEL 5
REMARK VINA RESULT:      -6.2     12.161     16.021
REMARK  Name = 220401
REMARK  5 active torsions:
REMARK  status: ('A' for Active; 'I' for Inactive)
REMARK    1  A    between atoms: C_2  and  N_18
REMARK    2  A    between atoms: C_9  and  O_22
REMARK    3  A    between atoms: C_13  and  O_24
REMARK    4  A    between atoms: C_14  and  O_26
REMARK    5  A    between atoms: C_17  and  O_28
REMARK                            x       y       z     vdW  Elec       q    Type
REMARK                         _______ _______ _______ _____ _____    ______ ____
ROOT
ATOM      1  O   UNL     1      34.058 -23.730 -20.191  0.00  0.00    -0.283 OA
ATOM      2  C   UNL     1      32.142 -23.710 -15.832  0.00  0.00    -0.038 C 
ATOM      3  C   UNL     1      31.883 -22.715 -14.674  0.00  0.00    -0.012 C 
ATOM      4  C   UNL     1      33.074 -22.227 -13.837  0.00  0.00    +0.025 C 
ATOM      5  C   UNL     1      33.382 -23.426 -16.695  0.00  0.00    -0.039 C 
ATOM      6  C   UNL     1      34.116 -23.280 -13.570  0.00  0.00    -0.016 C 
ATOM      7  C   UNL     1      34.892 -23.788 -14.632  0.00  0.00    +0.033 C 
ATOM      8  C   UNL     1      34.678 -23.274 -16.015  0.00  0.00    -0.003 C 
ATOM      9  C   UNL     1      35.837 -24.795 -14.379  0.00  0.00    +0.175 C 
ATOM     10  C   UNL     1      34.308 -23.776 -12.275  0.00  0.00    +0.036 C 
ATOM     11  C   UNL     1      33.208 -23.404 -18.029  0.00  0.00    +0.039 C 
ATOM     12  C   UNL     1      35.731 -22.593 -16.509  0.00  0.00    +0.003 C 
ATOM     13  C   UNL     1      36.019 -25.279 -13.084  0.00  0.00    +0.206 C 
ATOM     14  C   UNL     1      35.258 -24.770 -12.034  0.00  0.00    +0.175 C 
ATOM     15  C   UNL     1      34.197 -23.168 -19.106  0.00  0.00    +0.229 C 
ATOM     16  C   UNL     1      35.859 -21.891 -17.759  0.00  0.00    +0.040 C 
ATOM     17  C   UNL     1      35.248 -22.141 -18.922  0.00  0.00    +0.177 C 
ENDROOT
BRANCH   2  18
ATOM     18  N   UNL     1      32.086 -25.101 -15.355  0.00  0.00    +0.386 N 
ATOM     19  C   UNL     1      31.059 -25.245 -14.341  0.00  0.00    -0.105 C 
ATOM     20  H   UNL     1      32.989 -25.358 -14.958  0.00  0.00    -0.084 HD
ATOM     21  H   UNL     1      31.863 -25.713 -16.141  0.00  0.00    -0.084 HD
ENDBRANCH   2  18
BRANCH   9  22
ATOM     22  O   UNL     1      36.608 -25.301 -15.388  0.00  0.00    -0.468 OA
ATOM     23  C   UNL     1      36.442 -26.683 -15.694  0.00  0.00    +0.253 C 
ENDBRANCH   9  22
BRANCH  13  24
ATOM     24  O   UNL     1      36.947 -26.249 -12.841  0.00  0.00    -0.465 OA
ATOM     25  C   UNL     1      38.278 -25.816 -12.574  0.00  0.00    +0.253 C 
ENDBRANCH  13  24
BRANCH  14  26
ATOM     26  O   UNL     1      35.436 -25.229 -10.764  0.00  0.00    -0.468 OA
ATOM     27  C   UNL     1      35.663 -24.253  -9.749  0.00  0.00    +0.253 C 
ENDBRANCH  14  26
BRANCH  17  28
ATOM     28  O   UNL     1      35.588 -21.448 -20.071  0.00  0.00    -0.468 OA
ATOM     29  C   UNL     1      34.714 -20.357 -20.270  0.00  0.00    +0.253 C 
ENDBRANCH  17  28
TORSDOF 5
ENDMDL
MODEL 6
REMARK VINA RESULT:      -4.6      3.182      5.526
REMARK  Name = 220401
REMARK  5 active torsions:
REMARK  status: ('A' for Active; 'I' for Inactive)
REMARK    1  A    between atoms: C_2  and  N_18
REMARK    2  A    between atoms: C_9  and  O_22
REMARK    3  A    between atoms: C_13  and  O_24
REMARK    4  A    between atoms: C_14  and  O_26
REMARK    5  A    between atoms: C_17  and  O_28
REMARK                            x       y       z     vdW  Elec       q    Type
REMARK                         _______ _______ _______ _____ _____    ______ ____
ROOT
ATOM      1  O   UNL     1      30.440 -11.202 -20.472  0.00  0.00    -0.283 OA
ATOM      2  C   UNL     1      33.608 -10.171 -23.875  0.00  0.00    -0.038 C 
ATOM      3  C   UNL     1      35.054  -9.631 -24.000  0.00  0.00    -0.012 C 
ATOM      4  C   UNL     1      35.319  -8.148 -23.708  0.00  0.00    +0.025 C 
ATOM      5  C   UNL     1      32.806  -9.664 -22.665  0.00  0.00    -0.039 C 
ATOM      6  C   UNL     1      34.234  -7.220 -24.185  0.00  0.00    -0.016 C 
ATOM      7  C   UNL     1      32.960  -7.254 -23.580  0.00  0.00    +0.033 C 
ATOM      8  C   UNL     1      32.698  -8.210 -22.466  0.00  0.00    -0.003 C 
ATOM      9  C   UNL     1      31.945  -6.410 -24.055  0.00  0.00    +0.175 C 
ATOM     10  C   UNL     1      34.472  -6.333 -25.242  0.00  0.00    +0.036 C 
ATOM     11  C   UNL     1      32.195 -10.590 -21.903  0.00  0.00    +0.039 C 
ATOM     12  C   UNL     1      32.462  -7.610 -21.283  0.00  0.00    +0.003 C 
ATOM     13  C   UNL     1      32.197  -5.530 -25.108  0.00  0.00    +0.206 C 
ATOM     14  C   UNL     1      33.458  -5.491 -25.699  0.00  0.00    +0.175 C 
ATOM     15  C   UNL     1      31.357 -10.414 -20.694  0.00  0.00    +0.229 C 
ATOM     16  C   UNL     1      32.253  -8.199 -19.987  0.00  0.00    +0.040 C 
ATOM     17  C   UNL     1      31.730  -9.394 -19.688  0.00  0.00    +0.177 C 
ENDROOT
BRANCH   2  18
ATOM     18  N   UNL     1      32.877 -10.024 -25.144  0.00  0.00    +0.386 N 
ATOM     19  C   UNL     1      33.099 -11.182 -25.989  0.00  0.00    -0.105 C 
ATOM     20  H   UNL     1      33.205  -9.188 -25.626  0.00  0.00    -0.084 HD
ATOM     21  H   UNL     1      31.879  -9.945 -24.946  0.00  0.00    -0.084 HD
ENDBRANCH   2  18
BRANCH   9  22
ATOM     22  O   UNL     1      30.704  -6.417 -23.484  0.00  0.00    -0.468 OA
ATOM     23  C   UNL     1      30.471  -5.478 -22.437  0.00  0.00    +0.253 C 
ENDBRANCH   9  22
BRANCH  13  24
ATOM     24  O   UNL     1      31.211  -4.703 -25.558  0.00  0.00    -0.465 OA
ATOM     25  C   UNL     1      31.254  -3.348 -25.120  0.00  0.00    +0.253 C 
ENDBRANCH  13  24
BRANCH  14  26
ATOM     26  O   UNL     1      33.717  -4.627 -26.721  0.00  0.00    -0.468 OA
ATOM     27  C   UNL     1      34.979  -4.757 -27.374  0.00  0.00    +0.253 C 
ENDBRANCH  14  26
BRANCH  17  28
ATOM     28  O   UNL     1      31.474  -9.753 -18.376  0.00  0.00    -0.468 OA
ATOM     29  C   UNL     1      31.569 -11.154 -18.218  0.00  0.00    +0.253 C 
ENDBRANCH  17  28
TORSDOF 5
ENDMDL
MODEL 7
REMARK VINA RESULT:      -4.5     11.717     15.112
REMARK  Name = 220401
REMARK  5 active torsions:
REMARK  status: ('A' for Active; 'I' for Inactive)
REMARK    1  A    between atoms: C_2  and  N_18
REMARK    2  A    between atoms: C_9  and  O_22
REMARK    3  A    between atoms: C_13  and  O_24
REMARK    4  A    between atoms: C_14  and  O_26
REMARK    5  A    between atoms: C_17  and  O_28
REMARK                            x       y       z     vdW  Elec       q    Type
REMARK                         _______ _______ _______ _____ _____    ______ ____
ROOT
ATOM      1  O   UNL     1      36.248 -23.719 -10.899  0.00  0.00    -0.283 OA
ATOM      2  C   UNL     1      32.539 -23.622 -13.884  0.00  0.00    -0.038 C 
ATOM      3  C   UNL     1      31.764 -24.585 -14.817  0.00  0.00    -0.012 C 
ATOM      4  C   UNL     1      32.430 -25.048 -16.120  0.00  0.00    +0.025 C 
ATOM      5  C   UNL     1      34.034 -23.928 -13.697  0.00  0.00    -0.039 C 
ATOM      6  C   UNL     1      33.244 -23.987 -16.811  0.00  0.00    -0.016 C 
ATOM      7  C   UNL     1      34.428 -23.507 -16.214  0.00  0.00    +0.033 C 
ATOM      8  C   UNL     1      34.869 -24.059 -14.901  0.00  0.00    -0.003 C 
ATOM      9  C   UNL     1      35.161 -22.493 -16.848  0.00  0.00    +0.175 C 
ATOM     10  C   UNL     1      32.824 -23.455 -18.036  0.00  0.00    +0.036 C 
ATOM     11  C   UNL     1      34.494 -23.986 -12.433  0.00  0.00    +0.039 C 
ATOM     12  C   UNL     1      36.023 -24.752 -14.966  0.00  0.00    +0.003 C 
ATOM     13  C   UNL     1      34.731 -21.972 -18.069  0.00  0.00    +0.206 C 
ATOM     14  C   UNL     1      33.567 -22.453 -18.662  0.00  0.00    +0.175 C 
ATOM     15  C   UNL     1      35.865 -24.250 -11.940  0.00  0.00    +0.229 C 
ATOM     16  C   UNL     1      36.704 -25.488 -13.933  0.00  0.00    +0.040 C 
ATOM     17  C   UNL     1      36.701 -25.271 -12.613  0.00  0.00    +0.177 C 
ENDROOT
BRANCH   2  18
ATOM     18  N   UNL     1      32.285 -22.218 -14.246  0.00  0.00    +0.386 N 
ATOM     19  C   UNL     1      30.909 -22.048 -14.671  0.00  0.00    -0.105 C 
ATOM     20  H   UNL     1      32.908 -21.949 -15.007  0.00  0.00    -0.084 HD
ATOM     21  H   UNL     1      32.456 -21.629 -13.430  0.00  0.00    -0.084 HD
ENDBRANCH   2  18
BRANCH   9  22
ATOM     22  O   UNL     1      36.316 -22.013 -16.296  0.00  0.00    -0.468 OA
ATOM     23  C   UNL     1      37.537 -22.578 -16.766  0.00  0.00    +0.253 C 
ENDBRANCH   9  22
BRANCH  13  24
ATOM     24  O   UNL     1      35.454 -20.995 -18.688  0.00  0.00    -0.465 OA
ATOM     25  C   UNL     1      36.286 -21.396 -19.773  0.00  0.00    +0.253 C 
ENDBRANCH  13  24
BRANCH  14  26
ATOM     26  O   UNL     1      33.144 -21.960 -19.860  0.00  0.00    -0.468 OA
ATOM     27  C   UNL     1      32.728 -20.596 -19.888  0.00  0.00    +0.253 C 
ENDBRANCH  14  26
BRANCH  17  28
ATOM     28  O   UNL     1      37.524 -25.995 -11.768  0.00  0.00    -0.468 OA
ATOM     29  C   UNL     1      38.829 -26.084 -12.302  0.00  0.00    +0.253 C 
ENDBRANCH  17  28
TORSDOF 5
ENDMDL
