MODEL 1
REMARK VINA RESULT:     -12.0      0.000      0.000
REMARK  Name = 25184541
REMARK  4 active torsions:
REMARK  status: ('A' for Active; 'I' for Inactive)
REMARK    1  A    between atoms: C_4  and  N_19
REMARK    2  A    between atoms: C_5  and  N_11
REMARK    3  A    between atoms: C_20  and  C_23
REMARK    4  A    between atoms: C_23  and  N_25
REMARK                            x       y       z     vdW  Elec       q    Type
REMARK                         _______ _______ _______ _____ _____    ______ ____
ROOT
ATOM      1  F   UNL     1      32.505 -21.459 -19.155  0.00  0.00    -0.200 F 
ATOM      2  F   UNL     1      32.511 -19.816 -21.318  0.00  0.00    -0.200 F 
ATOM      3  F   UNL     1      37.260 -19.749 -21.253  0.00  0.00    -0.203 F 
ATOM      4  C   UNL     1      34.879 -21.448 -19.094  0.00  0.00    +0.089 C 
ATOM      5  C   UNL     1      34.885 -19.760 -21.314  0.00  0.00    +0.110 C 
ATOM      6  C   UNL     1      33.673 -21.042 -19.665  0.00  0.00    +0.182 C 
ATOM      7  C   UNL     1      36.088 -21.010 -19.634  0.00  0.00    +0.048 C 
ATOM      8  C   UNL     1      33.676 -20.198 -20.776  0.00  0.00    +0.184 C 
ATOM      9  C   UNL     1      36.091 -20.165 -20.743  0.00  0.00    +0.157 C 
ENDROOT
BRANCH   5  11
ATOM     10  O   UNL     1      34.826 -16.384 -25.648  0.00  0.00    -0.291 OA
ATOM     11  N   UNL     1      34.888 -18.898 -22.442  0.00  0.00    -0.282 N 
ATOM     12  C   UNL     1      35.272 -17.492 -22.223  0.00  0.00    +0.104 C 
ATOM     13  C   UNL     1      34.619 -16.580 -23.260  0.00  0.00    +0.091 C 
ATOM     14  C   UNL     1      34.728 -19.348 -23.744  0.00  0.00    +0.068 C 
ATOM     15  C   UNL     1      34.752 -17.122 -24.668  0.00  0.00    +0.176 C 
ATOM     16  C   UNL     1      34.694 -18.591 -24.845  0.00  0.00    +0.054 C 
ENDBRANCH   5  11
BRANCH   4  19
ATOM     17  O   UNL     1      35.457 -23.342 -16.039  0.00  0.00    -0.434 OA
ATOM     18  O   UNL     1      36.856 -21.727 -16.799  0.00  0.00    -0.226 OA
ATOM     19  N   UNL     1      34.879 -22.311 -17.961  0.00  0.00    -0.219 N 
ATOM     20  C   UNL     1      34.126 -23.781 -16.340  0.00  0.00    +0.210 C 
ATOM     21  C   UNL     1      33.905 -23.353 -17.775  0.00  0.00    +0.147 C 
ATOM     22  C   UNL     1      35.825 -22.370 -16.941  0.00  0.00    +0.409 C 
BRANCH  20  23
ATOM     23  C   UNL     1      33.159 -23.124 -15.363  0.00  0.00    +0.134 C 
BRANCH  23  25
ATOM     24  O   UNL     1      29.264 -22.582 -17.144  0.00  0.00    -0.349 OA
ATOM     25  N   UNL     1      31.945 -23.895 -15.281  0.00  0.00    -0.312 N 
ATOM     26  N   UNL     1      30.585 -22.495 -16.724  0.00  0.00    -0.062 NA
ATOM     27  C   UNL     1      30.770 -23.558 -15.935  0.00  0.00    +0.171 C 
ATOM     28  C   UNL     1      29.611 -24.344 -15.822  0.00  0.00    +0.081 C 
ATOM     29  C   UNL     1      28.694 -23.689 -16.600  0.00  0.00    +0.215 C 
ATOM     30  H   UNL     1      31.950 -24.709 -14.725  0.00  0.00    +0.148 HD
ENDBRANCH  23  25
ENDBRANCH  20  23
ENDBRANCH   4  19
TORSDOF 4
ENDMDL
MODEL 2
REMARK VINA RESULT:     -11.9      0.640      1.779
REMARK  Name = 25184541
REMARK  4 active torsions:
REMARK  status: ('A' for Active; 'I' for Inactive)
REMARK    1  A    between atoms: C_4  and  N_19
REMARK    2  A    between atoms: C_5  and  N_11
REMARK    3  A    between atoms: C_20  and  C_23
REMARK    4  A    between atoms: C_23  and  N_25
REMARK                            x       y       z     vdW  Elec       q    Type
REMARK                         _______ _______ _______ _____ _____    ______ ____
ROOT
ATOM      1  F   UNL     1      36.974 -21.651 -19.071  0.00  0.00    -0.200 F 
ATOM      2  F   UNL     1      37.093 -19.988 -21.216  0.00  0.00    -0.200 F 
ATOM      3  F   UNL     1      32.350 -19.750 -21.294  0.00  0.00    -0.203 F 
ATOM      4  C   UNL     1      34.601 -21.553 -19.081  0.00  0.00    +0.089 C 
ATOM      5  C   UNL     1      34.724 -19.848 -21.284  0.00  0.00    +0.110 C 
ATOM      6  C   UNL     1      35.838 -21.188 -19.612  0.00  0.00    +0.182 C 
ATOM      7  C   UNL     1      33.425 -21.065 -19.651  0.00  0.00    +0.048 C 
ATOM      8  C   UNL     1      35.899 -20.335 -20.714  0.00  0.00    +0.184 C 
ATOM      9  C   UNL     1      33.487 -20.213 -20.753  0.00  0.00    +0.157 C 
ENDROOT
BRANCH   5  11
ATOM     10  O   UNL     1      34.890 -16.454 -25.601  0.00  0.00    -0.291 OA
ATOM     11  N   UNL     1      34.785 -18.981 -22.408  0.00  0.00    -0.282 N 
ATOM     12  C   UNL     1      35.197 -17.587 -22.169  0.00  0.00    +0.104 C 
ATOM     13  C   UNL     1      34.601 -16.654 -23.222  0.00  0.00    +0.091 C 
ATOM     14  C   UNL     1      34.655 -19.422 -23.716  0.00  0.00    +0.068 C 
ATOM     15  C   UNL     1      34.765 -17.193 -24.627  0.00  0.00    +0.176 C 
ATOM     16  C   UNL     1      34.675 -18.659 -24.814  0.00  0.00    +0.054 C 
ENDBRANCH   5  11
BRANCH   4  19
ATOM     17  O   UNL     1      35.007 -23.478 -16.017  0.00  0.00    -0.434 OA
ATOM     18  O   UNL     1      36.464 -21.879 -16.698  0.00  0.00    -0.226 OA
ATOM     19  N   UNL     1      34.535 -22.424 -17.956  0.00  0.00    -0.219 N 
ATOM     20  C   UNL     1      33.685 -23.894 -16.383  0.00  0.00    +0.210 C 
ATOM     21  C   UNL     1      33.538 -23.453 -17.824  0.00  0.00    +0.147 C 
ATOM     22  C   UNL     1      35.431 -22.505 -16.893  0.00  0.00    +0.409 C 
BRANCH  20  23
ATOM     23  C   UNL     1      32.683 -23.229 -15.448  0.00  0.00    +0.134 C 
BRANCH  23  25
ATOM     24  O   UNL     1      28.835 -22.434 -17.236  0.00  0.00    -0.349 OA
ATOM     25  N   UNL     1      31.447 -23.969 -15.446  0.00  0.00    -0.312 N 
ATOM     26  N   UNL     1      30.151 -22.418 -16.791  0.00  0.00    -0.062 NA
ATOM     27  C   UNL     1      30.293 -23.546 -16.088  0.00  0.00    +0.171 C 
ATOM     28  C   UNL     1      29.112 -24.306 -16.056  0.00  0.00    +0.081 C 
ATOM     29  C   UNL     1      28.226 -23.564 -16.791  0.00  0.00    +0.215 C 
ATOM     30  H   UNL     1      31.421 -24.824 -14.958  0.00  0.00    +0.148 HD
ENDBRANCH  23  25
ENDBRANCH  20  23
ENDBRANCH   4  19
TORSDOF 4
ENDMDL
MODEL 3
REMARK VINA RESULT:     -11.8      5.621      8.069
REMARK  Name = 25184541
REMARK  4 active torsions:
REMARK  status: ('A' for Active; 'I' for Inactive)
REMARK    1  A    between atoms: C_4  and  N_19
REMARK    2  A    between atoms: C_5  and  N_11
REMARK    3  A    between atoms: C_20  and  C_23
REMARK    4  A    between atoms: C_23  and  N_25
REMARK                            x       y       z     vdW  Elec       q    Type
REMARK                         _______ _______ _______ _____ _____    ______ ____
ROOT
ATOM      1  F   UNL     1      35.331 -23.047 -17.369  0.00  0.00    -0.200 F 
ATOM      2  F   UNL     1      32.648 -22.639 -17.494  0.00  0.00    -0.200 F 
ATOM      3  F   UNL     1      32.120 -24.845 -13.320  0.00  0.00    -0.203 F 
ATOM      4  C   UNL     1      35.103 -24.155 -15.281  0.00  0.00    +0.089 C 
ATOM      5  C   UNL     1      32.348 -23.737 -15.409  0.00  0.00    +0.110 C 
ATOM      6  C   UNL     1      34.548 -23.491 -16.375  0.00  0.00    +0.182 C 
ATOM      7  C   UNL     1      34.279 -24.610 -14.251  0.00  0.00    +0.048 C 
ATOM      8  C   UNL     1      33.171 -23.281 -16.438  0.00  0.00    +0.184 C 
ATOM      9  C   UNL     1      32.903 -24.402 -14.316  0.00  0.00    +0.157 C 
ENDROOT
BRANCH   5  11
ATOM     10  O   UNL     1      26.925 -22.927 -15.755  0.00  0.00    -0.291 OA
ATOM     11  N   UNL     1      30.945 -23.527 -15.476  0.00  0.00    -0.282 N 
ATOM     12  C   UNL     1      30.109 -24.659 -15.910  0.00  0.00    +0.104 C 
ATOM     13  C   UNL     1      28.820 -24.165 -16.567  0.00  0.00    +0.091 C 
ATOM     14  C   UNL     1      30.323 -22.388 -14.987  0.00  0.00    +0.068 C 
ATOM     15  C   UNL     1      28.146 -23.075 -15.761  0.00  0.00    +0.176 C 
ATOM     16  C   UNL     1      29.015 -22.116 -15.042  0.00  0.00    +0.054 C 
ENDBRANCH   5  11
BRANCH   4  19
ATOM     17  O   UNL     1      38.739 -24.031 -15.152  0.00  0.00    -0.434 OA
ATOM     18  O   UNL     1      37.426 -22.192 -15.339  0.00  0.00    -0.226 OA
ATOM     19  N   UNL     1      36.509 -24.370 -15.212  0.00  0.00    -0.219 N 
ATOM     20  C   UNL     1      38.539 -25.416 -14.837  0.00  0.00    +0.210 C 
ATOM     21  C   UNL     1      37.098 -25.682 -15.216  0.00  0.00    +0.147 C 
ATOM     22  C   UNL     1      37.515 -23.408 -15.235  0.00  0.00    +0.409 C 
BRANCH  20  23
ATOM     23  C   UNL     1      38.818 -25.628 -13.354  0.00  0.00    +0.134 C 
BRANCH  23  25
ATOM     24  O   UNL     1      35.428 -25.215 -10.713  0.00  0.00    -0.349 OA
ATOM     25  N   UNL     1      38.316 -24.511 -12.595  0.00  0.00    -0.312 N 
ATOM     26  N   UNL     1      36.417 -25.641 -11.590  0.00  0.00    -0.062 NA
ATOM     27  C   UNL     1      37.191 -24.569 -11.787  0.00  0.00    +0.171 C 
ATOM     28  C   UNL     1      36.742 -23.449 -11.067  0.00  0.00    +0.081 C 
ATOM     29  C   UNL     1      35.632 -23.908 -10.408  0.00  0.00    +0.215 C 
ATOM     30  H   UNL     1      38.801 -23.655 -12.655  0.00  0.00    +0.148 HD
ENDBRANCH  23  25
ENDBRANCH  20  23
ENDBRANCH   4  19
TORSDOF 4
ENDMDL
MODEL 4
REMARK VINA RESULT:     -11.3      3.270      9.059
REMARK  Name = 25184541
REMARK  4 active torsions:
REMARK  status: ('A' for Active; 'I' for Inactive)
REMARK    1  A    between atoms: C_4  and  N_19
REMARK    2  A    between atoms: C_5  and  N_11
REMARK    3  A    between atoms: C_20  and  C_23
REMARK    4  A    between atoms: C_23  and  N_25
REMARK                            x       y       z     vdW  Elec       q    Type
REMARK                         _______ _______ _______ _____ _____    ______ ____
ROOT
ATOM      1  F   UNL     1      37.237 -20.839 -18.393  0.00  0.00    -0.200 F 
ATOM      2  F   UNL     1      37.792 -22.245 -16.136  0.00  0.00    -0.200 F 
ATOM      3  F   UNL     1      33.458 -24.185 -16.280  0.00  0.00    -0.203 F 
ATOM      4  C   UNL     1      35.063 -21.790 -18.495  0.00  0.00    +0.089 C 
ATOM      5  C   UNL     1      35.632 -23.233 -16.177  0.00  0.00    +0.110 C 
ATOM      6  C   UNL     1      36.307 -21.657 -17.879  0.00  0.00    +0.182 C 
ATOM      7  C   UNL     1      34.104 -22.645 -17.953  0.00  0.00    +0.048 C 
ATOM      8  C   UNL     1      36.591 -22.379 -16.719  0.00  0.00    +0.184 C 
ATOM      9  C   UNL     1      34.389 -23.366 -16.794  0.00  0.00    +0.157 C 
ENDROOT
BRANCH   5  11
ATOM     10  O   UNL     1      36.798 -25.999 -11.576  0.00  0.00    -0.291 OA
ATOM     11  N   UNL     1      35.921 -23.965 -14.995  0.00  0.00    -0.282 N 
ATOM     12  C   UNL     1      35.307 -23.499 -13.740  0.00  0.00    +0.104 C 
ATOM     13  C   UNL     1      36.164 -23.887 -12.536  0.00  0.00    +0.091 C 
ATOM     14  C   UNL     1      36.591 -25.179 -14.997  0.00  0.00    +0.068 C 
ATOM     15  C   UNL     1      36.612 -25.333 -12.592  0.00  0.00    +0.176 C 
ATOM     16  C   UNL     1      36.918 -25.904 -13.923  0.00  0.00    +0.054 C 
ENDBRANCH   5  11
BRANCH   4  19
ATOM     17  O   UNL     1      33.681 -19.905 -21.286  0.00  0.00    -0.434 OA
ATOM     18  O   UNL     1      32.447 -20.630 -19.527  0.00  0.00    -0.226 OA
ATOM     19  N   UNL     1      34.769 -21.056 -19.679  0.00  0.00    -0.219 N 
ATOM     20  C   UNL     1      35.077 -19.784 -21.589  0.00  0.00    +0.210 C 
ATOM     21  C   UNL     1      35.742 -20.827 -20.715  0.00  0.00    +0.147 C 
ATOM     22  C   UNL     1      33.536 -20.547 -20.077  0.00  0.00    +0.409 C 
BRANCH  20  23
ATOM     23  C   UNL     1      35.527 -18.363 -21.274  0.00  0.00    +0.134 C 
BRANCH  23  25
ATOM     24  O   UNL     1      34.180 -14.275 -21.597  0.00  0.00    -0.349 OA
ATOM     25  N   UNL     1      35.294 -17.511 -22.413  0.00  0.00    -0.312 N 
ATOM     26  N   UNL     1      34.584 -15.539 -21.188  0.00  0.00    -0.062 NA
ATOM     27  C   UNL     1      34.853 -16.200 -22.318  0.00  0.00    +0.171 C 
ATOM     28  C   UNL     1      34.640 -15.410 -23.460  0.00  0.00    +0.081 C 
ATOM     29  C   UNL     1      34.218 -14.210 -22.953  0.00  0.00    +0.215 C 
ATOM     30  H   UNL     1      35.456 -17.883 -23.310  0.00  0.00    +0.148 HD
ENDBRANCH  23  25
ENDBRANCH  20  23
ENDBRANCH   4  19
TORSDOF 4
ENDMDL
MODEL 5
REMARK VINA RESULT:     -11.2      9.299     13.997
REMARK  Name = 25184541
REMARK  4 active torsions:
REMARK  status: ('A' for Active; 'I' for Inactive)
REMARK    1  A    between atoms: C_4  and  N_19
REMARK    2  A    between atoms: C_5  and  N_11
REMARK    3  A    between atoms: C_20  and  C_23
REMARK    4  A    between atoms: C_23  and  N_25
REMARK                            x       y       z     vdW  Elec       q    Type
REMARK                         _______ _______ _______ _____ _____    ______ ____
ROOT
ATOM      1  F   UNL     1      30.887 -11.145 -21.049  0.00  0.00    -0.200 F 
ATOM      2  F   UNL     1      31.628 -13.600 -21.946  0.00  0.00    -0.200 F 
ATOM      3  F   UNL     1      34.519 -11.566 -25.119  0.00  0.00    -0.203 F 
ATOM      4  C   UNL     1      32.322 -10.096 -22.623  0.00  0.00    +0.089 C 
ATOM      5  C   UNL     1      33.083 -12.616 -23.545  0.00  0.00    +0.110 C 
ATOM      6  C   UNL     1      31.777 -11.243 -22.047  0.00  0.00    +0.182 C 
ATOM      7  C   UNL     1      33.249 -10.209 -23.660  0.00  0.00    +0.048 C 
ATOM      8  C   UNL     1      32.158 -12.503 -22.508  0.00  0.00    +0.184 C 
ATOM      9  C   UNL     1      33.628 -11.469 -24.121  0.00  0.00    +0.157 C 
ENDROOT
BRANCH   5  11
ATOM     10  O   UNL     1      34.658 -17.554 -25.366  0.00  0.00    -0.291 OA
ATOM     11  N   UNL     1      33.468 -13.898 -24.017  0.00  0.00    -0.282 N 
ATOM     12  C   UNL     1      34.111 -14.811 -23.056  0.00  0.00    +0.104 C 
ATOM     13  C   UNL     1      35.037 -15.794 -23.772  0.00  0.00    +0.091 C 
ATOM     14  C   UNL     1      33.110 -14.389 -25.264  0.00  0.00    +0.068 C 
ATOM     15  C   UNL     1      34.384 -16.417 -24.988  0.00  0.00    +0.176 C 
ATOM     16  C   UNL     1      33.462 -15.572 -25.779  0.00  0.00    +0.054 C 
ENDBRANCH   5  11
BRANCH   4  19
ATOM     17  O   UNL     1      31.632  -6.993 -20.848  0.00  0.00    -0.434 OA
ATOM     18  O   UNL     1      32.728  -8.750 -19.925  0.00  0.00    -0.226 OA
ATOM     19  N   UNL     1      31.937  -8.807 -22.154  0.00  0.00    -0.219 N 
ATOM     20  C   UNL     1      31.232  -6.603 -22.168  0.00  0.00    +0.210 C 
ATOM     21  C   UNL     1      31.123  -7.908 -22.928  0.00  0.00    +0.147 C 
ATOM     22  C   UNL     1      32.171  -8.258 -20.897  0.00  0.00    +0.409 C 
BRANCH  20  23
ATOM     23  C   UNL     1      32.282  -5.661 -22.742  0.00  0.00    +0.134 C 
BRANCH  23  25
ATOM     24  O   UNL     1      30.028  -2.806 -25.067  0.00  0.00    -0.349 OA
ATOM     25  N   UNL     1      31.905  -4.293 -22.489  0.00  0.00    -0.312 N 
ATOM     26  N   UNL     1      30.699  -3.912 -24.561  0.00  0.00    -0.062 NA
ATOM     27  C   UNL     1      31.165  -3.520 -23.372  0.00  0.00    +0.171 C 
ATOM     28  C   UNL     1      30.824  -2.190 -23.077  0.00  0.00    +0.081 C 
ATOM     29  C   UNL     1      30.110  -1.786 -24.174  0.00  0.00    +0.215 C 
ATOM     30  H   UNL     1      32.191  -3.884 -21.640  0.00  0.00    +0.148 HD
ENDBRANCH  23  25
ENDBRANCH  20  23
ENDBRANCH   4  19
TORSDOF 4
ENDMDL
MODEL 6
REMARK VINA RESULT:     -11.2      2.710      8.713
REMARK  Name = 25184541
REMARK  4 active torsions:
REMARK  status: ('A' for Active; 'I' for Inactive)
REMARK    1  A    between atoms: C_4  and  N_19
REMARK    2  A    between atoms: C_5  and  N_11
REMARK    3  A    between atoms: C_20  and  C_23
REMARK    4  A    between atoms: C_23  and  N_25
REMARK                            x       y       z     vdW  Elec       q    Type
REMARK                         _______ _______ _______ _____ _____    ______ ____
ROOT
ATOM      1  F   UNL     1      37.296 -18.859 -22.008  0.00  0.00    -0.200 F 
ATOM      2  F   UNL     1      37.301 -20.699 -20.010  0.00  0.00    -0.200 F 
ATOM      3  F   UNL     1      32.554 -20.572 -19.883  0.00  0.00    -0.203 F 
ATOM      4  C   UNL     1      34.923 -18.771 -21.972  0.00  0.00    +0.089 C 
ATOM      5  C   UNL     1      34.928 -20.660 -19.919  0.00  0.00    +0.110 C 
ATOM      6  C   UNL     1      36.131 -19.275 -21.490  0.00  0.00    +0.182 C 
ATOM      7  C   UNL     1      33.717 -19.212 -21.427  0.00  0.00    +0.048 C 
ATOM      8  C   UNL     1      36.133 -20.220 -20.464  0.00  0.00    +0.184 C 
ATOM      9  C   UNL     1      33.720 -20.156 -20.401  0.00  0.00    +0.157 C 
ENDROOT
BRANCH   5  11
ATOM     10  O   UNL     1      34.859 -24.336 -15.837  0.00  0.00    -0.291 OA
ATOM     11  N   UNL     1      34.930 -21.619 -18.872  0.00  0.00    -0.282 N 
ATOM     12  C   UNL     1      33.925 -22.695 -18.934  0.00  0.00    +0.104 C 
ATOM     13  C   UNL     1      33.585 -23.205 -17.535  0.00  0.00    +0.091 C 
ATOM     14  C   UNL     1      35.927 -21.695 -17.912  0.00  0.00    +0.068 C 
ATOM     15  C   UNL     1      34.822 -23.461 -16.700  0.00  0.00    +0.176 C 
ATOM     16  C   UNL     1      35.976 -22.552 -16.887  0.00  0.00    +0.054 C 
ENDBRANCH   5  11
BRANCH   4  19
ATOM     17  O   UNL     1      34.776 -16.835 -25.052  0.00  0.00    -0.434 OA
ATOM     18  O   UNL     1      34.468 -19.080 -24.964  0.00  0.00    -0.226 OA
ATOM     19  N   UNL     1      34.917 -17.808 -23.020  0.00  0.00    -0.219 N 
ATOM     20  C   UNL     1      34.837 -15.763 -24.101  0.00  0.00    +0.210 C 
ATOM     21  C   UNL     1      35.268 -16.428 -22.812  0.00  0.00    +0.147 C 
ATOM     22  C   UNL     1      34.689 -18.031 -24.375  0.00  0.00    +0.409 C 
BRANCH  20  23
ATOM     23  C   UNL     1      33.463 -15.110 -24.009  0.00  0.00    +0.134 C 
BRANCH  23  25
ATOM     24  O   UNL     1      31.793 -11.675 -21.998  0.00  0.00    -0.349 OA
ATOM     25  N   UNL     1      33.126 -14.869 -22.629  0.00  0.00    -0.312 N 
ATOM     26  N   UNL     1      32.306 -12.601 -22.898  0.00  0.00    -0.062 NA
ATOM     27  C   UNL     1      32.588 -13.679 -22.161  0.00  0.00    +0.171 C 
ATOM     28  C   UNL     1      32.277 -13.495 -20.804  0.00  0.00    +0.081 C 
ATOM     29  C   UNL     1      31.780 -12.219 -20.754  0.00  0.00    +0.215 C 
ATOM     30  H   UNL     1      33.289 -15.592 -21.979  0.00  0.00    +0.148 HD
ENDBRANCH  23  25
ENDBRANCH  20  23
ENDBRANCH   4  19
TORSDOF 4
ENDMDL
MODEL 7
REMARK VINA RESULT:     -11.1      9.300     14.101
REMARK  Name = 25184541
REMARK  4 active torsions:
REMARK  status: ('A' for Active; 'I' for Inactive)
REMARK    1  A    between atoms: C_4  and  N_19
REMARK    2  A    between atoms: C_5  and  N_11
REMARK    3  A    between atoms: C_20  and  C_23
REMARK    4  A    between atoms: C_23  and  N_25
REMARK                            x       y       z     vdW  Elec       q    Type
REMARK                         _______ _______ _______ _____ _____    ______ ____
ROOT
ATOM      1  F   UNL     1      33.913  -9.050 -24.151  0.00  0.00    -0.200 F 
ATOM      2  F   UNL     1      34.701 -11.464 -25.114  0.00  0.00    -0.200 F 
ATOM      3  F   UNL     1      31.682 -13.629 -22.153  0.00  0.00    -0.203 F 
ATOM      4  C   UNL     1      32.393 -10.099 -22.658  0.00  0.00    +0.089 C 
ATOM      5  C   UNL     1      33.203 -12.579 -23.646  0.00  0.00    +0.110 C 
ATOM      6  C   UNL     1      33.363 -10.169 -23.657  0.00  0.00    +0.182 C 
ATOM      7  C   UNL     1      31.827 -11.270 -22.153  0.00  0.00    +0.048 C 
ATOM      8  C   UNL     1      33.768 -11.409 -24.151  0.00  0.00    +0.184 C 
ATOM      9  C   UNL     1      32.232 -12.509 -22.647  0.00  0.00    +0.157 C 
ENDROOT
BRANCH   5  11
ATOM     10  O   UNL     1      34.720 -17.490 -25.586  0.00  0.00    -0.291 OA
ATOM     11  N   UNL     1      33.617 -13.841 -24.146  0.00  0.00    -0.282 N 
ATOM     12  C   UNL     1      33.340 -14.135 -25.563  0.00  0.00    +0.104 C 
ATOM     13  C   UNL     1      33.198 -15.639 -25.791  0.00  0.00    +0.091 C 
ATOM     14  C   UNL     1      34.415 -14.720 -23.428  0.00  0.00    +0.068 C 
ATOM     15  C   UNL     1      34.304 -16.429 -25.124  0.00  0.00    +0.176 C 
ATOM     16  C   UNL     1      34.816 -15.931 -23.827  0.00  0.00    +0.054 C 
ENDBRANCH   5  11
BRANCH   4  19
ATOM     17  O   UNL     1      31.595  -7.082 -20.784  0.00  0.00    -0.434 OA
ATOM     18  O   UNL     1      32.654  -8.875 -19.886  0.00  0.00    -0.226 OA
ATOM     19  N   UNL     1      31.976  -8.835 -22.153  0.00  0.00    -0.219 N 
ATOM     20  C   UNL     1      31.260  -6.635 -22.105  0.00  0.00    +0.210 C 
ATOM     21  C   UNL     1      31.198  -7.905 -22.926  0.00  0.00    +0.147 C 
ATOM     22  C   UNL     1      32.144  -8.341 -20.862  0.00  0.00    +0.409 C 
BRANCH  20  23
ATOM     23  C   UNL     1      32.333  -5.664 -22.582  0.00  0.00    +0.134 C 
BRANCH  23  25
ATOM     24  O   UNL     1      30.159  -2.147 -23.824  0.00  0.00    -0.349 OA
ATOM     25  N   UNL     1      31.987  -5.153 -23.884  0.00  0.00    -0.312 N 
ATOM     26  N   UNL     1      30.800  -3.171 -23.139  0.00  0.00    -0.062 NA
ATOM     27  C   UNL     1      31.270  -3.983 -24.090  0.00  0.00    +0.171 C 
ATOM     28  C   UNL     1      30.959  -3.528 -25.381  0.00  0.00    +0.081 C 
ATOM     29  C   UNL     1      30.260  -2.371 -25.160  0.00  0.00    +0.215 C 
ATOM     30  H   UNL     1      32.277  -5.664 -24.674  0.00  0.00    +0.148 HD
ENDBRANCH  23  25
ENDBRANCH  20  23
ENDBRANCH   4  19
TORSDOF 4
ENDMDL
MODEL 8
REMARK VINA RESULT:     -11.1      2.346      3.265
REMARK  Name = 25184541
REMARK  4 active torsions:
REMARK  status: ('A' for Active; 'I' for Inactive)
REMARK    1  A    between atoms: C_4  and  N_19
REMARK    2  A    between atoms: C_5  and  N_11
REMARK    3  A    between atoms: C_20  and  C_23
REMARK    4  A    between atoms: C_23  and  N_25
REMARK                            x       y       z     vdW  Elec       q    Type
REMARK                         _______ _______ _______ _____ _____    ______ ____
ROOT
ATOM      1  F   UNL     1      32.860 -21.749 -18.973  0.00  0.00    -0.200 F 
ATOM      2  F   UNL     1      32.658 -19.999 -21.040  0.00  0.00    -0.200 F 
ATOM      3  F   UNL     1      37.371 -19.413 -21.003  0.00  0.00    -0.203 F 
ATOM      4  C   UNL     1      35.219 -21.480 -18.927  0.00  0.00    +0.089 C 
ATOM      5  C   UNL     1      35.011 -19.682 -21.049  0.00  0.00    +0.110 C 
ATOM      6  C   UNL     1      33.968 -21.179 -19.466  0.00  0.00    +0.182 C 
ATOM      7  C   UNL     1      36.366 -20.882 -19.449  0.00  0.00    +0.048 C 
ATOM      8  C   UNL     1      33.865 -20.279 -20.528  0.00  0.00    +0.184 C 
ATOM      9  C   UNL     1      36.262 -19.983 -20.509  0.00  0.00    +0.157 C 
ENDROOT
BRANCH   5  11
ATOM     10  O   UNL     1      34.529 -16.100 -25.186  0.00  0.00    -0.291 OA
ATOM     11  N   UNL     1      34.906 -18.764 -22.127  0.00  0.00    -0.282 N 
ATOM     12  C   UNL     1      35.139 -17.339 -21.832  0.00  0.00    +0.104 C 
ATOM     13  C   UNL     1      34.377 -16.447 -22.811  0.00  0.00    +0.091 C 
ATOM     14  C   UNL     1      34.777 -19.157 -23.451  0.00  0.00    +0.068 C 
ATOM     15  C   UNL     1      34.548 -16.894 -24.248  0.00  0.00    +0.176 C 
ATOM     16  C   UNL     1      34.646 -18.349 -24.507  0.00  0.00    +0.054 C 
ENDBRANCH   5  11
BRANCH   4  19
ATOM     17  O   UNL     1      36.139 -23.619 -16.128  0.00  0.00    -0.434 OA
ATOM     18  O   UNL     1      37.579 -22.194 -17.147  0.00  0.00    -0.226 OA
ATOM     19  N   UNL     1      35.328 -22.398 -17.844  0.00  0.00    -0.219 N 
ATOM     20  C   UNL     1      34.720 -23.830 -16.130  0.00  0.00    +0.210 C 
ATOM     21  C   UNL     1      34.262 -23.289 -17.468  0.00  0.00    +0.147 C 
ATOM     22  C   UNL     1      36.452 -22.662 -17.066  0.00  0.00    +0.409 C 
BRANCH  20  23
ATOM     23  C   UNL     1      34.112 -23.092 -14.944  0.00  0.00    +0.134 C 
BRANCH  23  25
ATOM     24  O   UNL     1      34.943 -25.043 -11.185  0.00  0.00    -0.349 OA
ATOM     25  N   UNL     1      35.118 -22.862 -13.940  0.00  0.00    -0.312 N 
ATOM     26  N   UNL     1      34.446 -24.624 -12.412  0.00  0.00    -0.062 NA
ATOM     27  C   UNL     1      35.231 -23.605 -12.775  0.00  0.00    +0.171 C 
ATOM     28  C   UNL     1      36.232 -23.340 -11.825  0.00  0.00    +0.081 C 
ATOM     29  C   UNL     1      36.008 -24.271 -10.846  0.00  0.00    +0.215 C 
ATOM     30  H   UNL     1      35.764 -22.132 -14.090  0.00  0.00    +0.148 HD
ENDBRANCH  23  25
ENDBRANCH  20  23
ENDBRANCH   4  19
TORSDOF 4
ENDMDL
MODEL 9
REMARK VINA RESULT:     -11.0      3.346      8.829
REMARK  Name = 25184541
REMARK  4 active torsions:
REMARK  status: ('A' for Active; 'I' for Inactive)
REMARK    1  A    between atoms: C_4  and  N_19
REMARK    2  A    between atoms: C_5  and  N_11
REMARK    3  A    between atoms: C_20  and  C_23
REMARK    4  A    between atoms: C_23  and  N_25
REMARK                            x       y       z     vdW  Elec       q    Type
REMARK                         _______ _______ _______ _____ _____    ______ ____
ROOT
ATOM      1  F   UNL     1      33.098 -22.794 -18.569  0.00  0.00    -0.200 F 
ATOM      2  F   UNL     1      33.652 -24.147 -16.280  0.00  0.00    -0.200 F 
ATOM      3  F   UNL     1      37.928 -22.087 -16.099  0.00  0.00    -0.203 F 
ATOM      4  C   UNL     1      35.228 -21.746 -18.509  0.00  0.00    +0.089 C 
ATOM      5  C   UNL     1      35.797 -23.136 -16.159  0.00  0.00    +0.110 C 
ATOM      6  C   UNL     1      34.283 -22.618 -17.968  0.00  0.00    +0.182 C 
ATOM      7  C   UNL     1      36.457 -21.569 -17.874  0.00  0.00    +0.048 C 
ATOM      8  C   UNL     1      34.568 -23.313 -16.793  0.00  0.00    +0.184 C 
ATOM      9  C   UNL     1      36.742 -22.264 -16.700  0.00  0.00    +0.157 C 
ENDROOT
BRANCH   5  11
ATOM     10  O   UNL     1      36.883 -25.953 -11.570  0.00  0.00    -0.291 OA
ATOM     11  N   UNL     1      36.089 -23.846 -14.965  0.00  0.00    -0.282 N 
ATOM     12  C   UNL     1      37.091 -24.923 -15.041  0.00  0.00    +0.104 C 
ATOM     13  C   UNL     1      36.833 -25.986 -13.974  0.00  0.00    +0.091 C 
ATOM     14  C   UNL     1      35.620 -23.461 -13.717  0.00  0.00    +0.068 C 
ATOM     15  C   UNL     1      36.572 -25.379 -12.611  0.00  0.00    +0.176 C 
ATOM     16  C   UNL     1      35.833 -24.097 -12.561  0.00  0.00    +0.054 C 
ENDBRANCH   5  11
BRANCH   4  19
ATOM     17  O   UNL     1      33.865 -19.887 -21.328  0.00  0.00    -0.434 OA
ATOM     18  O   UNL     1      32.639 -20.513 -19.525  0.00  0.00    -0.226 OA
ATOM     19  N   UNL     1      34.940 -21.034 -19.708  0.00  0.00    -0.219 N 
ATOM     20  C   UNL     1      35.259 -19.830 -21.659  0.00  0.00    +0.210 C 
ATOM     21  C   UNL     1      35.899 -20.873 -20.768  0.00  0.00    +0.147 C 
ATOM     22  C   UNL     1      33.720 -20.489 -20.098  0.00  0.00    +0.409 C 
BRANCH  20  23
ATOM     23  C   UNL     1      35.770 -18.420 -21.395  0.00  0.00    +0.134 C 
BRANCH  23  25
ATOM     24  O   UNL     1      34.245 -14.438 -20.717  0.00  0.00    -0.349 OA
ATOM     25  N   UNL     1      35.097 -17.484 -22.260  0.00  0.00    -0.312 N 
ATOM     26  N   UNL     1      34.819 -15.701 -20.636  0.00  0.00    -0.062 NA
ATOM     27  C   UNL     1      34.674 -16.226 -21.856  0.00  0.00    +0.171 C 
ATOM     28  C   UNL     1      34.021 -15.350 -22.739  0.00  0.00    +0.081 C 
ATOM     29  C   UNL     1      33.773 -14.241 -21.975  0.00  0.00    +0.215 C 
ATOM     30  H   UNL     1      34.928 -17.754 -23.192  0.00  0.00    +0.148 HD
ENDBRANCH  23  25
ENDBRANCH  20  23
ENDBRANCH   4  19
TORSDOF 4
ENDMDL
