MODEL 1
REMARK VINA RESULT:      -6.8      0.000      0.000
REMARK  Name = 10264356
REMARK  7 active torsions:
REMARK  status: ('A' for Active; 'I' for Inactive)
REMARK    1  A    between atoms: C_1  and  C_14
REMARK    2  A    between atoms: C_2  and  O_7
REMARK    3  A    between atoms: C_4  and  O_9
REMARK    4  A    between atoms: C_5  and  S_11
REMARK    5  A    between atoms: S_11  and  C_12
REMARK    6  A    between atoms: C_14  and  C_15
REMARK    7  A    between atoms: C_15  and  N_17
REMARK                            x       y       z     vdW  Elec       q    Type
REMARK                         _______ _______ _______ _____ _____    ______ ____
ROOT
ATOM      1  C   UNL     1      35.269 -17.509 -21.847  0.00  0.00    +0.013 C 
ATOM      2  C   UNL     1      35.162 -17.555 -23.228  0.00  0.00    +0.135 C 
ATOM      3  C   UNL     1      34.831 -16.407 -21.128  0.00  0.00    +0.036 C 
ATOM      4  C   UNL     1      34.273 -15.325 -21.808  0.00  0.00    +0.144 C 
ATOM      5  C   UNL     1      34.159 -15.356 -23.198  0.00  0.00    +0.062 C 
ATOM      6  C   UNL     1      34.604 -16.471 -23.908  0.00  0.00    +0.046 C 
ENDROOT
BRANCH   2   7
ATOM      7  O   UNL     1      35.593 -18.636 -23.938  0.00  0.00    -0.472 OA
ATOM      8  C   UNL     1      34.623 -19.320 -24.729  0.00  0.00    +0.252 C 
ENDBRANCH   2   7
BRANCH   4   9
ATOM      9  O   UNL     1      33.850 -14.251 -21.082  0.00  0.00    -0.471 OA
ATOM     10  C   UNL     1      32.597 -14.374 -20.414  0.00  0.00    +0.252 C 
ENDBRANCH   4   9
BRANCH   5  11
ATOM     11  S   UNL     1      33.449 -13.990 -24.103  0.00  0.00    -0.111 S 
BRANCH  11  12
ATOM     12  C   UNL     1      33.146 -14.745 -25.725  0.00  0.00    +0.062 C 
ATOM     13  C   UNL     1      33.182 -13.693 -26.817  0.00  0.00    +0.013 C 
ENDBRANCH  11  12
ENDBRANCH   5  11
BRANCH   1  14
ATOM     14  C   UNL     1      35.870 -18.672 -21.094  0.00  0.00    +0.008 C 
BRANCH  14  15
ATOM     15  C   UNL     1      34.961 -19.912 -21.044  0.00  0.00    -0.061 C 
ATOM     16  C   UNL     1      35.395 -20.913 -19.972  0.00  0.00    -0.024 C 
BRANCH  15  17
ATOM     17  N   UNL     1      33.584 -19.500 -20.759  0.00  0.00    +0.382 N 
ATOM     18  H   UNL     1      33.071 -20.283 -20.354  0.00  0.00    -0.089 HD
ATOM     19  H   UNL     1      33.129 -19.207 -21.625  0.00  0.00    -0.089 HD
ATOM     20  H   UNL     1      33.592 -18.722 -20.100  0.00  0.00    -0.089 HD
ENDBRANCH  15  17
ENDBRANCH  14  15
ENDBRANCH   1  14
TORSDOF 7
ENDMDL
MODEL 2
REMARK VINA RESULT:      -6.7      5.124      8.292
REMARK  Name = 10264356
REMARK  7 active torsions:
REMARK  status: ('A' for Active; 'I' for Inactive)
REMARK    1  A    between atoms: C_1  and  C_14
REMARK    2  A    between atoms: C_2  and  O_7
REMARK    3  A    between atoms: C_4  and  O_9
REMARK    4  A    between atoms: C_5  and  S_11
REMARK    5  A    between atoms: S_11  and  C_12
REMARK    6  A    between atoms: C_14  and  C_15
REMARK    7  A    between atoms: C_15  and  N_17
REMARK                            x       y       z     vdW  Elec       q    Type
REMARK                         _______ _______ _______ _____ _____    ______ ____
ROOT
ATOM      1  C   UNL     1      32.156  -9.955 -22.581  0.00  0.00    +0.013 C 
ATOM      2  C   UNL     1      31.731 -11.074 -21.881  0.00  0.00    +0.135 C 
ATOM      3  C   UNL     1      33.047 -10.063 -23.638  0.00  0.00    +0.036 C 
ATOM      4  C   UNL     1      33.525 -11.321 -24.003  0.00  0.00    +0.144 C 
ATOM      5  C   UNL     1      33.107 -12.456 -23.308  0.00  0.00    +0.062 C 
ATOM      6  C   UNL     1      32.211 -12.332 -22.247  0.00  0.00    +0.046 C 
ENDROOT
BRANCH   2   7
ATOM      7  O   UNL     1      30.857 -10.970 -20.841  0.00  0.00    -0.472 OA
ATOM      8  C   UNL     1      31.356 -11.283 -19.542  0.00  0.00    +0.252 C 
ENDBRANCH   2   7
BRANCH   4   9
ATOM      9  O   UNL     1      34.401 -11.405 -25.045  0.00  0.00    -0.471 OA
ATOM     10  C   UNL     1      35.230 -10.271 -25.287  0.00  0.00    +0.252 C 
ENDBRANCH   4   9
BRANCH   5  11
ATOM     11  S   UNL     1      33.698 -14.084 -23.747  0.00  0.00    -0.111 S 
BRANCH  11  12
ATOM     12  C   UNL     1      33.241 -15.046 -22.278  0.00  0.00    +0.062 C 
ATOM     13  C   UNL     1      34.407 -15.128 -21.311  0.00  0.00    +0.013 C 
ENDBRANCH  11  12
ENDBRANCH   5  11
BRANCH   1  14
ATOM     14  C   UNL     1      31.648  -8.585 -22.200  0.00  0.00    +0.008 C 
BRANCH  14  15
ATOM     15  C   UNL     1      32.674  -7.740 -21.424  0.00  0.00    -0.061 C 
ATOM     16  C   UNL     1      32.307  -6.255 -21.396  0.00  0.00    -0.024 C 
BRANCH  15  17
ATOM     17  N   UNL     1      32.760  -8.220 -20.042  0.00  0.00    +0.382 N 
ATOM     18  H   UNL     1      31.863  -8.621 -19.765  0.00  0.00    -0.089 HD
ATOM     19  H   UNL     1      32.989  -7.441 -19.424  0.00  0.00    -0.089 HD
ATOM     20  H   UNL     1      33.486  -8.932 -19.974  0.00  0.00    -0.089 HD
ENDBRANCH  15  17
ENDBRANCH  14  15
ENDBRANCH   1  14
TORSDOF 7
ENDMDL
MODEL 3
REMARK VINA RESULT:      -6.7      6.416      9.979
REMARK  Name = 10264356
REMARK  7 active torsions:
REMARK  status: ('A' for Active; 'I' for Inactive)
REMARK    1  A    between atoms: C_1  and  C_14
REMARK    2  A    between atoms: C_2  and  O_7
REMARK    3  A    between atoms: C_4  and  O_9
REMARK    4  A    between atoms: C_5  and  S_11
REMARK    5  A    between atoms: S_11  and  C_12
REMARK    6  A    between atoms: C_14  and  C_15
REMARK    7  A    between atoms: C_15  and  N_17
REMARK                            x       y       z     vdW  Elec       q    Type
REMARK                         _______ _______ _______ _____ _____    ______ ____
ROOT
ATOM      1  C   UNL     1      33.957 -22.741 -18.009  0.00  0.00    +0.013 C 
ATOM      2  C   UNL     1      35.077 -22.724 -17.193  0.00  0.00    +0.135 C 
ATOM      3  C   UNL     1      32.714 -23.110 -17.516  0.00  0.00    +0.036 C 
ATOM      4  C   UNL     1      32.590 -23.470 -16.175  0.00  0.00    +0.144 C 
ATOM      5  C   UNL     1      33.708 -23.459 -15.342  0.00  0.00    +0.062 C 
ATOM      6  C   UNL     1      34.952 -23.086 -15.851  0.00  0.00    +0.046 C 
ENDROOT
BRANCH   2   7
ATOM      7  O   UNL     1      36.300 -22.365 -17.674  0.00  0.00    -0.472 OA
ATOM      8  C   UNL     1      37.147 -21.621 -16.801  0.00  0.00    +0.252 C 
ENDBRANCH   2   7
BRANCH   4   9
ATOM      9  O   UNL     1      31.358 -23.830 -15.711  0.00  0.00    -0.471 OA
ATOM     10  C   UNL     1      30.254 -23.024 -16.114  0.00  0.00    +0.252 C 
ENDBRANCH   4   9
BRANCH   5  11
ATOM     11  S   UNL     1      33.588 -23.914 -13.618  0.00  0.00    -0.111 S 
BRANCH  11  12
ATOM     12  C   UNL     1      35.329 -23.877 -13.109  0.00  0.00    +0.062 C 
ATOM     13  C   UNL     1      35.505 -24.562 -11.767  0.00  0.00    +0.013 C 
ENDBRANCH  11  12
ENDBRANCH   5  11
BRANCH   1  14
ATOM     14  C   UNL     1      34.073 -22.354 -19.463  0.00  0.00    +0.008 C 
BRANCH  14  15
ATOM     15  C   UNL     1      33.856 -20.852 -19.722  0.00  0.00    -0.061 C 
ATOM     16  C   UNL     1      34.999 -20.226 -20.523  0.00  0.00    -0.024 C 
BRANCH  15  17
ATOM     17  N   UNL     1      32.610 -20.657 -20.467  0.00  0.00    +0.382 N 
ATOM     18  H   UNL     1      32.134 -19.823 -20.121  0.00  0.00    -0.089 HD
ATOM     19  H   UNL     1      32.006 -21.470 -20.341  0.00  0.00    -0.089 HD
ATOM     20  H   UNL     1      32.821 -20.541 -21.458  0.00  0.00    -0.089 HD
ENDBRANCH  15  17
ENDBRANCH  14  15
ENDBRANCH   1  14
TORSDOF 7
ENDMDL
MODEL 4
REMARK VINA RESULT:      -6.6      2.713      6.327
REMARK  Name = 10264356
REMARK  7 active torsions:
REMARK  status: ('A' for Active; 'I' for Inactive)
REMARK    1  A    between atoms: C_1  and  C_14
REMARK    2  A    between atoms: C_2  and  O_7
REMARK    3  A    between atoms: C_4  and  O_9
REMARK    4  A    between atoms: C_5  and  S_11
REMARK    5  A    between atoms: S_11  and  C_12
REMARK    6  A    between atoms: C_14  and  C_15
REMARK    7  A    between atoms: C_15  and  N_17
REMARK                            x       y       z     vdW  Elec       q    Type
REMARK                         _______ _______ _______ _____ _____    ______ ____
ROOT
ATOM      1  C   UNL     1      33.627 -14.860 -23.628  0.00  0.00    +0.013 C 
ATOM      2  C   UNL     1      33.681 -14.817 -22.243  0.00  0.00    +0.135 C 
ATOM      3  C   UNL     1      34.172 -15.920 -24.336  0.00  0.00    +0.036 C 
ATOM      4  C   UNL     1      34.786 -16.962 -23.643  0.00  0.00    +0.144 C 
ATOM      5  C   UNL     1      34.849 -16.933 -22.250  0.00  0.00    +0.062 C 
ATOM      6  C   UNL     1      34.296 -15.861 -21.550  0.00  0.00    +0.046 C 
ENDROOT
BRANCH   2   7
ATOM      7  O   UNL     1      33.148 -13.777 -21.544  0.00  0.00    -0.472 OA
ATOM      8  C   UNL     1      32.447 -14.094 -20.343  0.00  0.00    +0.252 C 
ENDBRANCH   2   7
BRANCH   4   9
ATOM      9  O   UNL     1      35.317 -17.995 -24.360  0.00  0.00    -0.471 OA
ATOM     10  C   UNL     1      34.415 -19.006 -24.802  0.00  0.00    +0.252 C 
ENDBRANCH   4   9
BRANCH   5  11
ATOM     11  S   UNL     1      35.627 -18.251 -21.327  0.00  0.00    -0.111 S 
BRANCH  11  12
ATOM     12  C   UNL     1      34.224 -19.360 -21.024  0.00  0.00    +0.062 C 
ATOM     13  C   UNL     1      34.670 -20.581 -20.240  0.00  0.00    +0.013 C 
ENDBRANCH  11  12
ENDBRANCH   5  11
BRANCH   1  14
ATOM     14  C   UNL     1      32.966 -13.740 -24.395  0.00  0.00    +0.008 C 
BRANCH  14  15
ATOM     15  C   UNL     1      33.823 -12.465 -24.489  0.00  0.00    -0.061 C 
ATOM     16  C   UNL     1      33.861 -11.890 -25.906  0.00  0.00    -0.024 C 
BRANCH  15  17
ATOM     17  N   UNL     1      33.282 -11.442 -23.590  0.00  0.00    +0.382 N 
ATOM     18  H   UNL     1      33.883 -11.359 -22.770  0.00  0.00    -0.089 HD
ATOM     19  H   UNL     1      32.342 -11.709 -23.297  0.00  0.00    -0.089 HD
ATOM     20  H   UNL     1      33.245 -10.547 -24.077  0.00  0.00    -0.089 HD
ENDBRANCH  15  17
ENDBRANCH  14  15
ENDBRANCH   1  14
TORSDOF 7
ENDMDL
MODEL 5
REMARK VINA RESULT:      -6.5      3.907      5.599
REMARK  Name = 10264356
REMARK  7 active torsions:
REMARK  status: ('A' for Active; 'I' for Inactive)
REMARK    1  A    between atoms: C_1  and  C_14
REMARK    2  A    between atoms: C_2  and  O_7
REMARK    3  A    between atoms: C_4  and  O_9
REMARK    4  A    between atoms: C_5  and  S_11
REMARK    5  A    between atoms: S_11  and  C_12
REMARK    6  A    between atoms: C_14  and  C_15
REMARK    7  A    between atoms: C_15  and  N_17
REMARK                            x       y       z     vdW  Elec       q    Type
REMARK                         _______ _______ _______ _____ _____    ______ ____
ROOT
ATOM      1  C   UNL     1      32.631 -13.306 -22.296  0.00  0.00    +0.013 C 
ATOM      2  C   UNL     1      33.111 -12.585 -23.378  0.00  0.00    +0.135 C 
ATOM      3  C   UNL     1      31.873 -12.700 -21.306  0.00  0.00    +0.036 C 
ATOM      4  C   UNL     1      31.588 -11.338 -21.402  0.00  0.00    +0.144 C 
ATOM      5  C   UNL     1      32.064 -10.599 -22.485  0.00  0.00    +0.062 C 
ATOM      6  C   UNL     1      32.825 -11.222 -23.472  0.00  0.00    +0.046 C 
ENDROOT
BRANCH   2   7
ATOM      7  O   UNL     1      33.858 -13.178 -24.351  0.00  0.00    -0.472 OA
ATOM      8  C   UNL     1      33.159 -13.686 -25.486  0.00  0.00    +0.252 C 
ENDBRANCH   2   7
BRANCH   4   9
ATOM      9  O   UNL     1      30.841 -10.761 -20.417  0.00  0.00    -0.471 OA
ATOM     10  C   UNL     1      31.358 -10.825 -19.091  0.00  0.00    +0.252 C 
ENDBRANCH   4   9
BRANCH   5  11
ATOM     11  S   UNL     1      31.718  -8.853 -22.641  0.00  0.00    -0.111 S 
BRANCH  11  12
ATOM     12  C   UNL     1      32.982  -8.133 -21.556  0.00  0.00    +0.062 C 
ATOM     13  C   UNL     1      32.335  -7.435 -20.375  0.00  0.00    +0.013 C 
ENDBRANCH  11  12
ENDBRANCH   5  11
BRANCH   1  14
ATOM     14  C   UNL     1      32.930 -14.782 -22.177  0.00  0.00    +0.008 C 
BRANCH  14  15
ATOM     15  C   UNL     1      34.416 -15.093 -21.925  0.00  0.00    -0.061 C 
ATOM     16  C   UNL     1      34.631 -15.950 -20.677  0.00  0.00    -0.024 C 
BRANCH  15  17
ATOM     17  N   UNL     1      34.970 -15.809 -23.077  0.00  0.00    +0.382 N 
ATOM     18  H   UNL     1      34.351 -16.582 -23.325  0.00  0.00    -0.089 HD
ATOM     19  H   UNL     1      35.893 -16.174 -22.841  0.00  0.00    -0.089 HD
ATOM     20  H   UNL     1      35.049 -15.170 -23.868  0.00  0.00    -0.089 HD
ENDBRANCH  15  17
ENDBRANCH  14  15
ENDBRANCH   1  14
TORSDOF 7
ENDMDL
MODEL 6
REMARK VINA RESULT:      -6.5      4.642      7.876
REMARK  Name = 10264356
REMARK  7 active torsions:
REMARK  status: ('A' for Active; 'I' for Inactive)
REMARK    1  A    between atoms: C_1  and  C_14
REMARK    2  A    between atoms: C_2  and  O_7
REMARK    3  A    between atoms: C_4  and  O_9
REMARK    4  A    between atoms: C_5  and  S_11
REMARK    5  A    between atoms: S_11  and  C_12
REMARK    6  A    between atoms: C_14  and  C_15
REMARK    7  A    between atoms: C_15  and  N_17
REMARK                            x       y       z     vdW  Elec       q    Type
REMARK                         _______ _______ _______ _____ _____    ______ ____
ROOT
ATOM      1  C   UNL     1      32.665 -11.018 -23.076  0.00  0.00    +0.013 C 
ATOM      2  C   UNL     1      31.962 -11.282 -21.911  0.00  0.00    +0.135 C 
ATOM      3  C   UNL     1      33.366 -12.016 -23.736  0.00  0.00    +0.036 C 
ATOM      4  C   UNL     1      33.362 -13.311 -23.218  0.00  0.00    +0.144 C 
ATOM      5  C   UNL     1      32.660 -13.592 -22.046  0.00  0.00    +0.062 C 
ATOM      6  C   UNL     1      31.959 -12.578 -21.393  0.00  0.00    +0.046 C 
ENDROOT
BRANCH   2   7
ATOM      7  O   UNL     1      31.274 -10.303 -21.260  0.00  0.00    -0.472 OA
ATOM      8  C   UNL     1      31.276 -10.349 -19.835  0.00  0.00    +0.252 C 
ENDBRANCH   2   7
BRANCH   4   9
ATOM      9  O   UNL     1      34.058 -14.278 -23.882  0.00  0.00    -0.471 OA
ATOM     10  C   UNL     1      33.406 -14.904 -24.983  0.00  0.00    +0.252 C 
ENDBRANCH   4   9
BRANCH   5  11
ATOM     11  S   UNL     1      32.632 -15.238 -21.352  0.00  0.00    -0.111 S 
BRANCH  11  12
ATOM     12  C   UNL     1      34.286 -15.351 -20.615  0.00  0.00    +0.062 C 
ATOM     13  C   UNL     1      34.932 -16.681 -20.956  0.00  0.00    +0.013 C 
ENDBRANCH  11  12
ENDBRANCH   5  11
BRANCH   1  14
ATOM     14  C   UNL     1      32.679  -9.622 -23.652  0.00  0.00    +0.008 C 
BRANCH  14  15
ATOM     15  C   UNL     1      33.652  -8.668 -22.937  0.00  0.00    -0.061 C 
ATOM     16  C   UNL     1      34.466  -7.821 -23.916  0.00  0.00    -0.024 C 
BRANCH  15  17
ATOM     17  N   UNL     1      32.900  -7.766 -22.061  0.00  0.00    +0.382 N 
ATOM     18  H   UNL     1      32.164  -8.289 -21.585  0.00  0.00    -0.089 HD
ATOM     19  H   UNL     1      32.482  -7.020 -22.618  0.00  0.00    -0.089 HD
ATOM     20  H   UNL     1      33.530  -7.361 -21.369  0.00  0.00    -0.089 HD
ENDBRANCH  15  17
ENDBRANCH  14  15
ENDBRANCH   1  14
TORSDOF 7
ENDMDL
MODEL 7
REMARK VINA RESULT:      -6.4      8.714     11.851
REMARK  Name = 10264356
REMARK  7 active torsions:
REMARK  status: ('A' for Active; 'I' for Inactive)
REMARK    1  A    between atoms: C_1  and  C_14
REMARK    2  A    between atoms: C_2  and  O_7
REMARK    3  A    between atoms: C_4  and  O_9
REMARK    4  A    between atoms: C_5  and  S_11
REMARK    5  A    between atoms: S_11  and  C_12
REMARK    6  A    between atoms: C_14  and  C_15
REMARK    7  A    between atoms: C_15  and  N_17
REMARK                            x       y       z     vdW  Elec       q    Type
REMARK                         _______ _______ _______ _____ _____    ______ ____
ROOT
ATOM      1  C   UNL     1      36.682 -24.289 -14.119  0.00  0.00    +0.013 C 
ATOM      2  C   UNL     1      35.616 -24.570 -13.277  0.00  0.00    +0.135 C 
ATOM      3  C   UNL     1      36.481 -23.718 -15.367  0.00  0.00    +0.036 C 
ATOM      4  C   UNL     1      35.184 -23.420 -15.782  0.00  0.00    +0.144 C 
ATOM      5  C   UNL     1      34.102 -23.697 -14.946  0.00  0.00    +0.062 C 
ATOM      6  C   UNL     1      34.319 -24.271 -13.694  0.00  0.00    +0.046 C 
ENDROOT
BRANCH   2   7
ATOM      7  O   UNL     1      35.810 -25.133 -12.052  0.00  0.00    -0.472 OA
ATOM      8  C   UNL     1      35.780 -24.259 -10.925  0.00  0.00    +0.252 C 
ENDBRANCH   2   7
BRANCH   4   9
ATOM      9  O   UNL     1      35.009 -22.859 -17.013  0.00  0.00    -0.471 OA
ATOM     10  C   UNL     1      36.095 -22.101 -17.539  0.00  0.00    +0.252 C 
ENDBRANCH   4   9
BRANCH   5  11
ATOM     11  S   UNL     1      32.426 -23.329 -15.443  0.00  0.00    -0.111 S 
BRANCH  11  12
ATOM     12  C   UNL     1      31.496 -23.783 -13.953  0.00  0.00    +0.062 C 
ATOM     13  C   UNL     1      30.743 -25.082 -14.170  0.00  0.00    +0.013 C 
ENDBRANCH  11  12
ENDBRANCH   5  11
BRANCH   1  14
ATOM     14  C   UNL     1      38.093 -24.605 -13.686  0.00  0.00    +0.008 C 
BRANCH  14  15
ATOM     15  C   UNL     1      38.788 -25.660 -14.565  0.00  0.00    -0.061 C 
ATOM     16  C   UNL     1      40.278 -25.797 -14.247  0.00  0.00    -0.024 C 
BRANCH  15  17
ATOM     17  N   UNL     1      38.151 -26.964 -14.361  0.00  0.00    +0.382 N 
ATOM     18  H   UNL     1      37.154 -26.891 -14.564  0.00  0.00    -0.089 HD
ATOM     19  H   UNL     1      38.281 -27.260 -13.393  0.00  0.00    -0.089 HD
ATOM     20  H   UNL     1      38.575 -27.650 -14.986  0.00  0.00    -0.089 HD
ENDBRANCH  15  17
ENDBRANCH  14  15
ENDBRANCH   1  14
TORSDOF 7
ENDMDL
MODEL 8
REMARK VINA RESULT:      -6.4      3.039      5.845
REMARK  Name = 10264356
REMARK  7 active torsions:
REMARK  status: ('A' for Active; 'I' for Inactive)
REMARK    1  A    between atoms: C_1  and  C_14
REMARK    2  A    between atoms: C_2  and  O_7
REMARK    3  A    between atoms: C_4  and  O_9
REMARK    4  A    between atoms: C_5  and  S_11
REMARK    5  A    between atoms: S_11  and  C_12
REMARK    6  A    between atoms: C_14  and  C_15
REMARK    7  A    between atoms: C_15  and  N_17
REMARK                            x       y       z     vdW  Elec       q    Type
REMARK                         _______ _______ _______ _____ _____    ______ ____
ROOT
ATOM      1  C   UNL     1      33.391 -13.574 -23.207  0.00  0.00    +0.013 C 
ATOM      2  C   UNL     1      34.079 -14.520 -22.463  0.00  0.00    +0.135 C 
ATOM      3  C   UNL     1      33.058 -13.805 -24.532  0.00  0.00    +0.036 C 
ATOM      4  C   UNL     1      33.421 -15.012 -25.129  0.00  0.00    +0.144 C 
ATOM      5  C   UNL     1      34.114 -15.973 -24.394  0.00  0.00    +0.062 C 
ATOM      6  C   UNL     1      34.443 -15.728 -23.061  0.00  0.00    +0.046 C 
ENDROOT
BRANCH   2   7
ATOM      7  O   UNL     1      34.410 -14.296 -21.161  0.00  0.00    -0.472 OA
ATOM      8  C   UNL     1      34.511 -15.437 -20.311  0.00  0.00    +0.252 C 
ENDBRANCH   2   7
BRANCH   4   9
ATOM      9  O   UNL     1      33.084 -15.218 -26.434  0.00  0.00    -0.471 OA
ATOM     10  C   UNL     1      33.097 -14.081 -27.294  0.00  0.00    +0.252 C 
ENDBRANCH   4   9
BRANCH   5  11
ATOM     11  S   UNL     1      34.596 -17.531 -25.123  0.00  0.00    -0.111 S 
BRANCH  11  12
ATOM     12  C   UNL     1      35.500 -18.310 -23.756  0.00  0.00    +0.062 C 
ATOM     13  C   UNL     1      34.630 -19.338 -23.059  0.00  0.00    +0.013 C 
ENDBRANCH  11  12
ENDBRANCH   5  11
BRANCH   1  14
ATOM     14  C   UNL     1      32.989 -12.262 -22.577  0.00  0.00    +0.008 C 
BRANCH  14  15
ATOM     15  C   UNL     1      31.683 -12.339 -21.767  0.00  0.00    -0.061 C 
ATOM     16  C   UNL     1      31.907 -12.110 -20.272  0.00  0.00    -0.024 C 
BRANCH  15  17
ATOM     17  N   UNL     1      30.744 -11.325 -22.253  0.00  0.00    +0.382 N 
ATOM     18  H   UNL     1      30.592 -11.453 -23.254  0.00  0.00    -0.089 HD
ATOM     19  H   UNL     1      31.128 -10.395 -22.084  0.00  0.00    -0.089 HD
ATOM     20  H   UNL     1      29.856 -11.420 -21.760  0.00  0.00    -0.089 HD
ENDBRANCH  15  17
ENDBRANCH  14  15
ENDBRANCH   1  14
TORSDOF 7
ENDMDL
MODEL 9
REMARK VINA RESULT:      -6.4      7.900     10.661
REMARK  Name = 10264356
REMARK  7 active torsions:
REMARK  status: ('A' for Active; 'I' for Inactive)
REMARK    1  A    between atoms: C_1  and  C_14
REMARK    2  A    between atoms: C_2  and  O_7
REMARK    3  A    between atoms: C_4  and  O_9
REMARK    4  A    between atoms: C_5  and  S_11
REMARK    5  A    between atoms: S_11  and  C_12
REMARK    6  A    between atoms: C_14  and  C_15
REMARK    7  A    between atoms: C_15  and  N_17
REMARK                            x       y       z     vdW  Elec       q    Type
REMARK                         _______ _______ _______ _____ _____    ______ ____
ROOT
ATOM      1  C   UNL     1      31.373 -22.912 -15.991  0.00  0.00    +0.013 C 
ATOM      2  C   UNL     1      31.842 -23.273 -14.737  0.00  0.00    +0.135 C 
ATOM      3  C   UNL     1      32.203 -22.929 -17.101  0.00  0.00    +0.036 C 
ATOM      4  C   UNL     1      33.534 -23.318 -16.954  0.00  0.00    +0.144 C 
ATOM      5  C   UNL     1      34.020 -23.684 -15.699  0.00  0.00    +0.062 C 
ATOM      6  C   UNL     1      33.174 -23.661 -14.591  0.00  0.00    +0.046 C 
ENDROOT
BRANCH   2   7
ATOM      7  O   UNL     1      31.030 -23.254 -13.644  0.00  0.00    -0.472 OA
ATOM      8  C   UNL     1      30.708 -24.512 -13.054  0.00  0.00    +0.252 C 
ENDBRANCH   2   7
BRANCH   4   9
ATOM      9  O   UNL     1      34.334 -23.328 -18.059  0.00  0.00    -0.471 OA
ATOM     10  C   UNL     1      34.178 -22.252 -18.981  0.00  0.00    +0.252 C 
ENDBRANCH   4   9
BRANCH   5  11
ATOM     11  S   UNL     1      35.719 -24.187 -15.472  0.00  0.00    -0.111 S 
BRANCH  11  12
ATOM     12  C   UNL     1      36.550 -22.587 -15.268  0.00  0.00    +0.062 C 
ATOM     13  C   UNL     1      37.252 -22.185 -16.551  0.00  0.00    +0.013 C 
ENDBRANCH  11  12
ENDBRANCH   5  11
BRANCH   1  14
ATOM     14  C   UNL     1      29.935 -22.489 -16.169  0.00  0.00    +0.008 C 
BRANCH  14  15
ATOM     15  C   UNL     1      29.052 -23.562 -16.831  0.00  0.00    -0.061 C 
ATOM     16  C   UNL     1      28.502 -24.570 -15.821  0.00  0.00    -0.024 C 
BRANCH  15  17
ATOM     17  N   UNL     1      27.921 -22.920 -17.505  0.00  0.00    +0.382 N 
ATOM     18  H   UNL     1      27.452 -22.289 -16.855  0.00  0.00    -0.089 HD
ATOM     19  H   UNL     1      27.263 -23.633 -17.822  0.00  0.00    -0.089 HD
ATOM     20  H   UNL     1      28.260 -22.390 -18.308  0.00  0.00    -0.089 HD
ENDBRANCH  15  17
ENDBRANCH  14  15
ENDBRANCH   1  14
TORSDOF 7
ENDMDL
