MODEL 1
REMARK VINA RESULT:      -5.3      0.000      0.000
REMARK  Name = 69362
REMARK  4 active torsions:
REMARK  status: ('A' for Active; 'I' for Inactive)
REMARK    1  A    between atoms: C_1  and  O_4
REMARK    2  A    between atoms: C_1  and  C_6
REMARK    3  A    between atoms: C_6  and  C_8
REMARK    4  A    between atoms: C_8  and  O_9
REMARK                            x       y       z     vdW  Elec       q    Type
REMARK                         _______ _______ _______ _____ _____    ______ ____
ROOT
ATOM      1  C   UNL     1      37.920 -25.984 -14.098  0.00  0.00    +0.099 C 
ATOM      2  C   UNL     1      36.833 -25.292 -14.926  0.00  0.00    +0.030 C 
ATOM      3  C   UNL     1      37.452 -26.146 -12.650  0.00  0.00    +0.030 C 
ENDROOT
BRANCH   1   4
ATOM      4  O   UNL     1      38.131 -27.281 -14.660  0.00  0.00    -0.386 OA
ATOM      5  H   UNL     1      38.948 -27.660 -14.298  0.00  0.00    +0.210 HD
ENDBRANCH   1   4
BRANCH   1   6
ATOM      6  C   UNL     1      39.229 -25.187 -14.204  0.00  0.00    +0.136 C 
BRANCH   6   8
ATOM      7  O   UNL     1      41.175 -26.618 -14.093  0.00  0.00    -0.250 OA
ATOM      8  C   UNL     1      40.382 -25.980 -14.774  0.00  0.00    +0.316 C 
BRANCH   8   9
ATOM      9  O   UNL     1      40.447 -25.914 -16.127  0.00  0.00    -0.480 OA
ATOM     10  H   UNL     1      41.136 -26.354 -16.584  0.00  0.00    +0.295 HD
ENDBRANCH   8   9
ENDBRANCH   6   8
ENDBRANCH   1   6
TORSDOF 4
ENDMDL
MODEL 2
REMARK VINA RESULT:      -5.0      1.625      2.011
REMARK  Name = 69362
REMARK  4 active torsions:
REMARK  status: ('A' for Active; 'I' for Inactive)
REMARK    1  A    between atoms: C_1  and  O_4
REMARK    2  A    between atoms: C_1  and  C_6
REMARK    3  A    between atoms: C_6  and  C_8
REMARK    4  A    between atoms: C_8  and  O_9
REMARK                            x       y       z     vdW  Elec       q    Type
REMARK                         _______ _______ _______ _____ _____    ______ ____
ROOT
ATOM      1  C   UNL     1      37.811 -24.685 -14.530  0.00  0.00    +0.099 C 
ATOM      2  C   UNL     1      37.530 -23.910 -13.239  0.00  0.00    +0.030 C 
ATOM      3  C   UNL     1      36.516 -25.304 -15.061  0.00  0.00    +0.030 C 
ENDROOT
BRANCH   1   4
ATOM      4  O   UNL     1      38.303 -23.753 -15.495  0.00  0.00    -0.386 OA
ATOM      5  H   UNL     1      39.204 -23.484 -15.253  0.00  0.00    +0.210 HD
ENDBRANCH   1   4
BRANCH   1   6
ATOM      6  C   UNL     1      38.898 -25.738 -14.269  0.00  0.00    +0.136 C 
BRANCH   6   8
ATOM      7  O   UNL     1      41.066 -24.668 -14.315  0.00  0.00    -0.250 OA
ATOM      8  C   UNL     1      40.242 -25.388 -14.865  0.00  0.00    +0.316 C 
BRANCH   8   9
ATOM      9  O   UNL     1      40.444 -25.961 -16.077  0.00  0.00    -0.480 OA
ATOM     10  H   UNL     1      39.770 -26.482 -16.466  0.00  0.00    +0.295 HD
ENDBRANCH   8   9
ENDBRANCH   6   8
ENDBRANCH   1   6
TORSDOF 4
ENDMDL
MODEL 3
REMARK VINA RESULT:      -4.7     11.248     12.190
REMARK  Name = 69362
REMARK  4 active torsions:
REMARK  status: ('A' for Active; 'I' for Inactive)
REMARK    1  A    between atoms: C_1  and  O_4
REMARK    2  A    between atoms: C_1  and  C_6
REMARK    3  A    between atoms: C_6  and  C_8
REMARK    4  A    between atoms: C_8  and  O_9
REMARK                            x       y       z     vdW  Elec       q    Type
REMARK                         _______ _______ _______ _____ _____    ______ ____
ROOT
ATOM      1  C   UNL     1      42.091 -13.891 -17.039  0.00  0.00    +0.099 C 
ATOM      2  C   UNL     1      42.264 -12.371 -17.112  0.00  0.00    +0.030 C 
ATOM      3  C   UNL     1      41.220 -14.375 -18.201  0.00  0.00    +0.030 C 
ENDROOT
BRANCH   1   4
ATOM      4  O   UNL     1      43.387 -14.480 -17.161  0.00  0.00    -0.386 OA
ATOM      5  H   UNL     1      43.489 -14.856 -18.050  0.00  0.00    +0.210 HD
ENDBRANCH   1   4
BRANCH   1   6
ATOM      6  C   UNL     1      41.507 -14.275 -15.671  0.00  0.00    +0.136 C 
BRANCH   6   8
ATOM      7  O   UNL     1      42.195 -16.592 -15.622  0.00  0.00    -0.250 OA
ATOM      8  C   UNL     1      41.305 -15.761 -15.489  0.00  0.00    +0.316 C 
BRANCH   8   9
ATOM      9  O   UNL     1      40.030 -16.082 -15.158  0.00  0.00    -0.480 OA
ATOM     10  H   UNL     1      39.350 -16.018 -15.800  0.00  0.00    +0.295 HD
ENDBRANCH   8   9
ENDBRANCH   6   8
ENDBRANCH   1   6
TORSDOF 4
ENDMDL
MODEL 4
REMARK VINA RESULT:      -4.7      9.287     10.993
REMARK  Name = 69362
REMARK  4 active torsions:
REMARK  status: ('A' for Active; 'I' for Inactive)
REMARK    1  A    between atoms: C_1  and  O_4
REMARK    2  A    between atoms: C_1  and  C_6
REMARK    3  A    between atoms: C_6  and  C_8
REMARK    4  A    between atoms: C_8  and  O_9
REMARK                            x       y       z     vdW  Elec       q    Type
REMARK                         _______ _______ _______ _____ _____    ______ ____
ROOT
ATOM      1  C   UNL     1      29.921 -23.275 -15.763  0.00  0.00    +0.099 C 
ATOM      2  C   UNL     1      30.154 -24.788 -15.825  0.00  0.00    +0.030 C 
ATOM      3  C   UNL     1      30.743 -22.666 -14.625  0.00  0.00    +0.030 C 
ENDROOT
BRANCH   1   4
ATOM      4  O   UNL     1      30.368 -22.717 -17.001  0.00  0.00    -0.386 OA
ATOM      5  H   UNL     1      31.274 -23.014 -17.180  0.00  0.00    +0.210 HD
ENDBRANCH   1   4
BRANCH   1   6
ATOM      6  C   UNL     1      28.418 -22.994 -15.614  0.00  0.00    +0.136 C 
BRANCH   6   8
ATOM      7  O   UNL     1      27.394 -21.461 -17.179  0.00  0.00    -0.250 OA
ATOM      8  C   UNL     1      27.740 -22.604 -16.907  0.00  0.00    +0.316 C 
BRANCH   8   9
ATOM      9  O   UNL     1      27.554 -23.657 -17.741  0.00  0.00    -0.480 OA
ATOM     10  H   UNL     1      26.866 -23.635 -18.376  0.00  0.00    +0.295 HD
ENDBRANCH   8   9
ENDBRANCH   6   8
ENDBRANCH   1   6
TORSDOF 4
ENDMDL
MODEL 5
REMARK VINA RESULT:      -4.7      2.141      3.045
REMARK  Name = 69362
REMARK  4 active torsions:
REMARK  status: ('A' for Active; 'I' for Inactive)
REMARK    1  A    between atoms: C_1  and  O_4
REMARK    2  A    between atoms: C_1  and  C_6
REMARK    3  A    between atoms: C_6  and  C_8
REMARK    4  A    between atoms: C_8  and  O_9
REMARK                            x       y       z     vdW  Elec       q    Type
REMARK                         _______ _______ _______ _____ _____    ______ ____
ROOT
ATOM      1  C   UNL     1      36.813 -25.135 -12.582  0.00  0.00    +0.099 C 
ATOM      2  C   UNL     1      35.460 -24.526 -12.200  0.00  0.00    +0.030 C 
ATOM      3  C   UNL     1      37.946 -24.347 -11.922  0.00  0.00    +0.030 C 
ENDROOT
BRANCH   1   4
ATOM      4  O   UNL     1      36.838 -26.476 -12.088  0.00  0.00    -0.386 OA
ATOM      5  H   UNL     1      37.108 -26.471 -11.156  0.00  0.00    +0.210 HD
ENDBRANCH   1   4
BRANCH   1   6
ATOM      6  C   UNL     1      36.942 -25.175 -14.112  0.00  0.00    +0.136 C 
BRANCH   6   8
ATOM      7  O   UNL     1      38.261 -27.112 -14.708  0.00  0.00    -0.250 OA
ATOM      8  C   UNL     1      37.168 -26.562 -14.669  0.00  0.00    +0.316 C 
BRANCH   8   9
ATOM      9  O   UNL     1      36.027 -27.138 -15.121  0.00  0.00    -0.480 OA
ATOM     10  H   UNL     1      36.007 -27.530 -15.972  0.00  0.00    +0.295 HD
ENDBRANCH   8   9
ENDBRANCH   6   8
ENDBRANCH   1   6
TORSDOF 4
ENDMDL
MODEL 6
REMARK VINA RESULT:      -4.6      2.006      3.341
REMARK  Name = 69362
REMARK  4 active torsions:
REMARK  status: ('A' for Active; 'I' for Inactive)
REMARK    1  A    between atoms: C_1  and  O_4
REMARK    2  A    between atoms: C_1  and  C_6
REMARK    3  A    between atoms: C_6  and  C_8
REMARK    4  A    between atoms: C_8  and  O_9
REMARK                            x       y       z     vdW  Elec       q    Type
REMARK                         _______ _______ _______ _____ _____    ______ ____
ROOT
ATOM      1  C   UNL     1      38.610 -25.398 -14.219  0.00  0.00    +0.099 C 
ATOM      2  C   UNL     1      40.096 -25.764 -14.280  0.00  0.00    +0.030 C 
ATOM      3  C   UNL     1      38.304 -24.670 -12.908  0.00  0.00    +0.030 C 
ENDROOT
BRANCH   1   4
ATOM      4  O   UNL     1      38.336 -24.516 -15.309  0.00  0.00    -0.386 OA
ATOM      5  H   UNL     1      37.410 -24.617 -15.581  0.00  0.00    +0.210 HD
ENDBRANCH   1   4
BRANCH   1   6
ATOM      6  C   UNL     1      37.763 -26.668 -14.393  0.00  0.00    +0.136 C 
BRANCH   6   8
ATOM      7  O   UNL     1      35.775 -25.717 -15.388  0.00  0.00    -0.250 OA
ATOM      8  C   UNL     1      36.680 -26.540 -15.439  0.00  0.00    +0.316 C 
BRANCH   8   9
ATOM      9  O   UNL     1      36.817 -27.436 -16.448  0.00  0.00    -0.480 OA
ATOM     10  H   UNL     1      36.060 -27.852 -16.810  0.00  0.00    +0.295 HD
ENDBRANCH   8   9
ENDBRANCH   6   8
ENDBRANCH   1   6
TORSDOF 4
ENDMDL
MODEL 7
REMARK VINA RESULT:      -4.6      3.220      4.632
REMARK  Name = 69362
REMARK  4 active torsions:
REMARK  status: ('A' for Active; 'I' for Inactive)
REMARK    1  A    between atoms: C_1  and  O_4
REMARK    2  A    between atoms: C_1  and  C_6
REMARK    3  A    between atoms: C_6  and  C_8
REMARK    4  A    between atoms: C_8  and  O_9
REMARK                            x       y       z     vdW  Elec       q    Type
REMARK                         _______ _______ _______ _____ _____    ______ ____
ROOT
ATOM      1  C   UNL     1      37.272 -25.403 -13.100  0.00  0.00    +0.099 C 
ATOM      2  C   UNL     1      38.794 -25.496 -13.244  0.00  0.00    +0.030 C 
ATOM      3  C   UNL     1      36.626 -25.239 -14.478  0.00  0.00    +0.030 C 
ENDROOT
BRANCH   1   4
ATOM      4  O   UNL     1      36.816 -26.627 -12.522  0.00  0.00    -0.386 OA
ATOM      5  H   UNL     1      36.299 -27.121 -13.178  0.00  0.00    +0.210 HD
ENDBRANCH   1   4
BRANCH   1   6
ATOM      6  C   UNL     1      36.918 -24.250 -12.148  0.00  0.00    +0.136 C 
BRANCH   6   8
ATOM      7  O   UNL     1      35.342 -25.140 -10.544  0.00  0.00    -0.250 OA
ATOM      8  C   UNL     1      35.565 -24.396 -11.491  0.00  0.00    +0.316 C 
BRANCH   8   9
ATOM      9  O   UNL     1      34.617 -23.611 -12.060  0.00  0.00    -0.480 OA
ATOM     10  H   UNL     1      34.769 -23.231 -12.903  0.00  0.00    +0.295 HD
ENDBRANCH   8   9
ENDBRANCH   6   8
ENDBRANCH   1   6
TORSDOF 4
ENDMDL
MODEL 8
REMARK VINA RESULT:      -4.5     10.768     11.742
REMARK  Name = 69362
REMARK  4 active torsions:
REMARK  status: ('A' for Active; 'I' for Inactive)
REMARK    1  A    between atoms: C_1  and  O_4
REMARK    2  A    between atoms: C_1  and  C_6
REMARK    3  A    between atoms: C_6  and  C_8
REMARK    4  A    between atoms: C_8  and  O_9
REMARK                            x       y       z     vdW  Elec       q    Type
REMARK                         _______ _______ _______ _____ _____    ______ ____
ROOT
ATOM      1  C   UNL     1      42.584 -15.319 -17.208  0.00  0.00    +0.099 C 
ATOM      2  C   UNL     1      43.569 -14.183 -17.502  0.00  0.00    +0.030 C 
ATOM      3  C   UNL     1      42.453 -16.227 -18.433  0.00  0.00    +0.030 C 
ENDROOT
BRANCH   1   4
ATOM      4  O   UNL     1      43.116 -16.083 -16.125  0.00  0.00    -0.386 OA
ATOM      5  H   UNL     1      43.571 -15.491 -15.505  0.00  0.00    +0.210 HD
ENDBRANCH   1   4
BRANCH   1   6
ATOM      6  C   UNL     1      41.235 -14.726 -16.772  0.00  0.00    +0.136 C 
BRANCH   6   8
ATOM      7  O   UNL     1      40.957 -14.577 -14.375  0.00  0.00    -0.250 OA
ATOM      8  C   UNL     1      40.772 -15.199 -15.413  0.00  0.00    +0.316 C 
BRANCH   8   9
ATOM      9  O   UNL     1      40.125 -16.389 -15.464  0.00  0.00    -0.480 OA
ATOM     10  H   UNL     1      39.702 -16.725 -14.699  0.00  0.00    +0.295 HD
ENDBRANCH   8   9
ENDBRANCH   6   8
ENDBRANCH   1   6
TORSDOF 4
ENDMDL
MODEL 9
REMARK VINA RESULT:      -4.4     10.236     11.449
REMARK  Name = 69362
REMARK  4 active torsions:
REMARK  status: ('A' for Active; 'I' for Inactive)
REMARK    1  A    between atoms: C_1  and  O_4
REMARK    2  A    between atoms: C_1  and  C_6
REMARK    3  A    between atoms: C_6  and  C_8
REMARK    4  A    between atoms: C_8  and  O_9
REMARK                            x       y       z     vdW  Elec       q    Type
REMARK                         _______ _______ _______ _____ _____    ______ ____
ROOT
ATOM      1  C   UNL     1      34.524 -19.433 -21.167  0.00  0.00    +0.099 C 
ATOM      2  C   UNL     1      35.523 -20.402 -20.527  0.00  0.00    +0.030 C 
ATOM      3  C   UNL     1      33.099 -19.792 -20.737  0.00  0.00    +0.030 C 
ENDROOT
BRANCH   1   4
ATOM      4  O   UNL     1      34.829 -18.120 -20.691  0.00  0.00    -0.386 OA
ATOM      5  H   UNL     1      34.171 -17.493 -21.030  0.00  0.00    +0.210 HD
ENDBRANCH   1   4
BRANCH   1   6
ATOM      6  C   UNL     1      34.697 -19.452 -22.693  0.00  0.00    +0.136 C 
BRANCH   6   8
ATOM      7  O   UNL     1      34.659 -17.334 -23.859  0.00  0.00    -0.250 OA
ATOM      8  C   UNL     1      35.299 -18.185 -23.255  0.00  0.00    +0.316 C 
BRANCH   8   9
ATOM      9  O   UNL     1      36.630 -18.086 -23.016  0.00  0.00    -0.480 OA
ATOM     10  H   UNL     1      37.044 -18.680 -22.422  0.00  0.00    +0.295 HD
ENDBRANCH   8   9
ENDBRANCH   6   8
ENDBRANCH   1   6
TORSDOF 4
ENDMDL
