MODEL 1
REMARK VINA RESULT:      -6.6      0.000      0.000
REMARK  Name = 15433
REMARK  10 active torsions:
REMARK  status: ('A' for Active; 'I' for Inactive)
REMARK    1  A    between atoms: C_1  and  C_2
REMARK    2  A    between atoms: C_1  and  C_9
REMARK    3  A    between atoms: C_3  and  C_4
REMARK    4  A    between atoms: C_4  and  N_6
REMARK    5  A    between atoms: C_9  and  C_10
REMARK    6  A    between atoms: C_10  and  C_11
REMARK    7  A    between atoms: C_11  and  C_12
REMARK    8  A    between atoms: C_12  and  C_13
REMARK    9  A    between atoms: C_13  and  C_14
REMARK   10  A    between atoms: C_14  and  C_15
REMARK                            x       y       z     vdW  Elec       q    Type
REMARK                         _______ _______ _______ _____ _____    ______ ____
ROOT
ATOM      1  C   UNL     1      33.607 -22.327 -18.730  0.00  0.00    +0.026 C 
ENDROOT
BRANCH   1   2
ATOM      2  C   UNL     1      33.481 -23.118 -17.425  0.00  0.00    -0.033 C 
ATOM      3  C   UNL     1      34.736 -23.167 -16.546  0.00  0.00    -0.048 C 
BRANCH   3   4
ATOM      4  C   UNL     1      34.580 -23.917 -15.232  0.00  0.00    -0.001 C 
BRANCH   4   6
ATOM      5  O   UNL     1      35.970 -25.789 -15.464  0.00  0.00    -0.289 OA
ATOM      6  N   UNL     1      35.841 -24.577 -14.822  0.00  0.00    +0.430 N 
ATOM      7  C   UNL     1      35.847 -24.821 -13.333  0.00  0.00    -0.045 C 
ATOM      8  C   UNL     1      37.027 -23.716 -15.182  0.00  0.00    -0.045 C 
ENDBRANCH   4   6
ENDBRANCH   3   4
ENDBRANCH   1   2
BRANCH   1   9
ATOM      9  C   UNL     1      35.052 -21.981 -19.097  0.00  0.00    +0.005 C 
BRANCH   9  10
ATOM     10  C   UNL     1      35.105 -20.852 -20.129  0.00  0.00    +0.000 C 
BRANCH  10  11
ATOM     11  C   UNL     1      33.733 -20.240 -20.431  0.00  0.00    +0.000 C 
BRANCH  11  12
ATOM     12  C   UNL     1      33.809 -18.963 -21.272  0.00  0.00    +0.000 C 
BRANCH  12  13
ATOM     13  C   UNL     1      35.241 -18.427 -21.334  0.00  0.00    +0.000 C 
BRANCH  13  14
ATOM     14  C   UNL     1      35.739 -18.338 -22.779  0.00  0.00    +0.000 C 
BRANCH  14  15
ATOM     15  C   UNL     1      34.774 -19.027 -23.742  0.00  0.00    +0.000 C 
ATOM     16  C   UNL     1      34.465 -18.148 -24.944  0.00  0.00    +0.000 C 
ENDBRANCH  14  15
ENDBRANCH  13  14
ENDBRANCH  12  13
ENDBRANCH  11  12
ENDBRANCH  10  11
ENDBRANCH   9  10
ENDBRANCH   1   9
TORSDOF 10
ENDMDL
MODEL 2
REMARK VINA RESULT:      -6.6      3.058      5.056
REMARK  Name = 15433
REMARK  10 active torsions:
REMARK  status: ('A' for Active; 'I' for Inactive)
REMARK    1  A    between atoms: C_1  and  C_2
REMARK    2  A    between atoms: C_1  and  C_9
REMARK    3  A    between atoms: C_3  and  C_4
REMARK    4  A    between atoms: C_4  and  N_6
REMARK    5  A    between atoms: C_9  and  C_10
REMARK    6  A    between atoms: C_10  and  C_11
REMARK    7  A    between atoms: C_11  and  C_12
REMARK    8  A    between atoms: C_12  and  C_13
REMARK    9  A    between atoms: C_13  and  C_14
REMARK   10  A    between atoms: C_14  and  C_15
REMARK                            x       y       z     vdW  Elec       q    Type
REMARK                         _______ _______ _______ _____ _____    ______ ____
ROOT
ATOM      1  C   UNL     1      34.694 -18.546 -21.945  0.00  0.00    +0.026 C 
ENDROOT
BRANCH   1   2
ATOM      2  C   UNL     1      33.704 -19.418 -21.167  0.00  0.00    -0.033 C 
ATOM      3  C   UNL     1      34.317 -20.545 -20.328  0.00  0.00    -0.048 C 
BRANCH   3   4
ATOM      4  C   UNL     1      33.325 -21.371 -19.524  0.00  0.00    -0.001 C 
BRANCH   4   6
ATOM      5  O   UNL     1      34.077 -23.584 -19.680  0.00  0.00    -0.289 OA
ATOM      6  N   UNL     1      33.984 -22.502 -18.832  0.00  0.00    +0.430 N 
ATOM      7  C   UNL     1      33.187 -22.913 -17.619  0.00  0.00    -0.045 C 
ATOM      8  C   UNL     1      35.375 -22.115 -18.396  0.00  0.00    -0.045 C 
ENDBRANCH   4   6
ENDBRANCH   3   4
ENDBRANCH   1   2
BRANCH   1   9
ATOM      9  C   UNL     1      34.931 -19.025 -23.380  0.00  0.00    +0.005 C 
BRANCH   9  10
ATOM     10  C   UNL     1      34.858 -17.860 -24.370  0.00  0.00    +0.000 C 
BRANCH  10  11
ATOM     11  C   UNL     1      34.939 -16.486 -23.699  0.00  0.00    +0.000 C 
BRANCH  11  12
ATOM     12  C   UNL     1      33.850 -15.516 -24.165  0.00  0.00    +0.000 C 
BRANCH  12  13
ATOM     13  C   UNL     1      33.470 -14.536 -23.053  0.00  0.00    +0.000 C 
BRANCH  13  14
ATOM     14  C   UNL     1      34.138 -14.912 -21.729  0.00  0.00    +0.000 C 
BRANCH  14  15
ATOM     15  C   UNL     1      33.179 -14.734 -20.553  0.00  0.00    +0.000 C 
ATOM     16  C   UNL     1      32.364 -13.457 -20.689  0.00  0.00    +0.000 C 
ENDBRANCH  14  15
ENDBRANCH  13  14
ENDBRANCH  12  13
ENDBRANCH  11  12
ENDBRANCH  10  11
ENDBRANCH   9  10
ENDBRANCH   1   9
TORSDOF 10
ENDMDL
MODEL 3
REMARK VINA RESULT:      -6.6      1.659      1.982
REMARK  Name = 15433
REMARK  10 active torsions:
REMARK  status: ('A' for Active; 'I' for Inactive)
REMARK    1  A    between atoms: C_1  and  C_2
REMARK    2  A    between atoms: C_1  and  C_9
REMARK    3  A    between atoms: C_3  and  C_4
REMARK    4  A    between atoms: C_4  and  N_6
REMARK    5  A    between atoms: C_9  and  C_10
REMARK    6  A    between atoms: C_10  and  C_11
REMARK    7  A    between atoms: C_11  and  C_12
REMARK    8  A    between atoms: C_12  and  C_13
REMARK    9  A    between atoms: C_13  and  C_14
REMARK   10  A    between atoms: C_14  and  C_15
REMARK                            x       y       z     vdW  Elec       q    Type
REMARK                         _______ _______ _______ _____ _____    ______ ____
ROOT
ATOM      1  C   UNL     1      36.674 -21.410 -18.747  0.00  0.00    +0.026 C 
ENDROOT
BRANCH   1   2
ATOM      2  C   UNL     1      36.133 -22.112 -17.498  0.00  0.00    -0.033 C 
ATOM      3  C   UNL     1      37.133 -22.313 -16.355  0.00  0.00    -0.048 C 
BRANCH   3   4
ATOM      4  C   UNL     1      36.568 -22.969 -15.104  0.00  0.00    -0.001 C 
BRANCH   4   6
ATOM      5  O   UNL     1      38.693 -23.954 -15.179  0.00  0.00    -0.289 OA
ATOM      6  N   UNL     1      37.442 -24.060 -14.613  0.00  0.00    +0.430 N 
ATOM      7  C   UNL     1      36.862 -25.403 -14.981  0.00  0.00    -0.045 C 
ATOM      8  C   UNL     1      37.587 -23.984 -13.113  0.00  0.00    -0.045 C 
ENDBRANCH   4   6
ENDBRANCH   3   4
ENDBRANCH   1   2
BRANCH   1   9
ATOM      9  C   UNL     1      35.741 -21.512 -19.956  0.00  0.00    +0.005 C 
BRANCH   9  10
ATOM     10  C   UNL     1      34.278 -21.336 -19.541  0.00  0.00    +0.000 C 
BRANCH  10  11
ATOM     11  C   UNL     1      33.488 -20.411 -20.472  0.00  0.00    +0.000 C 
BRANCH  11  12
ATOM     12  C   UNL     1      34.307 -19.226 -20.990  0.00  0.00    +0.000 C 
BRANCH  12  13
ATOM     13  C   UNL     1      34.458 -19.282 -22.512  0.00  0.00    +0.000 C 
BRANCH  13  14
ATOM     14  C   UNL     1      35.612 -18.397 -22.989  0.00  0.00    +0.000 C 
BRANCH  14  15
ATOM     15  C   UNL     1      35.096 -17.085 -23.580  0.00  0.00    +0.000 C 
ATOM     16  C   UNL     1      34.656 -17.260 -25.024  0.00  0.00    +0.000 C 
ENDBRANCH  14  15
ENDBRANCH  13  14
ENDBRANCH  12  13
ENDBRANCH  11  12
ENDBRANCH  10  11
ENDBRANCH   9  10
ENDBRANCH   1   9
TORSDOF 10
ENDMDL
MODEL 4
REMARK VINA RESULT:      -6.6      5.740      9.618
REMARK  Name = 15433
REMARK  10 active torsions:
REMARK  status: ('A' for Active; 'I' for Inactive)
REMARK    1  A    between atoms: C_1  and  C_2
REMARK    2  A    between atoms: C_1  and  C_9
REMARK    3  A    between atoms: C_3  and  C_4
REMARK    4  A    between atoms: C_4  and  N_6
REMARK    5  A    between atoms: C_9  and  C_10
REMARK    6  A    between atoms: C_10  and  C_11
REMARK    7  A    between atoms: C_11  and  C_12
REMARK    8  A    between atoms: C_12  and  C_13
REMARK    9  A    between atoms: C_13  and  C_14
REMARK   10  A    between atoms: C_14  and  C_15
REMARK                            x       y       z     vdW  Elec       q    Type
REMARK                         _______ _______ _______ _____ _____    ______ ____
ROOT
ATOM      1  C   UNL     1      35.410 -18.061 -22.905  0.00  0.00    +0.026 C 
ENDROOT
BRANCH   1   2
ATOM      2  C   UNL     1      34.876 -16.724 -22.384  0.00  0.00    -0.033 C 
ATOM      3  C   UNL     1      34.883 -15.562 -23.384  0.00  0.00    -0.048 C 
BRANCH   3   4
ATOM      4  C   UNL     1      34.305 -14.254 -22.865  0.00  0.00    -0.001 C 
BRANCH   4   6
ATOM      5  O   UNL     1      32.113 -13.498 -23.202  0.00  0.00    -0.289 OA
ATOM      6  N   UNL     1      33.335 -13.665 -23.816  0.00  0.00    +0.430 N 
ATOM      7  C   UNL     1      33.152 -14.572 -25.008  0.00  0.00    -0.045 C 
ATOM      8  C   UNL     1      33.818 -12.319 -24.296  0.00  0.00    -0.045 C 
ENDBRANCH   4   6
ENDBRANCH   3   4
ENDBRANCH   1   2
BRANCH   1   9
ATOM      9  C   UNL     1      34.534 -19.257 -22.528  0.00  0.00    +0.005 C 
BRANCH   9  10
ATOM     10  C   UNL     1      34.201 -19.248 -21.034  0.00  0.00    +0.000 C 
BRANCH  10  11
ATOM     11  C   UNL     1      32.996 -20.123 -20.673  0.00  0.00    +0.000 C 
BRANCH  11  12
ATOM     12  C   UNL     1      33.323 -21.218 -19.655  0.00  0.00    +0.000 C 
BRANCH  12  13
ATOM     13  C   UNL     1      34.812 -21.573 -19.684  0.00  0.00    +0.000 C 
BRANCH  13  14
ATOM     14  C   UNL     1      35.290 -22.072 -18.319  0.00  0.00    +0.000 C 
BRANCH  14  15
ATOM     15  C   UNL     1      36.698 -21.567 -18.006  0.00  0.00    +0.000 C 
ATOM     16  C   UNL     1      37.173 -22.051 -16.644  0.00  0.00    +0.000 C 
ENDBRANCH  14  15
ENDBRANCH  13  14
ENDBRANCH  12  13
ENDBRANCH  11  12
ENDBRANCH  10  11
ENDBRANCH   9  10
ENDBRANCH   1   9
TORSDOF 10
ENDMDL
MODEL 5
REMARK VINA RESULT:      -6.5      2.912      3.492
REMARK  Name = 15433
REMARK  10 active torsions:
REMARK  status: ('A' for Active; 'I' for Inactive)
REMARK    1  A    between atoms: C_1  and  C_2
REMARK    2  A    between atoms: C_1  and  C_9
REMARK    3  A    between atoms: C_3  and  C_4
REMARK    4  A    between atoms: C_4  and  N_6
REMARK    5  A    between atoms: C_9  and  C_10
REMARK    6  A    between atoms: C_10  and  C_11
REMARK    7  A    between atoms: C_11  and  C_12
REMARK    8  A    between atoms: C_12  and  C_13
REMARK    9  A    between atoms: C_13  and  C_14
REMARK   10  A    between atoms: C_14  and  C_15
REMARK                            x       y       z     vdW  Elec       q    Type
REMARK                         _______ _______ _______ _____ _____    ______ ____
ROOT
ATOM      1  C   UNL     1      34.188 -21.881 -19.399  0.00  0.00    +0.026 C 
ENDROOT
BRANCH   1   2
ATOM      2  C   UNL     1      33.904 -22.707 -18.141  0.00  0.00    -0.033 C 
ATOM      3  C   UNL     1      32.475 -22.628 -17.595  0.00  0.00    -0.048 C 
BRANCH   3   4
ATOM      4  C   UNL     1      32.197 -23.491 -16.373  0.00  0.00    -0.001 C 
BRANCH   4   6
ATOM      5  O   UNL     1      30.053 -22.687 -16.869  0.00  0.00    -0.289 OA
ATOM      6  N   UNL     1      30.785 -23.387 -15.935  0.00  0.00    +0.430 N 
ATOM      7  C   UNL     1      30.696 -22.662 -14.615  0.00  0.00    -0.045 C 
ATOM      8  C   UNL     1      30.179 -24.760 -15.782  0.00  0.00    -0.045 C 
ENDBRANCH   4   6
ENDBRANCH   3   4
ENDBRANCH   1   2
BRANCH   1   9
ATOM      9  C   UNL     1      33.061 -20.910 -19.758  0.00  0.00    +0.005 C 
BRANCH   9  10
ATOM     10  C   UNL     1      33.562 -19.803 -20.689  0.00  0.00    +0.000 C 
BRANCH  10  11
ATOM     11  C   UNL     1      35.045 -19.935 -21.048  0.00  0.00    +0.000 C 
BRANCH  11  12
ATOM     12  C   UNL     1      35.702 -18.602 -21.416  0.00  0.00    +0.000 C 
BRANCH  12  13
ATOM     13  C   UNL     1      35.038 -17.980 -22.647  0.00  0.00    +0.000 C 
BRANCH  13  14
ATOM     14  C   UNL     1      34.946 -18.986 -23.796  0.00  0.00    +0.000 C 
BRANCH  14  15
ATOM     15  C   UNL     1      34.539 -18.303 -25.101  0.00  0.00    +0.000 C 
ATOM     16  C   UNL     1      34.516 -16.789 -24.952  0.00  0.00    +0.000 C 
ENDBRANCH  14  15
ENDBRANCH  13  14
ENDBRANCH  12  13
ENDBRANCH  11  12
ENDBRANCH  10  11
ENDBRANCH   9  10
ENDBRANCH   1   9
TORSDOF 10
ENDMDL
MODEL 6
REMARK VINA RESULT:      -6.4      4.998      8.801
REMARK  Name = 15433
REMARK  10 active torsions:
REMARK  status: ('A' for Active; 'I' for Inactive)
REMARK    1  A    between atoms: C_1  and  C_2
REMARK    2  A    between atoms: C_1  and  C_9
REMARK    3  A    between atoms: C_3  and  C_4
REMARK    4  A    between atoms: C_4  and  N_6
REMARK    5  A    between atoms: C_9  and  C_10
REMARK    6  A    between atoms: C_10  and  C_11
REMARK    7  A    between atoms: C_11  and  C_12
REMARK    8  A    between atoms: C_12  and  C_13
REMARK    9  A    between atoms: C_13  and  C_14
REMARK   10  A    between atoms: C_14  and  C_15
REMARK                            x       y       z     vdW  Elec       q    Type
REMARK                         _______ _______ _______ _____ _____    ______ ____
ROOT
ATOM      1  C   UNL     1      34.602 -17.257 -25.128  0.00  0.00    +0.026 C 
ENDROOT
BRANCH   1   2
ATOM      2  C   UNL     1      34.815 -16.139 -24.104  0.00  0.00    -0.033 C 
ATOM      3  C   UNL     1      33.613 -15.222 -23.851  0.00  0.00    -0.048 C 
BRANCH   3   4
ATOM      4  C   UNL     1      33.826 -14.146 -22.797  0.00  0.00    -0.001 C 
BRANCH   4   6
ATOM      5  O   UNL     1      32.318 -15.539 -21.669  0.00  0.00    -0.289 OA
ATOM      6  N   UNL     1      33.239 -14.530 -21.493  0.00  0.00    +0.430 N 
ATOM      7  C   UNL     1      32.542 -13.350 -20.862  0.00  0.00    -0.045 C 
ATOM      8  C   UNL     1      34.315 -15.021 -20.555  0.00  0.00    -0.045 C 
ENDBRANCH   4   6
ENDBRANCH   3   4
ENDBRANCH   1   2
BRANCH   1   9
ATOM      9  C   UNL     1      34.796 -18.660 -24.548  0.00  0.00    +0.005 C 
BRANCH   9  10
ATOM     10  C   UNL     1      34.358 -18.717 -23.083  0.00  0.00    +0.000 C 
BRANCH  10  11
ATOM     11  C   UNL     1      35.492 -19.090 -22.123  0.00  0.00    +0.000 C 
BRANCH  11  12
ATOM     12  C   UNL     1      35.009 -19.806 -20.859  0.00  0.00    +0.000 C 
BRANCH  12  13
ATOM     13  C   UNL     1      33.487 -19.716 -20.721  0.00  0.00    +0.000 C 
BRANCH  13  14
ATOM     14  C   UNL     1      32.947 -20.817 -19.805  0.00  0.00    +0.000 C 
BRANCH  14  15
ATOM     15  C   UNL     1      34.060 -21.762 -19.357  0.00  0.00    +0.000 C 
ATOM     16  C   UNL     1      33.569 -22.737 -18.298  0.00  0.00    +0.000 C 
ENDBRANCH  14  15
ENDBRANCH  13  14
ENDBRANCH  12  13
ENDBRANCH  11  12
ENDBRANCH  10  11
ENDBRANCH   9  10
ENDBRANCH   1   9
TORSDOF 10
ENDMDL
MODEL 7
REMARK VINA RESULT:      -6.4      1.439      2.166
REMARK  Name = 15433
REMARK  10 active torsions:
REMARK  status: ('A' for Active; 'I' for Inactive)
REMARK    1  A    between atoms: C_1  and  C_2
REMARK    2  A    between atoms: C_1  and  C_9
REMARK    3  A    between atoms: C_3  and  C_4
REMARK    4  A    between atoms: C_4  and  N_6
REMARK    5  A    between atoms: C_9  and  C_10
REMARK    6  A    between atoms: C_10  and  C_11
REMARK    7  A    between atoms: C_11  and  C_12
REMARK    8  A    between atoms: C_12  and  C_13
REMARK    9  A    between atoms: C_13  and  C_14
REMARK   10  A    between atoms: C_14  and  C_15
REMARK                            x       y       z     vdW  Elec       q    Type
REMARK                         _______ _______ _______ _____ _____    ______ ____
ROOT
ATOM      1  C   UNL     1      36.791 -21.676 -17.774  0.00  0.00    +0.026 C 
ENDROOT
BRANCH   1   2
ATOM      2  C   UNL     1      37.255 -21.979 -16.347  0.00  0.00    -0.033 C 
ATOM      3  C   UNL     1      36.825 -23.335 -15.775  0.00  0.00    -0.048 C 
BRANCH   3   4
ATOM      4  C   UNL     1      37.334 -23.640 -14.374  0.00  0.00    -0.001 C 
BRANCH   4   6
ATOM      5  O   UNL     1      36.921 -25.864 -14.984  0.00  0.00    -0.289 OA
ATOM      6  N   UNL     1      37.748 -25.056 -14.235  0.00  0.00    +0.430 N 
ATOM      7  C   UNL     1      37.661 -25.489 -12.793  0.00  0.00    -0.045 C 
ATOM      8  C   UNL     1      39.165 -25.240 -14.718  0.00  0.00    -0.045 C 
ENDBRANCH   4   6
ENDBRANCH   3   4
ENDBRANCH   1   2
BRANCH   1   9
ATOM      9  C   UNL     1      35.365 -22.151 -18.066  0.00  0.00    +0.005 C 
BRANCH   9  10
ATOM     10  C   UNL     1      34.921 -21.735 -19.470  0.00  0.00    +0.000 C 
BRANCH  10  11
ATOM     11  C   UNL     1      33.452 -21.309 -19.543  0.00  0.00    +0.000 C 
BRANCH  11  12
ATOM     12  C   UNL     1      33.194 -20.188 -20.554  0.00  0.00    +0.000 C 
BRANCH  12  13
ATOM     13  C   UNL     1      34.495 -19.730 -21.215  0.00  0.00    +0.000 C 
BRANCH  13  14
ATOM     14  C   UNL     1      34.504 -18.215 -21.433  0.00  0.00    +0.000 C 
BRANCH  14  15
ATOM     15  C   UNL     1      34.900 -17.862 -22.866  0.00  0.00    +0.000 C 
ATOM     16  C   UNL     1      34.880 -19.088 -23.766  0.00  0.00    +0.000 C 
ENDBRANCH  14  15
ENDBRANCH  13  14
ENDBRANCH  12  13
ENDBRANCH  11  12
ENDBRANCH  10  11
ENDBRANCH   9  10
ENDBRANCH   1   9
TORSDOF 10
ENDMDL
MODEL 8
REMARK VINA RESULT:      -6.4      8.142     11.351
REMARK  Name = 15433
REMARK  10 active torsions:
REMARK  status: ('A' for Active; 'I' for Inactive)
REMARK    1  A    between atoms: C_1  and  C_2
REMARK    2  A    between atoms: C_1  and  C_9
REMARK    3  A    between atoms: C_3  and  C_4
REMARK    4  A    between atoms: C_4  and  N_6
REMARK    5  A    between atoms: C_9  and  C_10
REMARK    6  A    between atoms: C_10  and  C_11
REMARK    7  A    between atoms: C_11  and  C_12
REMARK    8  A    between atoms: C_12  and  C_13
REMARK    9  A    between atoms: C_13  and  C_14
REMARK   10  A    between atoms: C_14  and  C_15
REMARK                            x       y       z     vdW  Elec       q    Type
REMARK                         _______ _______ _______ _____ _____    ______ ____
ROOT
ATOM      1  C   UNL     1      32.455 -14.299 -21.637  0.00  0.00    +0.026 C 
ENDROOT
BRANCH   1   2
ATOM      2  C   UNL     1      32.054 -12.896 -21.173  0.00  0.00    -0.033 C 
ATOM      3  C   UNL     1      31.941 -11.832 -22.271  0.00  0.00    -0.048 C 
BRANCH   3   4
ATOM      4  C   UNL     1      31.495 -10.456 -21.801  0.00  0.00    -0.001 C 
BRANCH   4   6
ATOM      5  O   UNL     1      32.852  -8.552 -21.651  0.00  0.00    -0.289 OA
ATOM      6  N   UNL     1      32.188  -9.372 -22.536  0.00  0.00    +0.430 N 
ATOM      7  C   UNL     1      31.192  -8.540 -23.305  0.00  0.00    -0.045 C 
ATOM      8  C   UNL     1      33.193  -9.950 -23.502  0.00  0.00    -0.045 C 
ENDBRANCH   4   6
ENDBRANCH   3   4
ENDBRANCH   1   2
BRANCH   1   9
ATOM      9  C   UNL     1      33.137 -15.130 -20.547  0.00  0.00    +0.005 C 
BRANCH   9  10
ATOM     10  C   UNL     1      34.476 -15.687 -21.034  0.00  0.00    +0.000 C 
BRANCH  10  11
ATOM     11  C   UNL     1      34.696 -15.513 -22.540  0.00  0.00    +0.000 C 
BRANCH  11  12
ATOM     12  C   UNL     1      34.824 -16.839 -23.293  0.00  0.00    +0.000 C 
BRANCH  12  13
ATOM     13  C   UNL     1      35.433 -17.924 -22.402  0.00  0.00    +0.000 C 
BRANCH  13  14
ATOM     14  C   UNL     1      34.516 -19.146 -22.311  0.00  0.00    +0.000 C 
BRANCH  14  15
ATOM     15  C   UNL     1      34.255 -19.538 -20.856  0.00  0.00    +0.000 C 
ATOM     16  C   UNL     1      32.824 -20.009 -20.655  0.00  0.00    +0.000 C 
ENDBRANCH  14  15
ENDBRANCH  13  14
ENDBRANCH  12  13
ENDBRANCH  11  12
ENDBRANCH  10  11
ENDBRANCH   9  10
ENDBRANCH   1   9
TORSDOF 10
ENDMDL
MODEL 9
REMARK VINA RESULT:      -6.4      2.549      3.239
REMARK  Name = 15433
REMARK  10 active torsions:
REMARK  status: ('A' for Active; 'I' for Inactive)
REMARK    1  A    between atoms: C_1  and  C_2
REMARK    2  A    between atoms: C_1  and  C_9
REMARK    3  A    between atoms: C_3  and  C_4
REMARK    4  A    between atoms: C_4  and  N_6
REMARK    5  A    between atoms: C_9  and  C_10
REMARK    6  A    between atoms: C_10  and  C_11
REMARK    7  A    between atoms: C_11  and  C_12
REMARK    8  A    between atoms: C_12  and  C_13
REMARK    9  A    between atoms: C_13  and  C_14
REMARK   10  A    between atoms: C_14  and  C_15
REMARK                            x       y       z     vdW  Elec       q    Type
REMARK                         _______ _______ _______ _____ _____    ______ ____
ROOT
ATOM      1  C   UNL     1      34.622 -22.416 -18.458  0.00  0.00    +0.026 C 
ENDROOT
BRANCH   1   2
ATOM      2  C   UNL     1      33.212 -22.760 -17.969  0.00  0.00    -0.033 C 
ATOM      3  C   UNL     1      33.120 -23.389 -16.575  0.00  0.00    -0.048 C 
BRANCH   3   4
ATOM      4  C   UNL     1      31.710 -23.682 -16.085  0.00  0.00    -0.001 C 
BRANCH   4   6
ATOM      5  O   UNL     1      31.103 -22.874 -13.971  0.00  0.00    -0.289 OA
ATOM      6  N   UNL     1      31.676 -23.941 -14.627  0.00  0.00    +0.430 N 
ATOM      7  C   UNL     1      33.075 -24.133 -14.095  0.00  0.00    -0.045 C 
ATOM      8  C   UNL     1      30.866 -25.178 -14.330  0.00  0.00    -0.045 C 
ENDBRANCH   4   6
ENDBRANCH   3   4
ENDBRANCH   1   2
BRANCH   1   9
ATOM      9  C   UNL     1      34.642 -21.379 -19.583  0.00  0.00    +0.005 C 
BRANCH   9  10
ATOM     10  C   UNL     1      33.228 -20.894 -19.911  0.00  0.00    +0.000 C 
BRANCH  10  11
ATOM     11  C   UNL     1      33.198 -19.746 -20.925  0.00  0.00    +0.000 C 
BRANCH  11  12
ATOM     12  C   UNL     1      34.560 -19.079 -21.129  0.00  0.00    +0.000 C 
BRANCH  12  13
ATOM     13  C   UNL     1      34.651 -18.415 -22.505  0.00  0.00    +0.000 C 
BRANCH  13  14
ATOM     14  C   UNL     1      34.747 -16.892 -22.381  0.00  0.00    +0.000 C 
BRANCH  14  15
ATOM     15  C   UNL     1      34.855 -16.460 -20.920  0.00  0.00    +0.000 C 
ATOM     16  C   UNL     1      34.458 -15.003 -20.740  0.00  0.00    +0.000 C 
ENDBRANCH  14  15
ENDBRANCH  13  14
ENDBRANCH  12  13
ENDBRANCH  11  12
ENDBRANCH  10  11
ENDBRANCH   9  10
ENDBRANCH   1   9
TORSDOF 10
ENDMDL
