MODEL 1
REMARK VINA RESULT:      -9.5      0.000      0.000
REMARK  Name = 11340891
REMARK  6 active torsions:
REMARK  status: ('A' for Active; 'I' for Inactive)
REMARK    1  A    between atoms: N_3  and  C_23
REMARK    2  A    between atoms: C_5  and  C_10
REMARK    3  A    between atoms: CA_6  and  CB_19
REMARK    4  A    between atoms: CB_19  and  CG1_21
REMARK    5  A    between atoms: C_23  and  C_27
REMARK    6  A    between atoms: C_23  and  C_34
REMARK                            x       y       z     vdW  Elec       q    Type
REMARK                         _______ _______ _______ _____ _____    ______ ____
ROOT
ATOM      1  O   UNK A   2      35.975 -23.503 -16.469  0.00  0.00    -0.273 OA
ATOM      2  O   ILE A   1      30.703 -23.893 -16.391  0.00  0.00    -0.273 OA
ATOM      3  N   ILE A   1      34.025 -24.010 -15.286  0.00  0.00    -0.260 N 
ATOM      4  N   UNK A   2      32.635 -23.131 -17.376  0.00  0.00    -0.297 N 
ATOM      5  C   UNK A   2      33.913 -22.470 -17.184  0.00  0.00    +0.149 C 
ATOM      6  CA  ILE A   1      32.658 -23.542 -14.985  0.00  0.00    +0.152 C 
ATOM      7  C   UNK A   2      34.759 -23.401 -16.320  0.00  0.00    +0.244 C 
ATOM      8  C   ILE A   1      31.891 -23.590 -16.303  0.00  0.00    +0.241 C 
ATOM      9  H   UNK A   2      32.290 -23.256 -18.290  0.00  0.00    +0.150 HD
ENDROOT
BRANCH   5  10
ATOM     10  C   UNK A   2      34.580 -22.167 -18.517  0.00  0.00    +0.036 C 
ATOM     11  C   UNK A   2      35.914 -21.406 -18.354  0.00  0.00    +0.028 C 
ATOM     12  C   UNK A   2      33.697 -21.302 -19.441  0.00  0.00    +0.028 C 
ATOM     13  C   UNK A   2      35.984 -20.654 -19.645  0.00  0.00    -0.026 C 
ATOM     14  C   UNK A   2      34.730 -20.595 -20.260  0.00  0.00    -0.026 C 
ATOM     15  C   UNK A   2      37.086 -20.030 -20.208  0.00  0.00    -0.005 C 
ATOM     16  C   UNK A   2      34.549 -19.909 -21.450  0.00  0.00    -0.005 C 
ATOM     17  C   UNK A   2      36.917 -19.347 -21.413  0.00  0.00    -0.000 C 
ATOM     18  C   UNK A   2      35.657 -19.287 -22.031  0.00  0.00    -0.000 C 
ENDBRANCH   5  10
BRANCH   6  19
ATOM     19  CB  ILE A   1      31.915 -24.318 -13.901  0.00  0.00    +0.027 C 
ATOM     20  CG2 ILE A   1      31.053 -23.360 -13.075  0.00  0.00    +0.002 C 
BRANCH  19  21
ATOM     21  CG1 ILE A   1      31.038 -25.443 -14.478  0.00  0.00    +0.002 C 
ATOM     22  CD1 ILE A   1      29.581 -25.360 -14.047  0.00  0.00    +0.000 C 
ENDBRANCH  19  21
ENDBRANCH   6  19
BRANCH   3  23
ATOM     23  C   UNK A   0      34.710 -24.901 -14.357  0.00  0.00    +0.205 C 
BRANCH  23  27
ATOM     24  O   UNK A   0      35.412 -25.988 -16.341  0.00  0.00    -0.273 OA
ATOM     25  O   UNK A   0      39.467 -26.380 -13.536  0.00  0.00    -0.350 OA
ATOM     26  N   UNK A   0      36.834 -26.146 -14.512  0.00  0.00    -0.273 N 
ATOM     27  C   UNK A   0      35.677 -25.728 -15.166  0.00  0.00    +0.251 C 
ATOM     28  C   UNK A   0      37.120 -25.963 -13.085  0.00  0.00    +0.126 C 
ATOM     29  C   UNK A   0      37.827 -26.949 -15.226  0.00  0.00    +0.126 C 
ATOM     30  C   UNK A   0      38.555 -25.487 -12.892  0.00  0.00    +0.164 C 
ATOM     31  C   UNK A   0      39.230 -26.427 -14.946  0.00  0.00    +0.164 C 
ENDBRANCH  23  27
BRANCH  23  34
ATOM     32  O   UNK A   0      36.642 -22.670 -12.165  0.00  0.00    -0.447 OA
ATOM     33  N   UNK A   0      35.196 -24.397 -11.958  0.00  0.00    -0.374 NA
ATOM     34  C   UNK A   0      35.398 -24.116 -13.285  0.00  0.00    +0.161 C 
ATOM     35  C   UNK A   0      36.276 -23.068 -13.416  0.00  0.00    +0.264 C 
ATOM     36  C   UNK A   0      35.955 -23.514 -11.348  0.00  0.00    +0.253 C 
ATOM     37  C   UNK A   0      36.156 -23.320  -9.904  0.00  0.00    +0.110 C 
ENDBRANCH  23  34
ENDBRANCH   3  23
TORSDOF 6
ENDMDL
MODEL 2
REMARK VINA RESULT:      -9.0      2.108      6.353
REMARK  Name = 11340891
REMARK  6 active torsions:
REMARK  status: ('A' for Active; 'I' for Inactive)
REMARK    1  A    between atoms: N_3  and  C_23
REMARK    2  A    between atoms: C_5  and  C_10
REMARK    3  A    between atoms: CA_6  and  CB_19
REMARK    4  A    between atoms: CB_19  and  CG1_21
REMARK    5  A    between atoms: C_23  and  C_27
REMARK    6  A    between atoms: C_23  and  C_34
REMARK                            x       y       z     vdW  Elec       q    Type
REMARK                         _______ _______ _______ _____ _____    ______ ____
ROOT
ATOM      1  O   UNK A   2      33.378 -23.601 -16.092  0.00  0.00    -0.273 OA
ATOM      2  O   ILE A   1      35.057 -24.980 -11.272  0.00  0.00    -0.273 OA
ATOM      3  N   ILE A   1      35.155 -23.911 -14.607  0.00  0.00    -0.260 N 
ATOM      4  N   UNK A   2      33.360 -24.362 -12.696  0.00  0.00    -0.297 N 
ATOM      5  C   UNK A   2      32.920 -23.441 -13.727  0.00  0.00    +0.149 C 
ATOM      6  CA  ILE A   1      35.616 -23.648 -13.230  0.00  0.00    +0.152 C 
ATOM      7  C   UNK A   2      33.807 -23.693 -14.943  0.00  0.00    +0.244 C 
ATOM      8  C   ILE A   1      34.688 -24.435 -12.310  0.00  0.00    +0.241 C 
ATOM      9  H   UNK A   2      32.700 -24.950 -12.261  0.00  0.00    +0.150 HD
ENDROOT
BRANCH   5  10
ATOM     10  C   UNK A   2      31.446 -23.636 -14.045  0.00  0.00    +0.036 C 
ATOM     11  C   UNK A   2      31.206 -24.735 -15.103  0.00  0.00    +0.028 C 
ATOM     12  C   UNK A   2      30.781 -22.354 -14.591  0.00  0.00    +0.028 C 
ATOM     13  C   UNK A   2      29.925 -24.273 -15.722  0.00  0.00    -0.026 C 
ATOM     14  C   UNK A   2      29.684 -22.926 -15.433  0.00  0.00    -0.026 C 
ATOM     15  C   UNK A   2      29.058 -24.997 -16.525  0.00  0.00    -0.005 C 
ATOM     16  C   UNK A   2      28.573 -22.274 -15.940  0.00  0.00    -0.005 C 
ATOM     17  C   UNK A   2      27.929 -24.352 -17.031  0.00  0.00    -0.000 C 
ATOM     18  C   UNK A   2      27.687 -23.000 -16.740  0.00  0.00    -0.000 C 
ENDBRANCH   5  10
BRANCH   6  19
ATOM     19  CB  ILE A   1      37.076 -23.991 -12.944  0.00  0.00    +0.027 C 
ATOM     20  CG2 ILE A   1      37.768 -22.799 -12.275  0.00  0.00    +0.002 C 
BRANCH  19  21
ATOM     21  CG1 ILE A   1      37.225 -25.243 -12.061  0.00  0.00    +0.002 C 
ATOM     22  CD1 ILE A   1      38.649 -25.482 -11.580  0.00  0.00    +0.000 C 
ENDBRANCH  19  21
ENDBRANCH   6  19
BRANCH   3  23
ATOM     23  C   UNK A   0      36.127 -24.132 -15.670  0.00  0.00    +0.205 C 
BRANCH  23  27
ATOM     24  O   UNK A   0      37.753 -22.470 -15.214  0.00  0.00    -0.273 OA
ATOM     25  O   UNK A   0      35.890 -20.851 -19.501  0.00  0.00    -0.350 OA
ATOM     26  N   UNK A   0      36.313 -22.055 -16.988  0.00  0.00    -0.273 N 
ATOM     27  C   UNK A   0      36.809 -22.812 -15.929  0.00  0.00    +0.251 C 
ATOM     28  C   UNK A   0      35.116 -22.370 -17.774  0.00  0.00    +0.126 C 
ATOM     29  C   UNK A   0      36.920 -20.763 -17.310  0.00  0.00    +0.126 C 
ATOM     30  C   UNK A   0      35.393 -22.170 -19.260  0.00  0.00    +0.164 C 
ATOM     31  C   UNK A   0      37.125 -20.634 -18.814  0.00  0.00    +0.164 C 
ENDBRANCH  23  27
BRANCH  23  34
ATOM     32  O   UNK A   0      38.040 -27.113 -14.687  0.00  0.00    -0.447 OA
ATOM     33  N   UNK A   0      38.440 -24.943 -15.186  0.00  0.00    -0.374 NA
ATOM     34  C   UNK A   0      37.097 -25.203 -15.283  0.00  0.00    +0.161 C 
ATOM     35  C   UNK A   0      36.850 -26.519 -14.980  0.00  0.00    +0.264 C 
ATOM     36  C   UNK A   0      38.943 -26.105 -14.832  0.00  0.00    +0.253 C 
ATOM     37  C   UNK A   0      40.348 -26.455 -14.574  0.00  0.00    +0.110 C 
ENDBRANCH  23  34
ENDBRANCH   3  23
TORSDOF 6
ENDMDL
MODEL 3
REMARK VINA RESULT:      -7.2      2.138      5.723
REMARK  Name = 11340891
REMARK  6 active torsions:
REMARK  status: ('A' for Active; 'I' for Inactive)
REMARK    1  A    between atoms: N_3  and  C_23
REMARK    2  A    between atoms: C_5  and  C_10
REMARK    3  A    between atoms: CA_6  and  CB_19
REMARK    4  A    between atoms: CB_19  and  CG1_21
REMARK    5  A    between atoms: C_23  and  C_27
REMARK    6  A    between atoms: C_23  and  C_34
REMARK                            x       y       z     vdW  Elec       q    Type
REMARK                         _______ _______ _______ _____ _____    ______ ____
ROOT
ATOM      1  O   UNK A   2      34.609 -22.485 -16.311  0.00  0.00    -0.273 OA
ATOM      2  O   ILE A   1      34.155 -25.052 -11.711  0.00  0.00    -0.273 OA
ATOM      3  N   ILE A   1      35.600 -23.230 -14.331  0.00  0.00    -0.260 N 
ATOM      4  N   UNK A   2      33.192 -24.028 -13.530  0.00  0.00    -0.297 N 
ATOM      5  C   UNK A   2      33.182 -22.867 -14.401  0.00  0.00    +0.149 C 
ATOM      6  CA  ILE A   1      35.418 -23.325 -12.869  0.00  0.00    +0.152 C 
ATOM      7  C   UNK A   2      34.513 -22.869 -15.146  0.00  0.00    +0.244 C 
ATOM      8  C   ILE A   1      34.232 -24.258 -12.646  0.00  0.00    +0.241 C 
ATOM      9  H   UNK A   2      32.443 -24.666 -13.571  0.00  0.00    +0.150 HD
ENDROOT
BRANCH   5  10
ATOM     10  C   UNK A   2      31.995 -22.904 -15.352  0.00  0.00    +0.036 C 
ATOM     11  C   UNK A   2      30.812 -22.043 -14.860  0.00  0.00    +0.028 C 
ATOM     12  C   UNK A   2      31.441 -24.330 -15.556  0.00  0.00    +0.028 C 
ATOM     13  C   UNK A   2      29.652 -22.752 -15.484  0.00  0.00    -0.026 C 
ATOM     14  C   UNK A   2      30.007 -24.046 -15.878  0.00  0.00    -0.026 C 
ATOM     15  C   UNK A   2      28.358 -22.285 -15.648  0.00  0.00    -0.005 C 
ATOM     16  C   UNK A   2      29.077 -24.901 -16.443  0.00  0.00    -0.005 C 
ATOM     17  C   UNK A   2      27.415 -23.136 -16.228  0.00  0.00    -0.000 C 
ATOM     18  C   UNK A   2      27.772 -24.435 -16.623  0.00  0.00    -0.000 C 
ENDBRANCH   5  10
BRANCH   6  19
ATOM     19  CB  ILE A   1      36.634 -23.801 -12.079  0.00  0.00    +0.027 C 
ATOM     20  CG2 ILE A   1      37.031 -22.741 -11.048  0.00  0.00    +0.002 C 
BRANCH  19  21
ATOM     21  CG1 ILE A   1      36.389 -25.147 -11.375  0.00  0.00    +0.002 C 
ATOM     22  CD1 ILE A   1      37.219 -26.290 -11.942  0.00  0.00    +0.000 C 
ENDBRANCH  19  21
ENDBRANCH   6  19
BRANCH   3  23
ATOM     23  C   UNK A   0      36.943 -23.243 -14.899  0.00  0.00    +0.205 C 
BRANCH  23  27
ATOM     24  O   UNK A   0      36.479 -25.361 -15.856  0.00  0.00    -0.273 OA
ATOM     25  O   UNK A   0      41.200 -25.929 -14.493  0.00  0.00    -0.350 OA
ATOM     26  N   UNK A   0      38.503 -25.148 -14.738  0.00  0.00    -0.273 N 
ATOM     27  C   UNK A   0      37.278 -24.680 -15.210  0.00  0.00    +0.251 C 
ATOM     28  C   UNK A   0      39.417 -24.408 -13.862  0.00  0.00    +0.126 C 
ATOM     29  C   UNK A   0      38.908 -26.529 -15.000  0.00  0.00    +0.126 C 
ATOM     30  C   UNK A   0      40.851 -24.548 -14.358  0.00  0.00    +0.164 C 
ATOM     31  C   UNK A   0      40.362 -26.578 -15.452  0.00  0.00    +0.164 C 
ENDBRANCH  23  27
BRANCH  23  34
ATOM     32  O   UNK A   0      37.366 -20.710 -17.528  0.00  0.00    -0.447 OA
ATOM     33  N   UNK A   0      36.520 -22.797 -17.321  0.00  0.00    -0.374 NA
ATOM     34  C   UNK A   0      37.010 -22.372 -16.113  0.00  0.00    +0.161 C 
ATOM     35  C   UNK A   0      37.525 -21.104 -16.234  0.00  0.00    +0.264 C 
ATOM     36  C   UNK A   0      36.758 -21.777 -18.114  0.00  0.00    +0.253 C 
ATOM     37  C   UNK A   0      36.453 -21.639 -19.546  0.00  0.00    +0.110 C 
ENDBRANCH  23  34
ENDBRANCH   3  23
TORSDOF 6
ENDMDL
MODEL 4
REMARK VINA RESULT:      -7.1     11.421     16.324
REMARK  Name = 11340891
REMARK  6 active torsions:
REMARK  status: ('A' for Active; 'I' for Inactive)
REMARK    1  A    between atoms: N_3  and  C_23
REMARK    2  A    between atoms: C_5  and  C_10
REMARK    3  A    between atoms: CA_6  and  CB_19
REMARK    4  A    between atoms: CB_19  and  CG1_21
REMARK    5  A    between atoms: C_23  and  C_27
REMARK    6  A    between atoms: C_23  and  C_34
REMARK                            x       y       z     vdW  Elec       q    Type
REMARK                         _______ _______ _______ _____ _____    ______ ____
ROOT
ATOM      1  O   UNK A   2      32.611 -12.162 -21.832  0.00  0.00    -0.273 OA
ATOM      2  O   ILE A   1      34.643 -10.129 -26.270  0.00  0.00    -0.273 OA
ATOM      3  N   ILE A   1      33.401 -10.298 -22.998  0.00  0.00    -0.260 N 
ATOM      4  N   UNK A   2      34.134 -11.945 -24.955  0.00  0.00    -0.297 N 
ATOM      5  C   UNK A   2      34.183 -12.530 -23.627  0.00  0.00    +0.149 C 
ATOM      6  CA  ILE A   1      34.493  -9.809 -23.862  0.00  0.00    +0.152 C 
ATOM      7  C   UNK A   2      33.281 -11.676 -22.741  0.00  0.00    +0.244 C 
ATOM      8  C   ILE A   1      34.398 -10.602 -25.162  0.00  0.00    +0.241 C 
ATOM      9  H   UNK A   2      33.908 -12.516 -25.724  0.00  0.00    +0.150 HD
ENDROOT
BRANCH   5  10
ATOM     10  C   UNK A   2      33.744 -13.986 -23.652  0.00  0.00    +0.036 C 
ATOM     11  C   UNK A   2      34.535 -14.862 -22.656  0.00  0.00    +0.028 C 
ATOM     12  C   UNK A   2      33.923 -14.637 -25.040  0.00  0.00    +0.028 C 
ATOM     13  C   UNK A   2      34.465 -16.200 -23.321  0.00  0.00    -0.026 C 
ATOM     14  C   UNK A   2      34.119 -16.074 -24.670  0.00  0.00    -0.026 C 
ATOM     15  C   UNK A   2      34.736 -17.441 -22.766  0.00  0.00    -0.005 C 
ATOM     16  C   UNK A   2      34.036 -17.184 -25.493  0.00  0.00    -0.005 C 
ATOM     17  C   UNK A   2      34.643 -18.567 -23.585  0.00  0.00    -0.000 C 
ATOM     18  C   UNK A   2      34.295 -18.440 -24.940  0.00  0.00    -0.000 C 
ENDBRANCH   5  10
BRANCH   6  19
ATOM     19  CB  ILE A   1      34.492  -8.309 -24.146  0.00  0.00    +0.027 C 
ATOM     20  CG2 ILE A   1      35.299  -7.577 -23.070  0.00  0.00    +0.002 C 
BRANCH  19  21
ATOM     21  CG1 ILE A   1      35.053  -7.972 -25.538  0.00  0.00    +0.002 C 
ATOM     22  CD1 ILE A   1      34.973  -6.492 -25.885  0.00  0.00    +0.000 C 
ENDBRANCH  19  21
ENDBRANCH   6  19
BRANCH   3  23
ATOM     23  C   UNK A   0      32.624  -9.355 -22.204  0.00  0.00    +0.205 C 
BRANCH  23  27
ATOM     24  O   UNK A   0      31.209  -9.153 -24.094  0.00  0.00    -0.273 OA
ATOM     25  O   UNK A   0      30.796  -4.650 -22.089  0.00  0.00    -0.350 OA
ATOM     26  N   UNK A   0      31.659  -7.201 -22.920  0.00  0.00    -0.273 N 
ATOM     27  C   UNK A   0      31.767  -8.568 -23.163  0.00  0.00    +0.251 C 
ATOM     28  C   UNK A   0      32.407  -6.454 -21.903  0.00  0.00    +0.126 C 
ATOM     29  C   UNK A   0      30.844  -6.364 -23.801  0.00  0.00    +0.126 C 
ATOM     30  C   UNK A   0      31.480  -5.498 -21.163  0.00  0.00    +0.164 C 
ATOM     31  C   UNK A   0      29.980  -5.416 -22.980  0.00  0.00    +0.164 C 
ENDBRANCH  23  27
BRANCH  23  34
ATOM     32  O   UNK A   0      30.263 -11.267 -20.134  0.00  0.00    -0.447 OA
ATOM     33  N   UNK A   0      32.180 -10.099 -19.860  0.00  0.00    -0.374 NA
ATOM     34  C   UNK A   0      31.807 -10.077 -21.179  0.00  0.00    +0.161 C 
ATOM     35  C   UNK A   0      30.643 -10.785 -21.350  0.00  0.00    +0.264 C 
ATOM     36  C   UNK A   0      31.233 -10.814 -19.294  0.00  0.00    +0.253 C 
ATOM     37  C   UNK A   0      31.087 -11.185 -17.879  0.00  0.00    +0.110 C 
ENDBRANCH  23  34
ENDBRANCH   3  23
TORSDOF 6
ENDMDL
MODEL 5
REMARK VINA RESULT:      -7.0      8.954     14.248
REMARK  Name = 11340891
REMARK  6 active torsions:
REMARK  status: ('A' for Active; 'I' for Inactive)
REMARK    1  A    between atoms: N_3  and  C_23
REMARK    2  A    between atoms: C_5  and  C_10
REMARK    3  A    between atoms: CA_6  and  CB_19
REMARK    4  A    between atoms: CB_19  and  CG1_21
REMARK    5  A    between atoms: C_23  and  C_27
REMARK    6  A    between atoms: C_23  and  C_34
REMARK                            x       y       z     vdW  Elec       q    Type
REMARK                         _______ _______ _______ _____ _____    ______ ____
ROOT
ATOM      1  O   UNK A   2      33.631 -13.977 -21.358  0.00  0.00    -0.273 OA
ATOM      2  O   ILE A   1      33.486 -15.749 -26.338  0.00  0.00    -0.273 OA
ATOM      3  N   ILE A   1      33.367 -13.523 -23.635  0.00  0.00    -0.260 N 
ATOM      4  N   UNK A   2      34.029 -16.053 -24.124  0.00  0.00    -0.297 N 
ATOM      5  C   UNK A   2      34.651 -15.487 -22.941  0.00  0.00    +0.149 C 
ATOM      6  CA  ILE A   1      33.930 -13.783 -24.974  0.00  0.00    +0.152 C 
ATOM      7  C   UNK A   2      33.805 -14.284 -22.536  0.00  0.00    +0.244 C 
ATOM      8  C   ILE A   1      33.745 -15.275 -25.234  0.00  0.00    +0.241 C 
ATOM      9  H   UNK A   2      33.801 -17.011 -24.137  0.00  0.00    +0.150 HD
ENDROOT
BRANCH   5  10
ATOM     10  C   UNK A   2      34.750 -16.517 -21.827  0.00  0.00    +0.036 C 
ATOM     11  C   UNK A   2      35.920 -17.504 -22.032  0.00  0.00    +0.028 C 
ATOM     12  C   UNK A   2      33.475 -17.376 -21.696  0.00  0.00    +0.028 C 
ATOM     13  C   UNK A   2      35.412 -18.715 -21.315  0.00  0.00    -0.026 C 
ATOM     14  C   UNK A   2      34.029 -18.643 -21.125  0.00  0.00    -0.026 C 
ATOM     15  C   UNK A   2      36.134 -19.824 -20.902  0.00  0.00    -0.005 C 
ATOM     16  C   UNK A   2      33.336 -19.678 -20.518  0.00  0.00    -0.005 C 
ATOM     17  C   UNK A   2      35.446 -20.866 -20.278  0.00  0.00    -0.000 C 
ATOM     18  C   UNK A   2      34.057 -20.794 -20.087  0.00  0.00    -0.000 C 
ENDBRANCH   5  10
BRANCH   6  19
ATOM     19  CB  ILE A   1      33.334 -12.960 -26.114  0.00  0.00    +0.027 C 
ATOM     20  CG2 ILE A   1      34.437 -12.146 -26.798  0.00  0.00    +0.002 C 
BRANCH  19  21
ATOM     21  CG1 ILE A   1      32.610 -13.832 -27.154  0.00  0.00    +0.002 C 
ATOM     22  CD1 ILE A   1      31.492 -13.104 -27.887  0.00  0.00    +0.000 C 
ENDBRANCH  19  21
ENDBRANCH   6  19
BRANCH   3  23
ATOM     23  C   UNK A   0      32.576 -12.322 -23.399  0.00  0.00    +0.205 C 
BRANCH  23  27
ATOM     24  O   UNK A   0      31.905 -13.536 -21.477  0.00  0.00    -0.273 OA
ATOM     25  O   UNK A   0      31.645  -8.882 -19.821  0.00  0.00    -0.350 OA
ATOM     26  N   UNK A   0      31.667 -11.228 -21.383  0.00  0.00    -0.273 N 
ATOM     27  C   UNK A   0      32.019 -12.426 -22.001  0.00  0.00    +0.251 C 
ATOM     28  C   UNK A   0      31.668  -9.908 -22.020  0.00  0.00    +0.126 C 
ATOM     29  C   UNK A   0      31.122 -11.239 -20.025  0.00  0.00    +0.126 C 
ATOM     30  C   UNK A   0      32.299  -8.876 -21.093  0.00  0.00    +0.164 C 
ATOM     31  C   UNK A   0      31.780 -10.154 -19.182  0.00  0.00    +0.164 C 
ENDBRANCH  23  27
BRANCH  23  34
ATOM     32  O   UNK A   0      35.067  -9.630 -23.630  0.00  0.00    -0.447 OA
ATOM     33  N   UNK A   0      32.879  -9.945 -24.106  0.00  0.00    -0.374 NA
ATOM     34  C   UNK A   0      33.411 -11.095 -23.583  0.00  0.00    +0.161 C 
ATOM     35  C   UNK A   0      34.741 -10.908 -23.292  0.00  0.00    +0.264 C 
ATOM     36  C   UNK A   0      33.901  -9.118 -24.108  0.00  0.00    +0.253 C 
ATOM     37  C   UNK A   0      33.947  -7.719 -24.559  0.00  0.00    +0.110 C 
ENDBRANCH  23  34
ENDBRANCH   3  23
TORSDOF 6
ENDMDL
