MODEL 1
REMARK VINA RESULT:      -7.4      0.000      0.000
REMARK  Name = 7186
REMARK  5 active torsions:
REMARK  status: ('A' for Active; 'I' for Inactive)
REMARK    1  A    between atoms: C_1  and  C_2
REMARK    2  A    between atoms: C_1  and  O_8
REMARK    3  A    between atoms: C_1  and  C_10
REMARK    4  A    between atoms: C_10  and  O_11
REMARK    5  A    between atoms: O_11  and  C_14
REMARK                            x       y       z     vdW  Elec       q    Type
REMARK                         _______ _______ _______ _____ _____    ______ ____
ROOT
ATOM      1  C   UNL     1      34.593 -18.581 -21.532  0.00  0.00    +0.177 C 
ENDROOT
BRANCH   1   2
ATOM      2  C   UNL     1      34.570 -19.824 -20.707  0.00  0.00    +0.008 C 
ATOM      3  C   UNL     1      35.765 -20.451 -20.356  0.00  0.00    -0.002 C 
ATOM      4  C   UNL     1      33.352 -20.358 -20.287  0.00  0.00    -0.002 C 
ATOM      5  C   UNL     1      35.743 -21.612 -19.585  0.00  0.00    -0.000 C 
ATOM      6  C   UNL     1      33.330 -21.520 -19.515  0.00  0.00    -0.000 C 
ATOM      7  C   UNL     1      34.526 -22.148 -19.164  0.00  0.00    -0.000 C 
ENDBRANCH   1   2
BRANCH   1   8
ATOM      8  O   UNL     1      35.280 -17.545 -20.819  0.00  0.00    -0.376 OA
ATOM      9  H   UNL     1      35.648 -16.907 -21.451  0.00  0.00    +0.211 HD
ENDBRANCH   1   8
BRANCH   1  10
ATOM     10  C   UNL     1      35.277 -18.767 -22.895  0.00  0.00    +0.244 C 
BRANCH  10  11
ATOM     11  O   UNL     1      34.419 -18.298 -23.926  0.00  0.00    -0.432 OA
BRANCH  11  14
ATOM     12  O   UNL     1      34.747 -17.047 -25.830  0.00  0.00    -0.227 OA
ATOM     13  N   UNL     1      35.433 -16.287 -23.771  0.00  0.00    -0.295 N 
ATOM     14  C   UNL     1      34.855 -17.200 -24.619  0.00  0.00    +0.399 C 
ATOM     15  H   UNL     1      35.487 -16.477 -22.806  0.00  0.00    +0.148 HD
ATOM     16  H   UNL     1      35.795 -15.444 -24.129  0.00  0.00    +0.148 HD
ENDBRANCH  11  14
ENDBRANCH  10  11
ENDBRANCH   1  10
TORSDOF 5
ENDMDL
MODEL 2
REMARK VINA RESULT:      -7.2      1.425      2.014
REMARK  Name = 7186
REMARK  5 active torsions:
REMARK  status: ('A' for Active; 'I' for Inactive)
REMARK    1  A    between atoms: C_1  and  C_2
REMARK    2  A    between atoms: C_1  and  O_8
REMARK    3  A    between atoms: C_1  and  C_10
REMARK    4  A    between atoms: C_10  and  O_11
REMARK    5  A    between atoms: O_11  and  C_14
REMARK                            x       y       z     vdW  Elec       q    Type
REMARK                         _______ _______ _______ _____ _____    ______ ____
ROOT
ATOM      1  C   UNL     1      35.601 -17.850 -21.859  0.00  0.00    +0.177 C 
ENDROOT
BRANCH   1   2
ATOM      2  C   UNL     1      35.004 -19.015 -21.142  0.00  0.00    +0.008 C 
ATOM      3  C   UNL     1      33.619 -19.145 -21.054  0.00  0.00    -0.002 C 
ATOM      4  C   UNL     1      35.834 -19.975 -20.561  0.00  0.00    -0.002 C 
ATOM      5  C   UNL     1      33.061 -20.233 -20.385  0.00  0.00    -0.000 C 
ATOM      6  C   UNL     1      35.276 -21.064 -19.892  0.00  0.00    -0.000 C 
ATOM      7  C   UNL     1      33.890 -21.193 -19.803  0.00  0.00    -0.000 C 
ENDBRANCH   1   2
BRANCH   1   8
ATOM      8  O   UNL     1      36.630 -18.308 -22.744  0.00  0.00    -0.376 OA
ATOM      9  H   UNL     1      37.477 -17.906 -22.492  0.00  0.00    +0.211 HD
ENDBRANCH   1   8
BRANCH   1  10
ATOM     10  C   UNL     1      34.576 -17.050 -22.678  0.00  0.00    +0.244 C 
BRANCH  10  11
ATOM     11  O   UNL     1      35.179 -16.600 -23.884  0.00  0.00    -0.432 OA
BRANCH  11  14
ATOM     12  O   UNL     1      34.271 -16.268 -25.973  0.00  0.00    -0.227 OA
ATOM     13  N   UNL     1      34.370 -18.365 -25.035  0.00  0.00    -0.295 N 
ATOM     14  C   UNL     1      34.581 -17.008 -25.046  0.00  0.00    +0.399 C 
ATOM     15  H   UNL     1      34.643 -18.899 -24.254  0.00  0.00    +0.148 HD
ATOM     16  H   UNL     1      33.945 -18.803 -25.807  0.00  0.00    +0.148 HD
ENDBRANCH  11  14
ENDBRANCH  10  11
ENDBRANCH   1  10
TORSDOF 5
ENDMDL
MODEL 3
REMARK VINA RESULT:      -7.0      1.694      1.948
REMARK  Name = 7186
REMARK  5 active torsions:
REMARK  status: ('A' for Active; 'I' for Inactive)
REMARK    1  A    between atoms: C_1  and  C_2
REMARK    2  A    between atoms: C_1  and  O_8
REMARK    3  A    between atoms: C_1  and  C_10
REMARK    4  A    between atoms: C_10  and  O_11
REMARK    5  A    between atoms: O_11  and  C_14
REMARK                            x       y       z     vdW  Elec       q    Type
REMARK                         _______ _______ _______ _____ _____    ______ ____
ROOT
ATOM      1  C   UNL     1      35.733 -18.041 -21.985  0.00  0.00    +0.177 C 
ENDROOT
BRANCH   1   2
ATOM      2  C   UNL     1      35.058 -19.130 -21.219  0.00  0.00    +0.008 C 
ATOM      3  C   UNL     1      35.819 -20.108 -20.580  0.00  0.00    -0.002 C 
ATOM      4  C   UNL     1      33.666 -19.167 -21.142  0.00  0.00    -0.002 C 
ATOM      5  C   UNL     1      35.189 -21.125 -19.864  0.00  0.00    -0.000 C 
ATOM      6  C   UNL     1      33.035 -20.185 -20.425  0.00  0.00    -0.000 C 
ATOM      7  C   UNL     1      33.797 -21.164 -19.786  0.00  0.00    -0.000 C 
ENDBRANCH   1   2
BRANCH   1   8
ATOM      8  O   UNL     1      35.878 -18.437 -23.355  0.00  0.00    -0.376 OA
ATOM      9  H   UNL     1      36.815 -18.601 -23.547  0.00  0.00    +0.211 HD
ENDBRANCH   1   8
BRANCH   1  10
ATOM     10  C   UNL     1      34.973 -16.707 -21.943  0.00  0.00    +0.244 C 
BRANCH  10  11
ATOM     11  O   UNL     1      35.362 -15.903 -23.049  0.00  0.00    -0.432 OA
BRANCH  11  14
ATOM     12  O   UNL     1      33.561 -15.510 -24.428  0.00  0.00    -0.227 OA
ATOM     13  N   UNL     1      34.436 -13.845 -23.105  0.00  0.00    -0.295 N 
ATOM     14  C   UNL     1      34.380 -15.125 -23.602  0.00  0.00    +0.399 C 
ATOM     15  H   UNL     1      35.123 -13.604 -22.443  0.00  0.00    +0.148 HD
ATOM     16  H   UNL     1      33.789 -13.170 -23.414  0.00  0.00    +0.148 HD
ENDBRANCH  11  14
ENDBRANCH  10  11
ENDBRANCH   1  10
TORSDOF 5
ENDMDL
MODEL 4
REMARK VINA RESULT:      -6.9      5.128      7.117
REMARK  Name = 7186
REMARK  5 active torsions:
REMARK  status: ('A' for Active; 'I' for Inactive)
REMARK    1  A    between atoms: C_1  and  C_2
REMARK    2  A    between atoms: C_1  and  O_8
REMARK    3  A    between atoms: C_1  and  C_10
REMARK    4  A    between atoms: C_10  and  O_11
REMARK    5  A    between atoms: O_11  and  C_14
REMARK                            x       y       z     vdW  Elec       q    Type
REMARK                         _______ _______ _______ _____ _____    ______ ____
ROOT
ATOM      1  C   UNL     1      33.814 -22.610 -18.641  0.00  0.00    +0.177 C 
ENDROOT
BRANCH   1   2
ATOM      2  C   UNL     1      34.094 -21.448 -19.533  0.00  0.00    +0.008 C 
ATOM      3  C   UNL     1      35.409 -21.133 -19.875  0.00  0.00    -0.002 C 
ATOM      4  C   UNL     1      33.040 -20.677 -20.025  0.00  0.00    -0.002 C 
ATOM      5  C   UNL     1      35.671 -20.046 -20.709  0.00  0.00    -0.000 C 
ATOM      6  C   UNL     1      33.303 -19.591 -20.860  0.00  0.00    -0.000 C 
ATOM      7  C   UNL     1      34.618 -19.275 -21.201  0.00  0.00    -0.000 C 
ENDBRANCH   1   2
BRANCH   1   8
ATOM      8  O   UNL     1      33.922 -23.827 -19.390  0.00  0.00    -0.376 OA
ATOM      9  H   UNL     1      33.771 -24.584 -18.802  0.00  0.00    +0.211 HD
ENDBRANCH   1   8
BRANCH   1  10
ATOM     10  C   UNL     1      34.764 -22.697 -17.436  0.00  0.00    +0.244 C 
BRANCH  10  11
ATOM     11  O   UNL     1      34.353 -23.755 -16.581  0.00  0.00    -0.432 OA
BRANCH  11  14
ATOM     12  O   UNL     1      35.992 -24.884 -15.425  0.00  0.00    -0.227 OA
ATOM     13  N   UNL     1      34.882 -23.103 -14.486  0.00  0.00    -0.295 N 
ATOM     14  C   UNL     1      35.151 -23.996 -15.495  0.00  0.00    +0.399 C 
ATOM     15  H   UNL     1      34.190 -22.414 -14.610  0.00  0.00    +0.148 HD
ATOM     16  H   UNL     1      35.380 -23.155 -13.638  0.00  0.00    +0.148 HD
ENDBRANCH  11  14
ENDBRANCH  10  11
ENDBRANCH   1  10
TORSDOF 5
ENDMDL
MODEL 5
REMARK VINA RESULT:      -6.8      4.920      7.004
REMARK  Name = 7186
REMARK  5 active torsions:
REMARK  status: ('A' for Active; 'I' for Inactive)
REMARK    1  A    between atoms: C_1  and  C_2
REMARK    2  A    between atoms: C_1  and  O_8
REMARK    3  A    between atoms: C_1  and  C_10
REMARK    4  A    between atoms: C_10  and  O_11
REMARK    5  A    between atoms: O_11  and  C_14
REMARK                            x       y       z     vdW  Elec       q    Type
REMARK                         _______ _______ _______ _____ _____    ______ ____
ROOT
ATOM      1  C   UNL     1      34.841 -22.487 -18.773  0.00  0.00    +0.177 C 
ENDROOT
BRANCH   1   2
ATOM      2  C   UNL     1      34.516 -21.314 -19.637  0.00  0.00    +0.008 C 
ATOM      3  C   UNL     1      33.189 -20.931 -19.823  0.00  0.00    -0.002 C 
ATOM      4  C   UNL     1      35.542 -20.601 -20.258  0.00  0.00    -0.002 C 
ATOM      5  C   UNL     1      32.886 -19.835 -20.630  0.00  0.00    -0.000 C 
ATOM      6  C   UNL     1      35.239 -19.505 -21.065  0.00  0.00    -0.000 C 
ATOM      7  C   UNL     1      33.911 -19.122 -21.252  0.00  0.00    -0.000 C 
ENDBRANCH   1   2
BRANCH   1   8
ATOM      8  O   UNL     1      35.982 -22.184 -17.962  0.00  0.00    -0.376 OA
ATOM      9  H   UNL     1      36.777 -22.153 -18.519  0.00  0.00    +0.211 HD
ENDBRANCH   1   8
BRANCH   1  10
ATOM     10  C   UNL     1      33.685 -22.900 -17.849  0.00  0.00    +0.244 C 
BRANCH  10  11
ATOM     11  O   UNL     1      34.170 -23.785 -16.848  0.00  0.00    -0.432 OA
BRANCH  11  14
ATOM     12  O   UNL     1      32.868 -23.826 -14.949  0.00  0.00    -0.227 OA
ATOM     13  N   UNL     1      34.837 -22.640 -15.020  0.00  0.00    -0.295 N 
ATOM     14  C   UNL     1      33.867 -23.453 -15.554  0.00  0.00    +0.399 C 
ATOM     15  H   UNL     1      35.615 -22.379 -15.564  0.00  0.00    +0.148 HD
ATOM     16  H   UNL     1      34.754 -22.319 -14.092  0.00  0.00    +0.148 HD
ENDBRANCH  11  14
ENDBRANCH  10  11
ENDBRANCH   1  10
TORSDOF 5
ENDMDL
MODEL 6
REMARK VINA RESULT:      -6.7      2.966      5.580
REMARK  Name = 7186
REMARK  5 active torsions:
REMARK  status: ('A' for Active; 'I' for Inactive)
REMARK    1  A    between atoms: C_1  and  C_2
REMARK    2  A    between atoms: C_1  and  O_8
REMARK    3  A    between atoms: C_1  and  C_10
REMARK    4  A    between atoms: C_10  and  O_11
REMARK    5  A    between atoms: O_11  and  C_14
REMARK                            x       y       z     vdW  Elec       q    Type
REMARK                         _______ _______ _______ _____ _____    ______ ____
ROOT
ATOM      1  C   UNL     1      35.389 -19.293 -21.646  0.00  0.00    +0.177 C 
ENDROOT
BRANCH   1   2
ATOM      2  C   UNL     1      35.091 -18.426 -22.823  0.00  0.00    +0.008 C 
ATOM      3  C   UNL     1      35.211 -17.041 -22.717  0.00  0.00    -0.002 C 
ATOM      4  C   UNL     1      34.694 -19.002 -24.030  0.00  0.00    -0.002 C 
ATOM      5  C   UNL     1      34.932 -16.231 -23.817  0.00  0.00    -0.000 C 
ATOM      6  C   UNL     1      34.416 -18.191 -25.131  0.00  0.00    -0.000 C 
ATOM      7  C   UNL     1      34.535 -16.805 -25.024  0.00  0.00    -0.000 C 
ENDBRANCH   1   2
BRANCH   1   8
ATOM      8  O   UNL     1      36.068 -18.526 -20.644  0.00  0.00    -0.376 OA
ATOM      9  H   UNL     1      36.592 -17.829 -21.070  0.00  0.00    +0.211 HD
ENDBRANCH   1   8
BRANCH   1  10
ATOM     10  C   UNL     1      34.134 -19.915 -21.014  0.00  0.00    +0.244 C 
BRANCH  10  11
ATOM     11  O   UNL     1      34.446 -20.398 -19.715  0.00  0.00    -0.432 OA
BRANCH  11  14
ATOM     12  O   UNL     1      35.027 -22.606 -19.415  0.00  0.00    -0.227 OA
ATOM     13  N   UNL     1      32.830 -21.930 -19.342  0.00  0.00    -0.295 N 
ATOM     14  C   UNL     1      34.180 -21.721 -19.485  0.00  0.00    +0.399 C 
ATOM     15  H   UNL     1      32.205 -21.172 -19.411  0.00  0.00    +0.148 HD
ATOM     16  H   UNL     1      32.487 -22.837 -19.172  0.00  0.00    +0.148 HD
ENDBRANCH  11  14
ENDBRANCH  10  11
ENDBRANCH   1  10
TORSDOF 5
ENDMDL
MODEL 7
REMARK VINA RESULT:      -6.6      3.157      5.384
REMARK  Name = 7186
REMARK  5 active torsions:
REMARK  status: ('A' for Active; 'I' for Inactive)
REMARK    1  A    between atoms: C_1  and  C_2
REMARK    2  A    between atoms: C_1  and  O_8
REMARK    3  A    between atoms: C_1  and  C_10
REMARK    4  A    between atoms: C_10  and  O_11
REMARK    5  A    between atoms: O_11  and  C_14
REMARK                            x       y       z     vdW  Elec       q    Type
REMARK                         _______ _______ _______ _____ _____    ______ ____
ROOT
ATOM      1  C   UNL     1      35.595 -18.511 -21.761  0.00  0.00    +0.177 C 
ENDROOT
BRANCH   1   2
ATOM      2  C   UNL     1      35.131 -17.101 -21.914  0.00  0.00    +0.008 C 
ATOM      3  C   UNL     1      34.788 -16.353 -20.789  0.00  0.00    -0.002 C 
ATOM      4  C   UNL     1      35.043 -16.531 -23.185  0.00  0.00    -0.002 C 
ATOM      5  C   UNL     1      34.355 -15.036 -20.933  0.00  0.00    -0.000 C 
ATOM      6  C   UNL     1      34.610 -15.213 -23.328  0.00  0.00    -0.000 C 
ATOM      7  C   UNL     1      34.265 -14.465 -22.202  0.00  0.00    -0.000 C 
ENDBRANCH   1   2
BRANCH   1   8
ATOM      8  O   UNL     1      36.209 -18.677 -20.476  0.00  0.00    -0.376 OA
ATOM      9  H   UNL     1      37.061 -19.130 -20.580  0.00  0.00    +0.211 HD
ENDBRANCH   1   8
BRANCH   1  10
ATOM     10  C   UNL     1      34.464 -19.542 -21.894  0.00  0.00    +0.244 C 
BRANCH  10  11
ATOM     11  O   UNL     1      34.425 -20.359 -20.732  0.00  0.00    -0.432 OA
BRANCH  11  14
ATOM     12  O   UNL     1      32.238 -19.836 -20.237  0.00  0.00    -0.227 OA
ATOM     13  N   UNL     1      33.132 -21.881 -19.680  0.00  0.00    -0.295 N 
ATOM     14  C   UNL     1      33.182 -20.619 -20.220  0.00  0.00    +0.399 C 
ATOM     15  H   UNL     1      33.930 -22.457 -19.700  0.00  0.00    +0.148 HD
ATOM     16  H   UNL     1      32.297 -22.208 -19.272  0.00  0.00    +0.148 HD
ENDBRANCH  11  14
ENDBRANCH  10  11
ENDBRANCH   1  10
TORSDOF 5
ENDMDL
MODEL 8
REMARK VINA RESULT:      -6.6      8.294      9.490
REMARK  Name = 7186
REMARK  5 active torsions:
REMARK  status: ('A' for Active; 'I' for Inactive)
REMARK    1  A    between atoms: C_1  and  C_2
REMARK    2  A    between atoms: C_1  and  O_8
REMARK    3  A    between atoms: C_1  and  C_10
REMARK    4  A    between atoms: C_10  and  O_11
REMARK    5  A    between atoms: O_11  and  C_14
REMARK                            x       y       z     vdW  Elec       q    Type
REMARK                         _______ _______ _______ _____ _____    ______ ____
ROOT
ATOM      1  C   UNL     1      34.448 -23.536 -15.463  0.00  0.00    +0.177 C 
ENDROOT
BRANCH   1   2
ATOM      2  C   UNL     1      32.969 -23.391 -15.327  0.00  0.00    +0.008 C 
ATOM      3  C   UNL     1      32.376 -23.453 -14.067  0.00  0.00    -0.002 C 
ATOM      4  C   UNL     1      32.182 -23.192 -16.462  0.00  0.00    -0.002 C 
ATOM      5  C   UNL     1      30.994 -23.318 -13.941  0.00  0.00    -0.000 C 
ATOM      6  C   UNL     1      30.799 -23.056 -16.334  0.00  0.00    -0.000 C 
ATOM      7  C   UNL     1      30.205 -23.119 -15.074  0.00  0.00    -0.000 C 
ENDBRANCH   1   2
BRANCH   1   8
ATOM      8  O   UNL     1      35.099 -22.427 -14.831  0.00  0.00    -0.376 OA
ATOM      9  H   UNL     1      34.457 -21.713 -14.689  0.00  0.00    +0.211 HD
ENDBRANCH   1   8
BRANCH   1  10
ATOM     10  C   UNL     1      34.992 -24.833 -14.846  0.00  0.00    +0.244 C 
BRANCH  10  11
ATOM     11  O   UNL     1      36.162 -25.239 -15.543  0.00  0.00    -0.432 OA
BRANCH  11  14
ATOM     12  O   UNL     1      36.745 -27.356 -16.233  0.00  0.00    -0.227 OA
ATOM     13  N   UNL     1      36.740 -26.786 -14.005  0.00  0.00    -0.295 N 
ATOM     14  C   UNL     1      36.564 -26.532 -15.344  0.00  0.00    +0.399 C 
ATOM     15  H   UNL     1      36.576 -26.076 -13.343  0.00  0.00    +0.148 HD
ATOM     16  H   UNL     1      37.029 -27.680 -13.708  0.00  0.00    +0.148 HD
ENDBRANCH  11  14
ENDBRANCH  10  11
ENDBRANCH   1  10
TORSDOF 5
ENDMDL
MODEL 9
REMARK VINA RESULT:      -6.6      1.743      2.783
REMARK  Name = 7186
REMARK  5 active torsions:
REMARK  status: ('A' for Active; 'I' for Inactive)
REMARK    1  A    between atoms: C_1  and  C_2
REMARK    2  A    between atoms: C_1  and  O_8
REMARK    3  A    between atoms: C_1  and  C_10
REMARK    4  A    between atoms: C_10  and  O_11
REMARK    5  A    between atoms: O_11  and  C_14
REMARK                            x       y       z     vdW  Elec       q    Type
REMARK                         _______ _______ _______ _____ _____    ______ ____
ROOT
ATOM      1  C   UNL     1      34.736 -17.155 -23.317  0.00  0.00    +0.177 C 
ENDROOT
BRANCH   1   2
ATOM      2  C   UNL     1      35.016 -18.224 -22.314  0.00  0.00    +0.008 C 
ATOM      3  C   UNL     1      33.982 -19.044 -21.862  0.00  0.00    -0.002 C 
ATOM      4  C   UNL     1      36.312 -18.404 -21.830  0.00  0.00    -0.002 C 
ATOM      5  C   UNL     1      34.244 -20.043 -20.925  0.00  0.00    -0.000 C 
ATOM      6  C   UNL     1      36.573 -19.404 -20.893  0.00  0.00    -0.000 C 
ATOM      7  C   UNL     1      35.539 -20.223 -20.440  0.00  0.00    -0.000 C 
ENDBRANCH   1   2
BRANCH   1   8
ATOM      8  O   UNL     1      35.817 -16.215 -23.330  0.00  0.00    -0.376 OA
ATOM      9  H   UNL     1      36.536 -16.556 -23.886  0.00  0.00    +0.211 HD
ENDBRANCH   1   8
BRANCH   1  10
ATOM     10  C   UNL     1      34.545 -17.694 -24.743  0.00  0.00    +0.244 C 
BRANCH  10  11
ATOM     11  O   UNL     1      34.658 -16.626 -25.674  0.00  0.00    -0.432 OA
BRANCH  11  14
ATOM     12  O   UNL     1      32.639 -16.154 -26.672  0.00  0.00    -0.227 OA
ATOM     13  N   UNL     1      33.522 -14.775 -25.058  0.00  0.00    -0.295 N 
ATOM     14  C   UNL     1      33.528 -15.880 -25.874  0.00  0.00    +0.399 C 
ATOM     15  H   UNL     1      34.272 -14.616 -24.440  0.00  0.00    +0.148 HD
ATOM     16  H   UNL     1      32.768 -14.142 -25.093  0.00  0.00    +0.148 HD
ENDBRANCH  11  14
ENDBRANCH  10  11
ENDBRANCH   1  10
TORSDOF 5
ENDMDL
