MODEL 1
REMARK VINA RESULT:      -3.3      0.000      0.000
REMARK  Name = 3283
REMARK  2 active torsions:
REMARK  status: ('A' for Active; 'I' for Inactive)
REMARK    1  A    between atoms: O_1  and  C_2
REMARK    2  A    between atoms: O_1  and  C_4
REMARK                            x       y       z     vdW  Elec       q    Type
REMARK                         _______ _______ _______ _____ _____    ______ ____
ROOT
ATOM      1  O   UNL     1      32.736 -22.192 -18.878  0.00  0.00    -0.354 OA
ENDROOT
BRANCH   1   2
ATOM      2  C   UNL     1      33.691 -21.435 -19.605  0.00  0.00    +0.142 C 
ATOM      3  C   UNL     1      32.983 -20.305 -20.320  0.00  0.00    +0.035 C 
ENDBRANCH   1   2
BRANCH   1   4
ATOM      4  C   UNL     1      33.352 -22.983 -17.870  0.00  0.00    +0.142 C 
ATOM      5  C   UNL     1      32.356 -23.225 -16.756  0.00  0.00    +0.035 C 
ENDBRANCH   1   4
TORSDOF 2
ENDMDL
MODEL 2
REMARK VINA RESULT:      -3.3      1.114      1.761
REMARK  Name = 3283
REMARK  2 active torsions:
REMARK  status: ('A' for Active; 'I' for Inactive)
REMARK    1  A    between atoms: O_1  and  C_2
REMARK    2  A    between atoms: O_1  and  C_4
REMARK                            x       y       z     vdW  Elec       q    Type
REMARK                         _______ _______ _______ _____ _____    ______ ____
ROOT
ATOM      1  O   UNL     1      32.614 -20.864 -19.499  0.00  0.00    -0.354 OA
ENDROOT
BRANCH   1   2
ATOM      2  C   UNL     1      32.816 -19.976 -20.588  0.00  0.00    +0.142 C 
ATOM      3  C   UNL     1      34.302 -19.827 -20.833  0.00  0.00    +0.035 C 
ENDBRANCH   1   2
BRANCH   1   4
ATOM      4  C   UNL     1      33.691 -21.782 -19.365  0.00  0.00    +0.142 C 
ATOM      5  C   UNL     1      33.408 -22.707 -18.200  0.00  0.00    +0.035 C 
ENDBRANCH   1   4
TORSDOF 2
ENDMDL
MODEL 3
REMARK VINA RESULT:      -3.3      1.106      3.506
REMARK  Name = 3283
REMARK  2 active torsions:
REMARK  status: ('A' for Active; 'I' for Inactive)
REMARK    1  A    between atoms: O_1  and  C_2
REMARK    2  A    between atoms: O_1  and  C_4
REMARK                            x       y       z     vdW  Elec       q    Type
REMARK                         _______ _______ _______ _____ _____    ______ ____
ROOT
ATOM      1  O   UNL     1      32.631 -20.859 -19.476  0.00  0.00    -0.354 OA
ENDROOT
BRANCH   1   2
ATOM      2  C   UNL     1      33.691 -21.796 -19.354  0.00  0.00    +0.142 C 
ATOM      3  C   UNL     1      33.400 -22.721 -18.192  0.00  0.00    +0.035 C 
ENDBRANCH   1   2
BRANCH   1   4
ATOM      4  C   UNL     1      32.823 -19.993 -20.587  0.00  0.00    +0.142 C 
ATOM      5  C   UNL     1      34.308 -19.824 -20.830  0.00  0.00    +0.035 C 
ENDBRANCH   1   4
TORSDOF 2
ENDMDL
MODEL 4
REMARK VINA RESULT:      -3.2      3.139      3.337
REMARK  Name = 3283
REMARK  2 active torsions:
REMARK  status: ('A' for Active; 'I' for Inactive)
REMARK    1  A    between atoms: O_1  and  C_2
REMARK    2  A    between atoms: O_1  and  C_4
REMARK                            x       y       z     vdW  Elec       q    Type
REMARK                         _______ _______ _______ _____ _____    ______ ____
ROOT
ATOM      1  O   UNL     1      35.296 -19.813 -20.322  0.00  0.00    -0.354 OA
ENDROOT
BRANCH   1   2
ATOM      2  C   UNL     1      34.117 -19.430 -21.013  0.00  0.00    +0.142 C 
ATOM      3  C   UNL     1      32.940 -20.190 -20.439  0.00  0.00    +0.035 C 
ENDBRANCH   1   2
BRANCH   1   4
ATOM      4  C   UNL     1      35.203 -21.141 -19.824  0.00  0.00    +0.142 C 
ATOM      5  C   UNL     1      36.412 -21.429 -18.960  0.00  0.00    +0.035 C 
ENDBRANCH   1   4
TORSDOF 2
ENDMDL
MODEL 5
REMARK VINA RESULT:      -3.2      3.171      3.954
REMARK  Name = 3283
REMARK  2 active torsions:
REMARK  status: ('A' for Active; 'I' for Inactive)
REMARK    1  A    between atoms: O_1  and  C_2
REMARK    2  A    between atoms: O_1  and  C_4
REMARK                            x       y       z     vdW  Elec       q    Type
REMARK                         _______ _______ _______ _____ _____    ______ ____
ROOT
ATOM      1  O   UNL     1      35.437 -19.865 -20.190  0.00  0.00    -0.354 OA
ENDROOT
BRANCH   1   2
ATOM      2  C   UNL     1      35.917 -21.200 -20.138  0.00  0.00    +0.142 C 
ATOM      3  C   UNL     1      36.391 -21.499 -18.732  0.00  0.00    +0.035 C 
ENDBRANCH   1   2
BRANCH   1   4
ATOM      4  C   UNL     1      34.296 -19.752 -21.031  0.00  0.00    +0.142 C 
ATOM      5  C   UNL     1      33.095 -20.329 -20.312  0.00  0.00    +0.035 C 
ENDBRANCH   1   4
TORSDOF 2
ENDMDL
MODEL 6
REMARK VINA RESULT:      -3.2      3.310      4.389
REMARK  Name = 3283
REMARK  2 active torsions:
REMARK  status: ('A' for Active; 'I' for Inactive)
REMARK    1  A    between atoms: O_1  and  C_2
REMARK    2  A    between atoms: O_1  and  C_4
REMARK                            x       y       z     vdW  Elec       q    Type
REMARK                         _______ _______ _______ _____ _____    ______ ____
ROOT
ATOM      1  O   UNL     1      35.178 -19.255 -20.567  0.00  0.00    -0.354 OA
ENDROOT
BRANCH   1   2
ATOM      2  C   UNL     1      36.098 -18.571 -21.405  0.00  0.00    +0.142 C 
ATOM      3  C   UNL     1      35.530 -18.498 -22.805  0.00  0.00    +0.035 C 
ENDBRANCH   1   2
BRANCH   1   4
ATOM      4  C   UNL     1      33.931 -19.461 -21.218  0.00  0.00    +0.142 C 
ATOM      5  C   UNL     1      33.043 -20.302 -20.327  0.00  0.00    +0.035 C 
ENDBRANCH   1   4
TORSDOF 2
ENDMDL
MODEL 7
REMARK VINA RESULT:      -3.2      3.284      5.163
REMARK  Name = 3283
REMARK  2 active torsions:
REMARK  status: ('A' for Active; 'I' for Inactive)
REMARK    1  A    between atoms: O_1  and  C_2
REMARK    2  A    between atoms: O_1  and  C_4
REMARK                            x       y       z     vdW  Elec       q    Type
REMARK                         _______ _______ _______ _____ _____    ______ ____
ROOT
ATOM      1  O   UNL     1      35.038 -19.049 -20.626  0.00  0.00    -0.354 OA
ENDROOT
BRANCH   1   2
ATOM      2  C   UNL     1      33.816 -19.460 -21.221  0.00  0.00    +0.142 C 
ATOM      3  C   UNL     1      33.069 -20.348 -20.250  0.00  0.00    +0.035 C 
ENDBRANCH   1   2
BRANCH   1   4
ATOM      4  C   UNL     1      35.950 -18.548 -21.595  0.00  0.00    +0.142 C 
ATOM      5  C   UNL     1      35.321 -18.660 -22.967  0.00  0.00    +0.035 C 
ENDBRANCH   1   4
TORSDOF 2
ENDMDL
MODEL 8
REMARK VINA RESULT:      -3.2      4.249      5.791
REMARK  Name = 3283
REMARK  2 active torsions:
REMARK  status: ('A' for Active; 'I' for Inactive)
REMARK    1  A    between atoms: O_1  and  C_2
REMARK    2  A    between atoms: O_1  and  C_4
REMARK                            x       y       z     vdW  Elec       q    Type
REMARK                         _______ _______ _______ _____ _____    ______ ____
ROOT
ATOM      1  O   UNL     1      35.562 -17.952 -20.642  0.00  0.00    -0.354 OA
ENDROOT
BRANCH   1   2
ATOM      2  C   UNL     1      35.312 -19.287 -21.055  0.00  0.00    +0.142 C 
ATOM      3  C   UNL     1      33.831 -19.571 -20.937  0.00  0.00    +0.035 C 
ENDBRANCH   1   2
BRANCH   1   4
ATOM      4  C   UNL     1      34.924 -17.012 -21.497  0.00  0.00    +0.142 C 
ATOM      5  C   UNL     1      34.602 -15.764 -20.704  0.00  0.00    +0.035 C 
ENDBRANCH   1   4
TORSDOF 2
ENDMDL
MODEL 9
REMARK VINA RESULT:      -3.2      4.223      5.338
REMARK  Name = 3283
REMARK  2 active torsions:
REMARK  status: ('A' for Active; 'I' for Inactive)
REMARK    1  A    between atoms: O_1  and  C_2
REMARK    2  A    between atoms: O_1  and  C_4
REMARK                            x       y       z     vdW  Elec       q    Type
REMARK                         _______ _______ _______ _____ _____    ______ ____
ROOT
ATOM      1  O   UNL     1      35.499 -17.810 -20.633  0.00  0.00    -0.354 OA
ENDROOT
BRANCH   1   2
ATOM      2  C   UNL     1      34.895 -16.852 -21.489  0.00  0.00    +0.142 C 
ATOM      3  C   UNL     1      34.551 -15.618 -20.683  0.00  0.00    +0.035 C 
ENDBRANCH   1   2
BRANCH   1   4
ATOM      4  C   UNL     1      35.378 -19.127 -21.154  0.00  0.00    +0.142 C 
ATOM      5  C   UNL     1      33.989 -19.650 -20.855  0.00  0.00    +0.035 C 
ENDBRANCH   1   4
TORSDOF 2
ENDMDL
