MODEL 1
REMARK VINA RESULT:      -7.6      0.000      0.000
REMARK  Name = 123600
REMARK  8 active torsions:
REMARK  status: ('A' for Active; 'I' for Inactive)
REMARK    1  A    between atoms: C_1  and  C_2
REMARK    2  A    between atoms: C_1  and  O_13
REMARK    3  A    between atoms: C_1  and  C_15
REMARK    4  A    between atoms: C_5  and  C_10
REMARK    5  A    between atoms: C_6  and  O_8
REMARK    6  A    between atoms: C_10  and  O_11
REMARK    7  A    between atoms: C_15  and  N_16
REMARK    8  A    between atoms: N_16  and  C_19
REMARK                            x       y       z     vdW  Elec       q    Type
REMARK                         _______ _______ _______ _____ _____    ______ ____
ROOT
ATOM      1  C   UNL     1      35.379 -18.387 -22.306  0.00  0.00    +0.112 C 
ENDROOT
BRANCH   1   2
ATOM      2  C   UNL     1      34.734 -19.389 -21.374  0.00  0.00    +0.002 C 
ATOM      3  C   UNL     1      35.536 -20.155 -20.544  0.00  0.00    -0.001 C 
ATOM      4  C   UNL     1      33.357 -19.519 -21.370  0.00  0.00    +0.001 C 
ATOM      5  C   UNL     1      34.941 -21.079 -19.685  0.00  0.00    +0.040 C 
ATOM      6  C   UNL     1      33.554 -21.223 -19.668  0.00  0.00    +0.132 C 
ATOM      7  C   UNL     1      32.762 -20.442 -20.510  0.00  0.00    +0.036 C 
BRANCH   6   8
ATOM      8  O   UNL     1      32.957 -22.120 -18.835  0.00  0.00    -0.506 OA
ATOM      9  H   UNL     1      32.351 -21.825 -18.184  0.00  0.00    +0.292 HD
ENDBRANCH   6   8
BRANCH   5  10
ATOM     10  C   UNL     1      35.805 -21.905 -18.790  0.00  0.00    +0.167 C 
BRANCH  10  11
ATOM     11  O   UNL     1      36.741 -21.062 -18.130  0.00  0.00    -0.377 OA
ATOM     12  H   UNL     1      36.823 -21.334 -17.203  0.00  0.00    +0.211 HD
ENDBRANCH  10  11
ENDBRANCH   5  10
ENDBRANCH   1   2
BRANCH   1  13
ATOM     13  O   UNL     1      34.797 -18.543 -23.599  0.00  0.00    -0.382 OA
ATOM     14  H   UNL     1      35.493 -18.749 -24.243  0.00  0.00    +0.211 HD
ENDBRANCH   1  13
BRANCH   1  15
ATOM     15  C   UNL     1      35.187 -16.950 -21.806  0.00  0.00    -0.047 C 
BRANCH  15  16
ATOM     16  N   UNL     1      34.053 -16.322 -22.463  0.00  0.00    +0.388 N 
ATOM     17  H   UNL     1      34.373 -15.854 -23.311  0.00  0.00    -0.084 HD
ATOM     18  H   UNL     1      33.367 -17.041 -22.695  0.00  0.00    -0.084 HD
BRANCH  16  19
ATOM     19  C   UNL     1      33.424 -15.337 -21.576  0.00  0.00    -0.046 C 
ATOM     20  C   UNL     1      34.495 -14.769 -20.639  0.00  0.00    -0.022 C 
ATOM     21  C   UNL     1      32.829 -14.217 -22.436  0.00  0.00    -0.022 C 
ATOM     22  C   UNL     1      32.319 -16.020 -20.761  0.00  0.00    -0.022 C 
ENDBRANCH  16  19
ENDBRANCH  15  16
ENDBRANCH   1  15
TORSDOF 8
ENDMDL
MODEL 2
REMARK VINA RESULT:      -7.3      3.125      7.077
REMARK  Name = 123600
REMARK  8 active torsions:
REMARK  status: ('A' for Active; 'I' for Inactive)
REMARK    1  A    between atoms: C_1  and  C_2
REMARK    2  A    between atoms: C_1  and  O_13
REMARK    3  A    between atoms: C_1  and  C_15
REMARK    4  A    between atoms: C_5  and  C_10
REMARK    5  A    between atoms: C_6  and  O_8
REMARK    6  A    between atoms: C_10  and  O_11
REMARK    7  A    between atoms: C_15  and  N_16
REMARK    8  A    between atoms: N_16  and  C_19
REMARK                            x       y       z     vdW  Elec       q    Type
REMARK                         _______ _______ _______ _____ _____    ______ ____
ROOT
ATOM      1  C   UNL     1      34.929 -15.872 -21.481  0.00  0.00    +0.112 C 
ENDROOT
BRANCH   1   2
ATOM      2  C   UNL     1      34.415 -15.254 -22.763  0.00  0.00    +0.002 C 
ATOM      3  C   UNL     1      34.231 -13.883 -22.826  0.00  0.00    -0.001 C 
ATOM      4  C   UNL     1      34.139 -16.072 -23.844  0.00  0.00    +0.001 C 
ATOM      5  C   UNL     1      33.756 -13.313 -24.007  0.00  0.00    +0.040 C 
ATOM      6  C   UNL     1      33.473 -14.123 -25.107  0.00  0.00    +0.132 C 
ATOM      7  C   UNL     1      33.665 -15.502 -25.025  0.00  0.00    +0.036 C 
BRANCH   6   8
ATOM      8  O   UNL     1      33.009 -13.582 -26.268  0.00  0.00    -0.506 OA
ATOM      9  H   UNL     1      32.118 -13.717 -26.525  0.00  0.00    +0.292 HD
ENDBRANCH   6   8
BRANCH   5  10
ATOM     10  C   UNL     1      33.558 -11.835 -24.077  0.00  0.00    +0.167 C 
BRANCH  10  11
ATOM     11  O   UNL     1      34.600 -11.257 -24.854  0.00  0.00    -0.377 OA
ATOM     12  H   UNL     1      34.845 -10.397 -24.478  0.00  0.00    +0.211 HD
ENDBRANCH  10  11
ENDBRANCH   5  10
ENDBRANCH   1   2
BRANCH   1  13
ATOM     13  O   UNL     1      34.745 -14.929 -20.427  0.00  0.00    -0.382 OA
ATOM     14  H   UNL     1      33.919 -14.442 -20.570  0.00  0.00    +0.211 HD
ENDBRANCH   1  13
BRANCH   1  15
ATOM     15  C   UNL     1      34.200 -17.182 -21.157  0.00  0.00    -0.047 C 
BRANCH  15  16
ATOM     16  N   UNL     1      35.140 -18.207 -20.738  0.00  0.00    +0.388 N 
ATOM     17  H   UNL     1      36.061 -17.995 -21.123  0.00  0.00    -0.084 HD
ATOM     18  H   UNL     1      35.179 -18.222 -19.719  0.00  0.00    -0.084 HD
BRANCH  16  19
ATOM     19  C   UNL     1      34.711 -19.526 -21.215  0.00  0.00    -0.046 C 
ATOM     20  C   UNL     1      34.836 -19.558 -22.742  0.00  0.00    -0.022 C 
ATOM     21  C   UNL     1      35.621 -20.589 -20.590  0.00  0.00    -0.022 C 
ATOM     22  C   UNL     1      33.255 -19.768 -20.800  0.00  0.00    -0.022 C 
ENDBRANCH  16  19
ENDBRANCH  15  16
ENDBRANCH   1  15
TORSDOF 8
ENDMDL
MODEL 3
REMARK VINA RESULT:      -7.3      0.816      2.298
REMARK  Name = 123600
REMARK  8 active torsions:
REMARK  status: ('A' for Active; 'I' for Inactive)
REMARK    1  A    between atoms: C_1  and  C_2
REMARK    2  A    between atoms: C_1  and  O_13
REMARK    3  A    between atoms: C_1  and  C_15
REMARK    4  A    between atoms: C_5  and  C_10
REMARK    5  A    between atoms: C_6  and  O_8
REMARK    6  A    between atoms: C_10  and  O_11
REMARK    7  A    between atoms: C_15  and  N_16
REMARK    8  A    between atoms: N_16  and  C_19
REMARK                            x       y       z     vdW  Elec       q    Type
REMARK                         _______ _______ _______ _____ _____    ______ ____
ROOT
ATOM      1  C   UNL     1      35.507 -17.918 -22.768  0.00  0.00    +0.112 C 
ENDROOT
BRANCH   1   2
ATOM      2  C   UNL     1      35.502 -18.965 -21.675  0.00  0.00    +0.002 C 
ATOM      3  C   UNL     1      34.293 -19.468 -21.226  0.00  0.00    -0.001 C 
ATOM      4  C   UNL     1      36.706 -19.397 -21.148  0.00  0.00    +0.001 C 
ATOM      5  C   UNL     1      34.289 -20.433 -20.218  0.00  0.00    +0.040 C 
ATOM      6  C   UNL     1      35.494 -20.880 -19.676  0.00  0.00    +0.132 C 
ATOM      7  C   UNL     1      36.703 -20.362 -20.142  0.00  0.00    +0.036 C 
BRANCH   6   8
ATOM      8  O   UNL     1      35.508 -21.822 -18.692  0.00  0.00    -0.506 OA
ATOM      9  H   UNL     1      35.732 -21.580 -17.815  0.00  0.00    +0.292 HD
ENDBRANCH   6   8
BRANCH   5  10
ATOM     10  C   UNL     1      32.986 -20.978 -19.734  0.00  0.00    +0.167 C 
BRANCH  10  11
ATOM     11  O   UNL     1      33.033 -22.399 -19.756  0.00  0.00    -0.377 OA
ATOM     12  H   UNL     1      33.575 -22.716 -19.016  0.00  0.00    +0.211 HD
ENDBRANCH  10  11
ENDBRANCH   5  10
ENDBRANCH   1   2
BRANCH   1  13
ATOM     13  O   UNL     1      34.534 -18.288 -23.743  0.00  0.00    -0.382 OA
ATOM     14  H   UNL     1      33.675 -18.415 -23.311  0.00  0.00    +0.211 HD
ENDBRANCH   1  13
BRANCH   1  15
ATOM     15  C   UNL     1      35.195 -16.523 -22.210  0.00  0.00    -0.047 C 
BRANCH  15  16
ATOM     16  N   UNL     1      33.850 -16.111 -22.572  0.00  0.00    +0.388 N 
ATOM     17  H   UNL     1      33.884 -15.577 -23.441  0.00  0.00    -0.084 HD
ATOM     18  H   UNL     1      33.272 -16.942 -22.692  0.00  0.00    -0.084 HD
BRANCH  16  19
ATOM     19  C   UNL     1      33.265 -15.277 -21.517  0.00  0.00    -0.046 C 
ATOM     20  C   UNL     1      32.247 -16.117 -20.738  0.00  0.00    -0.022 C 
ATOM     21  C   UNL     1      34.388 -14.812 -20.583  0.00  0.00    -0.022 C 
ATOM     22  C   UNL     1      32.572 -14.065 -22.152  0.00  0.00    -0.022 C 
ENDBRANCH  16  19
ENDBRANCH  15  16
ENDBRANCH   1  15
TORSDOF 8
ENDMDL
MODEL 4
REMARK VINA RESULT:      -7.2      3.207      7.184
REMARK  Name = 123600
REMARK  8 active torsions:
REMARK  status: ('A' for Active; 'I' for Inactive)
REMARK    1  A    between atoms: C_1  and  C_2
REMARK    2  A    between atoms: C_1  and  O_13
REMARK    3  A    between atoms: C_1  and  C_15
REMARK    4  A    between atoms: C_5  and  C_10
REMARK    5  A    between atoms: C_6  and  O_8
REMARK    6  A    between atoms: C_10  and  O_11
REMARK    7  A    between atoms: C_15  and  N_16
REMARK    8  A    between atoms: N_16  and  C_19
REMARK                            x       y       z     vdW  Elec       q    Type
REMARK                         _______ _______ _______ _____ _____    ______ ____
ROOT
ATOM      1  C   UNL     1      34.453 -16.201 -22.869  0.00  0.00    +0.112 C 
ENDROOT
BRANCH   1   2
ATOM      2  C   UNL     1      33.773 -14.851 -22.795  0.00  0.00    +0.002 C 
ATOM      3  C   UNL     1      34.106 -13.874 -23.719  0.00  0.00    -0.001 C 
ATOM      4  C   UNL     1      32.833 -14.621 -21.806  0.00  0.00    +0.001 C 
ATOM      5  C   UNL     1      33.480 -12.630 -23.650  0.00  0.00    +0.040 C 
ATOM      6  C   UNL     1      32.530 -12.381 -22.660  0.00  0.00    +0.132 C 
ATOM      7  C   UNL     1      32.206 -13.377 -21.739  0.00  0.00    +0.036 C 
BRANCH   6   8
ATOM      8  O   UNL     1      31.908 -11.171 -22.580  0.00  0.00    -0.506 OA
ATOM      9  H   UNL     1      31.516 -10.794 -23.343  0.00  0.00    +0.292 HD
ENDBRANCH   6   8
BRANCH   5  10
ATOM     10  C   UNL     1      33.838 -11.577 -24.646  0.00  0.00    +0.167 C 
BRANCH  10  11
ATOM     11  O   UNL     1      34.637 -10.584 -24.014  0.00  0.00    -0.377 OA
ATOM     12  H   UNL     1      34.150  -9.746 -23.987  0.00  0.00    +0.211 HD
ENDBRANCH  10  11
ENDBRANCH   5  10
ENDBRANCH   1   2
BRANCH   1  13
ATOM     13  O   UNL     1      35.634 -16.062 -23.656  0.00  0.00    -0.382 OA
ATOM     14  H   UNL     1      36.321 -15.620 -23.132  0.00  0.00    +0.211 HD
ENDBRANCH   1  13
BRANCH   1  15
ATOM     15  C   UNL     1      34.804 -16.730 -21.472  0.00  0.00    -0.047 C 
BRANCH  15  16
ATOM     16  N   UNL     1      34.044 -17.930 -21.169  0.00  0.00    +0.388 N 
ATOM     17  H   UNL     1      33.762 -17.911 -20.189  0.00  0.00    -0.084 HD
ATOM     18  H   UNL     1      33.221 -17.960 -21.771  0.00  0.00    -0.084 HD
BRANCH  16  19
ATOM     19  C   UNL     1      34.853 -19.129 -21.414  0.00  0.00    -0.046 C 
ATOM     20  C   UNL     1      34.312 -20.269 -20.545  0.00  0.00    -0.022 C 
ATOM     21  C   UNL     1      34.740 -19.498 -22.897  0.00  0.00    -0.022 C 
ATOM     22  C   UNL     1      36.315 -18.838 -21.053  0.00  0.00    -0.022 C 
ENDBRANCH  16  19
ENDBRANCH  15  16
ENDBRANCH   1  15
TORSDOF 8
ENDMDL
MODEL 5
REMARK VINA RESULT:      -7.2      4.958      8.839
REMARK  Name = 123600
REMARK  8 active torsions:
REMARK  status: ('A' for Active; 'I' for Inactive)
REMARK    1  A    between atoms: C_1  and  C_2
REMARK    2  A    between atoms: C_1  and  O_13
REMARK    3  A    between atoms: C_1  and  C_15
REMARK    4  A    between atoms: C_5  and  C_10
REMARK    5  A    between atoms: C_6  and  O_8
REMARK    6  A    between atoms: C_10  and  O_11
REMARK    7  A    between atoms: C_15  and  N_16
REMARK    8  A    between atoms: N_16  and  C_19
REMARK                            x       y       z     vdW  Elec       q    Type
REMARK                         _______ _______ _______ _____ _____    ______ ____
ROOT
ATOM      1  C   UNL     1      36.115 -23.049 -15.252  0.00  0.00    +0.112 C 
ENDROOT
BRANCH   1   2
ATOM      2  C   UNL     1      35.300 -22.802 -16.503  0.00  0.00    +0.002 C 
ATOM      3  C   UNL     1      35.892 -22.166 -17.582  0.00  0.00    -0.001 C 
ATOM      4  C   UNL     1      33.980 -23.215 -16.542  0.00  0.00    +0.001 C 
ATOM      5  C   UNL     1      35.140 -21.938 -18.734  0.00  0.00    +0.040 C 
ATOM      6  C   UNL     1      33.808 -22.349 -18.791  0.00  0.00    +0.132 C 
ATOM      7  C   UNL     1      33.228 -22.988 -17.695  0.00  0.00    +0.036 C 
BRANCH   6   8
ATOM      8  O   UNL     1      33.060 -22.134 -19.909  0.00  0.00    -0.506 OA
ATOM      9  H   UNL     1      33.007 -22.794 -20.572  0.00  0.00    +0.292 HD
ENDBRANCH   6   8
BRANCH   5  10
ATOM     10  C   UNL     1      35.777 -21.254 -19.898  0.00  0.00    +0.167 C 
BRANCH  10  11
ATOM     11  O   UNL     1      35.089 -20.038 -20.164  0.00  0.00    -0.377 OA
ATOM     12  H   UNL     1      34.761 -19.664 -19.331  0.00  0.00    +0.211 HD
ENDBRANCH  10  11
ENDBRANCH   5  10
ENDBRANCH   1   2
BRANCH   1  13
ATOM     13  O   UNL     1      35.280 -22.809 -14.121  0.00  0.00    -0.382 OA
ATOM     14  H   UNL     1      35.772 -23.006 -13.309  0.00  0.00    +0.211 HD
ENDBRANCH   1  13
BRANCH   1  15
ATOM     15  C   UNL     1      36.664 -24.480 -15.214  0.00  0.00    -0.047 C 
BRANCH  15  16
ATOM     16  N   UNL     1      38.116 -24.477 -15.239  0.00  0.00    +0.388 N 
ATOM     17  H   UNL     1      38.436 -24.700 -16.182  0.00  0.00    -0.084 HD
ATOM     18  H   UNL     1      38.449 -23.554 -14.964  0.00  0.00    -0.084 HD
BRANCH  16  19
ATOM     19  C   UNL     1      38.651 -25.472 -14.302  0.00  0.00    -0.046 C 
ATOM     20  C   UNL     1      40.106 -25.767 -14.682  0.00  0.00    -0.022 C 
ATOM     21  C   UNL     1      38.584 -24.891 -12.886  0.00  0.00    -0.022 C 
ATOM     22  C   UNL     1      37.813 -26.753 -14.387  0.00  0.00    -0.022 C 
ENDBRANCH  16  19
ENDBRANCH  15  16
ENDBRANCH   1  15
TORSDOF 8
ENDMDL
MODEL 6
REMARK VINA RESULT:      -7.2      2.476      4.463
REMARK  Name = 123600
REMARK  8 active torsions:
REMARK  status: ('A' for Active; 'I' for Inactive)
REMARK    1  A    between atoms: C_1  and  C_2
REMARK    2  A    between atoms: C_1  and  O_13
REMARK    3  A    between atoms: C_1  and  C_15
REMARK    4  A    between atoms: C_5  and  C_10
REMARK    5  A    between atoms: C_6  and  O_8
REMARK    6  A    between atoms: C_10  and  O_11
REMARK    7  A    between atoms: C_15  and  N_16
REMARK    8  A    between atoms: N_16  and  C_19
REMARK                            x       y       z     vdW  Elec       q    Type
REMARK                         _______ _______ _______ _____ _____    ______ ____
ROOT
ATOM      1  C   UNL     1      33.940 -21.845 -19.565  0.00  0.00    +0.112 C 
ENDROOT
BRANCH   1   2
ATOM      2  C   UNL     1      34.446 -22.332 -18.225  0.00  0.00    +0.002 C 
ATOM      3  C   UNL     1      35.733 -22.007 -17.829  0.00  0.00    -0.001 C 
ATOM      4  C   UNL     1      33.613 -23.091 -17.423  0.00  0.00    +0.001 C 
ATOM      5  C   UNL     1      36.200 -22.457 -16.594  0.00  0.00    +0.040 C 
ATOM      6  C   UNL     1      35.373 -23.224 -15.773  0.00  0.00    +0.132 C 
ATOM      7  C   UNL     1      34.079 -23.540 -16.187  0.00  0.00    +0.036 C 
BRANCH   6   8
ATOM      8  O   UNL     1      35.813 -23.670 -14.564  0.00  0.00    -0.506 OA
ATOM      9  H   UNL     1      36.189 -23.069 -13.950  0.00  0.00    +0.292 HD
ENDBRANCH   6   8
BRANCH   5  10
ATOM     10  C   UNL     1      37.587 -22.107 -16.166  0.00  0.00    +0.167 C 
BRANCH  10  11
ATOM     11  O   UNL     1      38.339 -23.300 -15.986  0.00  0.00    -0.377 OA
ATOM     12  H   UNL     1      39.277 -23.119 -16.155  0.00  0.00    +0.211 HD
ENDBRANCH  10  11
ENDBRANCH   5  10
ENDBRANCH   1   2
BRANCH   1  13
ATOM     13  O   UNL     1      32.639 -21.292 -19.375  0.00  0.00    -0.382 OA
ATOM     14  H   UNL     1      31.969 -21.968 -19.565  0.00  0.00    +0.211 HD
ENDBRANCH   1  13
BRANCH   1  15
ATOM     15  C   UNL     1      34.879 -20.796 -20.172  0.00  0.00    -0.047 C 
BRANCH  15  16
ATOM     16  N   UNL     1      34.128 -19.657 -20.671  0.00  0.00    +0.388 N 
ATOM     17  H   UNL     1      33.338 -19.991 -21.224  0.00  0.00    -0.084 HD
ATOM     18  H   UNL     1      33.796 -19.108 -19.878  0.00  0.00    -0.084 HD
BRANCH  16  19
ATOM     19  C   UNL     1      34.978 -18.806 -21.511  0.00  0.00    -0.046 C 
ATOM     20  C   UNL     1      34.536 -17.349 -21.336  0.00  0.00    -0.022 C 
ATOM     21  C   UNL     1      36.433 -18.973 -21.059  0.00  0.00    -0.022 C 
ATOM     22  C   UNL     1      34.830 -19.230 -22.978  0.00  0.00    -0.022 C 
ENDBRANCH  16  19
ENDBRANCH  15  16
ENDBRANCH   1  15
TORSDOF 8
ENDMDL
MODEL 7
REMARK VINA RESULT:      -7.1      3.406      7.109
REMARK  Name = 123600
REMARK  8 active torsions:
REMARK  status: ('A' for Active; 'I' for Inactive)
REMARK    1  A    between atoms: C_1  and  C_2
REMARK    2  A    between atoms: C_1  and  O_13
REMARK    3  A    between atoms: C_1  and  C_15
REMARK    4  A    between atoms: C_5  and  C_10
REMARK    5  A    between atoms: C_6  and  O_8
REMARK    6  A    between atoms: C_10  and  O_11
REMARK    7  A    between atoms: C_15  and  N_16
REMARK    8  A    between atoms: N_16  and  C_19
REMARK                            x       y       z     vdW  Elec       q    Type
REMARK                         _______ _______ _______ _____ _____    ______ ____
ROOT
ATOM      1  C   UNL     1      34.277 -17.640 -24.470  0.00  0.00    +0.112 C 
ENDROOT
BRANCH   1   2
ATOM      2  C   UNL     1      34.062 -16.143 -24.446  0.00  0.00    +0.002 C 
ATOM      3  C   UNL     1      33.610 -15.506 -25.590  0.00  0.00    -0.001 C 
ATOM      4  C   UNL     1      34.321 -15.441 -23.282  0.00  0.00    +0.001 C 
ATOM      5  C   UNL     1      33.412 -14.126 -25.569  0.00  0.00    +0.040 C 
ATOM      6  C   UNL     1      33.669 -13.403 -24.403  0.00  0.00    +0.132 C 
ATOM      7  C   UNL     1      34.123 -14.061 -23.260  0.00  0.00    +0.036 C 
BRANCH   6   8
ATOM      8  O   UNL     1      33.480 -12.054 -24.365  0.00  0.00    -0.506 OA
ATOM      9  H   UNL     1      33.874 -11.544 -23.684  0.00  0.00    +0.292 HD
ENDBRANCH   6   8
BRANCH   5  10
ATOM     10  C   UNL     1      32.924 -13.439 -26.801  0.00  0.00    +0.167 C 
BRANCH  10  11
ATOM     11  O   UNL     1      33.902 -13.560 -27.826  0.00  0.00    -0.377 OA
ATOM     12  H   UNL     1      34.609 -12.912 -27.676  0.00  0.00    +0.211 HD
ENDBRANCH  10  11
ENDBRANCH   5  10
ENDBRANCH   1   2
BRANCH   1  13
ATOM     13  O   UNL     1      34.741 -18.003 -25.769  0.00  0.00    -0.382 OA
ATOM     14  H   UNL     1      34.603 -17.262 -26.380  0.00  0.00    +0.211 HD
ENDBRANCH   1  13
BRANCH   1  15
ATOM     15  C   UNL     1      35.288 -18.079 -23.403  0.00  0.00    -0.047 C 
BRANCH  15  16
ATOM     16  N   UNL     1      34.900 -19.351 -22.817  0.00  0.00    +0.388 N 
ATOM     17  H   UNL     1      33.986 -19.623 -23.178  0.00  0.00    -0.084 HD
ATOM     18  H   UNL     1      35.599 -20.053 -23.062  0.00  0.00    -0.084 HD
BRANCH  16  19
ATOM     19  C   UNL     1      34.829 -19.245 -21.355  0.00  0.00    -0.046 C 
ATOM     20  C   UNL     1      35.301 -17.847 -20.943  0.00  0.00    -0.022 C 
ATOM     21  C   UNL     1      33.374 -19.458 -20.922  0.00  0.00    -0.022 C 
ATOM     22  C   UNL     1      35.729 -20.314 -20.723  0.00  0.00    -0.022 C 
ENDBRANCH  16  19
ENDBRANCH  15  16
ENDBRANCH   1  15
TORSDOF 8
ENDMDL
MODEL 8
REMARK VINA RESULT:      -7.0      6.919     10.888
REMARK  Name = 123600
REMARK  8 active torsions:
REMARK  status: ('A' for Active; 'I' for Inactive)
REMARK    1  A    between atoms: C_1  and  C_2
REMARK    2  A    between atoms: C_1  and  O_13
REMARK    3  A    between atoms: C_1  and  C_15
REMARK    4  A    between atoms: C_5  and  C_10
REMARK    5  A    between atoms: C_6  and  O_8
REMARK    6  A    between atoms: C_10  and  O_11
REMARK    7  A    between atoms: C_15  and  N_16
REMARK    8  A    between atoms: N_16  and  C_19
REMARK                            x       y       z     vdW  Elec       q    Type
REMARK                         _______ _______ _______ _____ _____    ______ ____
ROOT
ATOM      1  C   UNL     1      34.003  -9.873 -24.253  0.00  0.00    +0.112 C 
ENDROOT
BRANCH   1   2
ATOM      2  C   UNL     1      33.452  -8.648 -23.557  0.00  0.00    +0.002 C 
ATOM      3  C   UNL     1      33.074  -8.738 -22.228  0.00  0.00    -0.001 C 
ATOM      4  C   UNL     1      33.337  -7.464 -24.264  0.00  0.00    +0.001 C 
ATOM      5  C   UNL     1      32.565  -7.608 -21.586  0.00  0.00    +0.040 C 
ATOM      6  C   UNL     1      32.443  -6.406 -22.284  0.00  0.00    +0.132 C 
ATOM      7  C   UNL     1      32.829  -6.334 -23.622  0.00  0.00    +0.036 C 
BRANCH   6   8
ATOM      8  O   UNL     1      31.948  -5.294 -21.672  0.00  0.00    -0.506 OA
ATOM      9  H   UNL     1      31.233  -4.826 -22.057  0.00  0.00    +0.292 HD
ENDBRANCH   6   8
BRANCH   5  10
ATOM     10  C   UNL     1      32.158  -7.704 -20.153  0.00  0.00    +0.167 C 
BRANCH  10  11
ATOM     11  O   UNL     1      33.063  -6.949 -19.356  0.00  0.00    -0.377 OA
ATOM     12  H   UNL     1      33.632  -7.554 -18.854  0.00  0.00    +0.211 HD
ENDBRANCH  10  11
ENDBRANCH   5  10
ENDBRANCH   1   2
BRANCH   1  13
ATOM     13  O   UNL     1      35.414  -9.906 -24.047  0.00  0.00    -0.382 OA
ATOM     14  H   UNL     1      35.705  -9.061 -23.669  0.00  0.00    +0.211 HD
ENDBRANCH   1  13
BRANCH   1  15
ATOM     15  C   UNL     1      33.359 -11.159 -23.720  0.00  0.00    -0.047 C 
BRANCH  15  16
ATOM     16  N   UNL     1      34.191 -12.313 -24.013  0.00  0.00    +0.388 N 
ATOM     17  H   UNL     1      34.429 -12.313 -25.005  0.00  0.00    -0.084 HD
ATOM     18  H   UNL     1      35.038 -12.261 -23.448  0.00  0.00    -0.084 HD
BRANCH  16  19
ATOM     19  C   UNL     1      33.482 -13.556 -23.689  0.00  0.00    -0.046 C 
ATOM     20  C   UNL     1      32.263 -13.212 -22.826  0.00  0.00    -0.022 C 
ATOM     21  C   UNL     1      33.032 -14.216 -24.996  0.00  0.00    -0.022 C 
ATOM     22  C   UNL     1      34.424 -14.493 -22.922  0.00  0.00    -0.022 C 
ENDBRANCH  16  19
ENDBRANCH  15  16
ENDBRANCH   1  15
TORSDOF 8
ENDMDL
MODEL 9
REMARK VINA RESULT:      -7.0      7.701      9.156
REMARK  Name = 123600
REMARK  8 active torsions:
REMARK  status: ('A' for Active; 'I' for Inactive)
REMARK    1  A    between atoms: C_1  and  C_2
REMARK    2  A    between atoms: C_1  and  O_13
REMARK    3  A    between atoms: C_1  and  C_15
REMARK    4  A    between atoms: C_5  and  C_10
REMARK    5  A    between atoms: C_6  and  O_8
REMARK    6  A    between atoms: C_10  and  O_11
REMARK    7  A    between atoms: C_15  and  N_16
REMARK    8  A    between atoms: N_16  and  C_19
REMARK                            x       y       z     vdW  Elec       q    Type
REMARK                         _______ _______ _______ _____ _____    ______ ____
ROOT
ATOM      1  C   UNL     1      33.810 -24.039 -13.736  0.00  0.00    +0.112 C 
ENDROOT
BRANCH   1   2
ATOM      2  C   UNL     1      35.228 -23.987 -14.261  0.00  0.00    +0.002 C 
ATOM      3  C   UNL     1      36.173 -24.859 -13.746  0.00  0.00    -0.001 C 
ATOM      4  C   UNL     1      35.552 -23.068 -15.244  0.00  0.00    +0.001 C 
ATOM      5  C   UNL     1      37.480 -24.811 -14.230  0.00  0.00    +0.040 C 
ATOM      6  C   UNL     1      37.823 -23.891 -15.221  0.00  0.00    +0.132 C 
ATOM      7  C   UNL     1      36.859 -23.020 -15.728  0.00  0.00    +0.036 C 
BRANCH   6   8
ATOM      8  O   UNL     1      39.095 -23.831 -15.704  0.00  0.00    -0.506 OA
ATOM      9  H   UNL     1      39.319 -23.197 -16.358  0.00  0.00    +0.292 HD
ENDBRANCH   6   8
BRANCH   5  10
ATOM     10  C   UNL     1      38.499 -25.751 -13.676  0.00  0.00    +0.167 C 
BRANCH  10  11
ATOM     11  O   UNL     1      38.856 -26.698 -14.676  0.00  0.00    -0.377 OA
ATOM     12  H   UNL     1      39.796 -26.595 -14.897  0.00  0.00    +0.211 HD
ENDBRANCH  10  11
ENDBRANCH   5  10
ENDBRANCH   1   2
BRANCH   1  13
ATOM     13  O   UNL     1      33.810 -23.535 -12.402  0.00  0.00    -0.382 OA
ATOM     14  H   UNL     1      33.014 -22.999 -12.259  0.00  0.00    +0.211 HD
ENDBRANCH   1  13
BRANCH   1  15
ATOM     15  C   UNL     1      32.856 -23.220 -14.613  0.00  0.00    -0.047 C 
BRANCH  15  16
ATOM     16  N   UNL     1      31.482 -23.377 -14.168  0.00  0.00    +0.388 N 
ATOM     17  H   UNL     1      31.410 -24.214 -13.589  0.00  0.00    -0.084 HD
ATOM     18  H   UNL     1      31.213 -22.553 -13.631  0.00  0.00    -0.084 HD
BRANCH  16  19
ATOM     19  C   UNL     1      30.579 -23.506 -15.317  0.00  0.00    -0.046 C 
ATOM     20  C   UNL     1      29.378 -22.578 -15.102  0.00  0.00    -0.022 C 
ATOM     21  C   UNL     1      31.340 -23.098 -16.583  0.00  0.00    -0.022 C 
ATOM     22  C   UNL     1      30.107 -24.961 -15.432  0.00  0.00    -0.022 C 
ENDBRANCH  16  19
ENDBRANCH  15  16
ENDBRANCH   1  15
TORSDOF 8
ENDMDL
