MODEL 1
REMARK VINA RESULT:      -9.1      0.000      0.000
REMARK  Name = 46937068
REMARK  2 active torsions:
REMARK  status: ('A' for Active; 'I' for Inactive)
REMARK    1  A    between atoms: C_7  and  C_20
REMARK    2  A    between atoms: C_20  and  C_21
REMARK                            x       y       z     vdW  Elec       q    Type
REMARK                         _______ _______ _______ _____ _____    ______ ____
ROOT
ATOM      1  O   UNL     1      37.259 -23.183 -15.410  0.00  0.00    -0.272 OA
ATOM      2  O   UNL     1      33.618 -24.628 -12.764  0.00  0.00    -0.272 OA
ATOM      3  N   UNL     1      34.907 -23.260 -15.711  0.00  0.00    -0.174 N 
ATOM      4  N   UNL     1      33.829 -23.688 -14.931  0.00  0.00    -0.138 N 
ATOM      5  N   UNL     1      31.491 -24.033 -14.647  0.00  0.00    -0.267 N 
ATOM      6  N   UNL     1      32.281 -23.131 -16.639  0.00  0.00    -0.374 NA
ATOM      7  C   UNL     1      35.777 -24.002 -13.687  0.00  0.00    +0.161 C 
ATOM      8  C   UNL     1      36.120 -23.427 -15.045  0.00  0.00    +0.254 C 
ATOM      9  C   UNL     1      34.275 -24.167 -13.685  0.00  0.00    +0.257 C 
ATOM     10  C   UNL     1      34.680 -22.748 -17.003  0.00  0.00    +0.099 C 
ATOM     11  C   UNL     1      32.524 -23.603 -15.444  0.00  0.00    +0.264 C 
ATOM     12  C   UNL     1      33.348 -22.695 -17.442  0.00  0.00    +0.132 C 
ATOM     13  C   UNL     1      35.703 -22.301 -17.846  0.00  0.00    +0.014 C 
ATOM     14  C   UNL     1      33.060 -22.196 -18.718  0.00  0.00    +0.086 C 
ATOM     15  C   UNL     1      35.402 -21.805 -19.116  0.00  0.00    -0.024 C 
ATOM     16  C   UNL     1      34.082 -21.751 -19.552  0.00  0.00    -0.023 C 
ATOM     17  C   UNL     1      30.883 -25.324 -14.869  0.00  0.00    +0.116 C 
ATOM     18  C   UNL     1      30.828 -23.117 -13.748  0.00  0.00    +0.116 C 
ATOM     19  C   UNL     1      36.499 -21.329 -20.009  0.00  0.00    +0.031 C 
ENDROOT
BRANCH   7  20
ATOM     20  C   UNL     1      36.477 -25.327 -13.452  0.00  0.00    +0.044 C 
BRANCH  20  21
ATOM     21  C   UNL     1      37.510 -25.221 -12.369  0.00  0.00    -0.025 C 
ATOM     22  C   UNL     1      38.080 -24.073 -11.988  0.00  0.00    -0.005 C 
ENDBRANCH  20  21
ENDBRANCH   7  20
TORSDOF 2
ENDMDL
MODEL 2
REMARK VINA RESULT:      -8.4      9.495     12.666
REMARK  Name = 46937068
REMARK  2 active torsions:
REMARK  status: ('A' for Active; 'I' for Inactive)
REMARK    1  A    between atoms: C_7  and  C_20
REMARK    2  A    between atoms: C_20  and  C_21
REMARK                            x       y       z     vdW  Elec       q    Type
REMARK                         _______ _______ _______ _____ _____    ______ ____
ROOT
ATOM      1  O   UNL     1      33.772 -15.039 -20.764  0.00  0.00    -0.272 OA
ATOM      2  O   UNL     1      32.756 -12.030 -24.266  0.00  0.00    -0.272 OA
ATOM      3  N   UNL     1      33.773 -15.177 -23.133  0.00  0.00    -0.174 N 
ATOM      4  N   UNL     1      33.472 -14.289 -24.170  0.00  0.00    -0.138 N 
ATOM      5  N   UNL     1      33.263 -13.820 -26.494  0.00  0.00    -0.267 N 
ATOM      6  N   UNL     1      33.930 -15.939 -25.810  0.00  0.00    -0.374 NA
ATOM      7  C   UNL     1      33.192 -13.150 -22.154  0.00  0.00    +0.161 C 
ATOM      8  C   UNL     1      33.616 -14.578 -21.884  0.00  0.00    +0.254 C 
ATOM      9  C   UNL     1      33.096 -13.033 -23.657  0.00  0.00    +0.257 C 
ATOM     10  C   UNL     1      34.167 -16.495 -23.429  0.00  0.00    +0.099 C 
ATOM     11  C   UNL     1      33.566 -14.721 -25.503  0.00  0.00    +0.264 C 
ATOM     12  C   UNL     1      34.238 -16.849 -24.785  0.00  0.00    +0.132 C 
ATOM     13  C   UNL     1      34.483 -17.444 -22.450  0.00  0.00    +0.014 C 
ATOM     14  C   UNL     1      34.624 -18.147 -25.142  0.00  0.00    +0.086 C 
ATOM     15  C   UNL     1      34.867 -18.735 -22.819  0.00  0.00    -0.024 C 
ATOM     16  C   UNL     1      34.938 -19.086 -24.163  0.00  0.00    -0.023 C 
ATOM     17  C   UNL     1      31.984 -13.872 -27.165  0.00  0.00    +0.116 C 
ATOM     18  C   UNL     1      34.290 -12.975 -27.057  0.00  0.00    +0.116 C 
ATOM     19  C   UNL     1      35.204 -19.740 -21.769  0.00  0.00    +0.031 C 
ENDROOT
BRANCH   7  20
ATOM     20  C   UNL     1      31.865 -12.830 -21.491  0.00  0.00    +0.044 C 
BRANCH  20  21
ATOM     21  C   UNL     1      31.870 -11.460 -20.879  0.00  0.00    -0.025 C 
ATOM     22  C   UNL     1      31.454 -11.194 -19.636  0.00  0.00    -0.005 C 
ENDBRANCH  20  21
ENDBRANCH   7  20
TORSDOF 2
ENDMDL
MODEL 3
REMARK VINA RESULT:      -8.3      1.906      5.650
REMARK  Name = 46937068
REMARK  2 active torsions:
REMARK  status: ('A' for Active; 'I' for Inactive)
REMARK    1  A    between atoms: C_7  and  C_20
REMARK    2  A    between atoms: C_20  and  C_21
REMARK                            x       y       z     vdW  Elec       q    Type
REMARK                         _______ _______ _______ _____ _____    ______ ____
ROOT
ATOM      1  O   UNL     1      32.355 -23.840 -13.091  0.00  0.00    -0.272 OA
ATOM      2  O   UNL     1      31.234 -22.996 -17.605  0.00  0.00    -0.272 OA
ATOM      3  N   UNL     1      33.599 -23.403 -15.064  0.00  0.00    -0.174 N 
ATOM      4  N   UNL     1      33.270 -23.154 -16.399  0.00  0.00    -0.138 N 
ATOM      5  N   UNL     1      33.930 -22.705 -18.642  0.00  0.00    -0.267 N 
ATOM      6  N   UNL     1      35.556 -22.979 -17.004  0.00  0.00    -0.374 NA
ATOM      7  C   UNL     1      31.279 -23.423 -15.213  0.00  0.00    +0.161 C 
ATOM      8  C   UNL     1      32.461 -23.592 -14.282  0.00  0.00    +0.254 C 
ATOM      9  C   UNL     1      31.874 -23.162 -16.577  0.00  0.00    +0.257 C 
ATOM     10  C   UNL     1      34.950 -23.445 -14.670  0.00  0.00    +0.099 C 
ATOM     11  C   UNL     1      34.293 -22.947 -17.339  0.00  0.00    +0.264 C 
ATOM     12  C   UNL     1      35.912 -23.227 -15.668  0.00  0.00    +0.132 C 
ATOM     13  C   UNL     1      35.362 -23.689 -13.355  0.00  0.00    +0.014 C 
ATOM     14  C   UNL     1      37.272 -23.257 -15.336  0.00  0.00    +0.086 C 
ATOM     15  C   UNL     1      36.722 -23.716 -13.037  0.00  0.00    -0.024 C 
ATOM     16  C   UNL     1      37.676 -23.499 -14.025  0.00  0.00    -0.023 C 
ATOM     17  C   UNL     1      34.011 -23.755 -19.632  0.00  0.00    +0.116 C 
ATOM     18  C   UNL     1      33.704 -21.355 -19.102  0.00  0.00    +0.116 C 
ATOM     19  C   UNL     1      37.153 -23.976 -11.632  0.00  0.00    +0.031 C 
ENDROOT
BRANCH   7  20
ATOM     20  C   UNL     1      30.399 -24.658 -15.223  0.00  0.00    +0.044 C 
BRANCH  20  21
ATOM     21  C   UNL     1      28.951 -24.306 -15.052  0.00  0.00    -0.025 C 
ATOM     22  C   UNL     1      28.314 -23.383 -15.781  0.00  0.00    -0.005 C 
ENDBRANCH  20  21
ENDBRANCH   7  20
TORSDOF 2
ENDMDL
MODEL 4
REMARK VINA RESULT:      -8.1      1.619      5.312
REMARK  Name = 46937068
REMARK  2 active torsions:
REMARK  status: ('A' for Active; 'I' for Inactive)
REMARK    1  A    between atoms: C_7  and  C_20
REMARK    2  A    between atoms: C_20  and  C_21
REMARK                            x       y       z     vdW  Elec       q    Type
REMARK                         _______ _______ _______ _____ _____    ______ ____
ROOT
ATOM      1  O   UNL     1      36.509 -23.016 -16.830  0.00  0.00    -0.272 OA
ATOM      2  O   UNL     1      31.854 -23.144 -17.642  0.00  0.00    -0.272 OA
ATOM      3  N   UNL     1      34.598 -23.480 -15.503  0.00  0.00    -0.174 N 
ATOM      4  N   UNL     1      33.220 -23.518 -15.741  0.00  0.00    -0.138 N 
ATOM      5  N   UNL     1      30.996 -23.851 -14.961  0.00  0.00    -0.267 N 
ATOM      6  N   UNL     1      32.774 -24.077 -13.480  0.00  0.00    -0.374 NA
ATOM      7  C   UNL     1      34.276 -22.987 -17.752  0.00  0.00    +0.161 C 
ATOM      8  C   UNL     1      35.308 -23.154 -16.657  0.00  0.00    +0.254 C 
ATOM      9  C   UNL     1      32.939 -23.216 -17.087  0.00  0.00    +0.257 C 
ATOM     10  C   UNL     1      35.095 -23.748 -14.213  0.00  0.00    +0.099 C 
ATOM     11  C   UNL     1      32.342 -23.824 -14.688  0.00  0.00    +0.264 C 
ATOM     12  C   UNL     1      34.153 -24.046 -13.216  0.00  0.00    +0.132 C 
ATOM     13  C   UNL     1      36.457 -23.729 -13.893  0.00  0.00    +0.014 C 
ATOM     14  C   UNL     1      34.588 -24.320 -11.914  0.00  0.00    +0.086 C 
ATOM     15  C   UNL     1      36.878 -24.005 -12.590  0.00  0.00    -0.024 C 
ATOM     16  C   UNL     1      35.945 -24.301 -11.602  0.00  0.00    -0.023 C 
ATOM     17  C   UNL     1      30.150 -22.741 -14.588  0.00  0.00    +0.116 C 
ATOM     18  C   UNL     1      30.360 -25.075 -15.389  0.00  0.00    +0.116 C 
ATOM     19  C   UNL     1      38.332 -23.984 -12.258  0.00  0.00    +0.031 C 
ENDROOT
BRANCH   7  20
ATOM     20  C   UNL     1      34.350 -21.608 -18.379  0.00  0.00    +0.044 C 
BRANCH  20  21
ATOM     21  C   UNL     1      33.677 -21.575 -19.720  0.00  0.00    -0.025 C 
ATOM     22  C   UNL     1      33.079 -20.493 -20.231  0.00  0.00    -0.005 C 
ENDBRANCH  20  21
ENDBRANCH   7  20
TORSDOF 2
ENDMDL
MODEL 5
REMARK VINA RESULT:      -7.7     11.523     14.349
REMARK  Name = 46937068
REMARK  2 active torsions:
REMARK  status: ('A' for Active; 'I' for Inactive)
REMARK    1  A    between atoms: C_7  and  C_20
REMARK    2  A    between atoms: C_20  and  C_21
REMARK                            x       y       z     vdW  Elec       q    Type
REMARK                         _______ _______ _______ _____ _____    ______ ____
ROOT
ATOM      1  O   UNL     1      34.432 -11.758 -25.308  0.00  0.00    -0.272 OA
ATOM      2  O   UNL     1      32.075  -9.084 -22.202  0.00  0.00    -0.272 OA
ATOM      3  N   UNL     1      33.320 -12.176 -23.254  0.00  0.00    -0.174 N 
ATOM      4  N   UNL     1      32.623 -11.387 -22.334  0.00  0.00    -0.138 N 
ATOM      5  N   UNL     1      31.412 -11.170 -20.296  0.00  0.00    -0.267 N 
ATOM      6  N   UNL     1      32.224 -13.255 -20.928  0.00  0.00    -0.374 NA
ATOM      7  C   UNL     1      33.311 -10.004 -24.081  0.00  0.00    +0.161 C 
ATOM      8  C   UNL     1      33.782 -11.421 -24.330  0.00  0.00    +0.254 C 
ATOM      9  C   UNL     1      32.583 -10.045 -22.759  0.00  0.00    +0.257 C 
ATOM     10  C   UNL     1      33.483 -13.554 -23.016  0.00  0.00    +0.099 C 
ATOM     11  C   UNL     1      32.090 -11.978 -21.177  0.00  0.00    +0.264 C 
ATOM     12  C   UNL     1      32.919 -14.068 -21.838  0.00  0.00    +0.132 C 
ATOM     13  C   UNL     1      34.167 -14.411 -23.886  0.00  0.00    +0.014 C 
ATOM     14  C   UNL     1      33.049 -15.432 -21.548  0.00  0.00    +0.086 C 
ATOM     15  C   UNL     1      34.288 -15.769 -23.585  0.00  0.00    -0.024 C 
ATOM     16  C   UNL     1      33.729 -16.280 -22.418  0.00  0.00    -0.023 C 
ATOM     17  C   UNL     1      32.048 -10.714 -19.082  0.00  0.00    +0.116 C 
ATOM     18  C   UNL     1      29.988 -10.968 -20.434  0.00  0.00    +0.116 C 
ATOM     19  C   UNL     1      35.018 -16.676 -24.517  0.00  0.00    +0.031 C 
ENDROOT
BRANCH   7  20
ATOM     20  C   UNL     1      34.474  -9.031 -24.039  0.00  0.00    +0.044 C 
BRANCH  20  21
ATOM     21  C   UNL     1      34.003  -7.606 -24.022  0.00  0.00    -0.025 C 
ATOM     22  C   UNL     1      34.448  -6.660 -24.855  0.00  0.00    -0.005 C 
ENDBRANCH  20  21
ENDBRANCH   7  20
TORSDOF 2
ENDMDL
MODEL 6
REMARK VINA RESULT:      -7.4     10.542     13.440
REMARK  Name = 46937068
REMARK  2 active torsions:
REMARK  status: ('A' for Active; 'I' for Inactive)
REMARK    1  A    between atoms: C_7  and  C_20
REMARK    2  A    between atoms: C_20  and  C_21
REMARK                            x       y       z     vdW  Elec       q    Type
REMARK                         _______ _______ _______ _____ _____    ______ ____
ROOT
ATOM      1  O   UNL     1      32.929 -15.129 -20.743  0.00  0.00    -0.272 OA
ATOM      2  O   UNL     1      34.143 -15.281 -25.310  0.00  0.00    -0.272 OA
ATOM      3  N   UNL     1      32.930 -13.557 -22.521  0.00  0.00    -0.174 N 
ATOM      4  N   UNL     1      33.289 -13.600 -23.872  0.00  0.00    -0.138 N 
ATOM      5  N   UNL     1      33.536 -12.522 -25.980  0.00  0.00    -0.267 N 
ATOM      6  N   UNL     1      32.737 -11.312 -24.163  0.00  0.00    -0.374 NA
ATOM      7  C   UNL     1      33.630 -15.727 -22.977  0.00  0.00    +0.161 C 
ATOM      8  C   UNL     1      33.118 -14.792 -21.902  0.00  0.00    +0.254 C 
ATOM      9  C   UNL     1      33.739 -14.885 -24.227  0.00  0.00    +0.257 C 
ATOM     10  C   UNL     1      32.456 -12.357 -21.958  0.00  0.00    +0.099 C 
ATOM     11  C   UNL     1      33.174 -12.441 -24.657  0.00  0.00    +0.264 C 
ATOM     12  C   UNL     1      32.369 -11.245 -22.809  0.00  0.00    +0.132 C 
ATOM     13  C   UNL     1      32.078 -12.232 -20.617  0.00  0.00    +0.014 C 
ATOM     14  C   UNL     1      31.906 -10.023 -22.306  0.00  0.00    +0.086 C 
ATOM     15  C   UNL     1      31.616 -11.008 -20.127  0.00  0.00    -0.024 C 
ATOM     16  C   UNL     1      31.529  -9.905 -20.970  0.00  0.00    -0.023 C 
ATOM     17  C   UNL     1      34.812 -12.009 -26.423  0.00  0.00    +0.116 C 
ATOM     18  C   UNL     1      32.565 -12.885 -26.986  0.00  0.00    +0.116 C 
ATOM     19  C   UNL     1      31.214 -10.883 -18.696  0.00  0.00    +0.031 C 
ENDROOT
BRANCH   7  20
ATOM     20  C   UNL     1      34.971 -16.326 -22.598  0.00  0.00    +0.044 C 
BRANCH  20  21
ATOM     21  C   UNL     1      34.971 -17.819 -22.749  0.00  0.00    -0.025 C 
ATOM     22  C   UNL     1      35.008 -18.452 -23.927  0.00  0.00    -0.005 C 
ENDBRANCH  20  21
ENDBRANCH   7  20
TORSDOF 2
ENDMDL
MODEL 7
REMARK VINA RESULT:      -7.3     12.780     15.286
REMARK  Name = 46937068
REMARK  2 active torsions:
REMARK  status: ('A' for Active; 'I' for Inactive)
REMARK    1  A    between atoms: C_7  and  C_20
REMARK    2  A    between atoms: C_20  and  C_21
REMARK                            x       y       z     vdW  Elec       q    Type
REMARK                         _______ _______ _______ _____ _____    ______ ____
ROOT
ATOM      1  O   UNL     1      34.722 -11.275 -25.608  0.00  0.00    -0.272 OA
ATOM      2  O   UNL     1      32.270 -13.596 -22.299  0.00  0.00    -0.272 OA
ATOM      3  N   UNL     1      33.429 -10.624 -23.728  0.00  0.00    -0.174 N 
ATOM      4  N   UNL     1      32.703 -11.308 -22.748  0.00  0.00    -0.138 N 
ATOM      5  N   UNL     1      31.317 -11.291 -20.813  0.00  0.00    -0.267 N 
ATOM      6  N   UNL     1      32.040  -9.277 -21.720  0.00  0.00    -0.374 NA
ATOM      7  C   UNL     1      33.667 -12.896 -24.159  0.00  0.00    +0.161 C 
ATOM      8  C   UNL     1      34.030 -11.503 -24.627  0.00  0.00    +0.254 C 
ATOM      9  C   UNL     1      32.787 -12.699 -22.948  0.00  0.00    +0.257 C 
ATOM     10  C   UNL     1      33.471  -9.217 -23.716  0.00  0.00    +0.099 C 
ATOM     11  C   UNL     1      32.020 -10.584 -21.758  0.00  0.00    +0.264 C 
ATOM     12  C   UNL     1      32.764  -8.567 -22.693  0.00  0.00    +0.132 C 
ATOM     13  C   UNL     1      34.173  -8.459 -24.659  0.00  0.00    +0.014 C 
ATOM     14  C   UNL     1      32.769  -7.168 -22.629  0.00  0.00    +0.086 C 
ATOM     15  C   UNL     1      34.171  -7.064 -24.584  0.00  0.00    -0.024 C 
ATOM     16  C   UNL     1      33.470  -6.419 -23.570  0.00  0.00    -0.023 C 
ATOM     17  C   UNL     1      29.881 -11.416 -20.909  0.00  0.00    +0.116 C 
ATOM     18  C   UNL     1      31.954 -11.707 -19.585  0.00  0.00    +0.116 C 
ATOM     19  C   UNL     1      34.923  -6.263 -25.594  0.00  0.00    +0.031 C 
ENDROOT
BRANCH   7  20
ATOM     20  C   UNL     1      32.947 -13.676 -25.243  0.00  0.00    +0.044 C 
BRANCH  20  21
ATOM     21  C   UNL     1      33.431 -15.095 -25.316  0.00  0.00    -0.025 C 
ATOM     22  C   UNL     1      34.175 -15.681 -24.373  0.00  0.00    -0.005 C 
ENDBRANCH  20  21
ENDBRANCH   7  20
TORSDOF 2
ENDMDL
MODEL 8
REMARK VINA RESULT:      -6.9     10.858     13.727
REMARK  Name = 46937068
REMARK  2 active torsions:
REMARK  status: ('A' for Active; 'I' for Inactive)
REMARK    1  A    between atoms: C_7  and  C_20
REMARK    2  A    between atoms: C_20  and  C_21
REMARK                            x       y       z     vdW  Elec       q    Type
REMARK                         _______ _______ _______ _____ _____    ______ ____
ROOT
ATOM      1  O   UNL     1      33.111 -11.287 -24.923  0.00  0.00    -0.272 OA
ATOM      2  O   UNL     1      33.725 -15.776 -23.574  0.00  0.00    -0.272 OA
ATOM      3  N   UNL     1      32.879 -12.458 -22.873  0.00  0.00    -0.174 N 
ATOM      4  N   UNL     1      33.060 -13.785 -22.471  0.00  0.00    -0.138 N 
ATOM      5  N   UNL     1      32.997 -15.461 -20.782  0.00  0.00    -0.267 N 
ATOM      6  N   UNL     1      32.408 -13.276 -20.249  0.00  0.00    -0.374 NA
ATOM      7  C   UNL     1      33.597 -13.646 -24.737  0.00  0.00    +0.161 C 
ATOM      8  C   UNL     1      33.167 -12.288 -24.226  0.00  0.00    +0.254 C 
ATOM      9  C   UNL     1      33.485 -14.578 -23.554  0.00  0.00    +0.257 C 
ATOM     10  C   UNL     1      32.448 -11.495 -21.940  0.00  0.00    +0.099 C 
ATOM     11  C   UNL     1      32.808 -14.147 -21.138  0.00  0.00    +0.264 C 
ATOM     12  C   UNL     1      32.220 -11.936 -20.628  0.00  0.00    +0.132 C 
ATOM     13  C   UNL     1      32.243 -10.149 -22.262  0.00  0.00    +0.014 C 
ATOM     14  C   UNL     1      31.790 -11.024 -19.657  0.00  0.00    +0.086 C 
ATOM     15  C   UNL     1      31.815  -9.249 -21.283  0.00  0.00    -0.024 C 
ATOM     16  C   UNL     1      31.589  -9.685 -19.982  0.00  0.00    -0.023 C 
ATOM     17  C   UNL     1      31.867 -16.350 -20.640  0.00  0.00    +0.116 C 
ATOM     18  C   UNL     1      34.282 -15.913 -20.302  0.00  0.00    +0.116 C 
ATOM     19  C   UNL     1      31.599  -7.815 -21.634  0.00  0.00    +0.031 C 
ENDROOT
BRANCH   7  20
ATOM     20  C   UNL     1      32.723 -14.109 -25.887  0.00  0.00    +0.044 C 
BRANCH  20  21
ATOM     21  C   UNL     1      33.437 -13.996 -27.203  0.00  0.00    -0.025 C 
ATOM     22  C   UNL     1      34.173 -12.940 -27.567  0.00  0.00    -0.005 C 
ENDBRANCH  20  21
ENDBRANCH   7  20
TORSDOF 2
ENDMDL
MODEL 9
REMARK VINA RESULT:      -6.8     12.111     14.681
REMARK  Name = 46937068
REMARK  2 active torsions:
REMARK  status: ('A' for Active; 'I' for Inactive)
REMARK    1  A    between atoms: C_7  and  C_20
REMARK    2  A    between atoms: C_20  and  C_21
REMARK                            x       y       z     vdW  Elec       q    Type
REMARK                         _______ _______ _______ _____ _____    ______ ____
ROOT
ATOM      1  O   UNL     1      31.790  -9.581 -21.628  0.00  0.00    -0.272 OA
ATOM      2  O   UNL     1      31.865 -14.288 -22.068  0.00  0.00    -0.272 OA
ATOM      3  N   UNL     1      32.911 -11.104 -23.062  0.00  0.00    -0.174 N 
ATOM      4  N   UNL     1      32.935 -12.496 -23.194  0.00  0.00    -0.138 N 
ATOM      5  N   UNL     1      33.748 -14.456 -24.271  0.00  0.00    -0.267 N 
ATOM      6  N   UNL     1      34.497 -12.371 -24.973  0.00  0.00    -0.374 NA
ATOM      7  C   UNL     1      31.452 -11.969 -21.472  0.00  0.00    +0.161 C 
ATOM      8  C   UNL     1      32.055 -10.701 -22.038  0.00  0.00    +0.254 C 
ATOM      9  C   UNL     1      32.081 -13.099 -22.251  0.00  0.00    +0.257 C 
ATOM     10  C   UNL     1      33.703 -10.305 -23.909  0.00  0.00    +0.099 C 
ATOM     11  C   UNL     1      33.751 -13.086 -24.172  0.00  0.00    +0.264 C 
ATOM     12  C   UNL     1      34.489 -10.971 -24.861  0.00  0.00    +0.132 C 
ATOM     13  C   UNL     1      33.735  -8.907 -23.840  0.00  0.00    +0.014 C 
ATOM     14  C   UNL     1      35.298 -10.229 -25.731  0.00  0.00    +0.086 C 
ATOM     15  C   UNL     1      34.546  -8.179 -24.715  0.00  0.00    -0.024 C 
ATOM     16  C   UNL     1      35.325  -8.838 -25.659  0.00  0.00    -0.023 C 
ATOM     17  C   UNL     1      34.831 -15.233 -23.712  0.00  0.00    +0.116 C 
ATOM     18  C   UNL     1      32.810 -15.127 -25.141  0.00  0.00    +0.116 C 
ATOM     19  C   UNL     1      34.575  -6.690 -24.636  0.00  0.00    +0.031 C 
ENDROOT
BRANCH   7  20
ATOM     20  C   UNL     1      31.733 -12.101 -19.987  0.00  0.00    +0.044 C 
BRANCH  20  21
ATOM     21  C   UNL     1      31.063 -11.012 -19.200  0.00  0.00    -0.025 C 
ATOM     22  C   UNL     1      31.682 -10.262 -18.282  0.00  0.00    -0.005 C 
ENDBRANCH  20  21
ENDBRANCH   7  20
TORSDOF 2
ENDMDL
