MODEL 1
REMARK VINA RESULT:      -4.8      0.000      0.000
REMARK  Name = 63019
REMARK  8 active torsions:
REMARK  status: ('A' for Active; 'I' for Inactive)
REMARK    1  A    between atoms: C_6  and  C_25
REMARK    2  A    between atoms: C_6  and  O_31
REMARK    3  A    between atoms: C_8  and  O_22
REMARK    4  A    between atoms: C_25  and  C_26
REMARK    5  A    between atoms: C_26  and  O_27
REMARK    6  A    between atoms: O_27  and  C_29
REMARK    7  A    between atoms: O_31  and  C_33
REMARK    8  A    between atoms: C_33  and  C_34
REMARK                            x       y       z     vdW  Elec       q    Type
REMARK                         _______ _______ _______ _____ _____    ______ ____
ROOT
ATOM      1  O   UNL     1      36.149 -22.829 -14.789  0.00  0.00    -0.287 OA
ATOM      2  C   UNL     1      34.797 -18.513 -21.632  0.00  0.00    +0.043 C 
ATOM      3  C   UNL     1      33.759 -19.031 -20.612  0.00  0.00    +0.004 C 
ATOM      4  C   UNL     1      34.014 -20.476 -20.156  0.00  0.00    +0.003 C 
ATOM      5  C   UNL     1      35.422 -20.546 -19.470  0.00  0.00    +0.034 C 
ATOM      6  C   UNL     1      34.204 -17.103 -21.904  0.00  0.00    +0.190 C 
ATOM      7  C   UNL     1      36.176 -18.548 -20.946  0.00  0.00    +0.033 C 
ATOM      8  C   UNL     1      36.539 -19.938 -20.377  0.00  0.00    +0.111 C 
ATOM      9  C   UNL     1      32.422 -18.688 -21.264  0.00  0.00    +0.004 C 
ATOM     10  C   UNL     1      35.718 -21.976 -18.866  0.00  0.00    +0.036 C 
ATOM     11  C   UNL     1      32.678 -17.339 -21.967  0.00  0.00    +0.048 C 
ATOM     12  C   UNL     1      32.904 -20.941 -19.198  0.00  0.00    +0.004 C 
ATOM     13  C   UNL     1      33.170 -22.339 -18.622  0.00  0.00    +0.019 C 
ATOM     14  C   UNL     1      34.820 -19.331 -22.954  0.00  0.00    +0.004 C 
ATOM     15  C   UNL     1      34.538 -22.344 -17.945  0.00  0.00    -0.038 C 
ATOM     16  C   UNL     1      35.875 -23.089 -19.928  0.00  0.00    +0.009 C 
ATOM     17  C   UNL     1      37.036 -21.942 -18.104  0.00  0.00    -0.020 C 
ATOM     18  C   UNL     1      31.977 -22.761 -17.751  0.00  0.00    +0.004 C 
ATOM     19  C   UNL     1      34.701 -22.613 -16.637  0.00  0.00    +0.034 C 
ATOM     20  C   UNL     1      37.189 -22.210 -16.805  0.00  0.00    +0.038 C 
ATOM     21  C   UNL     1      36.025 -22.572 -15.981  0.00  0.00    +0.195 C 
ENDROOT
BRANCH   8  22
ATOM     22  O   UNL     1      36.872 -20.817 -21.443  0.00  0.00    -0.384 OA
ATOM     23  H   UNL     1      36.430 -20.523 -22.255  0.00  0.00    +0.210 HD
ENDBRANCH   8  22
BRANCH   6  25
ATOM     24  O   UNL     1      35.866 -15.919 -23.133  0.00  0.00    -0.288 OA
ATOM     25  C   UNL     1      34.744 -16.423 -23.126  0.00  0.00    +0.230 C 
BRANCH  25  26
ATOM     26  C   UNL     1      33.834 -16.396 -24.336  0.00  0.00    +0.276 C 
BRANCH  26  27
ATOM     27  O   UNL     1      33.808 -15.107 -24.911  0.00  0.00    -0.440 OA
BRANCH  27  29
ATOM     28  O   UNL     1      32.629 -15.909 -26.729  0.00  0.00    -0.250 OA
ATOM     29  C   UNL     1      33.131 -14.989 -26.099  0.00  0.00    +0.318 C 
ATOM     30  C   UNL     1      33.089 -13.555 -26.531  0.00  0.00    +0.121 C 
ENDBRANCH  27  29
ENDBRANCH  26  27
ENDBRANCH  25  26
ENDBRANCH   6  25
BRANCH   6  31
ATOM     31  O   UNL     1      34.500 -16.204 -20.839  0.00  0.00    -0.448 OA
BRANCH  31  33
ATOM     32  O   UNL     1      32.603 -15.444 -19.770  0.00  0.00    -0.250 OA
ATOM     33  C   UNL     1      33.530 -15.282 -20.552  0.00  0.00    +0.317 C 
BRANCH  33  34
ATOM     34  C   UNL     1      33.784 -14.029 -21.356  0.00  0.00    +0.110 C 
ATOM     35  C   UNL     1      32.542 -13.563 -22.096  0.00  0.00    +0.012 C 
ENDBRANCH  33  34
ENDBRANCH  31  33
ENDBRANCH   6  31
TORSDOF 8
ENDMDL
MODEL 2
REMARK VINA RESULT:      -4.5      4.656     11.391
REMARK  Name = 63019
REMARK  8 active torsions:
REMARK  status: ('A' for Active; 'I' for Inactive)
REMARK    1  A    between atoms: C_6  and  C_25
REMARK    2  A    between atoms: C_6  and  O_31
REMARK    3  A    between atoms: C_8  and  O_22
REMARK    4  A    between atoms: C_25  and  C_26
REMARK    5  A    between atoms: C_26  and  O_27
REMARK    6  A    between atoms: O_27  and  C_29
REMARK    7  A    between atoms: O_31  and  C_33
REMARK    8  A    between atoms: C_33  and  C_34
REMARK                            x       y       z     vdW  Elec       q    Type
REMARK                         _______ _______ _______ _____ _____    ______ ____
ROOT
ATOM      1  O   UNL     1      31.857  -4.393 -25.677  0.00  0.00    -0.287 OA
ATOM      2  C   UNL     1      33.641 -12.127 -23.606  0.00  0.00    +0.043 C 
ATOM      3  C   UNL     1      32.519 -11.225 -23.045  0.00  0.00    +0.004 C 
ATOM      4  C   UNL     1      32.975  -9.788 -22.753  0.00  0.00    +0.003 C 
ATOM      5  C   UNL     1      33.477  -9.137 -24.087  0.00  0.00    +0.034 C 
ATOM      6  C   UNL     1      32.861 -13.466 -23.712  0.00  0.00    +0.190 C 
ATOM      7  C   UNL     1      34.110 -11.507 -24.936  0.00  0.00    +0.033 C 
ATOM      8  C   UNL     1      34.541 -10.030 -24.802  0.00  0.00    +0.111 C 
ATOM      9  C   UNL     1      31.930 -12.059 -21.909  0.00  0.00    +0.004 C 
ATOM     10  C   UNL     1      33.858  -7.615 -23.901  0.00  0.00    +0.036 C 
ATOM     11  C   UNL     1      32.005 -13.511 -22.426  0.00  0.00    +0.048 C 
ATOM     12  C   UNL     1      31.824  -8.974 -22.134  0.00  0.00    +0.004 C 
ATOM     13  C   UNL     1      32.190  -7.498 -21.928  0.00  0.00    +0.019 C 
ATOM     14  C   UNL     1      34.837 -12.298 -22.628  0.00  0.00    +0.004 C 
ATOM     15  C   UNL     1      32.646  -6.909 -23.261  0.00  0.00    -0.038 C 
ATOM     16  C   UNL     1      35.093  -7.380 -23.001  0.00  0.00    +0.009 C 
ATOM     17  C   UNL     1      34.210  -7.010 -25.252  0.00  0.00    -0.020 C 
ATOM     18  C   UNL     1      31.025  -6.782 -21.229  0.00  0.00    +0.004 C 
ATOM     19  C   UNL     1      32.019  -5.876 -23.851  0.00  0.00    +0.034 C 
ATOM     20  C   UNL     1      33.581  -5.985 -25.832  0.00  0.00    +0.038 C 
ATOM     21  C   UNL     1      32.440  -5.341 -25.162  0.00  0.00    +0.195 C 
ENDROOT
BRANCH   8  22
ATOM     22  O   UNL     1      35.799  -9.958 -24.144  0.00  0.00    -0.384 OA
ATOM     23  H   UNL     1      36.239  -9.125 -24.377  0.00  0.00    +0.210 HD
ENDBRANCH   8  22
BRANCH   6  25
ATOM     24  O   UNL     1      34.593 -14.727 -24.754  0.00  0.00    -0.288 OA
ATOM     25  C   UNL     1      33.724 -14.680 -23.885  0.00  0.00    +0.230 C 
BRANCH  25  26
ATOM     26  C   UNL     1      33.463 -15.830 -22.935  0.00  0.00    +0.276 C 
BRANCH  26  27
ATOM     27  O   UNL     1      34.672 -16.461 -22.571  0.00  0.00    -0.440 OA
BRANCH  27  29
ATOM     28  O   UNL     1      35.316 -17.652 -20.700  0.00  0.00    -0.250 OA
ATOM     29  C   UNL     1      34.881 -16.638 -21.227  0.00  0.00    +0.318 C 
ATOM     30  C   UNL     1      34.497 -15.400 -20.475  0.00  0.00    +0.121 C 
ENDBRANCH  27  29
ENDBRANCH  26  27
ENDBRANCH  25  26
ENDBRANCH   6  25
BRANCH   6  31
ATOM     31  O   UNL     1      32.005 -13.477 -24.851  0.00  0.00    -0.448 OA
BRANCH  31  33
ATOM     32  O   UNL     1      32.640 -15.324 -26.078  0.00  0.00    -0.250 OA
ATOM     33  C   UNL     1      32.495 -14.115 -25.958  0.00  0.00    +0.317 C 
BRANCH  33  34
ATOM     34  C   UNL     1      32.832 -13.089 -27.014  0.00  0.00    +0.110 C 
ATOM     35  C   UNL     1      34.098 -13.445 -27.774  0.00  0.00    +0.012 C 
ENDBRANCH  33  34
ENDBRANCH  31  33
ENDBRANCH   6  31
TORSDOF 8
ENDMDL
MODEL 3
REMARK VINA RESULT:      -4.2      1.339      1.523
REMARK  Name = 63019
REMARK  8 active torsions:
REMARK  status: ('A' for Active; 'I' for Inactive)
REMARK    1  A    between atoms: C_6  and  C_25
REMARK    2  A    between atoms: C_6  and  O_31
REMARK    3  A    between atoms: C_8  and  O_22
REMARK    4  A    between atoms: C_25  and  C_26
REMARK    5  A    between atoms: C_26  and  O_27
REMARK    6  A    between atoms: O_27  and  C_29
REMARK    7  A    between atoms: O_31  and  C_33
REMARK    8  A    between atoms: C_33  and  C_34
REMARK                            x       y       z     vdW  Elec       q    Type
REMARK                         _______ _______ _______ _____ _____    ______ ____
ROOT
ATOM      1  O   UNL     1      34.801 -23.215 -13.779  0.00  0.00    -0.287 OA
ATOM      2  C   UNL     1      34.820 -19.575 -21.129  0.00  0.00    +0.043 C 
ATOM      3  C   UNL     1      33.637 -19.737 -20.150  0.00  0.00    +0.004 C 
ATOM      4  C   UNL     1      33.545 -21.136 -19.524  0.00  0.00    +0.003 C 
ATOM      5  C   UNL     1      34.861 -21.416 -18.720  0.00  0.00    +0.034 C 
ATOM      6  C   UNL     1      34.565 -18.115 -21.598  0.00  0.00    +0.190 C 
ATOM      7  C   UNL     1      36.117 -19.814 -20.331  0.00  0.00    +0.033 C 
ATOM      8  C   UNL     1      36.135 -21.170 -19.591  0.00  0.00    +0.111 C 
ATOM      9  C   UNL     1      32.447 -19.202 -20.942  0.00  0.00    +0.004 C 
ATOM     10  C   UNL     1      34.804 -22.792 -17.945  0.00  0.00    +0.036 C 
ATOM     11  C   UNL     1      33.031 -18.032 -21.762  0.00  0.00    +0.048 C 
ATOM     12  C   UNL     1      32.306 -21.239 -18.617  0.00  0.00    +0.004 C 
ATOM     13  C   UNL     1      32.228 -22.580 -17.876  0.00  0.00    +0.019 C 
ATOM     14  C   UNL     1      34.742 -20.533 -22.350  0.00  0.00    +0.004 C 
ATOM     15  C   UNL     1      33.521 -22.790 -17.091  0.00  0.00    -0.038 C 
ATOM     16  C   UNL     1      34.777 -24.033 -18.866  0.00  0.00    +0.009 C 
ATOM     17  C   UNL     1      36.050 -22.943 -17.085  0.00  0.00    -0.020 C 
ATOM     18  C   UNL     1      30.923 -22.635 -17.067  0.00  0.00    +0.004 C 
ATOM     19  C   UNL     1      33.545 -22.926 -15.754  0.00  0.00    +0.034 C 
ATOM     20  C   UNL     1      36.066 -23.077 -15.756  0.00  0.00    +0.038 C 
ATOM     21  C   UNL     1      34.805 -23.084 -14.998  0.00  0.00    +0.195 C 
ENDROOT
BRANCH   8  22
ATOM     22  O   UNL     1      36.330 -22.222 -20.526  0.00  0.00    -0.384 OA
ATOM     23  H   UNL     1      35.981 -23.049 -20.160  0.00  0.00    +0.210 HD
ENDBRANCH   8  22
BRANCH   6  25
ATOM     24  O   UNL     1      36.538 -17.650 -22.849  0.00  0.00    -0.288 OA
ATOM     25  C   UNL     1      35.311 -17.717 -22.835  0.00  0.00    +0.230 C 
BRANCH  25  26
ATOM     26  C   UNL     1      34.468 -17.406 -24.055  0.00  0.00    +0.276 C 
BRANCH  26  27
ATOM     27  O   UNL     1      34.809 -16.145 -24.588  0.00  0.00    -0.440 OA
BRANCH  27  29
ATOM     28  O   UNL     1      33.477 -15.663 -26.413  0.00  0.00    -0.250 OA
ATOM     29  C   UNL     1      33.810 -15.478 -25.251  0.00  0.00    +0.318 C 
ATOM     30  C   UNL     1      33.168 -14.472 -24.344  0.00  0.00    +0.121 C 
ENDBRANCH  27  29
ENDBRANCH  26  27
ENDBRANCH  25  26
ENDBRANCH   6  25
BRANCH   6  31
ATOM     31  O   UNL     1      34.988 -17.176 -20.613  0.00  0.00    -0.448 OA
BRANCH  31  33
ATOM     32  O   UNL     1      35.267 -15.043 -21.447  0.00  0.00    -0.250 OA
ATOM     33  C   UNL     1      34.616 -15.877 -20.833  0.00  0.00    +0.317 C 
BRANCH  33  34
ATOM     34  C   UNL     1      33.268 -15.633 -20.195  0.00  0.00    +0.110 C 
ATOM     35  C   UNL     1      32.691 -14.281 -20.577  0.00  0.00    +0.012 C 
ENDBRANCH  33  34
ENDBRANCH  31  33
ENDBRANCH   6  31
TORSDOF 8
ENDMDL
MODEL 4
REMARK VINA RESULT:      -2.8      2.354      9.218
REMARK  Name = 63019
REMARK  8 active torsions:
REMARK  status: ('A' for Active; 'I' for Inactive)
REMARK    1  A    between atoms: C_6  and  C_25
REMARK    2  A    between atoms: C_6  and  O_31
REMARK    3  A    between atoms: C_8  and  O_22
REMARK    4  A    between atoms: C_25  and  C_26
REMARK    5  A    between atoms: C_26  and  O_27
REMARK    6  A    between atoms: O_27  and  C_29
REMARK    7  A    between atoms: O_31  and  C_33
REMARK    8  A    between atoms: C_33  and  C_34
REMARK                            x       y       z     vdW  Elec       q    Type
REMARK                         _______ _______ _______ _____ _____    ______ ____
ROOT
ATOM      1  O   UNL     1      35.641  -9.313 -26.101  0.00  0.00    -0.287 OA
ATOM      2  C   UNL     1      33.974 -16.382 -22.289  0.00  0.00    +0.043 C 
ATOM      3  C   UNL     1      34.085 -16.122 -23.807  0.00  0.00    +0.004 C 
ATOM      4  C   UNL     1      33.389 -14.831 -24.263  0.00  0.00    +0.003 C 
ATOM      5  C   UNL     1      34.052 -13.615 -23.528  0.00  0.00    +0.034 C 
ATOM      6  C   UNL     1      34.706 -17.750 -22.211  0.00  0.00    +0.190 C 
ATOM      7  C   UNL     1      34.657 -15.205 -21.568  0.00  0.00    +0.033 C 
ATOM      8  C   UNL     1      34.095 -13.827 -21.981  0.00  0.00    +0.111 C 
ATOM      9  C   UNL     1      33.656 -17.450 -24.426  0.00  0.00    +0.004 C 
ATOM     10  C   UNL     1      33.471 -12.232 -24.025  0.00  0.00    +0.036 C 
ATOM     11  C   UNL     1      34.213 -18.516 -23.459  0.00  0.00    +0.048 C 
ATOM     12  C   UNL     1      33.484 -14.678 -25.791  0.00  0.00    +0.004 C 
ATOM     13  C   UNL     1      32.903 -13.347 -26.287  0.00  0.00    +0.019 C 
ATOM     14  C   UNL     1      32.508 -16.549 -21.801  0.00  0.00    +0.004 C 
ATOM     15  C   UNL     1      33.601 -12.199 -25.561  0.00  0.00    -0.038 C 
ATOM     16  C   UNL     1      31.989 -12.000 -23.653  0.00  0.00    +0.009 C 
ATOM     17  C   UNL     1      34.244 -11.094 -23.373  0.00  0.00    -0.020 C 
ATOM     18  C   UNL     1      32.957 -13.314 -27.822  0.00  0.00    +0.004 C 
ATOM     19  C   UNL     1      34.304 -11.252 -26.205  0.00  0.00    +0.034 C 
ATOM     20  C   UNL     1      34.941 -10.157 -24.021  0.00  0.00    +0.038 C 
ATOM     21  C   UNL     1      35.013 -10.170 -25.490  0.00  0.00    +0.195 C 
ENDROOT
BRANCH   8  22
ATOM     22  O   UNL     1      32.811 -13.642 -21.400  0.00  0.00    -0.384 OA
ATOM     23  H   UNL     1      32.910 -13.335 -20.486  0.00  0.00    +0.210 HD
ENDBRANCH   8  22
BRANCH   6  25
ATOM     24  O   UNL     1      35.034 -18.163 -19.888  0.00  0.00    -0.288 OA
ATOM     25  C   UNL     1      34.486 -18.505 -20.935  0.00  0.00    +0.230 C 
BRANCH  25  26
ATOM     26  C   UNL     1      33.558 -19.699 -21.013  0.00  0.00    +0.276 C 
BRANCH  26  27
ATOM     27  O   UNL     1      34.243 -20.886 -20.676  0.00  0.00    -0.440 OA
BRANCH  27  29
ATOM     28  O   UNL     1      32.651 -21.676 -19.200  0.00  0.00    -0.250 OA
ATOM     29  C   UNL     1      33.816 -21.529 -19.541  0.00  0.00    +0.318 C 
ATOM     30  C   UNL     1      34.991 -22.037 -18.762  0.00  0.00    +0.121 C 
ENDBRANCH  27  29
ENDBRANCH  26  27
ENDBRANCH  25  26
ENDBRANCH   6  25
BRANCH   6  31
ATOM     31  O   UNL     1      36.119 -17.585 -22.285  0.00  0.00    -0.448 OA
BRANCH  31  33
ATOM     32  O   UNL     1      36.614 -19.372 -23.656  0.00  0.00    -0.250 OA
ATOM     33  C   UNL     1      36.829 -18.693 -22.662  0.00  0.00    +0.317 C 
BRANCH  33  34
ATOM     34  C   UNL     1      37.923 -18.947 -21.652  0.00  0.00    +0.110 C 
ATOM     35  C   UNL     1      37.496 -19.940 -20.584  0.00  0.00    +0.012 C 
ENDBRANCH  33  34
ENDBRANCH  31  33
ENDBRANCH   6  31
TORSDOF 8
ENDMDL
MODEL 5
REMARK VINA RESULT:      -2.2      3.654     10.302
REMARK  Name = 63019
REMARK  8 active torsions:
REMARK  status: ('A' for Active; 'I' for Inactive)
REMARK    1  A    between atoms: C_6  and  C_25
REMARK    2  A    between atoms: C_6  and  O_31
REMARK    3  A    between atoms: C_8  and  O_22
REMARK    4  A    between atoms: C_25  and  C_26
REMARK    5  A    between atoms: C_26  and  O_27
REMARK    6  A    between atoms: O_27  and  C_29
REMARK    7  A    between atoms: O_31  and  C_33
REMARK    8  A    between atoms: C_33  and  C_34
REMARK                            x       y       z     vdW  Elec       q    Type
REMARK                         _______ _______ _______ _____ _____    ______ ____
ROOT
ATOM      1  O   UNL     1      32.717 -18.413 -20.658  0.00  0.00    -0.287 OA
ATOM      2  C   UNL     1      35.878 -23.971 -15.521  0.00  0.00    +0.043 C 
ATOM      3  C   UNL     1      36.608 -22.815 -16.240  0.00  0.00    +0.004 C 
ATOM      4  C   UNL     1      36.209 -22.660 -17.715  0.00  0.00    +0.003 C 
ATOM      5  C   UNL     1      34.672 -22.366 -17.793  0.00  0.00    +0.034 C 
ATOM      6  C   UNL     1      36.555 -23.871 -14.126  0.00  0.00    +0.190 C 
ATOM      7  C   UNL     1      34.369 -23.664 -15.566  0.00  0.00    +0.033 C 
ATOM      8  C   UNL     1      33.839 -23.420 -16.996  0.00  0.00    +0.111 C 
ATOM      9  C   UNL     1      38.075 -23.053 -15.892  0.00  0.00    +0.004 C 
ATOM     10  C   UNL     1      34.196 -22.077 -19.272  0.00  0.00    +0.036 C 
ATOM     11  C   UNL     1      38.040 -23.586 -14.444  0.00  0.00    +0.048 C 
ATOM     12  C   UNL     1      37.026 -21.537 -18.378  0.00  0.00    +0.004 C 
ATOM     13  C   UNL     1      36.588 -21.263 -19.822  0.00  0.00    +0.019 C 
ATOM     14  C   UNL     1      36.174 -25.364 -16.142  0.00  0.00    +0.004 C 
ATOM     15  C   UNL     1      35.092 -20.957 -19.837  0.00  0.00    -0.038 C 
ATOM     16  C   UNL     1      34.288 -23.300 -20.213  0.00  0.00    +0.009 C 
ATOM     17  C   UNL     1      32.729 -21.672 -19.264  0.00  0.00    -0.020 C 
ATOM     18  C   UNL     1      37.507 -20.197 -20.435  0.00  0.00    +0.004 C 
ATOM     19  C   UNL     1      34.593 -19.788 -20.276  0.00  0.00    +0.034 C 
ATOM     20  C   UNL     1      32.242 -20.507 -19.700  0.00  0.00    +0.038 C 
ATOM     21  C   UNL     1      33.147 -19.484 -20.245  0.00  0.00    +0.195 C 
ENDROOT
BRANCH   8  22
ATOM     22  O   UNL     1      33.768 -24.655 -17.695  0.00  0.00    -0.384 OA
ATOM     23  H   UNL     1      32.980 -24.662 -18.261  0.00  0.00    +0.210 HD
ENDBRANCH   8  22
BRANCH   6  25
ATOM     24  O   UNL     1      35.240 -25.509 -13.003  0.00  0.00    -0.288 OA
ATOM     25  C   UNL     1      36.362 -25.071 -13.249  0.00  0.00    +0.230 C 
BRANCH  25  26
ATOM     26  C   UNL     1      37.620 -25.705 -12.693  0.00  0.00    +0.276 C 
BRANCH  26  27
ATOM     27  O   UNL     1      38.100 -26.708 -13.563  0.00  0.00    -0.440 OA
BRANCH  27  29
ATOM     28  O   UNL     1      39.286 -26.529 -15.537  0.00  0.00    -0.250 OA
ATOM     29  C   UNL     1      39.189 -26.375 -14.327  0.00  0.00    +0.318 C 
ATOM     30  C   UNL     1      40.266 -25.786 -13.467  0.00  0.00    +0.121 C 
ENDBRANCH  27  29
ENDBRANCH  26  27
ENDBRANCH  25  26
ENDBRANCH   6  25
BRANCH   6  31
ATOM     31  O   UNL     1      36.019 -22.790 -13.367  0.00  0.00    -0.448 OA
BRANCH  31  33
ATOM     32  O   UNL     1      37.436 -22.298 -11.615  0.00  0.00    -0.250 OA
ATOM     33  C   UNL     1      36.385 -22.749 -12.049  0.00  0.00    +0.317 C 
BRANCH  33  34
ATOM     34  C   UNL     1      35.283 -23.352 -11.210  0.00  0.00    +0.110 C 
ATOM     35  C   UNL     1      35.823 -24.056  -9.978  0.00  0.00    +0.012 C 
ENDBRANCH  33  34
ENDBRANCH  31  33
ENDBRANCH   6  31
TORSDOF 8
ENDMDL
MODEL 6
REMARK VINA RESULT:      -1.9      3.301      9.953
REMARK  Name = 63019
REMARK  8 active torsions:
REMARK  status: ('A' for Active; 'I' for Inactive)
REMARK    1  A    between atoms: C_6  and  C_25
REMARK    2  A    between atoms: C_6  and  O_31
REMARK    3  A    between atoms: C_8  and  O_22
REMARK    4  A    between atoms: C_25  and  C_26
REMARK    5  A    between atoms: C_26  and  O_27
REMARK    6  A    between atoms: O_27  and  C_29
REMARK    7  A    between atoms: O_31  and  C_33
REMARK    8  A    between atoms: C_33  and  C_34
REMARK                            x       y       z     vdW  Elec       q    Type
REMARK                         _______ _______ _______ _____ _____    ______ ____
ROOT
ATOM      1  O   UNL     1      32.914 -18.091 -21.349  0.00  0.00    -0.287 OA
ATOM      2  C   UNL     1      35.263 -23.701 -15.846  0.00  0.00    +0.043 C 
ATOM      3  C   UNL     1      36.055 -22.478 -16.356  0.00  0.00    +0.004 C 
ATOM      4  C   UNL     1      35.965 -22.278 -17.877  0.00  0.00    +0.003 C 
ATOM      5  C   UNL     1      34.463 -22.061 -18.268  0.00  0.00    +0.034 C 
ATOM      6  C   UNL     1      35.627 -23.628 -14.337  0.00  0.00    +0.190 C 
ATOM      7  C   UNL     1      33.781 -23.471 -16.198  0.00  0.00    +0.033 C 
ATOM      8  C   UNL     1      33.547 -23.191 -17.699  0.00  0.00    +0.111 C 
ATOM      9  C   UNL     1      37.430 -22.654 -15.715  0.00  0.00    +0.004 C 
ATOM     10  C   UNL     1      34.289 -21.732 -19.803  0.00  0.00    +0.036 C 
ATOM     11  C   UNL     1      37.126 -23.253 -14.326  0.00  0.00    +0.048 C 
ATOM     12  C   UNL     1      36.833 -21.086 -18.316  0.00  0.00    +0.004 C 
ATOM     13  C   UNL     1      36.690 -20.771 -19.811  0.00  0.00    +0.019 C 
ATOM     14  C   UNL     1      35.765 -25.048 -16.436  0.00  0.00    +0.004 C 
ATOM     15  C   UNL     1      35.214 -20.543 -20.130  0.00  0.00    -0.038 C 
ATOM     16  C   UNL     1      34.649 -22.905 -20.744  0.00  0.00    +0.009 C 
ATOM     17  C   UNL     1      32.831 -21.404 -20.091  0.00  0.00    -0.020 C 
ATOM     18  C   UNL     1      37.651 -19.632 -20.181  0.00  0.00    +0.004 C 
ATOM     19  C   UNL     1      34.749 -19.382 -20.626  0.00  0.00    +0.034 C 
ATOM     20  C   UNL     1      32.377 -20.248 -20.582  0.00  0.00    +0.038 C 
ATOM     21  C   UNL     1      33.313 -19.156 -20.890  0.00  0.00    +0.195 C 
ENDROOT
BRANCH   8  22
ATOM     22  O   UNL     1      33.698 -24.396 -18.437  0.00  0.00    -0.384 OA
ATOM     23  H   UNL     1      32.824 -24.733 -18.690  0.00  0.00    +0.210 HD
ENDBRANCH   8  22
BRANCH   6  25
ATOM     24  O   UNL     1      34.342 -25.565 -13.814  0.00  0.00    -0.288 OA
ATOM     25  C   UNL     1      35.328 -24.874 -13.560  0.00  0.00    +0.230 C 
BRANCH  25  26
ATOM     26  C   UNL     1      36.304 -25.228 -12.458  0.00  0.00    +0.276 C 
BRANCH  26  27
ATOM     27  O   UNL     1      36.897 -26.485 -12.701  0.00  0.00    -0.440 OA
BRANCH  27  29
ATOM     28  O   UNL     1      37.908 -27.152 -14.669  0.00  0.00    -0.250 OA
ATOM     29  C   UNL     1      37.908 -26.507 -13.630  0.00  0.00    +0.318 C 
ATOM     30  C   UNL     1      39.032 -25.619 -13.192  0.00  0.00    +0.121 C 
ENDBRANCH  27  29
ENDBRANCH  26  27
ENDBRANCH  25  26
ENDBRANCH   6  25
BRANCH   6  31
ATOM     31  O   UNL     1      34.880 -22.612 -13.674  0.00  0.00    -0.448 OA
BRANCH  31  33
ATOM     32  O   UNL     1      33.753 -23.538 -11.887  0.00  0.00    -0.250 OA
ATOM     33  C   UNL     1      33.765 -23.035 -13.002  0.00  0.00    +0.317 C 
BRANCH  33  34
ATOM     34  C   UNL     1      32.546 -22.783 -13.858  0.00  0.00    +0.110 C 
ATOM     35  C   UNL     1      31.353 -23.609 -13.410  0.00  0.00    +0.012 C 
ENDBRANCH  33  34
ENDBRANCH  31  33
ENDBRANCH   6  31
TORSDOF 8
ENDMDL
