MODEL 1
REMARK VINA RESULT:      -7.1      0.000      0.000
REMARK  Name = 4845
REMARK  8 active torsions:
REMARK  status: ('A' for Active; 'I' for Inactive)
REMARK    1  A    between atoms: C_1  and  C_3
REMARK    2  A    between atoms: C_1  and  O_13
REMARK    3  A    between atoms: C_1  and  C_15
REMARK    4  A    between atoms: CA_5  and  C_10
REMARK    5  A    between atoms: C_7  and  O_8
REMARK    6  A    between atoms: C_10  and  O_11
REMARK    7  A    between atoms: C_15  and  N_16
REMARK    8  A    between atoms: N_16  and  C_19
REMARK                            x       y       z     vdW  Elec       q    Type
REMARK                         _______ _______ _______ _____ _____    ______ ____
ROOT
ATOM      1  C   UNL     1      36.092 -23.102 -15.273  0.00  0.00    +0.137 C 
ENDROOT
BRANCH   1   3
ATOM      2  N   UNL     1      35.863 -22.328 -17.556  0.00  0.00    -0.407 NA
ATOM      3  C   UNL     1      35.237 -22.872 -16.499  0.00  0.00    +0.115 C 
ATOM      4  C   UNL     1      33.909 -23.227 -16.452  0.00  0.00    +0.086 C 
ATOM      5  CA  UNL     1      35.094 -22.124 -18.648  0.00  0.00    +0.171 C 
ATOM      6  C   UNL     1      33.151 -23.003 -17.596  0.00  0.00    +0.020 C 
ATOM      7  C   UNL     1      33.747 -22.442 -18.720  0.00  0.00    +0.158 C 
BRANCH   7   8
ATOM      8  O   UNL     1      33.016 -22.218 -19.842  0.00  0.00    -0.504 OA
ATOM      9  H   UNL     1      32.083 -22.159 -19.788  0.00  0.00    +0.292 HD
ENDBRANCH   7   8
BRANCH   5  10
ATOM     10  C   UNL     1      35.782 -21.519 -19.828  0.00  0.00    +0.199 C 
BRANCH  10  11
ATOM     11  O   UNL     1      35.220 -20.229 -20.026  0.00  0.00    -0.375 OA
ATOM     12  H   UNL     1      35.828 -19.687 -20.552  0.00  0.00    +0.211 HD
ENDBRANCH  10  11
ENDBRANCH   5  10
ENDBRANCH   1   3
BRANCH   1  13
ATOM     13  O   UNL     1      35.280 -22.892 -14.117  0.00  0.00    -0.380 OA
ATOM     14  H   UNL     1      34.889 -23.735 -13.840  0.00  0.00    +0.211 HD
ENDBRANCH   1  13
BRANCH   1  15
ATOM     15  C   UNL     1      36.684 -24.516 -15.257  0.00  0.00    -0.045 C 
BRANCH  15  16
ATOM     16  N   UNL     1      38.135 -24.469 -15.228  0.00  0.00    +0.388 N 
ATOM     17  H   UNL     1      38.496 -24.648 -16.165  0.00  0.00    -0.084 HD
ATOM     18  H   UNL     1      38.429 -23.546 -14.907  0.00  0.00    -0.084 HD
BRANCH  16  19
ATOM     19  C   UNL     1      38.666 -25.480 -14.306  0.00  0.00    -0.046 C 
ATOM     20  C   UNL     1      40.118 -25.780 -14.693  0.00  0.00    -0.022 C 
ATOM     21  C   UNL     1      38.606 -24.921 -12.881  0.00  0.00    -0.022 C 
ATOM     22  C   UNL     1      37.820 -26.755 -14.408  0.00  0.00    -0.022 C 
ENDBRANCH  16  19
ENDBRANCH  15  16
ENDBRANCH   1  15
TORSDOF 8
ENDMDL
MODEL 2
REMARK VINA RESULT:      -7.1      7.300     10.277
REMARK  Name = 4845
REMARK  8 active torsions:
REMARK  status: ('A' for Active; 'I' for Inactive)
REMARK    1  A    between atoms: C_1  and  C_3
REMARK    2  A    between atoms: C_1  and  O_13
REMARK    3  A    between atoms: C_1  and  C_15
REMARK    4  A    between atoms: CA_5  and  C_10
REMARK    5  A    between atoms: C_7  and  O_8
REMARK    6  A    between atoms: C_10  and  O_11
REMARK    7  A    between atoms: C_15  and  N_16
REMARK    8  A    between atoms: N_16  and  C_19
REMARK                            x       y       z     vdW  Elec       q    Type
REMARK                         _______ _______ _______ _____ _____    ______ ____
ROOT
ATOM      1  C   UNL     1      34.905 -15.857 -21.595  0.00  0.00    +0.137 C 
ENDROOT
BRANCH   1   3
ATOM      2  N   UNL     1      34.230 -13.891 -22.837  0.00  0.00    -0.407 NA
ATOM      3  C   UNL     1      34.385 -15.225 -22.867  0.00  0.00    +0.115 C 
ATOM      4  C   UNL     1      34.114 -16.038 -23.943  0.00  0.00    +0.086 C 
ATOM      5  CA  UNL     1      33.765 -13.332 -23.976  0.00  0.00    +0.171 C 
ATOM      6  C   UNL     1      33.638 -15.425 -25.097  0.00  0.00    +0.020 C 
ATOM      7  C   UNL     1      33.458 -14.047 -25.123  0.00  0.00    +0.158 C 
BRANCH   7   8
ATOM      8  O   UNL     1      32.993 -13.439 -26.244  0.00  0.00    -0.504 OA
ATOM      9  H   UNL     1      32.110 -13.582 -26.522  0.00  0.00    +0.292 HD
ENDBRANCH   7   8
BRANCH   5  10
ATOM     10  C   UNL     1      33.589 -11.848 -23.951  0.00  0.00    +0.199 C 
BRANCH  10  11
ATOM     11  O   UNL     1      34.626 -11.289 -24.745  0.00  0.00    -0.375 OA
ATOM     12  H   UNL     1      34.758 -11.834 -25.536  0.00  0.00    +0.211 HD
ENDBRANCH  10  11
ENDBRANCH   5  10
ENDBRANCH   1   3
BRANCH   1  13
ATOM     13  O   UNL     1      34.756 -14.913 -20.535  0.00  0.00    -0.380 OA
ATOM     14  H   UNL     1      33.813 -14.778 -20.352  0.00  0.00    +0.211 HD
ENDBRANCH   1  13
BRANCH   1  15
ATOM     15  C   UNL     1      34.153 -17.151 -21.263  0.00  0.00    -0.045 C 
BRANCH  15  16
ATOM     16  N   UNL     1      35.058 -18.152 -20.723  0.00  0.00    +0.388 N 
ATOM     17  H   UNL     1      36.011 -17.935 -21.018  0.00  0.00    -0.084 HD
ATOM     18  H   UNL     1      34.993 -18.141 -19.705  0.00  0.00    -0.084 HD
BRANCH  16  19
ATOM     19  C   UNL     1      34.696 -19.489 -21.206  0.00  0.00    -0.046 C 
ATOM     20  C   UNL     1      33.247 -19.779 -20.802  0.00  0.00    -0.022 C 
ATOM     21  C   UNL     1      34.831 -19.510 -22.732  0.00  0.00    -0.022 C 
ATOM     22  C   UNL     1      35.635 -20.527 -20.580  0.00  0.00    -0.022 C 
ENDBRANCH  16  19
ENDBRANCH  15  16
ENDBRANCH   1  15
TORSDOF 8
ENDMDL
MODEL 3
REMARK VINA RESULT:      -7.1      4.634      8.775
REMARK  Name = 4845
REMARK  8 active torsions:
REMARK  status: ('A' for Active; 'I' for Inactive)
REMARK    1  A    between atoms: C_1  and  C_3
REMARK    2  A    between atoms: C_1  and  O_13
REMARK    3  A    between atoms: C_1  and  C_15
REMARK    4  A    between atoms: CA_5  and  C_10
REMARK    5  A    between atoms: C_7  and  O_8
REMARK    6  A    between atoms: C_10  and  O_11
REMARK    7  A    between atoms: C_15  and  N_16
REMARK    8  A    between atoms: N_16  and  C_19
REMARK                            x       y       z     vdW  Elec       q    Type
REMARK                         _______ _______ _______ _____ _____    ______ ____
ROOT
ATOM      1  C   UNL     1      35.494 -18.474 -21.913  0.00  0.00    +0.137 C 
ENDROOT
BRANCH   1   3
ATOM      2  N   UNL     1      35.564 -20.238 -20.256  0.00  0.00    -0.407 NA
ATOM      3  C   UNL     1      34.783 -19.512 -21.073  0.00  0.00    +0.115 C 
ATOM      4  C   UNL     1      33.420 -19.638 -21.198  0.00  0.00    +0.086 C 
ATOM      5  CA  UNL     1      34.924 -21.164 -19.508  0.00  0.00    +0.171 C 
ATOM      6  C   UNL     1      32.797 -20.601 -20.411  0.00  0.00    +0.020 C 
ATOM      7  C   UNL     1      33.556 -21.383 -19.547  0.00  0.00    +0.158 C 
BRANCH   7   8
ATOM      8  O   UNL     1      32.958 -22.326 -18.775  0.00  0.00    -0.504 OA
ATOM      9  H   UNL     1      32.479 -23.024 -19.176  0.00  0.00    +0.292 HD
ENDBRANCH   7   8
BRANCH   5  10
ATOM     10  C   UNL     1      35.785 -21.978 -18.597  0.00  0.00    +0.199 C 
BRANCH  10  11
ATOM     11  O   UNL     1      36.752 -21.099 -18.039  0.00  0.00    -0.375 OA
ATOM     12  H   UNL     1      36.833 -21.269 -17.088  0.00  0.00    +0.211 HD
ENDBRANCH  10  11
ENDBRANCH   5  10
ENDBRANCH   1   3
BRANCH   1  13
ATOM     13  O   UNL     1      35.079 -18.638 -23.269  0.00  0.00    -0.380 OA
ATOM     14  H   UNL     1      35.158 -19.571 -23.521  0.00  0.00    +0.211 HD
ENDBRANCH   1  13
BRANCH   1  15
ATOM     15  C   UNL     1      35.185 -17.052 -21.431  0.00  0.00    -0.045 C 
BRANCH  15  16
ATOM     16  N   UNL     1      34.247 -16.396 -22.324  0.00  0.00    +0.388 N 
ATOM     17  H   UNL     1      34.760 -15.977 -23.101  0.00  0.00    -0.084 HD
ATOM     18  H   UNL     1      33.583 -17.088 -22.673  0.00  0.00    -0.084 HD
BRANCH  16  19
ATOM     19  C   UNL     1      33.506 -15.347 -21.615  0.00  0.00    -0.046 C 
ATOM     20  C   UNL     1      32.922 -14.377 -22.648  0.00  0.00    -0.022 C 
ATOM     21  C   UNL     1      32.376 -16.004 -20.815  0.00  0.00    -0.022 C 
ATOM     22  C   UNL     1      34.456 -14.602 -20.670  0.00  0.00    -0.022 C 
ENDBRANCH  16  19
ENDBRANCH  15  16
ENDBRANCH   1  15
TORSDOF 8
ENDMDL
MODEL 4
REMARK VINA RESULT:      -7.1      7.699     10.649
REMARK  Name = 4845
REMARK  8 active torsions:
REMARK  status: ('A' for Active; 'I' for Inactive)
REMARK    1  A    between atoms: C_1  and  C_3
REMARK    2  A    between atoms: C_1  and  O_13
REMARK    3  A    between atoms: C_1  and  C_15
REMARK    4  A    between atoms: CA_5  and  C_10
REMARK    5  A    between atoms: C_7  and  O_8
REMARK    6  A    between atoms: C_10  and  O_11
REMARK    7  A    between atoms: C_15  and  N_16
REMARK    8  A    between atoms: N_16  and  C_19
REMARK                            x       y       z     vdW  Elec       q    Type
REMARK                         _______ _______ _______ _____ _____    ______ ____
ROOT
ATOM      1  C   UNL     1      34.472 -16.187 -22.878  0.00  0.00    +0.137 C 
ENDROOT
BRANCH   1   3
ATOM      2  N   UNL     1      34.142 -13.948 -23.740  0.00  0.00    -0.407 NA
ATOM      3  C   UNL     1      33.787 -14.840 -22.800  0.00  0.00    +0.115 C 
ATOM      4  C   UNL     1      32.871 -14.624 -21.798  0.00  0.00    +0.086 C 
ATOM      5  CA  UNL     1      33.528 -12.747 -23.665  0.00  0.00    +0.171 C 
ATOM      6  C   UNL     1      32.259 -13.376 -21.755  0.00  0.00    +0.020 C 
ATOM      7  C   UNL     1      32.588 -12.413 -22.703  0.00  0.00    +0.158 C 
BRANCH   7   8
ATOM      8  O   UNL     1      31.998 -11.191 -22.669  0.00  0.00    -0.504 OA
ATOM      9  H   UNL     1      32.289 -10.515 -23.248  0.00  0.00    +0.292 HD
ENDBRANCH   7   8
BRANCH   5  10
ATOM     10  C   UNL     1      33.917 -11.748 -24.706  0.00  0.00    +0.199 C 
BRANCH  10  11
ATOM     11  O   UNL     1      34.670 -10.734 -24.055  0.00  0.00    -0.375 OA
ATOM     12  H   UNL     1      34.633  -9.918 -24.577  0.00  0.00    +0.211 HD
ENDBRANCH  10  11
ENDBRANCH   5  10
ENDBRANCH   1   3
BRANCH   1  13
ATOM     13  O   UNL     1      35.649 -16.043 -23.672  0.00  0.00    -0.380 OA
ATOM     14  H   UNL     1      36.014 -16.920 -23.871  0.00  0.00    +0.211 HD
ENDBRANCH   1  13
BRANCH   1  15
ATOM     15  C   UNL     1      34.832 -16.715 -21.485  0.00  0.00    -0.045 C 
BRANCH  15  16
ATOM     16  N   UNL     1      34.056 -17.902 -21.165  0.00  0.00    +0.388 N 
ATOM     17  H   UNL     1      33.782 -17.868 -20.183  0.00  0.00    -0.084 HD
ATOM     18  H   UNL     1      33.229 -17.925 -21.761  0.00  0.00    -0.084 HD
BRANCH  16  19
ATOM     19  C   UNL     1      34.845 -19.115 -21.404  0.00  0.00    -0.046 C 
ATOM     20  C   UNL     1      34.292 -20.240 -20.523  0.00  0.00    -0.022 C 
ATOM     21  C   UNL     1      34.718 -19.495 -22.883  0.00  0.00    -0.022 C 
ATOM     22  C   UNL     1      36.313 -18.844 -21.054  0.00  0.00    -0.022 C 
ENDBRANCH  16  19
ENDBRANCH  15  16
ENDBRANCH   1  15
TORSDOF 8
ENDMDL
MODEL 5
REMARK VINA RESULT:      -7.1      2.579      6.757
REMARK  Name = 4845
REMARK  8 active torsions:
REMARK  status: ('A' for Active; 'I' for Inactive)
REMARK    1  A    between atoms: C_1  and  C_3
REMARK    2  A    between atoms: C_1  and  O_13
REMARK    3  A    between atoms: C_1  and  C_15
REMARK    4  A    between atoms: CA_5  and  C_10
REMARK    5  A    between atoms: C_7  and  O_8
REMARK    6  A    between atoms: C_10  and  O_11
REMARK    7  A    between atoms: C_15  and  N_16
REMARK    8  A    between atoms: N_16  and  C_19
REMARK                            x       y       z     vdW  Elec       q    Type
REMARK                         _______ _______ _______ _____ _____    ______ ____
ROOT
ATOM      1  C   UNL     1      34.110 -22.124 -19.532  0.00  0.00    +0.137 C 
ENDROOT
BRANCH   1   3
ATOM      2  N   UNL     1      35.785 -22.186 -17.784  0.00  0.00    -0.407 NA
ATOM      3  C   UNL     1      34.524 -22.500 -18.127  0.00  0.00    +0.115 C 
ATOM      4  C   UNL     1      33.606 -23.123 -17.314  0.00  0.00    +0.086 C 
ATOM      5  CA  UNL     1      36.150 -22.525 -16.528  0.00  0.00    +0.171 C 
ATOM      6  C   UNL     1      34.019 -23.455 -16.028  0.00  0.00    +0.020 C 
ATOM      7  C   UNL     1      35.314 -23.154 -15.619  0.00  0.00    +0.158 C 
BRANCH   7   8
ATOM      8  O   UNL     1      35.727 -23.475 -14.366  0.00  0.00    -0.504 OA
ATOM      9  H   UNL     1      36.021 -22.803 -13.784  0.00  0.00    +0.292 HD
ENDBRANCH   7   8
BRANCH   5  10
ATOM     10  C   UNL     1      37.551 -22.180 -16.139  0.00  0.00    +0.199 C 
BRANCH  10  11
ATOM     11  O   UNL     1      38.211 -23.398 -15.825  0.00  0.00    -0.375 OA
ATOM     12  H   UNL     1      38.913 -23.228 -15.178  0.00  0.00    +0.211 HD
ENDBRANCH  10  11
ENDBRANCH   5  10
ENDBRANCH   1   3
BRANCH   1  13
ATOM     13  O   UNL     1      32.724 -21.780 -19.511  0.00  0.00    -0.380 OA
ATOM     14  H   UNL     1      32.200 -22.563 -19.280  0.00  0.00    +0.211 HD
ENDBRANCH   1  13
BRANCH   1  15
ATOM     15  C   UNL     1      34.940 -20.952 -20.067  0.00  0.00    -0.045 C 
BRANCH  15  16
ATOM     16  N   UNL     1      34.083 -19.938 -20.658  0.00  0.00    +0.388 N 
ATOM     17  H   UNL     1      33.407 -20.389 -21.275  0.00  0.00    -0.084 HD
ATOM     18  H   UNL     1      33.601 -19.438 -19.911  0.00  0.00    -0.084 HD
BRANCH  16  19
ATOM     19  C   UNL     1      34.877 -18.978 -21.433  0.00  0.00    -0.046 C 
ATOM     20  C   UNL     1      34.318 -17.572 -21.190  0.00  0.00    -0.022 C 
ATOM     21  C   UNL     1      36.332 -19.054 -20.959  0.00  0.00    -0.022 C 
ATOM     22  C   UNL     1      34.789 -19.330 -22.923  0.00  0.00    -0.022 C 
ENDBRANCH  16  19
ENDBRANCH  15  16
ENDBRANCH   1  15
TORSDOF 8
ENDMDL
MODEL 6
REMARK VINA RESULT:      -6.9      3.459      6.515
REMARK  Name = 4845
REMARK  8 active torsions:
REMARK  status: ('A' for Active; 'I' for Inactive)
REMARK    1  A    between atoms: C_1  and  C_3
REMARK    2  A    between atoms: C_1  and  O_13
REMARK    3  A    between atoms: C_1  and  C_15
REMARK    4  A    between atoms: CA_5  and  C_10
REMARK    5  A    between atoms: C_7  and  O_8
REMARK    6  A    between atoms: C_10  and  O_11
REMARK    7  A    between atoms: C_15  and  N_16
REMARK    8  A    between atoms: N_16  and  C_19
REMARK                            x       y       z     vdW  Elec       q    Type
REMARK                         _______ _______ _______ _____ _____    ______ ____
ROOT
ATOM      1  C   UNL     1      33.826 -24.037 -13.739  0.00  0.00    +0.137 C 
ENDROOT
BRANCH   1   3
ATOM      2  N   UNL     1      36.092 -24.889 -13.734  0.00  0.00    -0.407 NA
ATOM      3  C   UNL     1      35.242 -23.995 -14.267  0.00  0.00    +0.115 C 
ATOM      4  C   UNL     1      35.558 -23.069 -15.233  0.00  0.00    +0.086 C 
ATOM      5  CA  UNL     1      37.357 -24.847 -14.209  0.00  0.00    +0.171 C 
ATOM      6  C   UNL     1      36.869 -23.058 -15.698  0.00  0.00    +0.020 C 
ATOM      7  C   UNL     1      37.792 -23.960 -15.181  0.00  0.00    +0.158 C 
BRANCH   7   8
ATOM      8  O   UNL     1      39.074 -23.957 -15.627  0.00  0.00    -0.504 OA
ATOM      9  H   UNL     1      39.781 -24.042 -15.018  0.00  0.00    +0.292 HD
ENDBRANCH   7   8
BRANCH   5  10
ATOM     10  C   UNL     1      38.309 -25.837 -13.621  0.00  0.00    +0.199 C 
BRANCH  10  11
ATOM     11  O   UNL     1      38.665 -26.743 -14.656  0.00  0.00    -0.375 OA
ATOM     12  H   UNL     1      39.174 -26.274 -15.335  0.00  0.00    +0.211 HD
ENDBRANCH  10  11
ENDBRANCH   5  10
ENDBRANCH   1   3
BRANCH   1  13
ATOM     13  O   UNL     1      33.837 -23.560 -12.393  0.00  0.00    -0.380 OA
ATOM     14  H   UNL     1      34.676 -23.104 -12.219  0.00  0.00    +0.211 HD
ENDBRANCH   1  13
BRANCH   1  15
ATOM     15  C   UNL     1      32.881 -23.186 -14.596  0.00  0.00    -0.045 C 
BRANCH  15  16
ATOM     16  N   UNL     1      31.506 -23.333 -14.151  0.00  0.00    +0.388 N 
ATOM     17  H   UNL     1      31.433 -24.158 -13.554  0.00  0.00    -0.084 HD
ATOM     18  H   UNL     1      31.236 -22.497 -13.632  0.00  0.00    -0.084 HD
BRANCH  16  19
ATOM     19  C   UNL     1      30.606 -23.487 -15.299  0.00  0.00    -0.046 C 
ATOM     20  C   UNL     1      29.402 -22.560 -15.104  0.00  0.00    -0.022 C 
ATOM     21  C   UNL     1      31.367 -23.100 -16.571  0.00  0.00    -0.022 C 
ATOM     22  C   UNL     1      30.139 -24.945 -15.387  0.00  0.00    -0.022 C 
ENDBRANCH  16  19
ENDBRANCH  15  16
ENDBRANCH   1  15
TORSDOF 8
ENDMDL
MODEL 7
REMARK VINA RESULT:      -6.9      3.052      6.376
REMARK  Name = 4845
REMARK  8 active torsions:
REMARK  status: ('A' for Active; 'I' for Inactive)
REMARK    1  A    between atoms: C_1  and  C_3
REMARK    2  A    between atoms: C_1  and  O_13
REMARK    3  A    between atoms: C_1  and  C_15
REMARK    4  A    between atoms: CA_5  and  C_10
REMARK    5  A    between atoms: C_7  and  O_8
REMARK    6  A    between atoms: C_10  and  O_11
REMARK    7  A    between atoms: C_15  and  N_16
REMARK    8  A    between atoms: N_16  and  C_19
REMARK                            x       y       z     vdW  Elec       q    Type
REMARK                         _______ _______ _______ _____ _____    ______ ____
ROOT
ATOM      1  C   UNL     1      33.871 -23.139 -16.470  0.00  0.00    +0.137 C 
ENDROOT
BRANCH   1   3
ATOM      2  N   UNL     1      35.472 -24.778 -15.686  0.00  0.00    -0.407 NA
ATOM      3  C   UNL     1      35.248 -23.479 -15.943  0.00  0.00    +0.115 C 
ATOM      4  C   UNL     1      36.155 -22.461 -15.767  0.00  0.00    +0.086 C 
ATOM      5  CA  UNL     1      36.703 -25.076 -15.216  0.00  0.00    +0.171 C 
ATOM      6  C   UNL     1      37.412 -22.807 -15.282  0.00  0.00    +0.020 C 
ATOM      7  C   UNL     1      37.700 -24.138 -14.999  0.00  0.00    +0.158 C 
BRANCH   7   8
ATOM      8  O   UNL     1      38.923 -24.487 -14.523  0.00  0.00    -0.504 OA
ATOM      9  H   UNL     1      39.602 -24.735 -15.118  0.00  0.00    +0.292 HD
ENDBRANCH   7   8
BRANCH   5  10
ATOM     10  C   UNL     1      36.961 -26.519 -14.927  0.00  0.00    +0.199 C 
BRANCH  10  11
ATOM     11  O   UNL     1      36.834 -27.222 -16.155  0.00  0.00    -0.375 OA
ATOM     12  H   UNL     1      35.913 -27.499 -16.276  0.00  0.00    +0.211 HD
ENDBRANCH  10  11
ENDBRANCH   5  10
ENDBRANCH   1   3
BRANCH   1  13
ATOM     13  O   UNL     1      33.689 -23.819 -17.712  0.00  0.00    -0.380 OA
ATOM     14  H   UNL     1      33.768 -23.185 -18.442  0.00  0.00    +0.211 HD
ENDBRANCH   1  13
BRANCH   1  15
ATOM     15  C   UNL     1      32.775 -23.542 -15.477  0.00  0.00    -0.045 C 
BRANCH  15  16
ATOM     16  N   UNL     1      31.466 -23.503 -16.108  0.00  0.00    +0.388 N 
ATOM     17  H   UNL     1      31.324 -22.585 -16.529  0.00  0.00    -0.084 HD
ATOM     18  H   UNL     1      31.424 -24.230 -16.823  0.00  0.00    -0.084 HD
BRANCH  16  19
ATOM     19  C   UNL     1      30.410 -23.750 -15.121  0.00  0.00    -0.046 C 
ATOM     20  C   UNL     1      30.974 -23.478 -13.722  0.00  0.00    -0.022 C 
ATOM     21  C   UNL     1      29.242 -22.801 -15.410  0.00  0.00    -0.022 C 
ATOM     22  C   UNL     1      29.944 -25.207 -15.227  0.00  0.00    -0.022 C 
ENDBRANCH  16  19
ENDBRANCH  15  16
ENDBRANCH   1  15
TORSDOF 8
ENDMDL
MODEL 8
REMARK VINA RESULT:      -6.9      2.662      7.111
REMARK  Name = 4845
REMARK  8 active torsions:
REMARK  status: ('A' for Active; 'I' for Inactive)
REMARK    1  A    between atoms: C_1  and  C_3
REMARK    2  A    between atoms: C_1  and  O_13
REMARK    3  A    between atoms: C_1  and  C_15
REMARK    4  A    between atoms: CA_5  and  C_10
REMARK    5  A    between atoms: C_7  and  O_8
REMARK    6  A    between atoms: C_10  and  O_11
REMARK    7  A    between atoms: C_15  and  N_16
REMARK    8  A    between atoms: N_16  and  C_19
REMARK                            x       y       z     vdW  Elec       q    Type
REMARK                         _______ _______ _______ _____ _____    ______ ____
ROOT
ATOM      1  C   UNL     1      34.504 -21.890 -19.453  0.00  0.00    +0.137 C 
ENDROOT
BRANCH   1   3
ATOM      2  N   UNL     1      34.548 -22.926 -17.264  0.00  0.00    -0.407 NA
ATOM      3  C   UNL     1      35.225 -22.182 -18.155  0.00  0.00    +0.115 C 
ATOM      4  C   UNL     1      36.493 -21.679 -17.978  0.00  0.00    +0.086 C 
ATOM      5  CA  UNL     1      35.197 -23.183 -16.107  0.00  0.00    +0.171 C 
ATOM      6  C   UNL     1      37.127 -21.966 -16.774  0.00  0.00    +0.020 C 
ATOM      7  C   UNL     1      36.474 -22.732 -15.815  0.00  0.00    +0.158 C 
BRANCH   7   8
ATOM      8  O   UNL     1      37.084 -23.017 -14.636  0.00  0.00    -0.504 OA
ATOM      9  H   UNL     1      37.297 -22.326 -14.041  0.00  0.00    +0.292 HD
ENDBRANCH   7   8
BRANCH   5  10
ATOM     10  C   UNL     1      34.451 -24.010 -15.110  0.00  0.00    +0.199 C 
BRANCH  10  11
ATOM     11  O   UNL     1      34.252 -23.201 -13.959  0.00  0.00    -0.375 OA
ATOM     12  H   UNL     1      34.868 -23.474 -13.261  0.00  0.00    +0.211 HD
ENDBRANCH  10  11
ENDBRANCH   5  10
ENDBRANCH   1   3
BRANCH   1  13
ATOM     13  O   UNL     1      33.154 -21.545 -19.145  0.00  0.00    -0.380 OA
ATOM     14  H   UNL     1      32.633 -22.354 -19.021  0.00  0.00    +0.211 HD
ENDBRANCH   1  13
BRANCH   1  15
ATOM     15  C   UNL     1      35.180 -20.753 -20.227  0.00  0.00    -0.045 C 
BRANCH  15  16
ATOM     16  N   UNL     1      34.191 -19.908 -20.873  0.00  0.00    +0.388 N 
ATOM     17  H   UNL     1      33.638 -20.472 -21.519  0.00  0.00    -0.084 HD
ATOM     18  H   UNL     1      33.589 -19.499 -20.158  0.00  0.00    -0.084 HD
BRANCH  16  19
ATOM     19  C   UNL     1      34.843 -18.825 -21.616  0.00  0.00    -0.046 C 
ATOM     20  C   UNL     1      36.324 -18.784 -21.224  0.00  0.00    -0.022 C 
ATOM     21  C   UNL     1      34.705 -19.110 -23.115  0.00  0.00    -0.022 C 
ATOM     22  C   UNL     1      34.170 -17.491 -21.269  0.00  0.00    -0.022 C 
ENDBRANCH  16  19
ENDBRANCH  15  16
ENDBRANCH   1  15
TORSDOF 8
ENDMDL
MODEL 9
REMARK VINA RESULT:      -6.9      4.285      7.444
REMARK  Name = 4845
REMARK  8 active torsions:
REMARK  status: ('A' for Active; 'I' for Inactive)
REMARK    1  A    between atoms: C_1  and  C_3
REMARK    2  A    between atoms: C_1  and  O_13
REMARK    3  A    between atoms: C_1  and  C_15
REMARK    4  A    between atoms: CA_5  and  C_10
REMARK    5  A    between atoms: C_7  and  O_8
REMARK    6  A    between atoms: C_10  and  O_11
REMARK    7  A    between atoms: C_15  and  N_16
REMARK    8  A    between atoms: N_16  and  C_19
REMARK                            x       y       z     vdW  Elec       q    Type
REMARK                         _______ _______ _______ _____ _____    ______ ____
ROOT
ATOM      1  C   UNL     1      32.660 -24.324 -14.194  0.00  0.00    +0.137 C 
ENDROOT
BRANCH   1   3
ATOM      2  N   UNL     1      34.409 -24.148 -12.528  0.00  0.00    -0.407 NA
ATOM      3  C   UNL     1      34.087 -23.987 -13.823  0.00  0.00    +0.115 C 
ATOM      4  C   UNL     1      34.939 -23.549 -14.810  0.00  0.00    +0.086 C 
ATOM      5  CA  UNL     1      35.685 -23.845 -12.202  0.00  0.00    +0.171 C 
ATOM      6  C   UNL     1      36.244 -23.248 -14.436  0.00  0.00    +0.020 C 
ATOM      7  C   UNL     1      36.633 -23.396 -13.109  0.00  0.00    +0.158 C 
BRANCH   7   8
ATOM      8  O   UNL     1      37.904 -23.104 -12.732  0.00  0.00    -0.504 OA
ATOM      9  H   UNL     1      38.239 -22.238 -12.850  0.00  0.00    +0.292 HD
ENDBRANCH   7   8
BRANCH   5  10
ATOM     10  C   UNL     1      36.051 -24.020 -10.764  0.00  0.00    +0.199 C 
BRANCH  10  11
ATOM     11  O   UNL     1      35.265 -25.091 -10.259  0.00  0.00    -0.375 OA
ATOM     12  H   UNL     1      34.342 -24.806 -10.180  0.00  0.00    +0.211 HD
ENDBRANCH  10  11
ENDBRANCH   5  10
ENDBRANCH   1   3
BRANCH   1  13
ATOM     13  O   UNL     1      32.125 -25.174 -13.180  0.00  0.00    -0.380 OA
ATOM     14  H   UNL     1      32.836 -25.718 -12.805  0.00  0.00    +0.211 HD
ENDBRANCH   1  13
BRANCH   1  15
ATOM     15  C   UNL     1      31.803 -23.061 -14.336  0.00  0.00    -0.045 C 
BRANCH  15  16
ATOM     16  N   UNL     1      30.390 -23.381 -14.228  0.00  0.00    +0.388 N 
ATOM     17  H   UNL     1      30.287 -24.317 -13.837  0.00  0.00    -0.084 HD
ATOM     18  H   UNL     1      29.942 -22.693 -13.621  0.00  0.00    -0.084 HD
BRANCH  16  19
ATOM     19  C   UNL     1      29.748 -23.336 -15.546  0.00  0.00    -0.046 C 
ATOM     20  C   UNL     1      28.538 -22.399 -15.470  0.00  0.00    -0.022 C 
ATOM     21  C   UNL     1      30.762 -22.803 -16.564  0.00  0.00    -0.022 C 
ATOM     22  C   UNL     1      29.298 -24.747 -15.941  0.00  0.00    -0.022 C 
ENDBRANCH  16  19
ENDBRANCH  15  16
ENDBRANCH   1  15
TORSDOF 8
ENDMDL
