MODEL 1
REMARK VINA RESULT:      -9.1      0.000      0.000
REMARK  Name = 6857727
REMARK  5 active torsions:
REMARK  status: ('A' for Active; 'I' for Inactive)
REMARK    1  A    between atoms: C_4  and  N_13
REMARK    2  A    between atoms: C_8  and  N_12
REMARK    3  A    between atoms: N_13  and  C_15
REMARK    4  A    between atoms: C_15  and  C_16
REMARK    5  A    between atoms: C_16  and  N_18
REMARK                            x       y       z     vdW  Elec       q    Type
REMARK                         _______ _______ _______ _____ _____    ______ ____
ROOT
ATOM      1  O   UNL     1      37.299 -20.649 -19.909  0.00  0.00    -0.241 OA
ATOM      2  N   UNL     1      36.839 -19.485 -20.500  0.00  0.00    -0.047 NA
ATOM      3  N   UNL     1      36.261 -21.494 -19.556  0.00  0.00    -0.047 NA
ATOM      4  C   UNL     1      34.546 -18.684 -21.015  0.00  0.00    +0.071 C 
ATOM      5  C   UNL     1      35.505 -19.588 -20.523  0.00  0.00    +0.158 A 
ATOM      6  C   UNL     1      33.214 -19.117 -20.878  0.00  0.00    +0.018 C 
ATOM      7  C   UNL     1      35.136 -20.866 -19.923  0.00  0.00    +0.167 A 
ATOM      8  C   UNL     1      33.797 -21.279 -19.796  0.00  0.00    +0.165 C 
ATOM      9  C   UNL     1      32.856 -20.360 -20.294  0.00  0.00    +0.027 C 
ENDROOT
BRANCH   8  12
ATOM     10  O   UNL     1      33.963 -23.574 -19.656  0.00  0.00    -0.126 OA
ATOM     11  O   UNL     1      32.627 -22.537 -18.258  0.00  0.00    -0.126 OA
ATOM     12  N   UNL     1      33.448 -22.516 -19.212  0.00  0.00    +0.059 N 
ENDBRANCH   8  12
BRANCH   4  13
ATOM     13  N   UNL     1      34.856 -17.448 -21.599  0.00  0.00    -0.303 N 
ATOM     14  C   UNL     1      34.618 -16.208 -20.858  0.00  0.00    +0.112 C 
BRANCH  13  15
ATOM     15  C   UNL     1      35.424 -17.361 -22.923  0.00  0.00    +0.112 C 
BRANCH  15  16
ATOM     16  C   UNL     1      34.941 -16.104 -23.627  0.00  0.00    +0.115 C 
BRANCH  16  18
ATOM     17  O   UNL     1      32.866 -15.677 -26.599  0.00  0.00    -0.275 OA
ATOM     18  N   UNL     1      34.255 -16.401 -24.883  0.00  0.00    -0.276 N 
ATOM     19  C   UNL     1      34.464 -17.747 -25.403  0.00  0.00    +0.115 C 
ATOM     20  C   UNL     1      33.459 -15.462 -25.538  0.00  0.00    +0.226 C 
ATOM     21  C   UNL     1      33.332 -14.109 -24.886  0.00  0.00    +0.095 C 
ENDBRANCH  16  18
ENDBRANCH  15  16
ENDBRANCH  13  15
ENDBRANCH   4  13
TORSDOF 5
ENDMDL
MODEL 2
REMARK VINA RESULT:      -8.8      4.396      7.140
REMARK  Name = 6857727
REMARK  5 active torsions:
REMARK  status: ('A' for Active; 'I' for Inactive)
REMARK    1  A    between atoms: C_4  and  N_13
REMARK    2  A    between atoms: C_8  and  N_12
REMARK    3  A    between atoms: N_13  and  C_15
REMARK    4  A    between atoms: C_15  and  C_16
REMARK    5  A    between atoms: C_16  and  N_18
REMARK                            x       y       z     vdW  Elec       q    Type
REMARK                         _______ _______ _______ _____ _____    ______ ____
ROOT
ATOM      1  O   UNL     1      33.398 -15.387 -26.580  0.00  0.00    -0.241 OA
ATOM      2  N   UNL     1      33.166 -14.294 -25.763  0.00  0.00    -0.047 NA
ATOM      3  N   UNL     1      33.982 -16.434 -25.888  0.00  0.00    -0.047 NA
ATOM      4  C   UNL     1      33.607 -13.907 -23.350  0.00  0.00    +0.071 C 
ATOM      5  C   UNL     1      33.604 -14.645 -24.548  0.00  0.00    +0.158 A 
ATOM      6  C   UNL     1      34.149 -14.591 -22.247  0.00  0.00    +0.018 C 
ATOM      7  C   UNL     1      34.123 -16.006 -24.627  0.00  0.00    +0.167 A 
ATOM      8  C   UNL     1      34.661 -16.672 -23.510  0.00  0.00    +0.165 C 
ATOM      9  C   UNL     1      34.654 -15.916 -22.324  0.00  0.00    +0.027 C 
ENDROOT
BRANCH   8  12
ATOM     10  O   UNL     1      36.227 -18.281 -22.987  0.00  0.00    -0.126 OA
ATOM     11  O   UNL     1      34.539 -18.844 -24.273  0.00  0.00    -0.126 OA
ATOM     12  N   UNL     1      35.164 -17.989 -23.593  0.00  0.00    +0.059 N 
ENDBRANCH   8  12
BRANCH   4  13
ATOM     13  N   UNL     1      33.119 -12.598 -23.231  0.00  0.00    -0.303 N 
ATOM     14  C   UNL     1      33.730 -11.516 -24.004  0.00  0.00    +0.112 C 
BRANCH  13  15
ATOM     15  C   UNL     1      32.007 -12.285 -22.366  0.00  0.00    +0.112 C 
BRANCH  15  16
ATOM     16  C   UNL     1      31.779 -10.783 -22.316  0.00  0.00    +0.115 C 
BRANCH  16  18
ATOM     17  O   UNL     1      32.222  -8.507 -19.498  0.00  0.00    -0.275 OA
ATOM     18  N   UNL     1      31.779 -10.268 -20.949  0.00  0.00    -0.276 N 
ATOM     19  C   UNL     1      31.300 -11.196 -19.933  0.00  0.00    +0.115 C 
ATOM     20  C   UNL     1      32.208  -8.977 -20.639  0.00  0.00    +0.226 C 
ATOM     21  C   UNL     1      32.678  -8.125 -21.791  0.00  0.00    +0.095 C 
ENDBRANCH  16  18
ENDBRANCH  15  16
ENDBRANCH  13  15
ENDBRANCH   4  13
TORSDOF 5
ENDMDL
MODEL 3
REMARK VINA RESULT:      -8.8      1.678      2.175
REMARK  Name = 6857727
REMARK  5 active torsions:
REMARK  status: ('A' for Active; 'I' for Inactive)
REMARK    1  A    between atoms: C_4  and  N_13
REMARK    2  A    between atoms: C_8  and  N_12
REMARK    3  A    between atoms: N_13  and  C_15
REMARK    4  A    between atoms: C_15  and  C_16
REMARK    5  A    between atoms: C_16  and  N_18
REMARK                            x       y       z     vdW  Elec       q    Type
REMARK                         _______ _______ _______ _____ _____    ______ ____
ROOT
ATOM      1  O   UNL     1      37.226 -20.795 -19.445  0.00  0.00    -0.241 OA
ATOM      2  N   UNL     1      36.751 -19.796 -20.277  0.00  0.00    -0.047 NA
ATOM      3  N   UNL     1      36.213 -21.636 -19.017  0.00  0.00    -0.047 NA
ATOM      4  C   UNL     1      34.466 -19.274 -21.099  0.00  0.00    +0.071 C 
ATOM      5  C   UNL     1      35.431 -20.000 -20.377  0.00  0.00    +0.158 A 
ATOM      6  C   UNL     1      33.156 -19.772 -20.980  0.00  0.00    +0.018 C 
ATOM      7  C   UNL     1      35.089 -21.170 -19.576  0.00  0.00    +0.167 A 
ATOM      8  C   UNL     1      33.771 -21.652 -19.472  0.00  0.00    +0.165 C 
ATOM      9  C   UNL     1      32.824 -20.911 -20.201  0.00  0.00    +0.027 C 
ENDROOT
BRANCH   8  12
ATOM     10  O   UNL     1      33.837 -23.920 -19.066  0.00  0.00    -0.126 OA
ATOM     11  O   UNL     1      32.772 -22.634 -17.641  0.00  0.00    -0.126 OA
ATOM     12  N   UNL     1      33.446 -22.784 -18.693  0.00  0.00    +0.059 N 
ENDBRANCH   8  12
BRANCH   4  13
ATOM     13  N   UNL     1      34.752 -18.146 -21.881  0.00  0.00    -0.303 N 
ATOM     14  C   UNL     1      34.950 -18.287 -23.324  0.00  0.00    +0.112 C 
BRANCH  13  15
ATOM     15  C   UNL     1      34.842 -16.829 -21.297  0.00  0.00    +0.112 C 
BRANCH  15  16
ATOM     16  C   UNL     1      34.510 -15.766 -22.331  0.00  0.00    +0.115 C 
BRANCH  16  18
ATOM     17  O   UNL     1      31.976 -13.139 -22.361  0.00  0.00    -0.275 OA
ATOM     18  N   UNL     1      33.328 -14.988 -21.966  0.00  0.00    -0.276 N 
ATOM     19  C   UNL     1      32.554 -15.516 -20.850  0.00  0.00    +0.115 C 
ATOM     20  C   UNL     1      32.966 -13.821 -22.640  0.00  0.00    +0.226 C 
ATOM     21  C   UNL     1      33.859 -13.391 -23.777  0.00  0.00    +0.095 C 
ENDBRANCH  16  18
ENDBRANCH  15  16
ENDBRANCH  13  15
ENDBRANCH   4  13
TORSDOF 5
ENDMDL
MODEL 4
REMARK VINA RESULT:      -8.8      2.103      7.327
REMARK  Name = 6857727
REMARK  5 active torsions:
REMARK  status: ('A' for Active; 'I' for Inactive)
REMARK    1  A    between atoms: C_4  and  N_13
REMARK    2  A    between atoms: C_8  and  N_12
REMARK    3  A    between atoms: N_13  and  C_15
REMARK    4  A    between atoms: C_15  and  C_16
REMARK    5  A    between atoms: C_16  and  N_18
REMARK                            x       y       z     vdW  Elec       q    Type
REMARK                         _______ _______ _______ _____ _____    ______ ____
ROOT
ATOM      1  O   UNL     1      33.922 -16.341 -25.949  0.00  0.00    -0.241 OA
ATOM      2  N   UNL     1      34.481 -17.212 -25.029  0.00  0.00    -0.047 NA
ATOM      3  N   UNL     1      33.583 -15.130 -25.373  0.00  0.00    -0.047 NA
ATOM      4  C   UNL     1      34.957 -16.975 -22.603  0.00  0.00    +0.071 C 
ATOM      5  C   UNL     1      34.495 -16.553 -23.864  0.00  0.00    +0.158 A 
ATOM      6  C   UNL     1      34.820 -16.016 -21.584  0.00  0.00    +0.018 C 
ATOM      7  C   UNL     1      33.924 -15.229 -24.082  0.00  0.00    +0.167 A 
ATOM      8  C   UNL     1      33.798 -14.284 -23.047  0.00  0.00    +0.165 C 
ATOM      9  C   UNL     1      34.265 -14.727 -21.797  0.00  0.00    +0.027 C 
ENDROOT
BRANCH   8  12
ATOM     10  O   UNL     1      33.888 -12.159 -23.937  0.00  0.00    -0.126 OA
ATOM     11  O   UNL     1      32.112 -12.733 -22.782  0.00  0.00    -0.126 OA
ATOM     12  N   UNL     1      33.242 -13.004 -23.265  0.00  0.00    +0.059 N 
ENDBRANCH   8  12
BRANCH   4  13
ATOM     13  N   UNL     1      35.512 -18.237 -22.350  0.00  0.00    -0.303 N 
ATOM     14  C   UNL     1      36.956 -18.376 -22.159  0.00  0.00    +0.112 C 
BRANCH  13  15
ATOM     15  C   UNL     1      34.687 -19.418 -22.257  0.00  0.00    +0.112 C 
BRANCH  15  16
ATOM     16  C   UNL     1      34.929 -20.132 -20.937  0.00  0.00    +0.115 C 
BRANCH  16  18
ATOM     17  O   UNL     1      32.594 -21.950 -18.801  0.00  0.00    -0.275 OA
ATOM     18  N   UNL     1      33.683 -20.535 -20.288  0.00  0.00    -0.276 N 
ATOM     19  C   UNL     1      32.505 -19.765 -20.668  0.00  0.00    +0.115 C 
ATOM     20  C   UNL     1      33.626 -21.582 -19.369  0.00  0.00    +0.226 C 
ATOM     21  C   UNL     1      34.922 -22.292 -19.070  0.00  0.00    +0.095 C 
ENDBRANCH  16  18
ENDBRANCH  15  16
ENDBRANCH  13  15
ENDBRANCH   4  13
TORSDOF 5
ENDMDL
MODEL 5
REMARK VINA RESULT:      -8.6      3.982      6.541
REMARK  Name = 6857727
REMARK  5 active torsions:
REMARK  status: ('A' for Active; 'I' for Inactive)
REMARK    1  A    between atoms: C_4  and  N_13
REMARK    2  A    between atoms: C_8  and  N_12
REMARK    3  A    between atoms: N_13  and  C_15
REMARK    4  A    between atoms: C_15  and  C_16
REMARK    5  A    between atoms: C_16  and  N_18
REMARK                            x       y       z     vdW  Elec       q    Type
REMARK                         _______ _______ _______ _____ _____    ______ ____
ROOT
ATOM      1  O   UNL     1      33.687 -16.052 -26.197  0.00  0.00    -0.241 OA
ATOM      2  N   UNL     1      33.382 -14.876 -25.533  0.00  0.00    -0.047 NA
ATOM      3  N   UNL     1      34.262 -16.986 -25.353  0.00  0.00    -0.047 NA
ATOM      4  C   UNL     1      33.685 -14.183 -23.168  0.00  0.00    +0.071 C 
ATOM      5  C   UNL     1      33.766 -15.062 -24.264  0.00  0.00    +0.158 A 
ATOM      6  C   UNL     1      34.187 -14.710 -21.963  0.00  0.00    +0.018 C 
ATOM      7  C   UNL     1      34.325 -16.404 -24.149  0.00  0.00    +0.167 A 
ATOM      8  C   UNL     1      34.821 -16.911 -22.934  0.00  0.00    +0.165 C 
ATOM      9  C   UNL     1      34.730 -16.017 -21.852  0.00  0.00    +0.027 C 
ENDROOT
BRANCH   8  12
ATOM     10  O   UNL     1      36.611 -18.352 -22.752  0.00  0.00    -0.126 OA
ATOM     11  O   UNL     1      34.588 -19.202 -22.817  0.00  0.00    -0.126 OA
ATOM     12  N   UNL     1      35.363 -18.210 -22.830  0.00  0.00    +0.059 N 
ENDBRANCH   8  12
BRANCH   4  13
ATOM     13  N   UNL     1      33.155 -12.887 -23.234  0.00  0.00    -0.303 N 
ATOM     14  C   UNL     1      32.011 -12.521 -22.398  0.00  0.00    +0.112 C 
BRANCH  13  15
ATOM     15  C   UNL     1      33.722 -11.886 -24.105  0.00  0.00    +0.112 C 
BRANCH  15  16
ATOM     16  C   UNL     1      33.253 -10.499 -23.696  0.00  0.00    +0.115 C 
BRANCH  16  18
ATOM     17  O   UNL     1      35.061  -7.332 -23.550  0.00  0.00    -0.275 OA
ATOM     18  N   UNL     1      34.257  -9.472 -23.966  0.00  0.00    -0.276 N 
ATOM     19  C   UNL     1      35.287  -9.845 -24.928  0.00  0.00    +0.115 C 
ATOM     20  C   UNL     1      34.231  -8.222 -23.347  0.00  0.00    +0.226 C 
ATOM     21  C   UNL     1      33.107  -7.973 -22.373  0.00  0.00    +0.095 C 
ENDBRANCH  16  18
ENDBRANCH  15  16
ENDBRANCH  13  15
ENDBRANCH   4  13
TORSDOF 5
ENDMDL
MODEL 6
REMARK VINA RESULT:      -8.6      7.496     10.280
REMARK  Name = 6857727
REMARK  5 active torsions:
REMARK  status: ('A' for Active; 'I' for Inactive)
REMARK    1  A    between atoms: C_4  and  N_13
REMARK    2  A    between atoms: C_8  and  N_12
REMARK    3  A    between atoms: N_13  and  C_15
REMARK    4  A    between atoms: C_15  and  C_16
REMARK    5  A    between atoms: C_16  and  N_18
REMARK                            x       y       z     vdW  Elec       q    Type
REMARK                         _______ _______ _______ _____ _____    ______ ____
ROOT
ATOM      1  O   UNL     1      33.160 -22.768 -18.397  0.00  0.00    -0.241 OA
ATOM      2  N   UNL     1      34.295 -23.083 -17.671  0.00  0.00    -0.047 NA
ATOM      3  N   UNL     1      32.009 -22.903 -17.642  0.00  0.00    -0.047 NA
ATOM      4  C   UNL     1      34.602 -23.829 -15.321  0.00  0.00    +0.071 C 
ATOM      5  C   UNL     1      33.865 -23.423 -16.449  0.00  0.00    +0.158 A 
ATOM      6  C   UNL     1      33.820 -24.112 -14.187  0.00  0.00    +0.018 C 
ATOM      7  C   UNL     1      32.411 -23.308 -16.430  0.00  0.00    +0.167 A 
ATOM      8  C   UNL     1      31.648 -23.595 -15.283  0.00  0.00    +0.165 C 
ATOM      9  C   UNL     1      32.405 -23.999 -14.169  0.00  0.00    +0.027 C 
ENDROOT
BRANCH   8  12
ATOM     10  O   UNL     1      29.711 -22.411 -14.885  0.00  0.00    -0.126 OA
ATOM     11  O   UNL     1      29.543 -24.461 -15.650  0.00  0.00    -0.126 OA
ATOM     12  N   UNL     1      30.240 -23.484 -15.273  0.00  0.00    +0.059 N 
ENDBRANCH   8  12
BRANCH   4  13
ATOM     13  N   UNL     1      35.998 -23.952 -15.296  0.00  0.00    -0.303 N 
ATOM     14  C   UNL     1      36.840 -22.769 -15.479  0.00  0.00    +0.112 C 
BRANCH  13  15
ATOM     15  C   UNL     1      36.638 -25.227 -15.077  0.00  0.00    +0.112 C 
BRANCH  15  16
ATOM     16  C   UNL     1      36.799 -25.491 -13.589  0.00  0.00    +0.115 C 
BRANCH  16  18
ATOM     17  O   UNL     1      38.920 -23.269 -11.619  0.00  0.00    -0.275 OA
ATOM     18  N   UNL     1      37.996 -24.858 -13.040  0.00  0.00    -0.276 N 
ATOM     19  C   UNL     1      39.262 -25.381 -13.538  0.00  0.00    +0.115 C 
ATOM     20  C   UNL     1      37.932 -23.826 -12.104  0.00  0.00    +0.226 C 
ATOM     21  C   UNL     1      36.554 -23.385 -11.677  0.00  0.00    +0.095 C 
ENDBRANCH  16  18
ENDBRANCH  15  16
ENDBRANCH  13  15
ENDBRANCH   4  13
TORSDOF 5
ENDMDL
MODEL 7
REMARK VINA RESULT:      -8.6      7.630      9.954
REMARK  Name = 6857727
REMARK  5 active torsions:
REMARK  status: ('A' for Active; 'I' for Inactive)
REMARK    1  A    between atoms: C_4  and  N_13
REMARK    2  A    between atoms: C_8  and  N_12
REMARK    3  A    between atoms: N_13  and  C_15
REMARK    4  A    between atoms: C_15  and  C_16
REMARK    5  A    between atoms: C_16  and  N_18
REMARK                            x       y       z     vdW  Elec       q    Type
REMARK                         _______ _______ _______ _____ _____    ______ ____
ROOT
ATOM      1  O   UNL     1      36.392 -27.325 -16.151  0.00  0.00    -0.241 OA
ATOM      2  N   UNL     1      35.636 -26.348 -15.527  0.00  0.00    -0.047 NA
ATOM      3  N   UNL     1      37.740 -27.195 -15.866  0.00  0.00    -0.047 NA
ATOM      4  C   UNL     1      36.268 -24.464 -14.037  0.00  0.00    +0.071 C 
ATOM      5  C   UNL     1      36.505 -25.592 -14.844  0.00  0.00    +0.158 A 
ATOM      6  C   UNL     1      37.426 -23.908 -13.463  0.00  0.00    +0.018 C 
ATOM      7  C   UNL     1      37.843 -26.131 -15.060  0.00  0.00    +0.167 A 
ATOM      8  C   UNL     1      38.988 -25.559 -14.474  0.00  0.00    +0.165 C 
ATOM      9  C   UNL     1      38.728 -24.433 -13.672  0.00  0.00    +0.027 C 
ENDROOT
BRANCH   8  12
ATOM     10  O   UNL     1      40.766 -26.069 -15.849  0.00  0.00    -0.126 OA
ATOM     11  O   UNL     1      40.922 -26.557 -13.714  0.00  0.00    -0.126 OA
ATOM     12  N   UNL     1      40.281 -26.084 -14.688  0.00  0.00    +0.059 N 
ENDBRANCH   8  12
BRANCH   4  13
ATOM     13  N   UNL     1      35.000 -23.915 -13.804  0.00  0.00    -0.303 N 
ATOM     14  C   UNL     1      34.376 -24.048 -12.486  0.00  0.00    +0.112 C 
BRANCH  13  15
ATOM     15  C   UNL     1      34.288 -23.199 -14.835  0.00  0.00    +0.112 C 
BRANCH  15  16
ATOM     16  C   UNL     1      32.942 -23.853 -15.102  0.00  0.00    +0.115 C 
BRANCH  16  18
ATOM     17  O   UNL     1      30.317 -22.366 -17.156  0.00  0.00    -0.275 OA
ATOM     18  N   UNL     1      32.260 -23.267 -16.254  0.00  0.00    -0.276 N 
ATOM     19  C   UNL     1      33.072 -23.133 -17.456  0.00  0.00    +0.115 C 
ATOM     20  C   UNL     1      30.925 -22.864 -16.205  0.00  0.00    +0.226 C 
ATOM     21  C   UNL     1      30.206 -23.062 -14.895  0.00  0.00    +0.095 C 
ENDBRANCH  16  18
ENDBRANCH  15  16
ENDBRANCH  13  15
ENDBRANCH   4  13
TORSDOF 5
ENDMDL
MODEL 8
REMARK VINA RESULT:      -8.5      2.184      7.353
REMARK  Name = 6857727
REMARK  5 active torsions:
REMARK  status: ('A' for Active; 'I' for Inactive)
REMARK    1  A    between atoms: C_4  and  N_13
REMARK    2  A    between atoms: C_8  and  N_12
REMARK    3  A    between atoms: N_13  and  C_15
REMARK    4  A    between atoms: C_15  and  C_16
REMARK    5  A    between atoms: C_16  and  N_18
REMARK                            x       y       z     vdW  Elec       q    Type
REMARK                         _______ _______ _______ _____ _____    ______ ____
ROOT
ATOM      1  O   UNL     1      34.576 -15.132 -20.755  0.00  0.00    -0.241 OA
ATOM      2  N   UNL     1      35.040 -16.417 -20.531  0.00  0.00    -0.047 NA
ATOM      3  N   UNL     1      34.235 -14.930 -22.080  0.00  0.00    -0.047 NA
ATOM      4  C   UNL     1      35.354 -18.352 -22.055  0.00  0.00    +0.071 C 
ATOM      5  C   UNL     1      34.995 -17.034 -21.718  0.00  0.00    +0.158 A 
ATOM      6  C   UNL     1      35.177 -18.673 -23.413  0.00  0.00    +0.018 C 
ATOM      7  C   UNL     1      34.483 -16.089 -22.703  0.00  0.00    +0.167 A 
ATOM      8  C   UNL     1      34.313 -16.432 -24.057  0.00  0.00    +0.165 C 
ATOM      9  C   UNL     1      34.678 -17.753 -24.372  0.00  0.00    +0.027 C 
ENDROOT
BRANCH   8  12
ATOM     10  O   UNL     1      33.383 -14.398 -24.616  0.00  0.00    -0.126 OA
ATOM     11  O   UNL     1      33.822 -15.823 -26.227  0.00  0.00    -0.126 OA
ATOM     12  N   UNL     1      33.818 -15.511 -25.007  0.00  0.00    +0.059 N 
ENDBRANCH   8  12
BRANCH   4  13
ATOM     13  N   UNL     1      35.850 -19.292 -21.140  0.00  0.00    -0.303 N 
ATOM     14  C   UNL     1      37.270 -19.290 -20.787  0.00  0.00    +0.112 C 
BRANCH  13  15
ATOM     15  C   UNL     1      34.985 -20.265 -20.517  0.00  0.00    +0.112 C 
BRANCH  15  16
ATOM     16  C   UNL     1      35.805 -21.390 -19.906  0.00  0.00    +0.115 C 
BRANCH  16  18
ATOM     17  O   UNL     1      35.030 -22.894 -16.673  0.00  0.00    -0.275 OA
ATOM     18  N   UNL     1      35.078 -22.098 -18.856  0.00  0.00    -0.276 N 
ATOM     19  C   UNL     1      33.753 -22.576 -19.229  0.00  0.00    +0.115 C 
ATOM     20  C   UNL     1      35.614 -22.302 -17.584  0.00  0.00    +0.226 C 
ATOM     21  C   UNL     1      36.997 -21.752 -17.337  0.00  0.00    +0.095 C 
ENDBRANCH  16  18
ENDBRANCH  15  16
ENDBRANCH  13  15
ENDBRANCH   4  13
TORSDOF 5
ENDMDL
MODEL 9
REMARK VINA RESULT:      -8.5      2.116      3.123
REMARK  Name = 6857727
REMARK  5 active torsions:
REMARK  status: ('A' for Active; 'I' for Inactive)
REMARK    1  A    between atoms: C_4  and  N_13
REMARK    2  A    between atoms: C_8  and  N_12
REMARK    3  A    between atoms: N_13  and  C_15
REMARK    4  A    between atoms: C_15  and  C_16
REMARK    5  A    between atoms: C_16  and  N_18
REMARK                            x       y       z     vdW  Elec       q    Type
REMARK                         _______ _______ _______ _____ _____    ______ ____
ROOT
ATOM      1  O   UNL     1      32.320 -20.618 -20.347  0.00  0.00    -0.241 OA
ATOM      2  N   UNL     1      32.949 -19.770 -21.241  0.00  0.00    -0.047 NA
ATOM      3  N   UNL     1      33.224 -21.244 -19.506  0.00  0.00    -0.047 NA
ATOM      4  C   UNL     1      35.343 -19.205 -21.583  0.00  0.00    +0.071 C 
ATOM      5  C   UNL     1      34.257 -19.858 -20.971  0.00  0.00    +0.158 A 
ATOM      6  C   UNL     1      36.599 -19.534 -21.041  0.00  0.00    +0.018 C 
ATOM      7  C   UNL     1      34.432 -20.796 -19.868  0.00  0.00    +0.167 A 
ATOM      8  C   UNL     1      35.699 -21.110 -19.340  0.00  0.00    +0.165 C 
ATOM      9  C   UNL     1      36.769 -20.447 -19.967  0.00  0.00    +0.027 C 
ENDROOT
BRANCH   8  12
ATOM     10  O   UNL     1      36.883 -21.938 -17.545  0.00  0.00    -0.126 OA
ATOM     11  O   UNL     1      34.981 -22.897 -18.072  0.00  0.00    -0.126 OA
ATOM     12  N   UNL     1      35.861 -22.020 -18.273  0.00  0.00    +0.059 N 
ENDBRANCH   8  12
BRANCH   4  13
ATOM     13  N   UNL     1      35.220 -18.298 -22.645  0.00  0.00    -0.303 N 
ATOM     14  C   UNL     1      34.964 -18.788 -24.000  0.00  0.00    +0.112 C 
BRANCH  13  15
ATOM     15  C   UNL     1      35.326 -16.874 -22.435  0.00  0.00    +0.112 C 
BRANCH  15  16
ATOM     16  C   UNL     1      34.037 -16.327 -21.844  0.00  0.00    +0.115 C 
BRANCH  16  18
ATOM     17  O   UNL     1      32.246 -13.279 -22.749  0.00  0.00    -0.275 OA
ATOM     18  N   UNL     1      33.467 -15.254 -22.655  0.00  0.00    -0.276 N 
ATOM     19  C   UNL     1      33.713 -15.358 -24.088  0.00  0.00    +0.115 C 
ATOM     20  C   UNL     1      32.741 -14.202 -22.096  0.00  0.00    +0.226 C 
ATOM     21  C   UNL     1      32.565 -14.221 -20.599  0.00  0.00    +0.095 C 
ENDBRANCH  16  18
ENDBRANCH  15  16
ENDBRANCH  13  15
ENDBRANCH   4  13
TORSDOF 5
ENDMDL
