MODEL 1
REMARK VINA RESULT:      -6.8      0.000      0.000
REMARK  Name = 8365
REMARK  4 active torsions:
REMARK  status: ('A' for Active; 'I' for Inactive)
REMARK    1  A    between atoms: C_1  and  C_10
REMARK    2  A    between atoms: C_2  and  O_7
REMARK    3  A    between atoms: C_10  and  O_11
REMARK    4  A    between atoms: O_11  and  C_12
REMARK                            x       y       z     vdW  Elec       q    Type
REMARK                         _______ _______ _______ _____ _____    ______ ____
ROOT
ATOM      1  C   UNL     1      34.770 -20.116 -20.557  0.00  0.00    +0.109 C 
ATOM      2  C   UNL     1      33.551 -20.688 -20.194  0.00  0.00    +0.140 C 
ATOM      3  C   UNL     1      35.960 -20.613 -20.026  0.00  0.00    +0.009 C 
ATOM      4  C   UNL     1      33.522 -21.757 -19.298  0.00  0.00    +0.037 C 
ATOM      5  C   UNL     1      35.930 -21.682 -19.130  0.00  0.00    +0.000 C 
ATOM      6  C   UNL     1      34.712 -22.253 -18.766  0.00  0.00    +0.003 C 
ENDROOT
BRANCH   2   7
ATOM      7  O   UNL     1      32.377 -20.216 -20.701  0.00  0.00    -0.505 OA
ATOM      8  H   UNL     1      31.694 -19.941 -20.121  0.00  0.00    +0.292 HD
ENDBRANCH   2   7
BRANCH   1  10
ATOM      9  O   UNL     1      34.526 -19.074 -22.689  0.00  0.00    -0.245 OA
ATOM     10  C   UNL     1      34.823 -18.998 -21.490  0.00  0.00    +0.344 C 
BRANCH  10  11
ATOM     11  O   UNL     1      35.241 -17.851 -20.874  0.00  0.00    -0.445 OA
BRANCH  11  12
ATOM     12  C   UNL     1      34.966 -16.619 -21.550  0.00  0.00    +0.209 C 
ATOM     13  C   UNL     1      34.510 -15.592 -20.535  0.00  0.00    +0.051 C 
ENDBRANCH  11  12
ENDBRANCH  10  11
ENDBRANCH   1  10
TORSDOF 4
ENDMDL
MODEL 2
REMARK VINA RESULT:      -6.7      2.127      4.673
REMARK  Name = 8365
REMARK  4 active torsions:
REMARK  status: ('A' for Active; 'I' for Inactive)
REMARK    1  A    between atoms: C_1  and  C_10
REMARK    2  A    between atoms: C_2  and  O_7
REMARK    3  A    between atoms: C_10  and  O_11
REMARK    4  A    between atoms: O_11  and  C_12
REMARK                            x       y       z     vdW  Elec       q    Type
REMARK                         _______ _______ _______ _____ _____    ______ ____
ROOT
ATOM      1  C   UNL     1      34.511 -21.521 -19.733  0.00  0.00    +0.109 C 
ATOM      2  C   UNL     1      33.826 -20.502 -20.395  0.00  0.00    +0.140 C 
ATOM      3  C   UNL     1      35.897 -21.453 -19.592  0.00  0.00    +0.009 C 
ATOM      4  C   UNL     1      34.527 -19.415 -20.917  0.00  0.00    +0.037 C 
ATOM      5  C   UNL     1      36.598 -20.366 -20.115  0.00  0.00    +0.000 C 
ATOM      6  C   UNL     1      35.914 -19.348 -20.777  0.00  0.00    +0.003 C 
ENDROOT
BRANCH   2   7
ATOM      7  O   UNL     1      32.472 -20.551 -20.544  0.00  0.00    -0.505 OA
ATOM      8  H   UNL     1      32.013 -19.812 -20.894  0.00  0.00    +0.292 HD
ENDBRANCH   2   7
BRANCH   1  10
ATOM      9  O   UNL     1      34.017 -23.842 -19.496  0.00  0.00    -0.245 OA
ATOM     10  C   UNL     1      33.798 -22.665 -19.182  0.00  0.00    +0.344 C 
BRANCH  10  11
ATOM     11  O   UNL     1      32.855 -22.277 -18.271  0.00  0.00    -0.445 OA
BRANCH  11  12
ATOM     12  C   UNL     1      32.700 -23.102 -17.111  0.00  0.00    +0.209 C 
ATOM     13  C   UNL     1      31.296 -22.935 -16.571  0.00  0.00    +0.051 C 
ENDBRANCH  11  12
ENDBRANCH  10  11
ENDBRANCH   1  10
TORSDOF 4
ENDMDL
MODEL 3
REMARK VINA RESULT:      -6.7      2.650      4.519
REMARK  Name = 8365
REMARK  4 active torsions:
REMARK  status: ('A' for Active; 'I' for Inactive)
REMARK    1  A    between atoms: C_1  and  C_10
REMARK    2  A    between atoms: C_2  and  O_7
REMARK    3  A    between atoms: C_10  and  O_11
REMARK    4  A    between atoms: O_11  and  C_12
REMARK                            x       y       z     vdW  Elec       q    Type
REMARK                         _______ _______ _______ _____ _____    ______ ____
ROOT
ATOM      1  C   UNL     1      34.848 -21.206 -19.565  0.00  0.00    +0.109 C 
ATOM      2  C   UNL     1      33.471 -21.058 -19.731  0.00  0.00    +0.140 C 
ATOM      3  C   UNL     1      35.730 -20.471 -20.358  0.00  0.00    +0.009 C 
ATOM      4  C   UNL     1      32.975 -20.175 -20.690  0.00  0.00    +0.037 C 
ATOM      5  C   UNL     1      35.233 -19.588 -21.317  0.00  0.00    +0.000 C 
ATOM      6  C   UNL     1      33.857 -19.440 -21.484  0.00  0.00    +0.003 C 
ENDROOT
BRANCH   2   7
ATOM      7  O   UNL     1      32.594 -21.769 -18.968  0.00  0.00    -0.505 OA
ATOM      8  H   UNL     1      31.922 -21.323 -18.489  0.00  0.00    +0.292 HD
ENDBRANCH   2   7
BRANCH   1  10
ATOM      9  O   UNL     1      34.745 -23.044 -18.049  0.00  0.00    -0.245 OA
ATOM     10  C   UNL     1      35.387 -22.124 -18.570  0.00  0.00    +0.344 C 
BRANCH  10  11
ATOM     11  O   UNL     1      36.694 -21.841 -18.284  0.00  0.00    -0.445 OA
BRANCH  11  12
ATOM     12  C   UNL     1      36.986 -21.427 -16.945  0.00  0.00    +0.209 C 
ATOM     13  C   UNL     1      37.618 -22.583 -16.199  0.00  0.00    +0.051 C 
ENDBRANCH  11  12
ENDBRANCH  10  11
ENDBRANCH   1  10
TORSDOF 4
ENDMDL
MODEL 4
REMARK VINA RESULT:      -6.7      2.702      5.247
REMARK  Name = 8365
REMARK  4 active torsions:
REMARK  status: ('A' for Active; 'I' for Inactive)
REMARK    1  A    between atoms: C_1  and  C_10
REMARK    2  A    between atoms: C_2  and  O_7
REMARK    3  A    between atoms: C_10  and  O_11
REMARK    4  A    between atoms: O_11  and  C_12
REMARK                            x       y       z     vdW  Elec       q    Type
REMARK                         _______ _______ _______ _____ _____    ______ ____
ROOT
ATOM      1  C   UNL     1      33.911 -21.557 -19.500  0.00  0.00    +0.109 C 
ATOM      2  C   UNL     1      35.278 -21.295 -19.580  0.00  0.00    +0.140 C 
ATOM      3  C   UNL     1      33.002 -20.733 -20.165  0.00  0.00    +0.009 C 
ATOM      4  C   UNL     1      35.738 -20.209 -20.326  0.00  0.00    +0.037 C 
ATOM      5  C   UNL     1      33.462 -19.648 -20.910  0.00  0.00    +0.000 C 
ATOM      6  C   UNL     1      34.829 -19.385 -20.990  0.00  0.00    +0.003 C 
ENDROOT
BRANCH   2   7
ATOM      7  O   UNL     1      36.182 -22.086 -18.937  0.00  0.00    -0.505 OA
ATOM      8  H   UNL     1      35.997 -22.995 -18.803  0.00  0.00    +0.292 HD
ENDBRANCH   2   7
BRANCH   1  10
ATOM      9  O   UNL     1      33.884 -23.827 -18.769  0.00  0.00    -0.245 OA
ATOM     10  C   UNL     1      33.410 -22.684 -18.725  0.00  0.00    +0.344 C 
BRANCH  10  11
ATOM     11  O   UNL     1      32.350 -22.322 -17.941  0.00  0.00    -0.445 OA
BRANCH  11  12
ATOM     12  C   UNL     1      32.108 -23.119 -16.776  0.00  0.00    +0.209 C 
ATOM     13  C   UNL     1      30.672 -22.923 -16.336  0.00  0.00    +0.051 C 
ENDBRANCH  11  12
ENDBRANCH  10  11
ENDBRANCH   1  10
TORSDOF 4
ENDMDL
MODEL 5
REMARK VINA RESULT:      -6.7      1.771      2.933
REMARK  Name = 8365
REMARK  4 active torsions:
REMARK  status: ('A' for Active; 'I' for Inactive)
REMARK    1  A    between atoms: C_1  and  C_10
REMARK    2  A    between atoms: C_2  and  O_7
REMARK    3  A    between atoms: C_10  and  O_11
REMARK    4  A    between atoms: O_11  and  C_12
REMARK                            x       y       z     vdW  Elec       q    Type
REMARK                         _______ _______ _______ _____ _____    ______ ____
ROOT
ATOM      1  C   UNL     1      34.723 -19.056 -21.120  0.00  0.00    +0.109 C 
ATOM      2  C   UNL     1      35.736 -19.842 -20.571  0.00  0.00    +0.140 C 
ATOM      3  C   UNL     1      33.386 -19.410 -20.934  0.00  0.00    +0.009 C 
ATOM      4  C   UNL     1      35.413 -20.983 -19.836  0.00  0.00    +0.037 C 
ATOM      5  C   UNL     1      33.064 -20.551 -20.199  0.00  0.00    +0.000 C 
ATOM      6  C   UNL     1      34.077 -21.338 -19.651  0.00  0.00    +0.003 C 
ENDROOT
BRANCH   2   7
ATOM      7  O   UNL     1      37.047 -19.513 -20.743  0.00  0.00    -0.505 OA
ATOM      8  H   UNL     1      37.304 -18.612 -20.776  0.00  0.00    +0.292 HD
ENDBRANCH   2   7
BRANCH   1  10
ATOM      9  O   UNL     1      34.727 -16.712 -21.558  0.00  0.00    -0.245 OA
ATOM     10  C   UNL     1      35.038 -17.862 -21.892  0.00  0.00    +0.344 C 
BRANCH  10  11
ATOM     11  O   UNL     1      35.725 -18.170 -23.034  0.00  0.00    -0.445 OA
BRANCH  11  12
ATOM     12  C   UNL     1      34.948 -18.611 -24.153  0.00  0.00    +0.209 C 
ATOM     13  C   UNL     1      34.646 -17.423 -25.042  0.00  0.00    +0.051 C 
ENDBRANCH  11  12
ENDBRANCH  10  11
ENDBRANCH   1  10
TORSDOF 4
ENDMDL
MODEL 6
REMARK VINA RESULT:      -6.6      2.043      5.087
REMARK  Name = 8365
REMARK  4 active torsions:
REMARK  status: ('A' for Active; 'I' for Inactive)
REMARK    1  A    between atoms: C_1  and  C_10
REMARK    2  A    between atoms: C_2  and  O_7
REMARK    3  A    between atoms: C_10  and  O_11
REMARK    4  A    between atoms: O_11  and  C_12
REMARK                            x       y       z     vdW  Elec       q    Type
REMARK                         _______ _______ _______ _____ _____    ______ ____
ROOT
ATOM      1  C   UNL     1      34.939 -18.199 -22.703  0.00  0.00    +0.109 C 
ATOM      2  C   UNL     1      34.879 -16.806 -22.694  0.00  0.00    +0.140 C 
ATOM      3  C   UNL     1      34.798 -18.897 -23.903  0.00  0.00    +0.009 C 
ATOM      4  C   UNL     1      34.676 -16.109 -23.886  0.00  0.00    +0.037 C 
ATOM      5  C   UNL     1      34.595 -18.200 -25.093  0.00  0.00    +0.000 C 
ATOM      6  C   UNL     1      34.534 -16.807 -25.085  0.00  0.00    +0.003 C 
ENDROOT
BRANCH   2   7
ATOM      7  O   UNL     1      35.014 -16.107 -21.532  0.00  0.00    -0.505 OA
ATOM      8  H   UNL     1      34.492 -15.342 -21.383  0.00  0.00    +0.292 HD
ENDBRANCH   2   7
BRANCH   1  10
ATOM      9  O   UNL     1      35.936 -18.611 -20.576  0.00  0.00    -0.245 OA
ATOM     10  C   UNL     1      35.149 -18.946 -21.469  0.00  0.00    +0.344 C 
BRANCH  10  11
ATOM     11  O   UNL     1      34.364 -20.065 -21.422  0.00  0.00    -0.445 OA
BRANCH  11  12
ATOM     12  C   UNL     1      33.218 -20.013 -20.566  0.00  0.00    +0.209 C 
ATOM     13  C   UNL     1      33.272 -21.178 -19.600  0.00  0.00    +0.051 C 
ENDBRANCH  11  12
ENDBRANCH  10  11
ENDBRANCH   1  10
TORSDOF 4
ENDMDL
MODEL 7
REMARK VINA RESULT:      -6.5      2.141      5.942
REMARK  Name = 8365
REMARK  4 active torsions:
REMARK  status: ('A' for Active; 'I' for Inactive)
REMARK    1  A    between atoms: C_1  and  C_10
REMARK    2  A    between atoms: C_2  and  O_7
REMARK    3  A    between atoms: C_10  and  O_11
REMARK    4  A    between atoms: O_11  and  C_12
REMARK                            x       y       z     vdW  Elec       q    Type
REMARK                         _______ _______ _______ _____ _____    ______ ____
ROOT
ATOM      1  C   UNL     1      34.083 -15.915 -21.843  0.00  0.00    +0.109 C 
ATOM      2  C   UNL     1      34.557 -15.391 -23.045  0.00  0.00    +0.140 C 
ATOM      3  C   UNL     1      33.024 -15.295 -21.180  0.00  0.00    +0.009 C 
ATOM      4  C   UNL     1      33.972 -14.245 -23.585  0.00  0.00    +0.037 C 
ATOM      5  C   UNL     1      32.439 -14.150 -21.721  0.00  0.00    +0.000 C 
ATOM      6  C   UNL     1      32.913 -13.624 -22.922  0.00  0.00    +0.003 C 
ENDROOT
BRANCH   2   7
ATOM      7  O   UNL     1      35.592 -15.981 -23.707  0.00  0.00    -0.505 OA
ATOM      8  H   UNL     1      35.601 -15.996 -24.644  0.00  0.00    +0.292 HD
ENDBRANCH   2   7
BRANCH   1  10
ATOM      9  O   UNL     1      35.469 -17.102 -20.308  0.00  0.00    -0.245 OA
ATOM     10  C   UNL     1      34.681 -17.109 -21.261  0.00  0.00    +0.344 C 
BRANCH  10  11
ATOM     11  O   UNL     1      34.261 -18.242 -21.902  0.00  0.00    -0.445 OA
BRANCH  11  12
ATOM     12  C   UNL     1      34.322 -19.464 -21.157  0.00  0.00    +0.209 C 
ATOM     13  C   UNL     1      32.924 -19.837 -20.709  0.00  0.00    +0.051 C 
ENDBRANCH  11  12
ENDBRANCH  10  11
ENDBRANCH   1  10
TORSDOF 4
ENDMDL
MODEL 8
REMARK VINA RESULT:      -6.5      3.054      4.358
REMARK  Name = 8365
REMARK  4 active torsions:
REMARK  status: ('A' for Active; 'I' for Inactive)
REMARK    1  A    between atoms: C_1  and  C_10
REMARK    2  A    between atoms: C_2  and  O_7
REMARK    3  A    between atoms: C_10  and  O_11
REMARK    4  A    between atoms: O_11  and  C_12
REMARK                            x       y       z     vdW  Elec       q    Type
REMARK                         _______ _______ _______ _____ _____    ______ ____
ROOT
ATOM      1  C   UNL     1      34.659 -16.947 -21.868  0.00  0.00    +0.109 C 
ATOM      2  C   UNL     1      35.196 -17.055 -23.151  0.00  0.00    +0.140 C 
ATOM      3  C   UNL     1      34.191 -18.085 -21.209  0.00  0.00    +0.009 C 
ATOM      4  C   UNL     1      35.263 -18.300 -23.776  0.00  0.00    +0.037 C 
ATOM      5  C   UNL     1      34.258 -19.329 -21.835  0.00  0.00    +0.000 C 
ATOM      6  C   UNL     1      34.794 -19.437 -23.118  0.00  0.00    +0.003 C 
ENDROOT
BRANCH   2   7
ATOM      7  O   UNL     1      35.657 -15.956 -23.811  0.00  0.00    -0.505 OA
ATOM      8  H   UNL     1      35.558 -15.893 -24.741  0.00  0.00    +0.292 HD
ENDBRANCH   2   7
BRANCH   1  10
ATOM      9  O   UNL     1      34.945 -15.450 -20.034  0.00  0.00    -0.245 OA
ATOM     10  C   UNL     1      34.578 -15.657 -21.197  0.00  0.00    +0.344 C 
BRANCH  10  11
ATOM     11  O   UNL     1      34.046 -14.700 -22.016  0.00  0.00    -0.445 OA
BRANCH  11  12
ATOM     12  C   UNL     1      32.622 -14.549 -21.991  0.00  0.00    +0.209 C 
ATOM     13  C   UNL     1      32.264 -13.401 -21.070  0.00  0.00    +0.051 C 
ENDBRANCH  11  12
ENDBRANCH  10  11
ENDBRANCH   1  10
TORSDOF 4
ENDMDL
MODEL 9
REMARK VINA RESULT:      -6.4      3.545      5.249
REMARK  Name = 8365
REMARK  4 active torsions:
REMARK  status: ('A' for Active; 'I' for Inactive)
REMARK    1  A    between atoms: C_1  and  C_10
REMARK    2  A    between atoms: C_2  and  O_7
REMARK    3  A    between atoms: C_10  and  O_11
REMARK    4  A    between atoms: O_11  and  C_12
REMARK                            x       y       z     vdW  Elec       q    Type
REMARK                         _______ _______ _______ _____ _____    ______ ____
ROOT
ATOM      1  C   UNL     1      33.095 -23.105 -17.156  0.00  0.00    +0.109 C 
ATOM      2  C   UNL     1      34.130 -23.304 -16.243  0.00  0.00    +0.140 C 
ATOM      3  C   UNL     1      31.774 -23.038 -16.711  0.00  0.00    +0.009 C 
ATOM      4  C   UNL     1      33.845 -23.436 -14.884  0.00  0.00    +0.037 C 
ATOM      5  C   UNL     1      31.490 -23.170 -15.352  0.00  0.00    +0.000 C 
ATOM      6  C   UNL     1      32.525 -23.370 -14.439  0.00  0.00    +0.003 C 
ENDROOT
BRANCH   2   7
ATOM      7  O   UNL     1      35.426 -23.375 -16.658  0.00  0.00    -0.505 OA
ATOM      8  H   UNL     1      36.087 -23.697 -16.077  0.00  0.00    +0.292 HD
ENDBRANCH   2   7
BRANCH   1  10
ATOM      9  O   UNL     1      34.045 -23.765 -19.242  0.00  0.00    -0.245 OA
ATOM     10  C   UNL     1      33.371 -22.966 -18.580  0.00  0.00    +0.344 C 
BRANCH  10  11
ATOM     11  O   UNL     1      32.789 -21.841 -19.095  0.00  0.00    -0.445 OA
BRANCH  11  12
ATOM     12  C   UNL     1      33.625 -20.986 -19.883  0.00  0.00    +0.209 C 
ATOM     13  C   UNL     1      32.762 -19.939 -20.557  0.00  0.00    +0.051 C 
ENDBRANCH  11  12
ENDBRANCH  10  11
ENDBRANCH   1  10
TORSDOF 4
ENDMDL
