MODEL 1
REMARK VINA RESULT:      -8.8      0.000      0.000
REMARK  Name = 6713928
REMARK  6 active torsions:
REMARK  status: ('A' for Active; 'I' for Inactive)
REMARK    1  A    between atoms: CA_6  and  C_25
REMARK    2  A    between atoms: CA_7  and  N_12
REMARK    3  A    between atoms: C_13  and  CA_15
REMARK    4  A    between atoms: CA_15  and  C_16
REMARK    5  A    between atoms: CA_15  and  N_22
REMARK    6  A    between atoms: C_25  and  O_26
REMARK                            x       y       z     vdW  Elec       q    Type
REMARK                         _______ _______ _______ _____ _____    ______ ____
ROOT
ATOM      1  S   UNL     1      34.517 -14.975 -23.503  0.00  0.00    -0.118 S 
ATOM      2  O   UNL     1      32.115 -15.411 -19.836  0.00  0.00    -0.273 OA
ATOM      3  N   UNL     1      33.346 -14.097 -21.362  0.00  0.00    -0.260 N 
ATOM      4  C   UNL     1      34.686 -14.566 -21.728  0.00  0.00    +0.151 C 
ATOM      5  C   UNL     1      33.238 -13.639 -23.729  0.00  0.00    +0.068 C 
ATOM      6  CA  UNL     1      32.440 -13.672 -22.409  0.00  0.00    +0.184 C 
ATOM      7  CA  UNL     1      34.486 -15.716 -20.731  0.00  0.00    +0.178 C 
ATOM      8  C   UNL     1      33.099 -15.096 -20.465  0.00  0.00    +0.247 C 
ATOM      9  C   UNL     1      33.977 -12.319 -23.993  0.00  0.00    +0.013 C 
ATOM     10  C   UNL     1      32.354 -13.993 -24.926  0.00  0.00    +0.013 C 
ENDROOT
BRANCH   7  12
ATOM     11  O   UNL     1      36.407 -17.833 -20.310  0.00  0.00    -0.273 OA
ATOM     12  N   UNL     1      34.435 -17.081 -21.272  0.00  0.00    -0.295 N 
ATOM     13  C   UNL     1      35.416 -18.038 -21.009  0.00  0.00    +0.243 C 
ATOM     14  H   UNL     1      33.675 -17.333 -21.844  0.00  0.00    +0.150 HD
BRANCH  13  15
ATOM     15  CA  UNL     1      35.134 -19.382 -21.664  0.00  0.00    +0.171 C 
BRANCH  15  16
ATOM     16  C   UNL     1      34.584 -20.370 -20.662  0.00  0.00    +0.002 C 
ATOM     17  C   UNL     1      35.448 -21.256 -20.039  0.00  0.00    -0.002 C 
ATOM     18  C   UNL     1      33.227 -20.370 -20.384  0.00  0.00    -0.002 C 
ATOM     19  C   UNL     1      34.941 -22.168 -19.114  0.00  0.00    -0.000 C 
ATOM     20  C   UNL     1      32.720 -21.282 -19.458  0.00  0.00    -0.000 C 
ATOM     21  C   UNL     1      33.577 -22.181 -18.823  0.00  0.00    -0.000 C 
ENDBRANCH  15  16
BRANCH  15  22
ATOM     22  N   UNL     1      34.202 -19.118 -22.771  0.00  0.00    -0.205 NA
ATOM     23  C   UNL     1      34.735 -19.186 -23.931  0.00  0.00    +0.108 C 
ENDBRANCH  15  22
ENDBRANCH  13  15
ENDBRANCH   7  12
BRANCH   6  25
ATOM     24  OXT UNL     1      31.405 -11.516 -22.739  0.00  0.00    -0.248 OA
ATOM     25  C   UNL     1      31.854 -12.364 -21.982  0.00  0.00    +0.333 C 
BRANCH  25  26
ATOM     26  O   UNL     1      31.888 -12.241 -20.632  0.00  0.00    -0.479 OA
ATOM     27  H   UNL     1      32.671 -11.946 -20.209  0.00  0.00    +0.295 HD
ENDBRANCH  25  26
ENDBRANCH   6  25
TORSDOF 6
ENDMDL
MODEL 2
REMARK VINA RESULT:      -8.0      8.242     11.535
REMARK  Name = 6713928
REMARK  6 active torsions:
REMARK  status: ('A' for Active; 'I' for Inactive)
REMARK    1  A    between atoms: CA_6  and  C_25
REMARK    2  A    between atoms: CA_7  and  N_12
REMARK    3  A    between atoms: C_13  and  CA_15
REMARK    4  A    between atoms: CA_15  and  C_16
REMARK    5  A    between atoms: CA_15  and  N_22
REMARK    6  A    between atoms: C_25  and  O_26
REMARK                            x       y       z     vdW  Elec       q    Type
REMARK                         _______ _______ _______ _____ _____    ______ ____
ROOT
ATOM      1  S   UNL     1      35.407 -25.408 -14.333  0.00  0.00    -0.118 S 
ATOM      2  O   UNL     1      37.704 -22.527 -16.748  0.00  0.00    -0.273 OA
ATOM      3  N   UNL     1      37.399 -23.811 -14.792  0.00  0.00    -0.260 N 
ATOM      4  C   UNL     1      36.097 -23.726 -14.124  0.00  0.00    +0.151 C 
ATOM      5  C   UNL     1      37.114 -26.155 -14.289  0.00  0.00    +0.068 C 
ATOM      6  CA  UNL     1      37.985 -25.116 -15.026  0.00  0.00    +0.184 C 
ATOM      7  CA  UNL     1      35.699 -22.680 -15.175  0.00  0.00    +0.178 C 
ATOM      8  C   UNL     1      37.110 -22.894 -15.760  0.00  0.00    +0.247 C 
ATOM      9  C   UNL     1      37.493 -26.377 -12.819  0.00  0.00    +0.013 C 
ATOM     10  C   UNL     1      37.091 -27.492 -15.033  0.00  0.00    +0.013 C 
ENDROOT
BRANCH   7  12
ATOM     11  O   UNL     1      32.868 -22.743 -14.596  0.00  0.00    -0.273 OA
ATOM     12  N   UNL     1      34.611 -23.028 -16.100  0.00  0.00    -0.295 N 
ATOM     13  C   UNL     1      33.267 -23.028 -15.724  0.00  0.00    +0.243 C 
ATOM     14  H   UNL     1      34.840 -23.270 -17.026  0.00  0.00    +0.150 HD
BRANCH  13  15
ATOM     15  CA  UNL     1      32.327 -23.403 -16.860  0.00  0.00    +0.171 C 
BRANCH  15  16
ATOM     16  C   UNL     1      30.900 -23.504 -16.374  0.00  0.00    +0.002 C 
ATOM     17  C   UNL     1      30.030 -22.451 -16.603  0.00  0.00    -0.002 C 
ATOM     18  C   UNL     1      30.490 -24.649 -15.711  0.00  0.00    -0.002 C 
ATOM     19  C   UNL     1      28.712 -22.545 -16.154  0.00  0.00    -0.000 C 
ATOM     20  C   UNL     1      29.172 -24.743 -15.263  0.00  0.00    -0.000 C 
ATOM     21  C   UNL     1      28.283 -23.691 -15.485  0.00  0.00    -0.000 C 
ENDBRANCH  15  16
BRANCH  15  22
ATOM     22  N   UNL     1      32.502 -22.379 -17.901  0.00  0.00    -0.205 NA
ATOM     23  C   UNL     1      33.402 -22.658 -18.765  0.00  0.00    +0.108 C 
ENDBRANCH  15  22
ENDBRANCH  13  15
ENDBRANCH   7  12
BRANCH   6  25
ATOM     24  OXT UNL     1      39.796 -24.546 -13.534  0.00  0.00    -0.248 OA
ATOM     25  C   UNL     1      39.411 -25.046 -14.581  0.00  0.00    +0.333 C 
BRANCH  25  26
ATOM     26  O   UNL     1      40.229 -25.613 -15.502  0.00  0.00    -0.479 OA
ATOM     27  H   UNL     1      40.758 -26.350 -15.267  0.00  0.00    +0.295 HD
ENDBRANCH  25  26
ENDBRANCH   6  25
TORSDOF 6
ENDMDL
MODEL 3
REMARK VINA RESULT:      -7.5      9.760     12.107
REMARK  Name = 6713928
REMARK  6 active torsions:
REMARK  status: ('A' for Active; 'I' for Inactive)
REMARK    1  A    between atoms: CA_6  and  C_25
REMARK    2  A    between atoms: CA_7  and  N_12
REMARK    3  A    between atoms: C_13  and  CA_15
REMARK    4  A    between atoms: CA_15  and  C_16
REMARK    5  A    between atoms: CA_15  and  N_22
REMARK    6  A    between atoms: C_25  and  O_26
REMARK                            x       y       z     vdW  Elec       q    Type
REMARK                         _______ _______ _______ _____ _____    ______ ____
ROOT
ATOM      1  S   UNL     1      35.904 -23.603 -12.338  0.00  0.00    -0.118 S 
ATOM      2  O   UNL     1      35.319 -24.799 -16.537  0.00  0.00    -0.273 OA
ATOM      3  N   UNL     1      36.686 -24.032 -14.773  0.00  0.00    -0.260 N 
ATOM      4  C   UNL     1      36.205 -22.887 -13.995  0.00  0.00    +0.151 C 
ATOM      5  C   UNL     1      37.284 -24.832 -12.575  0.00  0.00    +0.068 C 
ATOM      6  CA  UNL     1      37.195 -25.195 -14.073  0.00  0.00    +0.184 C 
ATOM      7  CA  UNL     1      35.004 -22.825 -14.949  0.00  0.00    +0.178 C 
ATOM      8  C   UNL     1      35.644 -24.039 -15.654  0.00  0.00    +0.247 C 
ATOM      9  C   UNL     1      38.597 -24.153 -12.161  0.00  0.00    +0.013 C 
ATOM     10  C   UNL     1      37.022 -26.051 -11.689  0.00  0.00    +0.013 C 
ENDROOT
BRANCH   7  12
ATOM     11  O   UNL     1      32.494 -22.936 -16.377  0.00  0.00    -0.273 OA
ATOM     12  N   UNL     1      33.675 -23.095 -14.386  0.00  0.00    -0.295 N 
ATOM     13  C   UNL     1      32.515 -23.129 -15.162  0.00  0.00    +0.243 C 
ATOM     14  H   UNL     1      33.598 -23.261 -13.419  0.00  0.00    +0.150 HD
BRANCH  13  15
ATOM     15  CA  UNL     1      31.264 -23.446 -14.357  0.00  0.00    +0.171 C 
BRANCH  15  16
ATOM     16  C   UNL     1      30.027 -23.371 -15.221  0.00  0.00    +0.002 C 
ATOM     17  C   UNL     1      29.251 -22.224 -15.195  0.00  0.00    -0.002 C 
ATOM     18  C   UNL     1      29.696 -24.449 -16.024  0.00  0.00    -0.002 C 
ATOM     19  C   UNL     1      28.108 -22.155 -15.993  0.00  0.00    -0.000 C 
ATOM     20  C   UNL     1      28.554 -24.380 -16.823  0.00  0.00    -0.000 C 
ATOM     21  C   UNL     1      27.760 -23.232 -16.807  0.00  0.00    -0.000 C 
ENDBRANCH  15  16
BRANCH  15  22
ATOM     22  N   UNL     1      31.471 -24.781 -13.776  0.00  0.00    -0.205 NA
ATOM     23  C   UNL     1      30.602 -25.111 -12.898  0.00  0.00    +0.108 C 
ENDBRANCH  15  22
ENDBRANCH  13  15
ENDBRANCH   7  12
BRANCH   6  25
ATOM     24  OXT UNL     1      39.000 -26.678 -14.679  0.00  0.00    -0.248 OA
ATOM     25  C   UNL     1      38.491 -25.568 -14.719  0.00  0.00    +0.333 C 
BRANCH  25  26
ATOM     26  O   UNL     1      39.031 -24.502 -15.360  0.00  0.00    -0.479 OA
ATOM     27  H   UNL     1      38.830 -24.347 -16.262  0.00  0.00    +0.295 HD
ENDBRANCH  25  26
ENDBRANCH   6  25
TORSDOF 6
ENDMDL
MODEL 4
REMARK VINA RESULT:      -7.3      6.793     10.974
REMARK  Name = 6713928
REMARK  6 active torsions:
REMARK  status: ('A' for Active; 'I' for Inactive)
REMARK    1  A    between atoms: CA_6  and  C_25
REMARK    2  A    between atoms: CA_7  and  N_12
REMARK    3  A    between atoms: C_13  and  CA_15
REMARK    4  A    between atoms: CA_15  and  C_16
REMARK    5  A    between atoms: CA_15  and  N_22
REMARK    6  A    between atoms: C_25  and  O_26
REMARK                            x       y       z     vdW  Elec       q    Type
REMARK                         _______ _______ _______ _____ _____    ______ ____
ROOT
ATOM      1  S   UNL     1      35.520 -25.428 -15.178  0.00  0.00    -0.118 S 
ATOM      2  O   UNL     1      37.931 -21.789 -15.769  0.00  0.00    -0.273 OA
ATOM      3  N   UNL     1      37.127 -23.543 -14.410  0.00  0.00    -0.260 N 
ATOM      4  C   UNL     1      35.680 -23.780 -14.400  0.00  0.00    +0.151 C 
ATOM      5  C   UNL     1      37.171 -25.955 -14.495  0.00  0.00    +0.068 C 
ATOM      6  CA  UNL     1      38.023 -24.670 -14.570  0.00  0.00    +0.184 C 
ATOM      7  CA  UNL     1      35.539 -22.562 -15.324  0.00  0.00    +0.178 C 
ATOM      8  C   UNL     1      37.075 -22.456 -15.234  0.00  0.00    +0.247 C 
ATOM      9  C   UNL     1      36.944 -26.486 -13.073  0.00  0.00    +0.013 C 
ATOM     10  C   UNL     1      37.748 -27.060 -15.382  0.00  0.00    +0.013 C 
ENDROOT
BRANCH   7  12
ATOM     11  O   UNL     1      32.779 -22.783 -16.152  0.00  0.00    -0.273 OA
ATOM     12  N   UNL     1      35.037 -22.797 -16.685  0.00  0.00    -0.295 N 
ATOM     13  C   UNL     1      33.677 -22.888 -16.986  0.00  0.00    +0.243 C 
ATOM     14  H   UNL     1      35.687 -22.894 -17.417  0.00  0.00    +0.150 HD
BRANCH  13  15
ATOM     15  CA  UNL     1      33.404 -23.116 -18.465  0.00  0.00    +0.171 C 
BRANCH  15  16
ATOM     16  C   UNL     1      33.900 -21.954 -19.294  0.00  0.00    +0.002 C 
ATOM     17  C   UNL     1      32.986 -21.045 -19.801  0.00  0.00    -0.002 C 
ATOM     18  C   UNL     1      35.258 -21.820 -19.530  0.00  0.00    -0.002 C 
ATOM     19  C   UNL     1      33.444 -19.972 -20.567  0.00  0.00    -0.000 C 
ATOM     20  C   UNL     1      35.716 -20.747 -20.295  0.00  0.00    -0.000 C 
ATOM     21  C   UNL     1      34.808 -19.823 -20.813  0.00  0.00    -0.000 C 
ENDBRANCH  15  16
BRANCH  15  22
ATOM     22  N   UNL     1      34.057 -24.385 -18.819  0.00  0.00    -0.205 NA
ATOM     23  C   UNL     1      33.870 -24.751 -20.029  0.00  0.00    +0.108 C 
ENDBRANCH  15  22
ENDBRANCH  13  15
ENDBRANCH   7  12
BRANCH   6  25
ATOM     24  OXT UNL     1      38.928 -24.029 -12.426  0.00  0.00    -0.248 OA
ATOM     25  C   UNL     1      39.084 -24.543 -13.524  0.00  0.00    +0.333 C 
BRANCH  25  26
ATOM     26  O   UNL     1      40.252 -25.076 -13.958  0.00  0.00    -0.479 OA
ATOM     27  H   UNL     1      40.243 -25.811 -14.540  0.00  0.00    +0.295 HD
ENDBRANCH  25  26
ENDBRANCH   6  25
TORSDOF 6
ENDMDL
MODEL 5
REMARK VINA RESULT:      -7.3      3.599      8.156
REMARK  Name = 6713928
REMARK  6 active torsions:
REMARK  status: ('A' for Active; 'I' for Inactive)
REMARK    1  A    between atoms: CA_6  and  C_25
REMARK    2  A    between atoms: CA_7  and  N_12
REMARK    3  A    between atoms: C_13  and  CA_15
REMARK    4  A    between atoms: CA_15  and  C_16
REMARK    5  A    between atoms: CA_15  and  N_22
REMARK    6  A    between atoms: C_25  and  O_26
REMARK                            x       y       z     vdW  Elec       q    Type
REMARK                         _______ _______ _______ _____ _____    ______ ____
ROOT
ATOM      1  S   UNL     1      33.808 -13.875 -21.613  0.00  0.00    -0.118 S 
ATOM      2  O   UNL     1      32.761 -14.122 -25.885  0.00  0.00    -0.273 OA
ATOM      3  N   UNL     1      34.103 -14.733 -24.042  0.00  0.00    -0.260 N 
ATOM      4  C   UNL     1      34.653 -13.651 -23.220  0.00  0.00    +0.151 C 
ATOM      5  C   UNL     1      33.717 -15.718 -21.872  0.00  0.00    +0.068 C 
ATOM      6  CA  UNL     1      33.468 -15.860 -23.389  0.00  0.00    +0.184 C 
ATOM      7  CA  UNL     1      34.014 -12.663 -24.206  0.00  0.00    +0.178 C 
ATOM      8  C   UNL     1      33.504 -13.912 -24.954  0.00  0.00    +0.247 C 
ATOM      9  C   UNL     1      35.038 -16.328 -21.384  0.00  0.00    +0.013 C 
ATOM     10  C   UNL     1      32.548 -16.278 -21.060  0.00  0.00    +0.013 C 
ENDROOT
BRANCH   7  12
ATOM     11  O   UNL     1      34.060  -9.782 -23.990  0.00  0.00    -0.273 OA
ATOM     12  N   UNL     1      32.944 -11.795 -23.698  0.00  0.00    -0.295 N 
ATOM     13  C   UNL     1      33.061 -10.405 -23.634  0.00  0.00    +0.243 C 
ATOM     14  H   UNL     1      32.106 -12.210 -23.390  0.00  0.00    +0.150 HD
BRANCH  13  15
ATOM     15  CA  UNL     1      31.815  -9.723 -23.090  0.00  0.00    +0.171 C 
BRANCH  15  16
ATOM     16  C   UNL     1      31.705  -9.904 -21.594  0.00  0.00    +0.002 C 
ATOM     17  C   UNL     1      31.076 -11.031 -21.092  0.00  0.00    -0.002 C 
ATOM     18  C   UNL     1      32.237  -8.940 -20.754  0.00  0.00    -0.002 C 
ATOM     19  C   UNL     1      30.974 -11.197 -19.710  0.00  0.00    -0.000 C 
ATOM     20  C   UNL     1      32.136  -9.107 -19.373  0.00  0.00    -0.000 C 
ATOM     21  C   UNL     1      31.505 -10.236 -18.851  0.00  0.00    -0.000 C 
ENDBRANCH  15  16
BRANCH  15  22
ATOM     22  N   UNL     1      31.907  -8.310 -23.486  0.00  0.00    -0.205 NA
ATOM     23  C   UNL     1      30.796  -7.795 -23.853  0.00  0.00    +0.108 C 
ENDBRANCH  15  22
ENDBRANCH  13  15
ENDBRANCH   7  12
BRANCH   6  25
ATOM     24  OXT UNL     1      34.324 -18.117 -23.407  0.00  0.00    -0.248 OA
ATOM     25  C   UNL     1      34.020 -17.101 -24.015  0.00  0.00    +0.333 C 
BRANCH  25  26
ATOM     26  O   UNL     1      34.140 -16.949 -25.356  0.00  0.00    -0.479 OA
ATOM     27  H   UNL     1      34.965 -17.104 -25.773  0.00  0.00    +0.295 HD
ENDBRANCH  25  26
ENDBRANCH   6  25
TORSDOF 6
ENDMDL
MODEL 6
REMARK VINA RESULT:      -7.1      3.653      5.911
REMARK  Name = 6713928
REMARK  6 active torsions:
REMARK  status: ('A' for Active; 'I' for Inactive)
REMARK    1  A    between atoms: CA_6  and  C_25
REMARK    2  A    between atoms: CA_7  and  N_12
REMARK    3  A    between atoms: C_13  and  CA_15
REMARK    4  A    between atoms: CA_15  and  C_16
REMARK    5  A    between atoms: CA_15  and  N_22
REMARK    6  A    between atoms: C_25  and  O_26
REMARK                            x       y       z     vdW  Elec       q    Type
REMARK                         _______ _______ _______ _____ _____    ______ ____
ROOT
ATOM      1  S   UNL     1      31.839 -10.573 -22.435  0.00  0.00    -0.118 S 
ATOM      2  O   UNL     1      35.821 -10.135 -24.269  0.00  0.00    -0.273 OA
ATOM      3  N   UNL     1      33.590  -9.425 -23.965  0.00  0.00    -0.260 N 
ATOM      4  C   UNL     1      32.535 -10.430 -24.121  0.00  0.00    +0.151 C 
ATOM      5  C   UNL     1      32.221  -8.783 -22.084  0.00  0.00    +0.068 C 
ATOM      6  CA  UNL     1      33.561  -8.547 -22.813  0.00  0.00    +0.184 C 
ATOM      7  CA  UNL     1      33.634 -11.432 -24.503  0.00  0.00    +0.178 C 
ATOM      8  C   UNL     1      34.617 -10.264 -24.289  0.00  0.00    +0.247 C 
ATOM      9  C   UNL     1      31.052  -7.940 -22.611  0.00  0.00    +0.013 C 
ATOM     10  C   UNL     1      32.366  -8.592 -20.573  0.00  0.00    +0.013 C 
ENDROOT
BRANCH   7  12
ATOM     11  O   UNL     1      32.592 -14.112 -24.787  0.00  0.00    -0.273 OA
ATOM     12  N   UNL     1      33.856 -12.571 -23.601  0.00  0.00    -0.295 N 
ATOM     13  C   UNL     1      33.307 -13.834 -23.825  0.00  0.00    +0.243 C 
ATOM     14  H   UNL     1      34.418 -12.438 -22.804  0.00  0.00    +0.150 HD
BRANCH  13  15
ATOM     15  CA  UNL     1      33.696 -14.853 -22.765  0.00  0.00    +0.171 C 
BRANCH  15  16
ATOM     16  C   UNL     1      34.136 -16.154 -23.396  0.00  0.00    +0.002 C 
ATOM     17  C   UNL     1      34.190 -16.254 -24.776  0.00  0.00    -0.002 C 
ATOM     18  C   UNL     1      34.478 -17.220 -22.580  0.00  0.00    -0.002 C 
ATOM     19  C   UNL     1      34.596 -17.455 -25.357  0.00  0.00    -0.000 C 
ATOM     20  C   UNL     1      34.885 -18.421 -23.162  0.00  0.00    -0.000 C 
ATOM     21  C   UNL     1      34.944 -18.538 -24.551  0.00  0.00    -0.000 C 
ENDBRANCH  15  16
BRANCH  15  22
ATOM     22  N   UNL     1      34.752 -14.229 -21.954  0.00  0.00    -0.205 NA
ATOM     23  C   UNL     1      34.732 -14.564 -20.721  0.00  0.00    +0.108 C 
ENDBRANCH  15  22
ENDBRANCH  13  15
ENDBRANCH   7  12
BRANCH   6  25
ATOM     24  OXT UNL     1      32.994  -6.229 -23.180  0.00  0.00    -0.248 OA
ATOM     25  C   UNL     1      33.781  -7.155 -23.313  0.00  0.00    +0.333 C 
BRANCH  25  26
ATOM     26  O   UNL     1      34.979  -7.055 -23.940  0.00  0.00    -0.479 OA
ATOM     27  H   UNL     1      35.049  -7.264 -24.851  0.00  0.00    +0.295 HD
ENDBRANCH  25  26
ENDBRANCH   6  25
TORSDOF 6
ENDMDL
MODEL 7
REMARK VINA RESULT:      -6.8      4.375      6.021
REMARK  Name = 6713928
REMARK  6 active torsions:
REMARK  status: ('A' for Active; 'I' for Inactive)
REMARK    1  A    between atoms: CA_6  and  C_25
REMARK    2  A    between atoms: CA_7  and  N_12
REMARK    3  A    between atoms: C_13  and  CA_15
REMARK    4  A    between atoms: CA_15  and  C_16
REMARK    5  A    between atoms: CA_15  and  N_22
REMARK    6  A    between atoms: C_25  and  O_26
REMARK                            x       y       z     vdW  Elec       q    Type
REMARK                         _______ _______ _______ _____ _____    ______ ____
ROOT
ATOM      1  S   UNL     1      31.969 -11.084 -22.811  0.00  0.00    -0.118 S 
ATOM      2  O   UNL     1      35.860  -9.693 -24.338  0.00  0.00    -0.273 OA
ATOM      3  N   UNL     1      33.555  -9.373 -23.944  0.00  0.00    -0.260 N 
ATOM      4  C   UNL     1      32.642 -10.432 -24.383  0.00  0.00    +0.151 C 
ATOM      5  C   UNL     1      32.111  -9.408 -22.010  0.00  0.00    +0.068 C 
ATOM      6  CA  UNL     1      33.409  -8.826 -22.610  0.00  0.00    +0.184 C 
ATOM      7  CA  UNL     1      33.864 -11.156 -24.965  0.00  0.00    +0.178 C 
ATOM      8  C   UNL     1      34.685  -9.964 -24.432  0.00  0.00    +0.247 C 
ATOM      9  C   UNL     1      30.841  -8.614 -22.349  0.00  0.00    +0.013 C 
ATOM     10  C   UNL     1      32.228  -9.588 -20.496  0.00  0.00    +0.013 C 
ENDROOT
BRANCH   7  12
ATOM     11  O   UNL     1      32.977 -13.778 -25.795  0.00  0.00    -0.273 OA
ATOM     12  N   UNL     1      34.234 -12.448 -24.370  0.00  0.00    -0.295 N 
ATOM     13  C   UNL     1      33.751 -13.668 -24.846  0.00  0.00    +0.243 C 
ATOM     14  H   UNL     1      34.851 -12.454 -23.604  0.00  0.00    +0.150 HD
BRANCH  13  15
ATOM     15  CA  UNL     1      34.291 -14.866 -24.080  0.00  0.00    +0.171 C 
BRANCH  15  16
ATOM     16  C   UNL     1      33.814 -14.855 -22.646  0.00  0.00    +0.002 C 
ATOM     17  C   UNL     1      32.540 -14.395 -22.359  0.00  0.00    -0.002 C 
ATOM     18  C   UNL     1      34.659 -15.309 -21.648  0.00  0.00    -0.002 C 
ATOM     19  C   UNL     1      32.099 -14.385 -21.035  0.00  0.00    -0.000 C 
ATOM     20  C   UNL     1      34.219 -15.301 -20.324  0.00  0.00    -0.000 C 
ATOM     21  C   UNL     1      32.938 -14.839 -20.018  0.00  0.00    -0.000 C 
ENDBRANCH  15  16
BRANCH  15  22
ATOM     22  N   UNL     1      33.854 -16.062 -24.815  0.00  0.00    -0.205 NA
ATOM     23  C   UNL     1      34.797 -16.878 -25.096  0.00  0.00    +0.108 C 
ENDBRANCH  15  22
ENDBRANCH  13  15
ENDBRANCH   7  12
BRANCH   6  25
ATOM     24  OXT UNL     1      32.902  -6.554 -21.970  0.00  0.00    -0.248 OA
ATOM     25  C   UNL     1      33.444  -7.336 -22.737  0.00  0.00    +0.333 C 
BRANCH  25  26
ATOM     26  O   UNL     1      34.161  -6.965 -23.826  0.00  0.00    -0.479 OA
ATOM     27  H   UNL     1      33.964  -6.160 -24.263  0.00  0.00    +0.295 HD
ENDBRANCH  25  26
ENDBRANCH   6  25
TORSDOF 6
ENDMDL
MODEL 8
REMARK VINA RESULT:      -6.8      3.550      8.930
REMARK  Name = 6713928
REMARK  6 active torsions:
REMARK  status: ('A' for Active; 'I' for Inactive)
REMARK    1  A    between atoms: CA_6  and  C_25
REMARK    2  A    between atoms: CA_7  and  N_12
REMARK    3  A    between atoms: C_13  and  CA_15
REMARK    4  A    between atoms: CA_15  and  C_16
REMARK    5  A    between atoms: CA_15  and  N_22
REMARK    6  A    between atoms: C_25  and  O_26
REMARK                            x       y       z     vdW  Elec       q    Type
REMARK                         _______ _______ _______ _____ _____    ______ ____
ROOT
ATOM      1  S   UNL     1      34.469 -14.562 -21.886  0.00  0.00    -0.118 S 
ATOM      2  O   UNL     1      32.299 -14.156 -25.699  0.00  0.00    -0.273 OA
ATOM      3  N   UNL     1      34.094 -14.994 -24.415  0.00  0.00    -0.260 N 
ATOM      4  C   UNL     1      34.845 -14.037 -23.598  0.00  0.00    +0.151 C 
ATOM      5  C   UNL     1      34.315 -16.339 -22.423  0.00  0.00    +0.068 C 
ATOM      6  CA  UNL     1      33.663 -16.242 -23.819  0.00  0.00    +0.184 C 
ATOM      7  CA  UNL     1      33.960 -12.933 -24.193  0.00  0.00    +0.178 C 
ATOM      8  C   UNL     1      33.268 -14.065 -24.979  0.00  0.00    +0.247 C 
ATOM      9  C   UNL     1      35.720 -16.957 -22.418  0.00  0.00    +0.013 C 
ATOM     10  C   UNL     1      33.412 -17.081 -21.435  0.00  0.00    +0.013 C 
ENDROOT
BRANCH   7  12
ATOM     11  O   UNL     1      33.955 -10.098 -23.631  0.00  0.00    -0.273 OA
ATOM     12  N   UNL     1      33.067 -12.212 -23.277  0.00  0.00    -0.295 N 
ATOM     13  C   UNL     1      33.142 -10.833 -23.072  0.00  0.00    +0.243 C 
ATOM     14  H   UNL     1      32.384 -12.722 -22.785  0.00  0.00    +0.150 HD
BRANCH  13  15
ATOM     15  CA  UNL     1      32.101 -10.314 -22.092  0.00  0.00    +0.171 C 
BRANCH  15  16
ATOM     16  C   UNL     1      31.810  -8.851 -22.332  0.00  0.00    +0.002 C 
ATOM     17  C   UNL     1      31.159  -8.471 -23.493  0.00  0.00    -0.002 C 
ATOM     18  C   UNL     1      32.198  -7.920 -21.383  0.00  0.00    -0.002 C 
ATOM     19  C   UNL     1      30.891  -7.119 -23.714  0.00  0.00    -0.000 C 
ATOM     20  C   UNL     1      31.929  -6.569 -21.603  0.00  0.00    -0.000 C 
ATOM     21  C   UNL     1      31.275  -6.168 -22.769  0.00  0.00    -0.000 C 
ENDBRANCH  15  16
BRANCH  15  22
ATOM     22  N   UNL     1      30.913 -11.164 -22.258  0.00  0.00    -0.205 NA
ATOM     23  C   UNL     1      30.341 -11.487 -21.161  0.00  0.00    +0.108 C 
ENDBRANCH  15  22
ENDBRANCH  13  15
ENDBRANCH   7  12
BRANCH   6  25
ATOM     24  OXT UNL     1      33.781 -18.522 -24.604  0.00  0.00    -0.248 OA
ATOM     25  C   UNL     1      34.025 -17.337 -24.771  0.00  0.00    +0.333 C 
BRANCH  25  26
ATOM     26  O   UNL     1      34.668 -16.835 -25.854  0.00  0.00    -0.479 OA
ATOM     27  H   UNL     1      35.288 -16.140 -25.750  0.00  0.00    +0.295 HD
ENDBRANCH  25  26
ENDBRANCH   6  25
TORSDOF 6
ENDMDL
MODEL 9
REMARK VINA RESULT:      -6.8      3.129      8.615
REMARK  Name = 6713928
REMARK  6 active torsions:
REMARK  status: ('A' for Active; 'I' for Inactive)
REMARK    1  A    between atoms: CA_6  and  C_25
REMARK    2  A    between atoms: CA_7  and  N_12
REMARK    3  A    between atoms: C_13  and  CA_15
REMARK    4  A    between atoms: CA_15  and  C_16
REMARK    5  A    between atoms: CA_15  and  N_22
REMARK    6  A    between atoms: C_25  and  O_26
REMARK                            x       y       z     vdW  Elec       q    Type
REMARK                         _______ _______ _______ _____ _____    ______ ____
ROOT
ATOM      1  S   UNL     1      33.311 -14.937 -24.728  0.00  0.00    -0.118 S 
ATOM      2  O   UNL     1      35.081 -14.125 -20.776  0.00  0.00    -0.273 OA
ATOM      3  N   UNL     1      33.994 -15.558 -22.305  0.00  0.00    -0.260 N 
ATOM      4  C   UNL     1      32.796 -15.045 -22.976  0.00  0.00    +0.151 C 
ATOM      5  C   UNL     1      34.457 -16.392 -24.522  0.00  0.00    +0.068 C 
ATOM      6  CA  UNL     1      35.015 -16.216 -23.094  0.00  0.00    +0.184 C 
ATOM      7  CA  UNL     1      32.946 -13.772 -22.131  0.00  0.00    +0.178 C 
ATOM      8  C   UNL     1      34.190 -14.454 -21.527  0.00  0.00    +0.247 C 
ATOM      9  C   UNL     1      33.635 -17.671 -24.732  0.00  0.00    +0.013 C 
ATOM     10  C   UNL     1      35.567 -16.304 -25.571  0.00  0.00    +0.013 C 
ENDROOT
BRANCH   7  12
ATOM     11  O   UNL     1      31.320 -11.384 -22.193  0.00  0.00    -0.273 OA
ATOM     12  N   UNL     1      33.238 -12.518 -22.839  0.00  0.00    -0.295 N 
ATOM     13  C   UNL     1      32.385 -11.414 -22.808  0.00  0.00    +0.243 C 
ATOM     14  H   UNL     1      34.071 -12.454 -23.358  0.00  0.00    +0.150 HD
BRANCH  13  15
ATOM     15  CA  UNL     1      32.912 -10.228 -23.601  0.00  0.00    +0.171 C 
BRANCH  15  16
ATOM     16  C   UNL     1      32.412  -8.923 -23.025  0.00  0.00    +0.002 C 
ATOM     17  C   UNL     1      32.943  -8.461 -21.833  0.00  0.00    -0.002 C 
ATOM     18  C   UNL     1      31.435  -8.214 -23.703  0.00  0.00    -0.002 C 
ATOM     19  C   UNL     1      32.482  -7.256 -21.301  0.00  0.00    -0.000 C 
ATOM     20  C   UNL     1      30.974  -7.009 -23.172  0.00  0.00    -0.000 C 
ATOM     21  C   UNL     1      31.498  -6.530 -21.971  0.00  0.00    -0.000 C 
ENDBRANCH  15  16
BRANCH  15  22
ATOM     22  N   UNL     1      34.378 -10.332 -23.583  0.00  0.00    -0.205 NA
ATOM     23  C   UNL     1      34.951  -9.839 -24.614  0.00  0.00    +0.108 C 
ENDBRANCH  15  22
ENDBRANCH  13  15
ENDBRANCH   7  12
BRANCH   6  25
ATOM     24  OXT UNL     1      34.742 -17.972 -21.461  0.00  0.00    -0.248 OA
ATOM     25  C   UNL     1      35.373 -17.484 -22.386  0.00  0.00    +0.333 C 
BRANCH  25  26
ATOM     26  O   UNL     1      36.501 -18.023 -22.910  0.00  0.00    -0.479 OA
ATOM     27  H   UNL     1      36.449 -18.796 -23.437  0.00  0.00    +0.295 HD
ENDBRANCH  25  26
ENDBRANCH   6  25
TORSDOF 6
ENDMDL
