MODEL 1
REMARK VINA RESULT:      -9.2      0.000      0.000
REMARK  Name = 11171903
REMARK  4 active torsions:
REMARK  status: ('A' for Active; 'I' for Inactive)
REMARK    1  A    between atoms: C_1  and  C_11
REMARK    2  A    between atoms: C_2  and  O_7
REMARK    3  A    between atoms: C_6  and  O_9
REMARK    4  A    between atoms: C_11  and  C_13
REMARK                            x       y       z     vdW  Elec       q    Type
REMARK                         _______ _______ _______ _____ _____    ______ ____
ROOT
ATOM      1  C   UNL     1      35.264 -17.745 -22.825  0.00  0.00    +0.015 C 
ATOM      2  C   UNL     1      34.831 -16.443 -22.791  0.00  0.00    +0.133 C 
ATOM      3  C   UNL     1      35.174 -18.538 -23.943  0.00  0.00    +0.002 C 
ATOM      4  C   UNL     1      34.271 -15.899 -23.948  0.00  0.00    +0.073 C 
ATOM      5  C   UNL     1      34.616 -17.994 -25.099  0.00  0.00    +0.037 C 
ATOM      6  C   UNL     1      34.164 -16.675 -25.102  0.00  0.00    +0.137 C 
ENDROOT
BRANCH   2   7
ATOM      7  O   UNL     1      34.928 -15.672 -21.672  0.00  0.00    -0.506 OA
ATOM      8  H   UNL     1      34.191 -15.578 -21.102  0.00  0.00    +0.292 HD
ENDBRANCH   2   7
BRANCH   6   9
ATOM      9  O   UNL     1      33.618 -16.144 -26.230  0.00  0.00    -0.505 OA
ATOM     10  H   UNL     1      33.948 -16.392 -27.071  0.00  0.00    +0.292 HD
ENDBRANCH   6   9
BRANCH   1  11
ATOM     11  C   UNL     1      35.884 -18.362 -21.561  0.00  0.00    +0.048 C 
ATOM     12  C   UNL     1      37.334 -18.790 -21.900  0.00  0.00    +0.010 C 
BRANCH  11  13
ATOM     13  C   UNL     1      35.013 -19.390 -20.918  0.00  0.00    -0.018 C 
ATOM     14  C   UNL     1      33.626 -19.254 -20.962  0.00  0.00    -0.004 C 
ATOM     15  C   UNL     1      35.588 -20.485 -20.274  0.00  0.00    -0.004 C 
ATOM     16  C   UNL     1      32.813 -20.215 -20.361  0.00  0.00    -0.000 C 
ATOM     17  C   UNL     1      34.774 -21.445 -19.673  0.00  0.00    -0.000 C 
ATOM     18  C   UNL     1      33.387 -21.310 -19.716  0.00  0.00    -0.000 C 
ENDBRANCH  11  13
ENDBRANCH   1  11
TORSDOF 4
ENDMDL
MODEL 2
REMARK VINA RESULT:      -8.7      2.352      5.333
REMARK  Name = 11171903
REMARK  4 active torsions:
REMARK  status: ('A' for Active; 'I' for Inactive)
REMARK    1  A    between atoms: C_1  and  C_11
REMARK    2  A    between atoms: C_2  and  O_7
REMARK    3  A    between atoms: C_6  and  O_9
REMARK    4  A    between atoms: C_11  and  C_13
REMARK                            x       y       z     vdW  Elec       q    Type
REMARK                         _______ _______ _______ _____ _____    ______ ____
ROOT
ATOM      1  C   UNL     1      34.664 -18.950 -20.939  0.00  0.00    +0.015 C 
ATOM      2  C   UNL     1      35.541 -19.861 -20.407  0.00  0.00    +0.133 C 
ATOM      3  C   UNL     1      33.304 -19.139 -20.960  0.00  0.00    +0.002 C 
ATOM      4  C   UNL     1      35.028 -21.038 -19.862  0.00  0.00    +0.073 C 
ATOM      5  C   UNL     1      32.790 -20.315 -20.415  0.00  0.00    +0.037 C 
ATOM      6  C   UNL     1      33.651 -21.265 -19.866  0.00  0.00    +0.137 C 
ENDROOT
BRANCH   2   7
ATOM      7  O   UNL     1      36.888 -19.655 -20.395  0.00  0.00    -0.506 OA
ATOM      8  H   UNL     1      37.394 -19.903 -19.647  0.00  0.00    +0.292 HD
ENDBRANCH   2   7
BRANCH   6   9
ATOM      9  O   UNL     1      33.149 -22.413 -19.334  0.00  0.00    -0.505 OA
ATOM     10  H   UNL     1      32.255 -22.648 -19.487  0.00  0.00    +0.292 HD
ENDBRANCH   6   9
BRANCH   1  11
ATOM     11  C   UNL     1      35.212 -17.647 -21.544  0.00  0.00    +0.048 C 
ATOM     12  C   UNL     1      34.871 -16.489 -20.572  0.00  0.00    +0.010 C 
BRANCH  11  13
ATOM     13  C   UNL     1      34.833 -17.455 -22.974  0.00  0.00    -0.018 C 
ATOM     14  C   UNL     1      34.433 -16.198 -23.427  0.00  0.00    -0.004 C 
ATOM     15  C   UNL     1      34.879 -18.533 -23.858  0.00  0.00    -0.004 C 
ATOM     16  C   UNL     1      34.077 -16.020 -24.764  0.00  0.00    -0.000 C 
ATOM     17  C   UNL     1      34.523 -18.354 -25.194  0.00  0.00    -0.000 C 
ATOM     18  C   UNL     1      34.123 -17.097 -25.647  0.00  0.00    -0.000 C 
ENDBRANCH  11  13
ENDBRANCH   1  11
TORSDOF 4
ENDMDL
MODEL 3
REMARK VINA RESULT:      -8.5      1.196      2.080
REMARK  Name = 11171903
REMARK  4 active torsions:
REMARK  status: ('A' for Active; 'I' for Inactive)
REMARK    1  A    between atoms: C_1  and  C_11
REMARK    2  A    between atoms: C_2  and  O_7
REMARK    3  A    between atoms: C_6  and  O_9
REMARK    4  A    between atoms: C_11  and  C_13
REMARK                            x       y       z     vdW  Elec       q    Type
REMARK                         _______ _______ _______ _____ _____    ______ ____
ROOT
ATOM      1  C   UNL     1      35.244 -17.646 -22.906  0.00  0.00    +0.015 C 
ATOM      2  C   UNL     1      34.959 -18.453 -23.979  0.00  0.00    +0.133 C 
ATOM      3  C   UNL     1      35.012 -16.292 -22.901  0.00  0.00    +0.002 C 
ATOM      4  C   UNL     1      34.407 -17.871 -25.121  0.00  0.00    +0.073 C 
ATOM      5  C   UNL     1      34.461 -15.710 -24.042  0.00  0.00    +0.037 C 
ATOM      6  C   UNL     1      34.158 -16.498 -25.152  0.00  0.00    +0.137 C 
ENDROOT
BRANCH   2   7
ATOM      7  O   UNL     1      35.196 -19.795 -23.965  0.00  0.00    -0.506 OA
ATOM      8  H   UNL     1      35.091 -20.297 -24.749  0.00  0.00    +0.292 HD
ENDBRANCH   2   7
BRANCH   6   9
ATOM      9  O   UNL     1      33.620 -15.929 -26.265  0.00  0.00    -0.505 OA
ATOM     10  H   UNL     1      33.650 -16.383 -27.084  0.00  0.00    +0.292 HD
ENDBRANCH   6   9
BRANCH   1  11
ATOM     11  C   UNL     1      35.853 -18.271 -21.640  0.00  0.00    +0.048 C 
ATOM     12  C   UNL     1      37.295 -18.728 -21.979  0.00  0.00    +0.010 C 
BRANCH  11  13
ATOM     13  C   UNL     1      34.964 -19.280 -20.994  0.00  0.00    -0.018 C 
ATOM     14  C   UNL     1      35.515 -20.406 -20.382  0.00  0.00    -0.004 C 
ATOM     15  C   UNL     1      33.581 -19.097 -21.002  0.00  0.00    -0.004 C 
ATOM     16  C   UNL     1      34.683 -21.349 -19.780  0.00  0.00    -0.000 C 
ATOM     17  C   UNL     1      32.750 -20.041 -20.399  0.00  0.00    -0.000 C 
ATOM     18  C   UNL     1      33.301 -21.167 -19.788  0.00  0.00    -0.000 C 
ENDBRANCH  11  13
ENDBRANCH   1  11
TORSDOF 4
ENDMDL
MODEL 4
REMARK VINA RESULT:      -8.5      2.618      5.535
REMARK  Name = 11171903
REMARK  4 active torsions:
REMARK  status: ('A' for Active; 'I' for Inactive)
REMARK    1  A    between atoms: C_1  and  C_11
REMARK    2  A    between atoms: C_2  and  O_7
REMARK    3  A    between atoms: C_6  and  O_9
REMARK    4  A    between atoms: C_11  and  C_13
REMARK                            x       y       z     vdW  Elec       q    Type
REMARK                         _______ _______ _______ _____ _____    ______ ____
ROOT
ATOM      1  C   UNL     1      34.737 -19.727 -21.317  0.00  0.00    +0.015 C 
ATOM      2  C   UNL     1      33.787 -20.418 -20.608  0.00  0.00    +0.133 C 
ATOM      3  C   UNL     1      36.082 -19.806 -21.047  0.00  0.00    +0.002 C 
ATOM      4  C   UNL     1      34.206 -21.241 -19.562  0.00  0.00    +0.073 C 
ATOM      5  C   UNL     1      36.501 -20.629 -20.003  0.00  0.00    +0.037 C 
ATOM      6  C   UNL     1      35.564 -21.347 -19.260  0.00  0.00    +0.137 C 
ENDROOT
BRANCH   2   7
ATOM      7  O   UNL     1      32.457 -20.327 -20.891  0.00  0.00    -0.506 OA
ATOM      8  H   UNL     1      31.827 -20.703 -20.307  0.00  0.00    +0.292 HD
ENDBRANCH   2   7
BRANCH   6   9
ATOM      9  O   UNL     1      35.974 -22.149 -18.240  0.00  0.00    -0.505 OA
ATOM     10  H   UNL     1      36.255 -21.771 -17.430  0.00  0.00    +0.292 HD
ENDBRANCH   6   9
BRANCH   1  11
ATOM     11  C   UNL     1      34.293 -18.815 -22.473  0.00  0.00    +0.048 C 
ATOM     12  C   UNL     1      35.007 -19.296 -23.762  0.00  0.00    +0.010 C 
BRANCH  11  13
ATOM     13  C   UNL     1      34.397 -17.362 -22.151  0.00  0.00    -0.018 C 
ATOM     14  C   UNL     1      34.370 -16.938 -20.822  0.00  0.00    -0.004 C 
ATOM     15  C   UNL     1      34.522 -16.428 -23.179  0.00  0.00    -0.004 C 
ATOM     16  C   UNL     1      34.466 -15.579 -20.522  0.00  0.00    -0.000 C 
ATOM     17  C   UNL     1      34.618 -15.069 -22.878  0.00  0.00    -0.000 C 
ATOM     18  C   UNL     1      34.590 -14.645 -21.550  0.00  0.00    -0.000 C 
ENDBRANCH  11  13
ENDBRANCH   1  11
TORSDOF 4
ENDMDL
MODEL 5
REMARK VINA RESULT:      -8.4      1.563      2.469
REMARK  Name = 11171903
REMARK  4 active torsions:
REMARK  status: ('A' for Active; 'I' for Inactive)
REMARK    1  A    between atoms: C_1  and  C_11
REMARK    2  A    between atoms: C_2  and  O_7
REMARK    3  A    between atoms: C_6  and  O_9
REMARK    4  A    between atoms: C_11  and  C_13
REMARK                            x       y       z     vdW  Elec       q    Type
REMARK                         _______ _______ _______ _____ _____    ______ ____
ROOT
ATOM      1  C   UNL     1      34.761 -16.970 -22.524  0.00  0.00    +0.015 C 
ATOM      2  C   UNL     1      34.800 -16.235 -21.367  0.00  0.00    +0.133 C 
ATOM      3  C   UNL     1      34.194 -16.510 -23.688  0.00  0.00    +0.002 C 
ATOM      4  C   UNL     1      34.236 -14.958 -21.370  0.00  0.00    +0.073 C 
ATOM      5  C   UNL     1      33.630 -15.235 -23.693  0.00  0.00    +0.037 C 
ATOM      6  C   UNL     1      33.651 -14.459 -22.534  0.00  0.00    +0.137 C 
ENDROOT
BRANCH   2   7
ATOM      7  O   UNL     1      35.368 -16.707 -20.222  0.00  0.00    -0.506 OA
ATOM      8  H   UNL     1      35.147 -16.323 -19.396  0.00  0.00    +0.292 HD
ENDBRANCH   2   7
BRANCH   6   9
ATOM      9  O   UNL     1      33.100 -13.214 -22.538  0.00  0.00    -0.505 OA
ATOM     10  H   UNL     1      33.409 -12.563 -21.940  0.00  0.00    +0.292 HD
ENDBRANCH   6   9
BRANCH   1  11
ATOM     11  C   UNL     1      35.378 -18.378 -22.539  0.00  0.00    +0.048 C 
ATOM     12  C   UNL     1      35.424 -18.864 -24.010  0.00  0.00    +0.010 C 
BRANCH  11  13
ATOM     13  C   UNL     1      34.758 -19.304 -21.546  0.00  0.00    -0.018 C 
ATOM     14  C   UNL     1      35.566 -20.124 -20.758  0.00  0.00    -0.004 C 
ATOM     15  C   UNL     1      33.372 -19.350 -21.407  0.00  0.00    -0.004 C 
ATOM     16  C   UNL     1      34.987 -20.990 -19.831  0.00  0.00    -0.000 C 
ATOM     17  C   UNL     1      32.793 -20.216 -20.480  0.00  0.00    -0.000 C 
ATOM     18  C   UNL     1      33.601 -21.036 -19.692  0.00  0.00    -0.000 C 
ENDBRANCH  11  13
ENDBRANCH   1  11
TORSDOF 4
ENDMDL
MODEL 6
REMARK VINA RESULT:      -8.1      1.652      2.719
REMARK  Name = 11171903
REMARK  4 active torsions:
REMARK  status: ('A' for Active; 'I' for Inactive)
REMARK    1  A    between atoms: C_1  and  C_11
REMARK    2  A    between atoms: C_2  and  O_7
REMARK    3  A    between atoms: C_6  and  O_9
REMARK    4  A    between atoms: C_11  and  C_13
REMARK                            x       y       z     vdW  Elec       q    Type
REMARK                         _______ _______ _______ _____ _____    ______ ____
ROOT
ATOM      1  C   UNL     1      34.415 -17.110 -22.046  0.00  0.00    +0.015 C 
ATOM      2  C   UNL     1      34.846 -16.004 -22.733  0.00  0.00    +0.133 C 
ATOM      3  C   UNL     1      33.451 -17.059 -21.068  0.00  0.00    +0.002 C 
ATOM      4  C   UNL     1      34.279 -14.766 -22.424  0.00  0.00    +0.073 C 
ATOM      5  C   UNL     1      32.884 -15.824 -20.759  0.00  0.00    +0.037 C 
ATOM      6  C   UNL     1      33.297 -14.677 -21.437  0.00  0.00    +0.137 C 
ENDROOT
BRANCH   2   7
ATOM      7  O   UNL     1      35.803 -16.073 -23.701  0.00  0.00    -0.506 OA
ATOM      8  H   UNL     1      36.461 -16.740 -23.662  0.00  0.00    +0.292 HD
ENDBRANCH   2   7
BRANCH   6   9
ATOM      9  O   UNL     1      32.744 -13.471 -21.135  0.00  0.00    -0.505 OA
ATOM     10  H   UNL     1      32.186 -13.043 -21.754  0.00  0.00    +0.292 HD
ENDBRANCH   6   9
BRANCH   1  11
ATOM     11  C   UNL     1      35.028 -18.482 -22.373  0.00  0.00    +0.048 C 
ATOM     12  C   UNL     1      34.637 -18.844 -23.828  0.00  0.00    +0.010 C 
BRANCH  11  13
ATOM     13  C   UNL     1      34.758 -19.513 -21.329  0.00  0.00    -0.018 C 
ATOM     14  C   UNL     1      33.445 -19.885 -21.039  0.00  0.00    -0.004 C 
ATOM     15  C   UNL     1      35.819 -20.104 -20.643  0.00  0.00    -0.004 C 
ATOM     16  C   UNL     1      33.194 -20.848 -20.062  0.00  0.00    -0.000 C 
ATOM     17  C   UNL     1      35.566 -21.067 -19.666  0.00  0.00    -0.000 C 
ATOM     18  C   UNL     1      34.254 -21.439 -19.376  0.00  0.00    -0.000 C 
ENDBRANCH  11  13
ENDBRANCH   1  11
TORSDOF 4
ENDMDL
MODEL 7
REMARK VINA RESULT:      -7.9      1.601      3.067
REMARK  Name = 11171903
REMARK  4 active torsions:
REMARK  status: ('A' for Active; 'I' for Inactive)
REMARK    1  A    between atoms: C_1  and  C_11
REMARK    2  A    between atoms: C_2  and  O_7
REMARK    3  A    between atoms: C_6  and  O_9
REMARK    4  A    between atoms: C_11  and  C_13
REMARK                            x       y       z     vdW  Elec       q    Type
REMARK                         _______ _______ _______ _____ _____    ______ ____
ROOT
ATOM      1  C   UNL     1      34.141 -18.353 -21.836  0.00  0.00    +0.015 C 
ATOM      2  C   UNL     1      34.682 -18.177 -23.085  0.00  0.00    +0.133 C 
ATOM      3  C   UNL     1      33.886 -17.315 -20.974  0.00  0.00    +0.002 C 
ATOM      4  C   UNL     1      34.991 -16.881 -23.499  0.00  0.00    +0.073 C 
ATOM      5  C   UNL     1      34.194 -16.019 -21.387  0.00  0.00    +0.037 C 
ATOM      6  C   UNL     1      34.746 -15.801 -22.649  0.00  0.00    +0.137 C 
ENDROOT
BRANCH   2   7
ATOM      7  O   UNL     1      34.927 -19.220 -23.927  0.00  0.00    -0.506 OA
ATOM      8  H   UNL     1      34.341 -19.951 -23.951  0.00  0.00    +0.292 HD
ENDBRANCH   2   7
BRANCH   6   9
ATOM      9  O   UNL     1      35.047 -14.537 -23.052  0.00  0.00    -0.505 OA
ATOM     10  H   UNL     1      35.934 -14.305 -23.243  0.00  0.00    +0.292 HD
ENDBRANCH   6   9
BRANCH   1  11
ATOM     11  C   UNL     1      33.794 -19.775 -21.364  0.00  0.00    +0.048 C 
ATOM     12  C   UNL     1      32.341 -19.758 -20.825  0.00  0.00    +0.010 C 
BRANCH  11  13
ATOM     13  C   UNL     1      34.833 -20.370 -20.473  0.00  0.00    -0.018 C 
ATOM     14  C   UNL     1      34.480 -21.356 -19.551  0.00  0.00    -0.004 C 
ATOM     15  C   UNL     1      36.156 -19.940 -20.561  0.00  0.00    -0.004 C 
ATOM     16  C   UNL     1      35.451 -21.911 -18.718  0.00  0.00    -0.000 C 
ATOM     17  C   UNL     1      37.126 -20.495 -19.727  0.00  0.00    -0.000 C 
ATOM     18  C   UNL     1      36.773 -21.480 -18.806  0.00  0.00    -0.000 C 
ENDBRANCH  11  13
ENDBRANCH   1  11
TORSDOF 4
ENDMDL
MODEL 8
REMARK VINA RESULT:      -7.8      1.504      2.322
REMARK  Name = 11171903
REMARK  4 active torsions:
REMARK  status: ('A' for Active; 'I' for Inactive)
REMARK    1  A    between atoms: C_1  and  C_11
REMARK    2  A    between atoms: C_2  and  O_7
REMARK    3  A    between atoms: C_6  and  O_9
REMARK    4  A    between atoms: C_11  and  C_13
REMARK                            x       y       z     vdW  Elec       q    Type
REMARK                         _______ _______ _______ _____ _____    ______ ____
ROOT
ATOM      1  C   UNL     1      33.850 -15.973 -22.874  0.00  0.00    +0.015 C 
ATOM      2  C   UNL     1      33.124 -14.872 -23.254  0.00  0.00    +0.133 C 
ATOM      3  C   UNL     1      34.514 -16.780 -23.766  0.00  0.00    +0.002 C 
ATOM      4  C   UNL     1      33.056 -14.557 -24.612  0.00  0.00    +0.073 C 
ATOM      5  C   UNL     1      34.447 -16.465 -25.122  0.00  0.00    +0.037 C 
ATOM      6  C   UNL     1      33.718 -15.354 -25.546  0.00  0.00    +0.137 C 
ENDROOT
BRANCH   2   7
ATOM      7  O   UNL     1      32.472 -14.083 -22.355  0.00  0.00    -0.506 OA
ATOM      8  H   UNL     1      31.536 -14.046 -22.356  0.00  0.00    +0.292 HD
ENDBRANCH   2   7
BRANCH   6   9
ATOM      9  O   UNL     1      33.652 -15.047 -26.870  0.00  0.00    -0.505 OA
ATOM     10  H   UNL     1      33.920 -14.200 -27.169  0.00  0.00    +0.292 HD
ENDBRANCH   6   9
BRANCH   1  11
ATOM     11  C   UNL     1      33.936 -16.335 -21.382  0.00  0.00    +0.048 C 
ATOM     12  C   UNL     1      34.738 -15.219 -20.665  0.00  0.00    +0.010 C 
BRANCH  11  13
ATOM     13  C   UNL     1      34.379 -17.740 -21.141  0.00  0.00    -0.018 C 
ATOM     14  C   UNL     1      33.432 -18.748 -20.957  0.00  0.00    -0.004 C 
ATOM     15  C   UNL     1      35.739 -18.044 -21.099  0.00  0.00    -0.004 C 
ATOM     16  C   UNL     1      33.846 -20.060 -20.731  0.00  0.00    -0.000 C 
ATOM     17  C   UNL     1      36.152 -19.357 -20.872  0.00  0.00    -0.000 C 
ATOM     18  C   UNL     1      35.206 -20.364 -20.688  0.00  0.00    -0.000 C 
ENDBRANCH  11  13
ENDBRANCH   1  11
TORSDOF 4
ENDMDL
MODEL 9
REMARK VINA RESULT:      -7.8      8.908     12.147
REMARK  Name = 11171903
REMARK  4 active torsions:
REMARK  status: ('A' for Active; 'I' for Inactive)
REMARK    1  A    between atoms: C_1  and  C_11
REMARK    2  A    between atoms: C_2  and  O_7
REMARK    3  A    between atoms: C_6  and  O_9
REMARK    4  A    between atoms: C_11  and  C_13
REMARK                            x       y       z     vdW  Elec       q    Type
REMARK                         _______ _______ _______ _____ _____    ______ ____
ROOT
ATOM      1  C   UNL     1      31.950  -7.960 -21.701  0.00  0.00    +0.015 C 
ATOM      2  C   UNL     1      32.290  -8.373 -20.437  0.00  0.00    +0.133 C 
ATOM      3  C   UNL     1      31.433  -8.804 -22.654  0.00  0.00    +0.002 C 
ATOM      4  C   UNL     1      32.103  -9.715 -20.103  0.00  0.00    +0.073 C 
ATOM      5  C   UNL     1      31.246 -10.145 -22.321  0.00  0.00    +0.037 C 
ATOM      6  C   UNL     1      31.580 -10.601 -21.045  0.00  0.00    +0.137 C 
ENDROOT
BRANCH   2   7
ATOM      7  O   UNL     1      32.801  -7.521 -19.505  0.00  0.00    -0.506 OA
ATOM      8  H   UNL     1      33.380  -6.831 -19.767  0.00  0.00    +0.292 HD
ENDBRANCH   2   7
BRANCH   6   9
ATOM      9  O   UNL     1      31.397 -11.910 -20.720  0.00  0.00    -0.505 OA
ATOM     10  H   UNL     1      31.243 -12.154 -19.829  0.00  0.00    +0.292 HD
ENDBRANCH   6   9
BRANCH   1  11
ATOM     11  C   UNL     1      32.150  -6.485 -22.087  0.00  0.00    +0.048 C 
ATOM     12  C   UNL     1      30.796  -5.755 -21.898  0.00  0.00    +0.010 C 
BRANCH  11  13
ATOM     13  C   UNL     1      32.830  -6.307 -23.403  0.00  0.00    -0.018 C 
ATOM     14  C   UNL     1      34.048  -6.941 -23.650  0.00  0.00    -0.004 C 
ATOM     15  C   UNL     1      32.249  -5.505 -24.385  0.00  0.00    -0.004 C 
ATOM     16  C   UNL     1      34.684  -6.773 -24.880  0.00  0.00    -0.000 C 
ATOM     17  C   UNL     1      32.886  -5.337 -25.614  0.00  0.00    -0.000 C 
ATOM     18  C   UNL     1      34.103  -5.971 -25.861  0.00  0.00    -0.000 C 
ENDBRANCH  11  13
ENDBRANCH   1  11
TORSDOF 4
ENDMDL
