MODEL 1
REMARK VINA RESULT:      -6.5      0.000      0.000
REMARK  Name = 10921747
REMARK  4 active torsions:
REMARK  status: ('A' for Active; 'I' for Inactive)
REMARK    1  A    between atoms: C_3  and  C_9
REMARK    2  A    between atoms: C_4  and  C_13
REMARK    3  A    between atoms: C_9  and  O_10
REMARK    4  A    between atoms: C_13  and  O_14
REMARK                            x       y       z     vdW  Elec       q    Type
REMARK                         _______ _______ _______ _____ _____    ______ ____
ROOT
ATOM      1  C   UNL     1      37.813 -24.718 -12.007  0.00  0.00    +0.011 C 
ATOM      2  C   UNL     1      36.384 -23.186 -12.793  0.00  0.00    +0.011 C 
ATOM      3  C   UNL     1      38.157 -24.679 -13.519  0.00  0.00    +0.110 C 
ATOM      4  C   UNL     1      37.153 -23.619 -14.069  0.00  0.00    +0.110 C 
ATOM      5  C   UNL     1      37.510 -23.235 -11.752  0.00  0.00    +0.001 C 
ATOM      6  C   UNL     1      36.416 -25.262 -11.806  0.00  0.00    +0.001 C 
ATOM      7  C   UNL     1      35.560 -24.344 -12.277  0.00  0.00    +0.001 C 
ENDROOT
BRANCH   3   9
ATOM      8  O   UNL     1      37.381 -26.946 -13.756  0.00  0.00    -0.250 OA
ATOM      9  C   UNL     1      38.108 -26.041 -14.143  0.00  0.00    +0.317 C 
BRANCH   9  10
ATOM     10  O   UNL     1      38.986 -26.097 -15.185  0.00  0.00    -0.444 OA
ATOM     11  C   UNL     1      40.260 -25.491 -14.947  0.00  0.00    +0.256 C 
ENDBRANCH   9  10
ENDBRANCH   3   9
BRANCH   4  13
ATOM     12  O   UNL     1      35.354 -24.880 -15.055  0.00  0.00    -0.250 OA
ATOM     13  C   UNL     1      36.252 -24.060 -15.183  0.00  0.00    +0.317 C 
BRANCH  13  14
ATOM     14  O   UNL     1      36.596 -23.408 -16.331  0.00  0.00    -0.444 OA
ATOM     15  C   UNL     1      37.242 -22.144 -16.150  0.00  0.00    +0.256 C 
ENDBRANCH  13  14
ENDBRANCH   4  13
TORSDOF 4
ENDMDL
MODEL 2
REMARK VINA RESULT:      -6.3      1.136      3.479
REMARK  Name = 10921747
REMARK  4 active torsions:
REMARK  status: ('A' for Active; 'I' for Inactive)
REMARK    1  A    between atoms: C_3  and  C_9
REMARK    2  A    between atoms: C_4  and  C_13
REMARK    3  A    between atoms: C_9  and  O_10
REMARK    4  A    between atoms: C_13  and  O_14
REMARK                            x       y       z     vdW  Elec       q    Type
REMARK                         _______ _______ _______ _____ _____    ______ ____
ROOT
ATOM      1  C   UNL     1      36.076 -23.476 -12.648  0.00  0.00    +0.011 C 
ATOM      2  C   UNL     1      37.015 -25.397 -11.987  0.00  0.00    +0.011 C 
ATOM      3  C   UNL     1      36.044 -24.332 -13.942  0.00  0.00    +0.110 C 
ATOM      4  C   UNL     1      36.709 -25.667 -13.484  0.00  0.00    +0.110 C 
ATOM      5  C   UNL     1      35.793 -24.556 -11.594  0.00  0.00    +0.001 C 
ATOM      6  C   UNL     1      37.505 -23.168 -12.264  0.00  0.00    +0.001 C 
ATOM      7  C   UNL     1      38.068 -24.318 -11.868  0.00  0.00    +0.001 C 
ENDROOT
BRANCH   3   9
ATOM      8  O   UNL     1      37.743 -23.022 -15.035  0.00  0.00    -0.250 OA
ATOM      9  C   UNL     1      36.680 -23.624 -15.101  0.00  0.00    +0.317 C 
BRANCH   9  10
ATOM     10  O   UNL     1      35.895 -23.763 -16.207  0.00  0.00    -0.444 OA
ATOM     11  C   UNL     1      34.546 -23.308 -16.064  0.00  0.00    +0.256 C 
ENDBRANCH   9  10
ENDBRANCH   3   9
BRANCH   4  13
ATOM     12  O   UNL     1      37.859 -26.554 -15.405  0.00  0.00    -0.250 OA
ATOM     13  C   UNL     1      37.908 -26.123 -14.261  0.00  0.00    +0.317 C 
BRANCH  13  14
ATOM     14  O   UNL     1      39.028 -25.979 -13.496  0.00  0.00    -0.444 OA
ATOM     15  C   UNL     1      40.245 -25.776 -14.221  0.00  0.00    +0.256 C 
ENDBRANCH  13  14
ENDBRANCH   4  13
TORSDOF 4
ENDMDL
MODEL 3
REMARK VINA RESULT:      -6.2      2.052      3.603
REMARK  Name = 10921747
REMARK  4 active torsions:
REMARK  status: ('A' for Active; 'I' for Inactive)
REMARK    1  A    between atoms: C_3  and  C_9
REMARK    2  A    between atoms: C_4  and  C_13
REMARK    3  A    between atoms: C_9  and  O_10
REMARK    4  A    between atoms: C_13  and  O_14
REMARK                            x       y       z     vdW  Elec       q    Type
REMARK                         _______ _______ _______ _____ _____    ______ ____
ROOT
ATOM      1  C   UNL     1      38.190 -25.967 -12.859  0.00  0.00    +0.011 C 
ATOM      2  C   UNL     1      37.547 -25.583 -14.968  0.00  0.00    +0.011 C 
ATOM      3  C   UNL     1      37.062 -24.916 -12.683  0.00  0.00    +0.110 C 
ATOM      4  C   UNL     1      36.621 -24.640 -14.154  0.00  0.00    +0.110 C 
ATOM      5  C   UNL     1      37.623 -26.791 -14.024  0.00  0.00    +0.001 C 
ATOM      6  C   UNL     1      39.366 -25.350 -13.582  0.00  0.00    +0.001 C 
ATOM      7  C   UNL     1      38.981 -25.120 -14.845  0.00  0.00    +0.001 C 
ENDROOT
BRANCH   3   9
ATOM      8  O   UNL     1      38.670 -23.330 -11.848  0.00  0.00    -0.250 OA
ATOM      9  C   UNL     1      37.515 -23.733 -11.881  0.00  0.00    +0.317 C 
BRANCH   9  10
ATOM     10  O   UNL     1      36.451 -23.199 -11.216  0.00  0.00    -0.444 OA
ATOM     11  C   UNL     1      35.572 -24.147 -10.604  0.00  0.00    +0.256 C 
ENDBRANCH   9  10
ENDBRANCH   3   9
BRANCH   4  13
ATOM     12  O   UNL     1      37.700 -22.639 -14.949  0.00  0.00    -0.250 OA
ATOM     13  C   UNL     1      36.673 -23.215 -14.616  0.00  0.00    +0.317 C 
BRANCH  13  14
ATOM     14  O   UNL     1      35.416 -22.686 -14.600  0.00  0.00    -0.444 OA
ATOM     15  C   UNL     1      34.472 -23.320 -15.469  0.00  0.00    +0.256 C 
ENDBRANCH  13  14
ENDBRANCH   4  13
TORSDOF 4
ENDMDL
MODEL 4
REMARK VINA RESULT:      -6.2     10.460     12.301
REMARK  Name = 10921747
REMARK  4 active torsions:
REMARK  status: ('A' for Active; 'I' for Inactive)
REMARK    1  A    between atoms: C_3  and  C_9
REMARK    2  A    between atoms: C_4  and  C_13
REMARK    3  A    between atoms: C_9  and  O_10
REMARK    4  A    between atoms: C_13  and  O_14
REMARK                            x       y       z     vdW  Elec       q    Type
REMARK                         _______ _______ _______ _____ _____    ______ ____
ROOT
ATOM      1  C   UNL     1      35.791 -18.258 -23.072  0.00  0.00    +0.011 C 
ATOM      2  C   UNL     1      35.151 -18.229 -20.928  0.00  0.00    +0.011 C 
ATOM      3  C   UNL     1      35.517 -16.752 -22.821  0.00  0.00    +0.110 C 
ATOM      4  C   UNL     1      35.060 -16.733 -21.329  0.00  0.00    +0.110 C 
ATOM      5  C   UNL     1      36.394 -18.660 -21.719  0.00  0.00    +0.001 C 
ATOM      6  C   UNL     1      34.502 -19.043 -22.977  0.00  0.00    +0.001 C 
ATOM      7  C   UNL     1      34.119 -19.026 -21.693  0.00  0.00    +0.001 C 
ENDROOT
BRANCH   3   9
ATOM      8  O   UNL     1      33.919 -16.849 -24.620  0.00  0.00    -0.250 OA
ATOM      9  C   UNL     1      34.563 -16.177 -23.825  0.00  0.00    +0.317 C 
BRANCH   9  10
ATOM     10  O   UNL     1      34.537 -14.820 -23.704  0.00  0.00    -0.444 OA
ATOM     11  C   UNL     1      33.444 -14.166 -24.355  0.00  0.00    +0.256 C 
ENDBRANCH   9  10
ENDBRANCH   3   9
BRANCH   4  13
ATOM     12  O   UNL     1      32.658 -16.718 -21.156  0.00  0.00    -0.250 OA
ATOM     13  C   UNL     1      33.721 -16.123 -21.043  0.00  0.00    +0.317 C 
BRANCH  13  14
ATOM     14  O   UNL     1      33.886 -14.829 -20.647  0.00  0.00    -0.444 OA
ATOM     15  C   UNL     1      32.719 -14.005 -20.738  0.00  0.00    +0.256 C 
ENDBRANCH  13  14
ENDBRANCH   4  13
TORSDOF 4
ENDMDL
MODEL 5
REMARK VINA RESULT:      -6.1      1.544      2.886
REMARK  Name = 10921747
REMARK  4 active torsions:
REMARK  status: ('A' for Active; 'I' for Inactive)
REMARK    1  A    between atoms: C_3  and  C_9
REMARK    2  A    between atoms: C_4  and  C_13
REMARK    3  A    between atoms: C_9  and  O_10
REMARK    4  A    between atoms: C_13  and  O_14
REMARK                            x       y       z     vdW  Elec       q    Type
REMARK                         _______ _______ _______ _____ _____    ______ ____
ROOT
ATOM      1  C   UNL     1      37.579 -23.540 -12.626  0.00  0.00    +0.011 C 
ATOM      2  C   UNL     1      35.982 -25.106 -12.693  0.00  0.00    +0.011 C 
ATOM      3  C   UNL     1      36.727 -23.102 -13.846  0.00  0.00    +0.110 C 
ATOM      4  C   UNL     1      35.620 -24.200 -13.899  0.00  0.00    +0.110 C 
ATOM      5  C   UNL     1      36.478 -24.057 -11.688  0.00  0.00    +0.001 C 
ATOM      6  C   UNL     1      38.256 -24.861 -12.913  0.00  0.00    +0.001 C 
ATOM      7  C   UNL     1      37.300 -25.799 -12.953  0.00  0.00    +0.001 C 
ENDROOT
BRANCH   3   9
ATOM      8  O   UNL     1      38.485 -23.660 -15.394  0.00  0.00    -0.250 OA
ATOM      9  C   UNL     1      37.560 -22.923 -15.080  0.00  0.00    +0.317 C 
BRANCH   9  10
ATOM     10  O   UNL     1      37.123 -21.833 -15.771  0.00  0.00    -0.444 OA
ATOM     11  C   UNL     1      36.932 -22.031 -17.175  0.00  0.00    +0.256 C 
ENDBRANCH   9  10
ENDBRANCH   3   9
BRANCH   4  13
ATOM     12  O   UNL     1      36.046 -26.014 -15.424  0.00  0.00    -0.250 OA
ATOM     13  C   UNL     1      35.482 -24.955 -15.187  0.00  0.00    +0.317 C 
BRANCH  13  14
ATOM     14  O   UNL     1      34.646 -24.277 -16.025  0.00  0.00    -0.444 OA
ATOM     15  C   UNL     1      33.560 -23.594 -15.389  0.00  0.00    +0.256 C 
ENDBRANCH  13  14
ENDBRANCH   4  13
TORSDOF 4
ENDMDL
MODEL 6
REMARK VINA RESULT:      -6.1     10.194     12.125
REMARK  Name = 10921747
REMARK  4 active torsions:
REMARK  status: ('A' for Active; 'I' for Inactive)
REMARK    1  A    between atoms: C_3  and  C_9
REMARK    2  A    between atoms: C_4  and  C_13
REMARK    3  A    between atoms: C_9  and  O_10
REMARK    4  A    between atoms: C_13  and  O_14
REMARK                            x       y       z     vdW  Elec       q    Type
REMARK                         _______ _______ _______ _____ _____    ______ ____
ROOT
ATOM      1  C   UNL     1      34.711 -18.786 -21.056  0.00  0.00    +0.011 C 
ATOM      2  C   UNL     1      35.215 -18.796 -23.237  0.00  0.00    +0.011 C 
ATOM      3  C   UNL     1      33.796 -17.667 -21.621  0.00  0.00    +0.110 C 
ATOM      4  C   UNL     1      34.156 -17.667 -23.139  0.00  0.00    +0.110 C 
ATOM      5  C   UNL     1      34.661 -19.795 -22.212  0.00  0.00    +0.001 C 
ATOM      6  C   UNL     1      36.163 -18.382 -21.184  0.00  0.00    +0.001 C 
ATOM      7  C   UNL     1      36.465 -18.389 -22.490  0.00  0.00    +0.001 C 
ENDROOT
BRANCH   3   9
ATOM      8  O   UNL     1      34.969 -16.080 -20.241  0.00  0.00    -0.250 OA
ATOM      9  C   UNL     1      33.971 -16.372 -20.886  0.00  0.00    +0.317 C 
BRANCH   9  10
ATOM     10  O   UNL     1      32.862 -15.598 -21.056  0.00  0.00    -0.444 OA
ATOM     11  C   UNL     1      33.065 -14.190 -20.904  0.00  0.00    +0.256 C 
ENDBRANCH   9  10
ENDBRANCH   3   9
BRANCH   4  13
ATOM     12  O   UNL     1      35.627 -15.773 -23.356  0.00  0.00    -0.250 OA
ATOM     13  C   UNL     1      34.621 -16.366 -23.720  0.00  0.00    +0.317 C 
BRANCH  13  14
ATOM     14  O   UNL     1      33.754 -15.967 -24.695  0.00  0.00    -0.444 OA
ATOM     15  C   UNL     1      33.317 -14.607 -24.610  0.00  0.00    +0.256 C 
ENDBRANCH  13  14
ENDBRANCH   4  13
TORSDOF 4
ENDMDL
MODEL 7
REMARK VINA RESULT:      -6.0      8.771     11.723
REMARK  Name = 10921747
REMARK  4 active torsions:
REMARK  status: ('A' for Active; 'I' for Inactive)
REMARK    1  A    between atoms: C_3  and  C_9
REMARK    2  A    between atoms: C_4  and  C_13
REMARK    3  A    between atoms: C_9  and  O_10
REMARK    4  A    between atoms: C_13  and  O_14
REMARK                            x       y       z     vdW  Elec       q    Type
REMARK                         _______ _______ _______ _____ _____    ______ ____
ROOT
ATOM      1  C   UNL     1      34.155 -15.612 -20.408  0.00  0.00    +0.011 C 
ATOM      2  C   UNL     1      34.342 -14.745 -22.463  0.00  0.00    +0.011 C 
ATOM      3  C   UNL     1      35.036 -16.660 -21.138  0.00  0.00    +0.110 C 
ATOM      4  C   UNL     1      35.157 -16.061 -22.574  0.00  0.00    +0.110 C 
ATOM      5  C   UNL     1      34.691 -14.315 -21.031  0.00  0.00    +0.001 C 
ATOM      6  C   UNL     1      32.770 -15.587 -21.013  0.00  0.00    +0.001 C 
ATOM      7  C   UNL     1      32.881 -15.068 -22.243  0.00  0.00    +0.001 C 
ENDROOT
BRANCH   3   9
ATOM      8  O   UNL     1      33.298 -18.323 -21.236  0.00  0.00    -0.250 OA
ATOM      9  C   UNL     1      34.471 -18.044 -21.030  0.00  0.00    +0.317 C 
BRANCH   9  10
ATOM     10  O   UNL     1      35.460 -18.913 -20.675  0.00  0.00    -0.444 OA
ATOM     11  C   UNL     1      35.064 -20.284 -20.570  0.00  0.00    +0.256 C 
ENDBRANCH   9  10
ENDBRANCH   3   9
BRANCH   4  13
ATOM     12  O   UNL     1      33.808 -16.657 -24.478  0.00  0.00    -0.250 OA
ATOM     13  C   UNL     1      34.716 -16.937 -23.708  0.00  0.00    +0.317 C 
BRANCH  13  14
ATOM     14  O   UNL     1      35.479 -18.067 -23.732  0.00  0.00    -0.444 OA
ATOM     15  C   UNL     1      34.871 -19.206 -24.351  0.00  0.00    +0.256 C 
ENDBRANCH  13  14
ENDBRANCH   4  13
TORSDOF 4
ENDMDL
MODEL 8
REMARK VINA RESULT:      -5.9      1.900      3.556
REMARK  Name = 10921747
REMARK  4 active torsions:
REMARK  status: ('A' for Active; 'I' for Inactive)
REMARK    1  A    between atoms: C_3  and  C_9
REMARK    2  A    between atoms: C_4  and  C_13
REMARK    3  A    between atoms: C_9  and  O_10
REMARK    4  A    between atoms: C_13  and  O_14
REMARK                            x       y       z     vdW  Elec       q    Type
REMARK                         _______ _______ _______ _____ _____    ______ ____
ROOT
ATOM      1  C   UNL     1      36.986 -26.061 -12.920  0.00  0.00    +0.011 C 
ATOM      2  C   UNL     1      37.928 -25.718 -14.921  0.00  0.00    +0.011 C 
ATOM      3  C   UNL     1      35.987 -25.090 -13.602  0.00  0.00    +0.110 C 
ATOM      4  C   UNL     1      36.650 -24.842 -14.993  0.00  0.00    +0.110 C 
ATOM      5  C   UNL     1      37.405 -26.919 -14.123  0.00  0.00    +0.001 C 
ATOM      6  C   UNL     1      38.307 -25.365 -12.681  0.00  0.00    +0.001 C 
ATOM      7  C   UNL     1      38.871 -25.159 -13.879  0.00  0.00    +0.001 C 
ENDROOT
BRANCH   3   9
ATOM      8  O   UNL     1      36.575 -23.093 -12.392  0.00  0.00    -0.250 OA
ATOM      9  C   UNL     1      35.714 -23.880 -12.760  0.00  0.00    +0.317 C 
BRANCH   9  10
ATOM     10  O   UNL     1      34.381 -23.809 -12.484  0.00  0.00    -0.444 OA
ATOM     11  C   UNL     1      33.510 -24.154 -13.566  0.00  0.00    +0.256 C 
ENDBRANCH   9  10
ENDBRANCH   3   9
BRANCH   4  13
ATOM     12  O   UNL     1      37.969 -22.829 -15.093  0.00  0.00    -0.250 OA
ATOM     13  C   UNL     1      36.929 -23.415 -15.361  0.00  0.00    +0.317 C 
BRANCH  13  14
ATOM     14  O   UNL     1      35.855 -22.898 -16.023  0.00  0.00    -0.444 OA
ATOM     15  C   UNL     1      36.164 -22.153 -17.206  0.00  0.00    +0.256 C 
ENDBRANCH  13  14
ENDBRANCH   4  13
TORSDOF 4
ENDMDL
MODEL 9
REMARK VINA RESULT:      -5.9      1.608      3.526
REMARK  Name = 10921747
REMARK  4 active torsions:
REMARK  status: ('A' for Active; 'I' for Inactive)
REMARK    1  A    between atoms: C_3  and  C_9
REMARK    2  A    between atoms: C_4  and  C_13
REMARK    3  A    between atoms: C_9  and  O_10
REMARK    4  A    between atoms: C_13  and  O_14
REMARK                            x       y       z     vdW  Elec       q    Type
REMARK                         _______ _______ _______ _____ _____    ______ ____
ROOT
ATOM      1  C   UNL     1      35.786 -23.337 -13.554  0.00  0.00    +0.011 C 
ATOM      2  C   UNL     1      36.476 -24.031 -15.566  0.00  0.00    +0.011 C 
ATOM      3  C   UNL     1      36.938 -24.313 -13.198  0.00  0.00    +0.110 C 
ATOM      4  C   UNL     1      37.412 -24.805 -14.601  0.00  0.00    +0.110 C 
ATOM      5  C   UNL     1      36.350 -22.692 -14.827  0.00  0.00    +0.001 C 
ATOM      6  C   UNL     1      34.640 -24.095 -14.185  0.00  0.00    +0.001 C 
ATOM      7  C   UNL     1      35.053 -24.511 -15.390  0.00  0.00    +0.001 C 
ENDROOT
BRANCH   3   9
ATOM      8  O   UNL     1      37.114 -26.409 -12.026  0.00  0.00    -0.250 OA
ATOM      9  C   UNL     1      36.504 -25.367 -12.224  0.00  0.00    +0.317 C 
BRANCH   9  10
ATOM     10  O   UNL     1      35.348 -24.977 -11.616  0.00  0.00    -0.444 OA
ATOM     11  C   UNL     1      35.491 -24.494 -10.277  0.00  0.00    +0.256 C 
ENDBRANCH   9  10
ENDBRANCH   3   9
BRANCH   4  13
ATOM     12  O   UNL     1      36.417 -26.926 -15.157  0.00  0.00    -0.250 OA
ATOM     13  C   UNL     1      37.407 -26.287 -14.831  0.00  0.00    +0.317 C 
BRANCH  13  14
ATOM     14  O   UNL     1      38.660 -26.784 -14.618  0.00  0.00    -0.444 OA
ATOM     15  C   UNL     1      39.724 -25.832 -14.721  0.00  0.00    +0.256 C 
ENDBRANCH  13  14
ENDBRANCH   4  13
TORSDOF 4
ENDMDL
