MODEL 1
REMARK VINA RESULT:      -5.5      0.000      0.000
REMARK  Name = 6267
REMARK  5 active torsions:
REMARK  status: ('A' for Active; 'I' for Inactive)
REMARK    1  A    between atoms: CA_1  and  N_2
REMARK    2  A    between atoms: CA_1  and  C_7
REMARK    3  A    between atoms: CA_1  and  CB_10
REMARK    4  A    between atoms: C_7  and  O_8
REMARK    5  A    between atoms: CB_10  and  CG_13
REMARK                            x       y       z     vdW  Elec       q    Type
REMARK                         _______ _______ _______ _____ _____    ______ ____
ROOT
ATOM      1  CA  ASN A   1      39.009 -25.159 -14.265  0.00  0.00    +0.045 C 
ENDROOT
BRANCH   1   2
ATOM      2  N   ASN A   1      38.542 -24.399 -15.426  0.00  0.00    +0.389 N 
ATOM      3  H1  ASN A   1      39.168 -23.611 -15.590  0.00  0.00    -0.088 HD
ATOM      4  H2  ASN A   1      37.599 -24.054 -15.251  0.00  0.00    -0.088 HD
ATOM      5  H3  ASN A   1      38.536 -25.005 -16.248  0.00  0.00    -0.088 HD
ENDBRANCH   1   2
BRANCH   1   7
ATOM      6  OXT ASN A   1      41.029 -26.503 -13.981  0.00  0.00    -0.253 OA
ATOM      7  C   ASN A   1      40.231 -25.941 -14.720  0.00  0.00    +0.293 C 
BRANCH   7   8
ATOM      8  O   ASN A   1      40.364 -25.935 -16.072  0.00  0.00    -0.482 OA
ATOM      9  H   ASN A   1      40.918 -25.301 -16.486  0.00  0.00    +0.295 HD
ENDBRANCH   7   8
ENDBRANCH   1   7
BRANCH   1  10
ATOM     10  CB  ASN A   1      37.903 -26.112 -13.803  0.00  0.00    +0.074 C 
BRANCH  10  13
ATOM     11  OD1 ASN A   1      37.304 -27.040 -15.942  0.00  0.00    -0.275 OA
ATOM     12  ND2 ASN A   1      35.676 -25.949 -14.738  0.00  0.00    -0.329 N 
ATOM     13  CG  ASN A   1      36.949 -26.428 -14.937  0.00  0.00    +0.218 C 
ATOM     14 HD21 ASN A   1      34.980 -26.103 -15.419  0.00  0.00    +0.145 HD
ATOM     15 HD22 ASN A   1      35.458 -25.453 -13.917  0.00  0.00    +0.145 HD
ENDBRANCH  10  13
ENDBRANCH   1  10
TORSDOF 5
ENDMDL
MODEL 2
REMARK VINA RESULT:      -5.4      2.024      2.119
REMARK  Name = 6267
REMARK  5 active torsions:
REMARK  status: ('A' for Active; 'I' for Inactive)
REMARK    1  A    between atoms: CA_1  and  N_2
REMARK    2  A    between atoms: CA_1  and  C_7
REMARK    3  A    between atoms: CA_1  and  CB_10
REMARK    4  A    between atoms: C_7  and  O_8
REMARK    5  A    between atoms: CB_10  and  CG_13
REMARK                            x       y       z     vdW  Elec       q    Type
REMARK                         _______ _______ _______ _____ _____    ______ ____
ROOT
ATOM      1  CA  ASN A   1      38.512 -25.531 -14.606  0.00  0.00    +0.045 C 
ENDROOT
BRANCH   1   2
ATOM      2  N   ASN A   1      38.256 -26.966 -14.467  0.00  0.00    +0.389 N 
ATOM      3  H1  ASN A   1      37.961 -27.348 -15.366  0.00  0.00    -0.088 HD
ATOM      4  H2  ASN A   1      37.521 -27.116 -13.777  0.00  0.00    -0.088 HD
ATOM      5  H3  ASN A   1      39.109 -27.436 -14.162  0.00  0.00    -0.088 HD
ENDBRANCH   1   2
BRANCH   1   7
ATOM      6  OXT ASN A   1      40.793 -24.798 -14.130  0.00  0.00    -0.253 OA
ATOM      7  C   ASN A   1      40.003 -25.379 -14.862  0.00  0.00    +0.293 C 
BRANCH   7   8
ATOM      8  O   ASN A   1      40.378 -25.952 -16.036  0.00  0.00    -0.482 OA
ATOM      9  H   ASN A   1      41.250 -26.279 -16.141  0.00  0.00    +0.295 HD
ENDBRANCH   7   8
ENDBRANCH   1   7
BRANCH   1  10
ATOM     10  CB  ASN A   1      38.114 -24.816 -13.313  0.00  0.00    +0.074 C 
BRANCH  10  13
ATOM     11  OD1 ASN A   1      37.062 -26.398 -11.833  0.00  0.00    -0.275 OA
ATOM     12  ND2 ASN A   1      35.711 -25.026 -13.090  0.00  0.00    -0.329 N 
ATOM     13  CG  ASN A   1      36.928 -25.498 -12.657  0.00  0.00    +0.218 C 
ATOM     14 HD21 ASN A   1      34.878 -25.404 -12.724  0.00  0.00    +0.145 HD
ATOM     15 HD22 ASN A   1      35.671 -24.311 -13.766  0.00  0.00    +0.145 HD
ENDBRANCH  10  13
ENDBRANCH   1  10
TORSDOF 5
ENDMDL
MODEL 3
REMARK VINA RESULT:      -5.2      3.516      4.188
REMARK  Name = 6267
REMARK  5 active torsions:
REMARK  status: ('A' for Active; 'I' for Inactive)
REMARK    1  A    between atoms: CA_1  and  N_2
REMARK    2  A    between atoms: CA_1  and  C_7
REMARK    3  A    between atoms: CA_1  and  CB_10
REMARK    4  A    between atoms: C_7  and  O_8
REMARK    5  A    between atoms: CB_10  and  CG_13
REMARK                            x       y       z     vdW  Elec       q    Type
REMARK                         _______ _______ _______ _____ _____    ______ ____
ROOT
ATOM      1  CA  ASN A   1      37.083 -24.620 -12.220  0.00  0.00    +0.045 C 
ENDROOT
BRANCH   1   2
ATOM      2  N   ASN A   1      38.208 -23.884 -11.640  0.00  0.00    +0.389 N 
ATOM      3  H1  ASN A   1      38.124 -22.894 -11.872  0.00  0.00    -0.088 HD
ATOM      4  H2  ASN A   1      39.083 -24.248 -12.015  0.00  0.00    -0.088 HD
ATOM      5  H3  ASN A   1      38.201 -23.996 -10.625  0.00  0.00    -0.088 HD
ENDBRANCH   1   2
BRANCH   1   7
ATOM      6  OXT ASN A   1      36.069 -24.212 -10.035  0.00  0.00    -0.253 OA
ATOM      7  C   ASN A   1      35.953 -24.558 -11.204  0.00  0.00    +0.293 C 
BRANCH   7   8
ATOM      8  O   ASN A   1      34.769 -24.961 -11.735  0.00  0.00    -0.482 OA
ATOM      9  H   ASN A   1      33.992 -24.949 -11.211  0.00  0.00    +0.295 HD
ENDBRANCH   7   8
ENDBRANCH   1   7
BRANCH   1  10
ATOM     10  CB  ASN A   1      37.499 -26.070 -12.473  0.00  0.00    +0.074 C 
BRANCH  10  13
ATOM     11  OD1 ASN A   1      38.132 -27.072 -14.570  0.00  0.00    -0.275 OA
ATOM     12  ND2 ASN A   1      36.092 -26.016 -14.443  0.00  0.00    -0.329 N 
ATOM     13  CG  ASN A   1      37.290 -26.450 -13.926  0.00  0.00    +0.218 C 
ATOM     14 HD21 ASN A   1      35.861 -26.213 -15.380  0.00  0.00    +0.145 HD
ATOM     15 HD22 ASN A   1      35.466 -25.509 -13.879  0.00  0.00    +0.145 HD
ENDBRANCH  10  13
ENDBRANCH   1  10
TORSDOF 5
ENDMDL
MODEL 4
REMARK VINA RESULT:      -5.1      2.865      3.190
REMARK  Name = 6267
REMARK  5 active torsions:
REMARK  status: ('A' for Active; 'I' for Inactive)
REMARK    1  A    between atoms: CA_1  and  N_2
REMARK    2  A    between atoms: CA_1  and  C_7
REMARK    3  A    between atoms: CA_1  and  CB_10
REMARK    4  A    between atoms: C_7  and  O_8
REMARK    5  A    between atoms: CB_10  and  CG_13
REMARK                            x       y       z     vdW  Elec       q    Type
REMARK                         _______ _______ _______ _____ _____    ______ ____
ROOT
ATOM      1  CA  ASN A   1      37.919 -24.754 -13.127  0.00  0.00    +0.045 C 
ENDROOT
BRANCH   1   2
ATOM      2  N   ASN A   1      39.338 -25.031 -13.359  0.00  0.00    +0.389 N 
ATOM      3  H1  ASN A   1      39.504 -26.036 -13.295  0.00  0.00    -0.088 HD
ATOM      4  H2  ASN A   1      39.899 -24.549 -12.657  0.00  0.00    -0.088 HD
ATOM      5  H3  ASN A   1      39.602 -24.703 -14.289  0.00  0.00    -0.088 HD
ENDBRANCH   1   2
BRANCH   1   7
ATOM      6  OXT ASN A   1      37.041 -24.324 -10.889  0.00  0.00    -0.253 OA
ATOM      7  C   ASN A   1      37.828 -24.046 -11.785  0.00  0.00    +0.293 C 
BRANCH   7   8
ATOM      8  O   ASN A   1      38.721 -23.027 -11.685  0.00  0.00    -0.482 OA
ATOM      9  H   ASN A   1      39.613 -23.158 -11.942  0.00  0.00    +0.295 HD
ENDBRANCH   7   8
ENDBRANCH   1   7
BRANCH   1  10
ATOM     10  CB  ASN A   1      37.143 -26.073 -13.093  0.00  0.00    +0.074 C 
BRANCH  10  13
ATOM     11  OD1 ASN A   1      38.304 -27.303 -14.807  0.00  0.00    -0.275 OA
ATOM     12  ND2 ASN A   1      36.078 -26.825 -15.133  0.00  0.00    -0.329 N 
ATOM     13  CG  ASN A   1      37.252 -26.802 -14.418  0.00  0.00    +0.218 C 
ATOM     14 HD21 ASN A   1      36.044 -27.276 -16.008  0.00  0.00    +0.145 HD
ATOM     15 HD22 ASN A   1      35.271 -26.392 -14.772  0.00  0.00    +0.145 HD
ENDBRANCH  10  13
ENDBRANCH   1  10
TORSDOF 5
ENDMDL
MODEL 5
REMARK VINA RESULT:      -5.0      2.763      3.807
REMARK  Name = 6267
REMARK  5 active torsions:
REMARK  status: ('A' for Active; 'I' for Inactive)
REMARK    1  A    between atoms: CA_1  and  N_2
REMARK    2  A    between atoms: CA_1  and  C_7
REMARK    3  A    between atoms: CA_1  and  CB_10
REMARK    4  A    between atoms: C_7  and  O_8
REMARK    5  A    between atoms: CB_10  and  CG_13
REMARK                            x       y       z     vdW  Elec       q    Type
REMARK                         _______ _______ _______ _____ _____    ______ ____
ROOT
ATOM      1  CA  ASN A   1      36.716 -25.407 -13.974  0.00  0.00    +0.045 C 
ENDROOT
BRANCH   1   2
ATOM      2  N   ASN A   1      35.270 -25.190 -14.057  0.00  0.00    +0.389 N 
ATOM      3  H1  ASN A   1      34.788 -26.088 -14.002  0.00  0.00    -0.088 HD
ATOM      4  H2  ASN A   1      35.043 -24.737 -14.941  0.00  0.00    -0.088 HD
ATOM      5  H3  ASN A   1      34.970 -24.596 -13.283  0.00  0.00    -0.088 HD
ENDBRANCH   1   2
BRANCH   1   7
ATOM      6  OXT ASN A   1      36.331 -26.909 -15.862  0.00  0.00    -0.253 OA
ATOM      7  C   ASN A   1      37.041 -26.539 -14.936  0.00  0.00    +0.293 C 
BRANCH   7   8
ATOM      8  O   ASN A   1      38.229 -27.131 -14.642  0.00  0.00    -0.482 OA
ATOM      9  H   ASN A   1      38.777 -27.450 -15.332  0.00  0.00    +0.295 HD
ENDBRANCH   7   8
ENDBRANCH   1   7
BRANCH   1  10
ATOM     10  CB  ASN A   1      37.090 -25.797 -12.542  0.00  0.00    +0.074 C 
BRANCH  10  13
ATOM     11  OD1 ASN A   1      35.380 -25.110 -10.992  0.00  0.00    -0.275 OA
ATOM     12  ND2 ASN A   1      37.169 -23.704 -11.325  0.00  0.00    -0.329 N 
ATOM     13  CG  ASN A   1      36.451 -24.857 -11.538  0.00  0.00    +0.218 C 
ATOM     14 HD21 ASN A   1      36.838 -23.028 -10.689  0.00  0.00    +0.145 HD
ATOM     15 HD22 ASN A   1      38.015 -23.554 -11.806  0.00  0.00    +0.145 HD
ENDBRANCH  10  13
ENDBRANCH   1  10
TORSDOF 5
ENDMDL
MODEL 6
REMARK VINA RESULT:      -4.9      2.523      2.930
REMARK  Name = 6267
REMARK  5 active torsions:
REMARK  status: ('A' for Active; 'I' for Inactive)
REMARK    1  A    between atoms: CA_1  and  N_2
REMARK    2  A    between atoms: CA_1  and  C_7
REMARK    3  A    between atoms: CA_1  and  CB_10
REMARK    4  A    between atoms: C_7  and  O_8
REMARK    5  A    between atoms: CB_10  and  CG_13
REMARK                            x       y       z     vdW  Elec       q    Type
REMARK                         _______ _______ _______ _____ _____    ______ ____
ROOT
ATOM      1  CA  ASN A   1      38.198 -25.388 -13.747  0.00  0.00    +0.045 C 
ENDROOT
BRANCH   1   2
ATOM      2  N   ASN A   1      38.306 -26.792 -14.149  0.00  0.00    +0.389 N 
ATOM      3  H1  ASN A   1      37.860 -27.383 -13.445  0.00  0.00    -0.088 HD
ATOM      4  H2  ASN A   1      39.289 -27.048 -14.234  0.00  0.00    -0.088 HD
ATOM      5  H3  ASN A   1      37.841 -26.925 -15.047  0.00  0.00    -0.088 HD
ENDBRANCH   1   2
BRANCH   1   7
ATOM      6  OXT ASN A   1      37.931 -24.544 -11.470  0.00  0.00    -0.253 OA
ATOM      7  C   ASN A   1      37.670 -25.384 -12.321  0.00  0.00    +0.293 C 
BRANCH   7   8
ATOM      8  O   ASN A   1      36.869 -26.454 -12.072  0.00  0.00    -0.482 OA
ATOM      9  H   ASN A   1      36.779 -27.131 -12.713  0.00  0.00    +0.295 HD
ENDBRANCH   7   8
ENDBRANCH   1   7
BRANCH   1  10
ATOM     10  CB  ASN A   1      37.227 -24.665 -14.681  0.00  0.00    +0.074 C 
BRANCH  10  13
ATOM     11  OD1 ASN A   1      36.108 -26.450 -15.849  0.00  0.00    -0.275 OA
ATOM     12  ND2 ASN A   1      34.895 -25.219 -14.330  0.00  0.00    -0.329 N 
ATOM     13  CG  ASN A   1      36.040 -25.546 -15.019  0.00  0.00    +0.218 C 
ATOM     14 HD21 ASN A   1      34.068 -25.733 -14.478  0.00  0.00    +0.145 HD
ATOM     15 HD22 ASN A   1      34.902 -24.473 -13.689  0.00  0.00    +0.145 HD
ENDBRANCH  10  13
ENDBRANCH   1  10
TORSDOF 5
ENDMDL
MODEL 7
REMARK VINA RESULT:      -4.9      8.468      9.851
REMARK  Name = 6267
REMARK  5 active torsions:
REMARK  status: ('A' for Active; 'I' for Inactive)
REMARK    1  A    between atoms: CA_1  and  N_2
REMARK    2  A    between atoms: CA_1  and  C_7
REMARK    3  A    between atoms: CA_1  and  CB_10
REMARK    4  A    between atoms: C_7  and  O_8
REMARK    5  A    between atoms: CB_10  and  CG_13
REMARK                            x       y       z     vdW  Elec       q    Type
REMARK                         _______ _______ _______ _____ _____    ______ ____
ROOT
ATOM      1  CA  ASN A   1      29.888 -23.459 -16.265  0.00  0.00    +0.045 C 
ENDROOT
BRANCH   1   2
ATOM      2  N   ASN A   1      30.915 -22.669 -16.947  0.00  0.00    +0.389 N 
ATOM      3  H1  ASN A   1      31.357 -23.237 -17.671  0.00  0.00    -0.088 HD
ATOM      4  H2  ASN A   1      31.619 -22.370 -16.273  0.00  0.00    -0.088 HD
ATOM      5  H3  ASN A   1      30.484 -21.848 -17.376  0.00  0.00    -0.088 HD
ENDBRANCH   1   2
BRANCH   1   7
ATOM      6  OXT ASN A   1      28.114 -21.850 -16.745  0.00  0.00    -0.253 OA
ATOM      7  C   ASN A   1      28.548 -22.993 -16.810  0.00  0.00    +0.293 C 
BRANCH   7   8
ATOM      8  O   ASN A   1      27.848 -24.010 -17.377  0.00  0.00    -0.482 OA
ATOM      9  H   ASN A   1      27.774 -24.833 -16.934  0.00  0.00    +0.295 HD
ENDBRANCH   7   8
ENDBRANCH   1   7
BRANCH   1  10
ATOM     10  CB  ASN A   1      29.971 -23.208 -14.758  0.00  0.00    +0.074 C 
BRANCH  10  13
ATOM     11  OD1 ASN A   1      31.043 -24.529 -13.053  0.00  0.00    -0.275 OA
ATOM     12  ND2 ASN A   1      29.620 -25.591 -14.514  0.00  0.00    -0.329 N 
ATOM     13  CG  ASN A   1      30.271 -24.491 -14.008  0.00  0.00    +0.218 C 
ATOM     14 HD21 ASN A   1      29.748 -26.474 -14.097  0.00  0.00    +0.145 HD
ATOM     15 HD22 ASN A   1      29.025 -25.498 -15.293  0.00  0.00    +0.145 HD
ENDBRANCH  10  13
ENDBRANCH   1  10
TORSDOF 5
ENDMDL
MODEL 8
REMARK VINA RESULT:      -4.8      3.740      4.176
REMARK  Name = 6267
REMARK  5 active torsions:
REMARK  status: ('A' for Active; 'I' for Inactive)
REMARK    1  A    between atoms: CA_1  and  N_2
REMARK    2  A    between atoms: CA_1  and  C_7
REMARK    3  A    between atoms: CA_1  and  CB_10
REMARK    4  A    between atoms: C_7  and  O_8
REMARK    5  A    between atoms: CB_10  and  CG_13
REMARK                            x       y       z     vdW  Elec       q    Type
REMARK                         _______ _______ _______ _____ _____    ______ ____
ROOT
ATOM      1  CA  ASN A   1      36.111 -24.893 -13.654  0.00  0.00    +0.045 C 
ENDROOT
BRANCH   1   2
ATOM      2  N   ASN A   1      36.714 -26.036 -12.965  0.00  0.00    +0.389 N 
ATOM      3  H1  ASN A   1      37.515 -26.372 -13.501  0.00  0.00    -0.088 HD
ATOM      4  H2  ASN A   1      36.026 -26.784 -12.878  0.00  0.00    -0.088 HD
ATOM      5  H3  ASN A   1      37.024 -25.749 -12.036  0.00  0.00    -0.088 HD
ENDBRANCH   1   2
BRANCH   1   7
ATOM      6  OXT ASN A   1      37.678 -23.029 -13.847  0.00  0.00    -0.253 OA
ATOM      7  C   ASN A   1      37.256 -24.100 -14.264  0.00  0.00    +0.293 C 
BRANCH   7   8
ATOM      8  O   ASN A   1      37.766 -24.709 -15.367  0.00  0.00    -0.482 OA
ATOM      9  H   ASN A   1      37.495 -25.578 -15.590  0.00  0.00    +0.295 HD
ENDBRANCH   7   8
ENDBRANCH   1   7
BRANCH   1  10
ATOM     10  CB  ASN A   1      35.344 -24.038 -12.643  0.00  0.00    +0.074 C 
BRANCH  10  13
ATOM     11  OD1 ASN A   1      35.315 -25.144 -10.504  0.00  0.00    -0.275 OA
ATOM     12  ND2 ASN A   1      36.873 -23.487 -10.848  0.00  0.00    -0.329 N 
ATOM     13  CG  ASN A   1      35.830 -24.298 -11.231  0.00  0.00    +0.218 C 
ATOM     14 HD21 ASN A   1      37.262 -23.578  -9.947  0.00  0.00    +0.145 HD
ATOM     15 HD22 ASN A   1      37.232 -22.817 -11.473  0.00  0.00    +0.145 HD
ENDBRANCH  10  13
ENDBRANCH   1  10
TORSDOF 5
ENDMDL
MODEL 9
REMARK VINA RESULT:      -4.8      1.532      3.590
REMARK  Name = 6267
REMARK  5 active torsions:
REMARK  status: ('A' for Active; 'I' for Inactive)
REMARK    1  A    between atoms: CA_1  and  N_2
REMARK    2  A    between atoms: CA_1  and  C_7
REMARK    3  A    between atoms: CA_1  and  CB_10
REMARK    4  A    between atoms: C_7  and  O_8
REMARK    5  A    between atoms: CB_10  and  CG_13
REMARK                            x       y       z     vdW  Elec       q    Type
REMARK                         _______ _______ _______ _____ _____    ______ ____
ROOT
ATOM      1  CA  ASN A   1      36.918 -25.539 -13.684  0.00  0.00    +0.045 C 
ENDROOT
BRANCH   1   2
ATOM      2  N   ASN A   1      37.151 -26.914 -13.239  0.00  0.00    +0.389 N 
ATOM      3  H1  ASN A   1      37.464 -27.479 -14.030  0.00  0.00    -0.088 HD
ATOM      4  H2  ASN A   1      36.286 -27.303 -12.866  0.00  0.00    -0.088 HD
ATOM      5  H3  ASN A   1      37.869 -26.920 -12.513  0.00  0.00    -0.088 HD
ENDBRANCH   1   2
BRANCH   1   7
ATOM      6  OXT ASN A   1      36.125 -26.639 -15.716  0.00  0.00    -0.253 OA
ATOM      7  C   ASN A   1      36.482 -25.620 -15.139  0.00  0.00    +0.293 C 
BRANCH   7   8
ATOM      8  O   ASN A   1      36.551 -24.413 -15.759  0.00  0.00    -0.482 OA
ATOM      9  H   ASN A   1      35.768 -23.928 -15.930  0.00  0.00    +0.295 HD
ENDBRANCH   7   8
ENDBRANCH   1   7
BRANCH   1  10
ATOM     10  CB  ASN A   1      38.215 -24.736 -13.557  0.00  0.00    +0.074 C 
BRANCH  10  13
ATOM     11  OD1 ASN A   1      39.985 -26.367 -13.630  0.00  0.00    -0.275 OA
ATOM     12  ND2 ASN A   1      39.676 -25.019 -15.468  0.00  0.00    -0.329 N 
ATOM     13  CG  ASN A   1      39.373 -25.469 -14.205  0.00  0.00    +0.218 C 
ATOM     14 HD21 ASN A   1      40.413 -25.431 -15.974  0.00  0.00    +0.145 HD
ATOM     15 HD22 ASN A   1      39.156 -24.285 -15.867  0.00  0.00    +0.145 HD
ENDBRANCH  10  13
ENDBRANCH   1  10
TORSDOF 5
ENDMDL
