MODEL 1
REMARK VINA RESULT:     -10.7      0.000      0.000
REMARK  Name = 44814423
REMARK  10 active torsions:
REMARK  status: ('A' for Active; 'I' for Inactive)
REMARK    1  A    between atoms: C_3  and  C_32
REMARK    2  A    between atoms: C_4  and  C_10
REMARK    3  A    between atoms: C_5  and  O_26
REMARK    4  A    between atoms: C_6  and  O_28
REMARK    5  A    between atoms: C_7  and  O_30
REMARK    6  A    between atoms: C_13  and  C_16
REMARK    7  A    between atoms: C_16  and  C_17
REMARK    8  A    between atoms: C_22  and  O_23
REMARK    9  A    between atoms: O_23  and  C_24
REMARK   10  A    between atoms: C_32  and  O_33
REMARK                            x       y       z     vdW  Elec       q    Type
REMARK                         _______ _______ _______ _____ _____    ______ ____
ROOT
ATOM      1  O   UNL     1      35.784 -25.335 -14.517  0.00  0.00    -0.326 OA
ATOM      2  O   UNL     1      36.264 -23.131 -13.955  0.00  0.00    -0.326 OA
ATOM      3  C   UNL     1      37.101 -25.316 -13.948  0.00  0.00    +0.176 C 
ATOM      4  C   UNL     1      35.207 -24.113 -14.004  0.00  0.00    +0.235 C 
ATOM      5  C   UNL     1      36.948 -25.713 -12.461  0.00  0.00    +0.169 C 
ATOM      6  C   UNL     1      34.773 -24.404 -12.551  0.00  0.00    +0.196 C 
ATOM      7  C   UNL     1      35.999 -24.775 -11.699  0.00  0.00    +0.172 C 
ATOM      8  C   UNL     1      37.479 -23.861 -14.183  0.00  0.00    +0.177 C 
ENDROOT
BRANCH   4  10
ATOM      9 CL   UNL     1      30.627 -22.407 -17.537  0.00  0.00    -0.083 Cl
ATOM     10  C   UNL     1      34.062 -23.685 -14.899  0.00  0.00    +0.031 C 
ATOM     11  C   UNL     1      34.201 -23.745 -16.287  0.00  0.00    -0.003 C 
ATOM     12  C   UNL     1      32.868 -23.233 -14.337  0.00  0.00    +0.001 C 
ATOM     13  C   UNL     1      33.147 -23.352 -17.110  0.00  0.00    -0.007 C 
ATOM     14  C   UNL     1      31.814 -22.840 -15.161  0.00  0.00    +0.011 C 
ATOM     15  C   UNL     1      31.954 -22.899 -16.548  0.00  0.00    +0.054 C 
BRANCH  13  16
ATOM     16  C   UNL     1      33.335 -23.432 -18.591  0.00  0.00    +0.053 C 
BRANCH  16  17
ATOM     17  C   UNL     1      33.985 -22.203 -19.192  0.00  0.00    -0.018 C 
ATOM     18  C   UNL     1      33.202 -21.244 -19.836  0.00  0.00    -0.001 C 
ATOM     19  C   UNL     1      35.366 -22.029 -19.103  0.00  0.00    -0.001 C 
ATOM     20  C   UNL     1      33.800 -20.112 -20.390  0.00  0.00    +0.037 C 
ATOM     21  C   UNL     1      35.964 -20.898 -19.656  0.00  0.00    +0.037 C 
ATOM     22  C   UNL     1      35.182 -19.940 -20.300  0.00  0.00    +0.139 C 
BRANCH  22  23
ATOM     23  O   UNL     1      35.765 -18.835 -20.840  0.00  0.00    -0.475 OA
BRANCH  23  24
ATOM     24  C   UNL     1      34.937 -17.985 -21.633  0.00  0.00    +0.206 C 
ATOM     25  C   UNL     1      34.843 -16.628 -20.969  0.00  0.00    +0.051 C 
ENDBRANCH  23  24
ENDBRANCH  22  23
ENDBRANCH  16  17
ENDBRANCH  13  16
ENDBRANCH   4  10
BRANCH   5  26
ATOM     26  O   UNL     1      38.212 -25.747 -11.804  0.00  0.00    -0.379 OA
ATOM     27  H   UNL     1      38.429 -24.860 -11.476  0.00  0.00    +0.211 HD
ENDBRANCH   5  26
BRANCH   6  28
ATOM     28  O   UNL     1      34.159 -23.247 -11.985  0.00  0.00    -0.377 OA
ATOM     29  H   UNL     1      33.671 -23.499 -11.186  0.00  0.00    +0.211 HD
ENDBRANCH   6  28
BRANCH   7  30
ATOM     30  O   UNL     1      35.547 -25.417 -10.506  0.00  0.00    -0.379 OA
ATOM     31  H   UNL     1      36.127 -26.169 -10.305  0.00  0.00    +0.211 HD
ENDBRANCH   7  30
BRANCH   3  32
ATOM     32  C   UNL     1      38.009 -26.277 -14.704  0.00  0.00    +0.169 C 
BRANCH  32  33
ATOM     33  O   UNL     1      37.314 -26.758 -15.840  0.00  0.00    -0.379 OA
ATOM     34  H   UNL     1      37.215 -27.721 -15.774  0.00  0.00    +0.211 HD
ENDBRANCH  32  33
ENDBRANCH   3  32
TORSDOF 10
ENDMDL
MODEL 2
REMARK VINA RESULT:     -10.6      5.067     12.534
REMARK  Name = 44814423
REMARK  10 active torsions:
REMARK  status: ('A' for Active; 'I' for Inactive)
REMARK    1  A    between atoms: C_3  and  C_32
REMARK    2  A    between atoms: C_4  and  C_10
REMARK    3  A    between atoms: C_5  and  O_26
REMARK    4  A    between atoms: C_6  and  O_28
REMARK    5  A    between atoms: C_7  and  O_30
REMARK    6  A    between atoms: C_13  and  C_16
REMARK    7  A    between atoms: C_16  and  C_17
REMARK    8  A    between atoms: C_22  and  O_23
REMARK    9  A    between atoms: O_23  and  C_24
REMARK   10  A    between atoms: C_32  and  O_33
REMARK                            x       y       z     vdW  Elec       q    Type
REMARK                         _______ _______ _______ _____ _____    ______ ____
ROOT
ATOM      1  O   UNL     1      34.518 -13.043 -24.016  0.00  0.00    -0.326 OA
ATOM      2  O   UNL     1      32.459 -13.698 -24.875  0.00  0.00    -0.326 OA
ATOM      3  C   UNL     1      33.844 -11.857 -24.461  0.00  0.00    +0.176 C 
ATOM      4  C   UNL     1      33.425 -13.973 -23.837  0.00  0.00    +0.235 C 
ATOM      5  C   UNL     1      33.178 -11.230 -23.213  0.00  0.00    +0.169 C 
ATOM      6  C   UNL     1      32.767 -13.628 -22.484  0.00  0.00    +0.196 C 
ATOM      7  C   UNL     1      32.205 -12.197 -22.520  0.00  0.00    +0.172 C 
ATOM      8  C   UNL     1      32.872 -12.457 -25.466  0.00  0.00    +0.177 C 
ENDROOT
BRANCH   4  10
ATOM      9 CL   UNL     1      35.529 -19.617 -24.132  0.00  0.00    -0.083 Cl
ATOM     10  C   UNL     1      33.957 -15.390 -23.903  0.00  0.00    +0.031 C 
ATOM     11  C   UNL     1      34.576 -15.955 -22.787  0.00  0.00    -0.003 C 
ATOM     12  C   UNL     1      33.829 -16.129 -25.078  0.00  0.00    +0.001 C 
ATOM     13  C   UNL     1      35.065 -17.259 -22.847  0.00  0.00    -0.007 C 
ATOM     14  C   UNL     1      34.319 -17.434 -25.138  0.00  0.00    +0.011 C 
ATOM     15  C   UNL     1      34.937 -17.999 -24.022  0.00  0.00    +0.054 C 
BRANCH  13  16
ATOM     16  C   UNL     1      35.720 -17.829 -21.630  0.00  0.00    +0.053 C 
BRANCH  16  17
ATOM     17  C   UNL     1      34.966 -18.991 -21.018  0.00  0.00    -0.018 C 
ATOM     18  C   UNL     1      33.571 -18.986 -20.998  0.00  0.00    -0.001 C 
ATOM     19  C   UNL     1      35.666 -20.067 -20.473  0.00  0.00    -0.001 C 
ATOM     20  C   UNL     1      32.876 -20.056 -20.434  0.00  0.00    +0.037 C 
ATOM     21  C   UNL     1      34.973 -21.137 -19.909  0.00  0.00    +0.037 C 
ATOM     22  C   UNL     1      33.578 -21.132 -19.889  0.00  0.00    +0.139 C 
BRANCH  22  23
ATOM     23  O   UNL     1      32.900 -22.176 -19.340  0.00  0.00    -0.475 OA
BRANCH  23  24
ATOM     24  C   UNL     1      33.529 -22.860 -18.256  0.00  0.00    +0.206 C 
ATOM     25  C   UNL     1      32.530 -23.025 -17.131  0.00  0.00    +0.051 C 
ENDBRANCH  23  24
ENDBRANCH  22  23
ENDBRANCH  16  17
ENDBRANCH  13  16
ENDBRANCH   4  10
BRANCH   5  26
ATOM     26  O   UNL     1      32.495 -10.025 -23.545  0.00  0.00    -0.379 OA
ATOM     27  H   UNL     1      32.235 -10.048 -24.480  0.00  0.00    +0.211 HD
ENDBRANCH   5  26
BRANCH   6  28
ATOM     28  O   UNL     1      31.694 -14.531 -22.220  0.00  0.00    -0.377 OA
ATOM     29  H   UNL     1      31.986 -15.439 -22.393  0.00  0.00    +0.211 HD
ENDBRANCH   6  28
BRANCH   7  30
ATOM     30  O   UNL     1      31.974 -11.763 -21.179  0.00  0.00    -0.379 OA
ATOM     31  H   UNL     1      31.141 -12.140 -20.856  0.00  0.00    +0.211 HD
ENDBRANCH   7  30
BRANCH   3  32
ATOM     32  C   UNL     1      34.838 -10.907 -25.115  0.00  0.00    +0.169 C 
BRANCH  32  33
ATOM     33  O   UNL     1      35.354 -10.038 -24.123  0.00  0.00    -0.379 OA
ATOM     34  H   UNL     1      35.087  -9.127 -24.321  0.00  0.00    +0.211 HD
ENDBRANCH  32  33
ENDBRANCH   3  32
TORSDOF 10
ENDMDL
MODEL 3
REMARK VINA RESULT:     -10.5      1.050      2.491
REMARK  Name = 44814423
REMARK  10 active torsions:
REMARK  status: ('A' for Active; 'I' for Inactive)
REMARK    1  A    between atoms: C_3  and  C_32
REMARK    2  A    between atoms: C_4  and  C_10
REMARK    3  A    between atoms: C_5  and  O_26
REMARK    4  A    between atoms: C_6  and  O_28
REMARK    5  A    between atoms: C_7  and  O_30
REMARK    6  A    between atoms: C_13  and  C_16
REMARK    7  A    between atoms: C_16  and  C_17
REMARK    8  A    between atoms: C_22  and  O_23
REMARK    9  A    between atoms: O_23  and  C_24
REMARK   10  A    between atoms: C_32  and  O_33
REMARK                            x       y       z     vdW  Elec       q    Type
REMARK                         _______ _______ _______ _____ _____    ______ ____
ROOT
ATOM      1  O   UNL     1      36.493 -23.353 -13.916  0.00  0.00    -0.326 OA
ATOM      2  O   UNL     1      35.210 -24.994 -12.884  0.00  0.00    -0.326 OA
ATOM      3  C   UNL     1      37.237 -23.829 -12.785  0.00  0.00    +0.176 C 
ATOM      4  C   UNL     1      35.578 -24.444 -14.167  0.00  0.00    +0.235 C 
ATOM      5  C   UNL     1      38.237 -24.880 -13.321  0.00  0.00    +0.169 C 
ATOM      6  C   UNL     1      36.377 -25.526 -14.926  0.00  0.00    +0.196 C 
ATOM      7  C   UNL     1      37.536 -26.036 -14.053  0.00  0.00    +0.172 C 
ATOM      8  C   UNL     1      36.109 -24.398 -11.937  0.00  0.00    +0.177 C 
ENDROOT
BRANCH   4  10
ATOM      9 CL   UNL     1      30.797 -22.384 -17.212  0.00  0.00    -0.083 Cl
ATOM     10  C   UNL     1      34.382 -23.928 -14.940  0.00  0.00    +0.031 C 
ATOM     11  C   UNL     1      34.404 -23.917 -16.335  0.00  0.00    -0.003 C 
ATOM     12  C   UNL     1      33.258 -23.463 -14.257  0.00  0.00    +0.001 C 
ATOM     13  C   UNL     1      33.304 -23.442 -17.046  0.00  0.00    -0.007 C 
ATOM     14  C   UNL     1      32.156 -22.988 -14.969  0.00  0.00    +0.011 C 
ATOM     15  C   UNL     1      32.180 -22.977 -16.364  0.00  0.00    +0.054 C 
BRANCH  13  16
ATOM     16  C   UNL     1      33.367 -23.448 -18.540  0.00  0.00    +0.053 C 
BRANCH  16  17
ATOM     17  C   UNL     1      34.053 -22.233 -19.129  0.00  0.00    -0.018 C 
ATOM     18  C   UNL     1      35.434 -22.082 -19.002  0.00  0.00    -0.001 C 
ATOM     19  C   UNL     1      33.304 -21.265 -19.797  0.00  0.00    -0.001 C 
ATOM     20  C   UNL     1      36.066 -20.962 -19.543  0.00  0.00    +0.037 C 
ATOM     21  C   UNL     1      33.935 -20.146 -20.338  0.00  0.00    +0.037 C 
ATOM     22  C   UNL     1      35.316 -19.994 -20.211  0.00  0.00    +0.139 C 
BRANCH  22  23
ATOM     23  O   UNL     1      35.933 -18.902 -20.740  0.00  0.00    -0.475 OA
BRANCH  23  24
ATOM     24  C   UNL     1      35.166 -18.091 -21.630  0.00  0.00    +0.206 C 
ATOM     25  C   UNL     1      34.908 -16.750 -20.977  0.00  0.00    +0.051 C 
ENDBRANCH  23  24
ENDBRANCH  22  23
ENDBRANCH  16  17
ENDBRANCH  13  16
ENDBRANCH   4  10
BRANCH   5  26
ATOM     26  O   UNL     1      39.046 -25.403 -12.272  0.00  0.00    -0.379 OA
ATOM     27  H   UNL     1      39.404 -24.671 -11.745  0.00  0.00    +0.211 HD
ENDBRANCH   5  26
BRANCH   6  28
ATOM     28  O   UNL     1      35.527 -26.628 -15.241  0.00  0.00    -0.377 OA
ATOM     29  H   UNL     1      34.821 -26.332 -15.836  0.00  0.00    +0.211 HD
ENDBRANCH   6  28
BRANCH   7  30
ATOM     30  O   UNL     1      38.475 -26.711 -14.890  0.00  0.00    -0.379 OA
ATOM     31  H   UNL     1      38.007 -27.125 -15.632  0.00  0.00    +0.211 HD
ENDBRANCH   7  30
BRANCH   3  32
ATOM     32  C   UNL     1      37.943 -22.667 -12.100  0.00  0.00    +0.169 C 
BRANCH  32  33
ATOM     33  O   UNL     1      37.198 -22.295 -10.955  0.00  0.00    -0.379 OA
ATOM     34  H   UNL     1      36.320 -21.986 -11.228  0.00  0.00    +0.211 HD
ENDBRANCH  32  33
ENDBRANCH   3  32
TORSDOF 10
ENDMDL
MODEL 4
REMARK VINA RESULT:      -9.6      1.300      1.682
REMARK  Name = 44814423
REMARK  10 active torsions:
REMARK  status: ('A' for Active; 'I' for Inactive)
REMARK    1  A    between atoms: C_3  and  C_32
REMARK    2  A    between atoms: C_4  and  C_10
REMARK    3  A    between atoms: C_5  and  O_26
REMARK    4  A    between atoms: C_6  and  O_28
REMARK    5  A    between atoms: C_7  and  O_30
REMARK    6  A    between atoms: C_13  and  C_16
REMARK    7  A    between atoms: C_16  and  C_17
REMARK    8  A    between atoms: C_22  and  O_23
REMARK    9  A    between atoms: O_23  and  C_24
REMARK   10  A    between atoms: C_32  and  O_33
REMARK                            x       y       z     vdW  Elec       q    Type
REMARK                         _______ _______ _______ _____ _____    ______ ____
ROOT
ATOM      1  O   UNL     1      35.775 -25.265 -14.398  0.00  0.00    -0.326 OA
ATOM      2  O   UNL     1      35.707 -22.943 -14.303  0.00  0.00    -0.326 OA
ATOM      3  C   UNL     1      37.130 -24.801 -14.300  0.00  0.00    +0.176 C 
ATOM      4  C   UNL     1      35.025 -24.143 -13.879  0.00  0.00    +0.235 C 
ATOM      5  C   UNL     1      37.526 -24.898 -12.808  0.00  0.00    +0.169 C 
ATOM      6  C   UNL     1      35.124 -24.218 -12.340  0.00  0.00    +0.196 C 
ATOM      7  C   UNL     1      36.592 -24.084 -11.899  0.00  0.00    +0.172 C 
ATOM      8  C   UNL     1      36.970 -23.382 -14.824  0.00  0.00    +0.177 C 
ENDROOT
BRANCH   4  10
ATOM      9 CL   UNL     1      29.352 -24.445 -15.903  0.00  0.00    -0.083 Cl
ATOM     10  C   UNL     1      33.602 -24.212 -14.393  0.00  0.00    +0.031 C 
ATOM     11  C   UNL     1      33.218 -23.439 -15.490  0.00  0.00    -0.003 C 
ATOM     12  C   UNL     1      32.675 -25.049 -13.772  0.00  0.00    +0.001 C 
ATOM     13  C   UNL     1      31.909 -23.502 -15.964  0.00  0.00    -0.007 C 
ATOM     14  C   UNL     1      31.365 -25.112 -14.246  0.00  0.00    +0.011 C 
ATOM     15  C   UNL     1      30.982 -24.339 -15.342  0.00  0.00    +0.054 C 
BRANCH  13  16
ATOM     16  C   UNL     1      31.538 -22.660 -17.142  0.00  0.00    +0.053 C 
BRANCH  16  17
ATOM     17  C   UNL     1      32.713 -22.287 -18.021  0.00  0.00    -0.018 C 
ATOM     18  C   UNL     1      32.540 -21.389 -19.074  0.00  0.00    -0.001 C 
ATOM     19  C   UNL     1      33.970 -22.842 -17.778  0.00  0.00    -0.001 C 
ATOM     20  C   UNL     1      33.622 -21.046 -19.885  0.00  0.00    +0.037 C 
ATOM     21  C   UNL     1      35.052 -22.500 -18.588  0.00  0.00    +0.037 C 
ATOM     22  C   UNL     1      34.878 -21.602 -19.641  0.00  0.00    +0.139 C 
BRANCH  22  23
ATOM     23  O   UNL     1      35.935 -21.267 -20.431  0.00  0.00    -0.475 OA
BRANCH  23  24
ATOM     24  C   UNL     1      36.669 -20.097 -20.072  0.00  0.00    +0.206 C 
ATOM     25  C   UNL     1      36.358 -18.996 -21.064  0.00  0.00    +0.051 C 
ENDBRANCH  23  24
ENDBRANCH  22  23
ENDBRANCH  16  17
ENDBRANCH  13  16
ENDBRANCH   4  10
BRANCH   5  26
ATOM     26  O   UNL     1      38.872 -24.478 -12.605  0.00  0.00    -0.379 OA
ATOM     27  H   UNL     1      39.469 -25.233 -12.728  0.00  0.00    +0.211 HD
ENDBRANCH   5  26
BRANCH   6  28
ATOM     28  O   UNL     1      34.375 -23.156 -11.752  0.00  0.00    -0.377 OA
ATOM     29  H   UNL     1      34.491 -22.349 -12.277  0.00  0.00    +0.211 HD
ENDBRANCH   6  28
BRANCH   7  30
ATOM     30  O   UNL     1      36.708 -24.550 -10.554  0.00  0.00    -0.379 OA
ATOM     31  H   UNL     1      37.640 -24.726 -10.352  0.00  0.00    +0.211 HD
ENDBRANCH   7  30
BRANCH   3  32
ATOM     32  C   UNL     1      38.035 -25.645 -15.187  0.00  0.00    +0.169 C 
BRANCH  32  33
ATOM     33  O   UNL     1      37.250 -26.639 -15.821  0.00  0.00    -0.379 OA
ATOM     34  H   UNL     1      36.583 -26.213 -16.383  0.00  0.00    +0.211 HD
ENDBRANCH  32  33
ENDBRANCH   3  32
TORSDOF 10
ENDMDL
MODEL 5
REMARK VINA RESULT:      -9.6      2.555     10.003
REMARK  Name = 44814423
REMARK  10 active torsions:
REMARK  status: ('A' for Active; 'I' for Inactive)
REMARK    1  A    between atoms: C_3  and  C_32
REMARK    2  A    between atoms: C_4  and  C_10
REMARK    3  A    between atoms: C_5  and  O_26
REMARK    4  A    between atoms: C_6  and  O_28
REMARK    5  A    between atoms: C_7  and  O_30
REMARK    6  A    between atoms: C_13  and  C_16
REMARK    7  A    between atoms: C_16  and  C_17
REMARK    8  A    between atoms: C_22  and  O_23
REMARK    9  A    between atoms: O_23  and  C_24
REMARK   10  A    between atoms: C_32  and  O_33
REMARK                            x       y       z     vdW  Elec       q    Type
REMARK                         _______ _______ _______ _____ _____    ______ ____
ROOT
ATOM      1  O   UNL     1      33.166 -16.831 -21.440  0.00  0.00    -0.326 OA
ATOM      2  O   UNL     1      35.351 -16.782 -20.646  0.00  0.00    -0.326 OA
ATOM      3  C   UNL     1      33.593 -15.461 -21.446  0.00  0.00    +0.176 C 
ATOM      4  C   UNL     1      34.422 -17.547 -21.445  0.00  0.00    +0.235 C 
ATOM      5  C   UNL     1      34.059 -15.147 -22.887  0.00  0.00    +0.169 C 
ATOM      6  C   UNL     1      34.936 -17.531 -22.901  0.00  0.00    +0.196 C 
ATOM      7  C   UNL     1      35.184 -16.083 -23.356  0.00  0.00    +0.172 C 
ATOM      8  C   UNL     1      34.710 -15.519 -20.415  0.00  0.00    +0.177 C 
ENDROOT
BRANCH   4  10
ATOM      9 CL   UNL     1      33.518 -23.102 -19.279  0.00  0.00    -0.083 Cl
ATOM     10  C   UNL     1      34.204 -18.944 -20.900  0.00  0.00    +0.031 C 
ATOM     11  C   UNL     1      35.287 -19.683 -20.423  0.00  0.00    -0.003 C 
ATOM     12  C   UNL     1      32.921 -19.490 -20.874  0.00  0.00    +0.001 C 
ATOM     13  C   UNL     1      35.087 -20.969 -19.921  0.00  0.00    -0.007 C 
ATOM     14  C   UNL     1      32.721 -20.776 -20.372  0.00  0.00    +0.011 C 
ATOM     15  C   UNL     1      33.804 -21.515 -19.896  0.00  0.00    +0.054 C 
BRANCH  13  16
ATOM     16  C   UNL     1      36.273 -21.728 -19.419  0.00  0.00    +0.053 C 
BRANCH  16  17
ATOM     17  C   UNL     1      36.222 -22.029 -17.935  0.00  0.00    -0.018 C 
ATOM     18  C   UNL     1      35.140 -22.729 -17.402  0.00  0.00    -0.001 C 
ATOM     19  C   UNL     1      37.258 -21.605 -17.102  0.00  0.00    -0.001 C 
ATOM     20  C   UNL     1      35.093 -23.005 -16.036  0.00  0.00    +0.037 C 
ATOM     21  C   UNL     1      37.211 -21.882 -15.736  0.00  0.00    +0.037 C 
ATOM     22  C   UNL     1      36.129 -22.582 -15.203  0.00  0.00    +0.139 C 
BRANCH  22  23
ATOM     23  O   UNL     1      36.083 -22.852 -13.870  0.00  0.00    -0.475 OA
BRANCH  23  24
ATOM     24  C   UNL     1      37.152 -23.629 -13.328  0.00  0.00    +0.206 C 
ATOM     25  C   UNL     1      37.528 -23.071 -11.972  0.00  0.00    +0.051 C 
ENDBRANCH  23  24
ENDBRANCH  22  23
ENDBRANCH  16  17
ENDBRANCH  13  16
ENDBRANCH   4  10
BRANCH   5  26
ATOM     26  O   UNL     1      34.485 -13.793 -23.007  0.00  0.00    -0.379 OA
ATOM     27  H   UNL     1      34.377 -13.500 -23.926  0.00  0.00    +0.211 HD
ENDBRANCH   5  26
BRANCH   6  28
ATOM     28  O   UNL     1      36.163 -18.253 -22.992  0.00  0.00    -0.377 OA
ATOM     29  H   UNL     1      36.821 -17.847 -22.406  0.00  0.00    +0.211 HD
ENDBRANCH   6  28
BRANCH   7  30
ATOM     30  O   UNL     1      35.262 -16.060 -24.782  0.00  0.00    -0.379 OA
ATOM     31  H   UNL     1      34.367 -16.082 -25.155  0.00  0.00    +0.211 HD
ENDBRANCH   7  30
BRANCH   3  32
ATOM     32  C   UNL     1      32.449 -14.557 -21.007  0.00  0.00    +0.169 C 
BRANCH  32  33
ATOM     33  O   UNL     1      31.886 -13.948 -22.156  0.00  0.00    -0.379 OA
ATOM     34  H   UNL     1      32.471 -13.238 -22.464  0.00  0.00    +0.211 HD
ENDBRANCH  32  33
ENDBRANCH   3  32
TORSDOF 10
ENDMDL
MODEL 6
REMARK VINA RESULT:      -9.5      3.161      5.093
REMARK  Name = 44814423
REMARK  10 active torsions:
REMARK  status: ('A' for Active; 'I' for Inactive)
REMARK    1  A    between atoms: C_3  and  C_32
REMARK    2  A    between atoms: C_4  and  C_10
REMARK    3  A    between atoms: C_5  and  O_26
REMARK    4  A    between atoms: C_6  and  O_28
REMARK    5  A    between atoms: C_7  and  O_30
REMARK    6  A    between atoms: C_13  and  C_16
REMARK    7  A    between atoms: C_16  and  C_17
REMARK    8  A    between atoms: C_22  and  O_23
REMARK    9  A    between atoms: O_23  and  C_24
REMARK   10  A    between atoms: C_32  and  O_33
REMARK                            x       y       z     vdW  Elec       q    Type
REMARK                         _______ _______ _______ _____ _____    ______ ____
ROOT
ATOM      1  O   UNL     1      30.856 -22.861 -15.857  0.00  0.00    -0.326 OA
ATOM      2  O   UNL     1      31.478 -25.051 -16.329  0.00  0.00    -0.326 OA
ATOM      3  C   UNL     1      29.660 -23.654 -15.857  0.00  0.00    +0.176 C 
ATOM      4  C   UNL     1      31.886 -23.852 -15.636  0.00  0.00    +0.235 C 
ATOM      5  C   UNL     1      29.361 -24.007 -14.381  0.00  0.00    +0.169 C 
ATOM      6  C   UNL     1      31.883 -24.164 -14.124  0.00  0.00    +0.196 C 
ATOM      7  C   UNL     1      30.524 -24.754 -13.709  0.00  0.00    +0.172 C 
ATOM      8  C   UNL     1      30.112 -24.829 -16.713  0.00  0.00    +0.177 C 
ENDROOT
BRANCH   4  10
ATOM      9 CL   UNL     1      37.173 -21.714 -17.595  0.00  0.00    -0.083 Cl
ATOM     10  C   UNL     1      33.211 -23.317 -16.137  0.00  0.00    +0.031 C 
ATOM     11  C   UNL     1      33.441 -23.193 -17.508  0.00  0.00    -0.003 C 
ATOM     12  C   UNL     1      34.203 -22.947 -15.228  0.00  0.00    +0.001 C 
ATOM     13  C   UNL     1      34.660 -22.700 -17.969  0.00  0.00    -0.007 C 
ATOM     14  C   UNL     1      35.423 -22.454 -15.690  0.00  0.00    +0.011 C 
ATOM     15  C   UNL     1      35.652 -22.330 -17.061  0.00  0.00    +0.054 C 
BRANCH  13  16
ATOM     16  C   UNL     1      34.866 -22.581 -19.445  0.00  0.00    +0.053 C 
BRANCH  16  17
ATOM     17  C   UNL     1      34.580 -21.199 -19.993  0.00  0.00    -0.018 C 
ATOM     18  C   UNL     1      33.264 -20.744 -20.086  0.00  0.00    -0.001 C 
ATOM     19  C   UNL     1      35.631 -20.381 -20.406  0.00  0.00    -0.001 C 
ATOM     20  C   UNL     1      33.000 -19.470 -20.591  0.00  0.00    +0.037 C 
ATOM     21  C   UNL     1      35.368 -19.108 -20.911  0.00  0.00    +0.037 C 
ATOM     22  C   UNL     1      34.053 -18.653 -21.004  0.00  0.00    +0.139 C 
BRANCH  22  23
ATOM     23  O   UNL     1      33.796 -17.410 -21.496  0.00  0.00    -0.475 OA
BRANCH  23  24
ATOM     24  C   UNL     1      34.856 -16.456 -21.437  0.00  0.00    +0.206 C 
ATOM     25  C   UNL     1      34.436 -15.308 -20.544  0.00  0.00    +0.051 C 
ENDBRANCH  23  24
ENDBRANCH  22  23
ENDBRANCH  16  17
ENDBRANCH  13  16
ENDBRANCH   4  10
BRANCH   5  26
ATOM     26  O   UNL     1      28.171 -24.781 -14.268  0.00  0.00    -0.379 OA
ATOM     27  H   UNL     1      27.410 -24.247 -14.546  0.00  0.00    +0.211 HD
ENDBRANCH   5  26
BRANCH   6  28
ATOM     28  O   UNL     1      32.902 -25.115 -13.821  0.00  0.00    -0.377 OA
ATOM     29  H   UNL     1      32.872 -25.838 -14.466  0.00  0.00    +0.211 HD
ENDBRANCH   6  28
BRANCH   7  30
ATOM     30  O   UNL     1      30.399 -24.656 -12.290  0.00  0.00    -0.379 OA
ATOM     31  H   UNL     1      29.949 -25.446 -11.951  0.00  0.00    +0.211 HD
ENDBRANCH   7  30
BRANCH   3  32
ATOM     32  C   UNL     1      28.520 -22.877 -16.501  0.00  0.00    +0.169 C 
BRANCH  32  33
ATOM     33  O   UNL     1      27.711 -23.782 -17.232  0.00  0.00    -0.379 OA
ATOM     34  H   UNL     1      26.777 -23.613 -17.032  0.00  0.00    +0.211 HD
ENDBRANCH  32  33
ENDBRANCH   3  32
TORSDOF 10
ENDMDL
MODEL 7
REMARK VINA RESULT:      -9.1     10.786     16.985
REMARK  Name = 44814423
REMARK  10 active torsions:
REMARK  status: ('A' for Active; 'I' for Inactive)
REMARK    1  A    between atoms: C_3  and  C_32
REMARK    2  A    between atoms: C_4  and  C_10
REMARK    3  A    between atoms: C_5  and  O_26
REMARK    4  A    between atoms: C_6  and  O_28
REMARK    5  A    between atoms: C_7  and  O_30
REMARK    6  A    between atoms: C_13  and  C_16
REMARK    7  A    between atoms: C_16  and  C_17
REMARK    8  A    between atoms: C_22  and  O_23
REMARK    9  A    between atoms: O_23  and  C_24
REMARK   10  A    between atoms: C_32  and  O_33
REMARK                            x       y       z     vdW  Elec       q    Type
REMARK                         _______ _______ _______ _____ _____    ______ ____
ROOT
ATOM      1  O   UNL     1      31.458  -7.016 -23.731  0.00  0.00    -0.326 OA
ATOM      2  O   UNL     1      32.801  -5.880 -22.210  0.00  0.00    -0.326 OA
ATOM      3  C   UNL     1      31.633  -5.681 -24.228  0.00  0.00    +0.176 C 
ATOM      4  C   UNL     1      32.584  -7.164 -22.836  0.00  0.00    +0.235 C 
ATOM      5  C   UNL     1      32.777  -5.740 -25.267  0.00  0.00    +0.169 C 
ATOM      6  C   UNL     1      33.815  -7.466 -23.719  0.00  0.00    +0.196 C 
ATOM      7  C   UNL     1      34.083  -6.287 -24.671  0.00  0.00    +0.172 C 
ATOM      8  C   UNL     1      31.982  -4.953 -22.938  0.00  0.00    +0.177 C 
ENDROOT
BRANCH   4  10
ATOM      9 CL   UNL     1      31.403 -11.487 -18.802  0.00  0.00    -0.083 Cl
ATOM     10  C   UNL     1      32.284  -8.255 -21.829  0.00  0.00    +0.031 C 
ATOM     11  C   UNL     1      31.832  -9.501 -22.266  0.00  0.00    -0.003 C 
ATOM     12  C   UNL     1      32.461  -8.015 -20.467  0.00  0.00    +0.001 C 
ATOM     13  C   UNL     1      31.556 -10.506 -21.339  0.00  0.00    -0.007 C 
ATOM     14  C   UNL     1      32.185  -9.020 -19.540  0.00  0.00    +0.011 C 
ATOM     15  C   UNL     1      31.732 -10.266 -19.977  0.00  0.00    +0.054 C 
BRANCH  13  16
ATOM     16  C   UNL     1      31.074 -11.827 -21.847  0.00  0.00    +0.053 C 
BRANCH  16  17
ATOM     17  C   UNL     1      32.189 -12.784 -22.215  0.00  0.00    -0.018 C 
ATOM     18  C   UNL     1      32.824 -12.673 -23.452  0.00  0.00    -0.001 C 
ATOM     19  C   UNL     1      32.581 -13.776 -21.317  0.00  0.00    -0.001 C 
ATOM     20  C   UNL     1      33.851 -13.554 -23.791  0.00  0.00    +0.037 C 
ATOM     21  C   UNL     1      33.607 -14.658 -21.655  0.00  0.00    +0.037 C 
ATOM     22  C   UNL     1      34.242 -14.547 -22.892  0.00  0.00    +0.139 C 
BRANCH  22  23
ATOM     23  O   UNL     1      35.244 -15.406 -23.223  0.00  0.00    -0.475 OA
BRANCH  23  24
ATOM     24  C   UNL     1      34.883 -16.769 -23.447  0.00  0.00    +0.206 C 
ATOM     25  C   UNL     1      34.640 -16.978 -24.926  0.00  0.00    +0.051 C 
ENDBRANCH  23  24
ENDBRANCH  22  23
ENDBRANCH  16  17
ENDBRANCH  13  16
ENDBRANCH   4  10
BRANCH   5  26
ATOM     26  O   UNL     1      33.017  -4.459 -25.842  0.00  0.00    -0.379 OA
ATOM     27  H   UNL     1      32.176  -3.984 -25.935  0.00  0.00    +0.211 HD
ENDBRANCH   5  26
BRANCH   6  28
ATOM     28  O   UNL     1      34.966  -7.659 -22.899  0.00  0.00    -0.377 OA
ATOM     29  H   UNL     1      34.698  -8.048 -22.052  0.00  0.00    +0.211 HD
ENDBRANCH   6  28
BRANCH   7  30
ATOM     30  O   UNL     1      34.938  -6.737 -25.723  0.00  0.00    -0.379 OA
ATOM     31  H   UNL     1      34.550  -6.498 -26.579  0.00  0.00    +0.211 HD
ENDBRANCH   7  30
BRANCH   3  32
ATOM     32  C   UNL     1      30.332  -5.178 -24.840  0.00  0.00    +0.169 C 
BRANCH  32  33
ATOM     33  O   UNL     1      30.333  -3.762 -24.805  0.00  0.00    -0.379 OA
ATOM     34  H   UNL     1      30.161  -3.418 -25.696  0.00  0.00    +0.211 HD
ENDBRANCH  32  33
ENDBRANCH   3  32
TORSDOF 10
ENDMDL
MODEL 8
REMARK VINA RESULT:      -9.0      8.297     15.520
REMARK  Name = 44814423
REMARK  10 active torsions:
REMARK  status: ('A' for Active; 'I' for Inactive)
REMARK    1  A    between atoms: C_3  and  C_32
REMARK    2  A    between atoms: C_4  and  C_10
REMARK    3  A    between atoms: C_5  and  O_26
REMARK    4  A    between atoms: C_6  and  O_28
REMARK    5  A    between atoms: C_7  and  O_30
REMARK    6  A    between atoms: C_13  and  C_16
REMARK    7  A    between atoms: C_16  and  C_17
REMARK    8  A    between atoms: C_22  and  O_23
REMARK    9  A    between atoms: O_23  and  C_24
REMARK   10  A    between atoms: C_32  and  O_33
REMARK                            x       y       z     vdW  Elec       q    Type
REMARK                         _______ _______ _______ _____ _____    ______ ____
ROOT
ATOM      1  O   UNL     1      32.999  -7.811 -23.423  0.00  0.00    -0.326 OA
ATOM      2  O   UNL     1      30.947  -8.697 -22.782  0.00  0.00    -0.326 OA
ATOM      3  C   UNL     1      32.116  -6.707 -23.172  0.00  0.00    +0.176 C 
ATOM      4  C   UNL     1      32.376  -8.882 -22.679  0.00  0.00    +0.235 C 
ATOM      5  C   UNL     1      32.410  -6.222 -21.734  0.00  0.00    +0.169 C 
ATOM      6  C   UNL     1      32.766  -8.679 -21.199  0.00  0.00    +0.196 C 
ATOM      7  C   UNL     1      32.222  -7.334 -20.689  0.00  0.00    +0.172 C 
ATOM      8  C   UNL     1      30.768  -7.391 -23.350  0.00  0.00    +0.177 C 
ENDROOT
BRANCH   4  10
ATOM      9 CL   UNL     1      34.200 -14.163 -24.949  0.00  0.00    -0.083 Cl
ATOM     10  C   UNL     1      32.829 -10.213 -23.243  0.00  0.00    +0.031 C 
ATOM     11  C   UNL     1      32.270 -11.400 -22.766  0.00  0.00    -0.003 C 
ATOM     12  C   UNL     1      33.804 -10.253 -24.239  0.00  0.00    +0.001 C 
ATOM     13  C   UNL     1      32.686 -12.625 -23.285  0.00  0.00    -0.007 C 
ATOM     14  C   UNL     1      34.221 -11.479 -24.758  0.00  0.00    +0.011 C 
ATOM     15  C   UNL     1      33.662 -12.665 -24.281  0.00  0.00    +0.054 C 
BRANCH  13  16
ATOM     16  C   UNL     1      32.062 -13.873 -22.748  0.00  0.00    +0.053 C 
BRANCH  16  17
ATOM     17  C   UNL     1      33.056 -14.844 -22.147  0.00  0.00    -0.018 C 
ATOM     18  C   UNL     1      33.491 -15.945 -22.886  0.00  0.00    -0.001 C 
ATOM     19  C   UNL     1      33.537 -14.639 -20.854  0.00  0.00    -0.001 C 
ATOM     20  C   UNL     1      34.406 -16.840 -22.332  0.00  0.00    +0.037 C 
ATOM     21  C   UNL     1      34.452 -15.533 -20.300  0.00  0.00    +0.037 C 
ATOM     22  C   UNL     1      34.887 -16.634 -21.039  0.00  0.00    +0.139 C 
BRANCH  22  23
ATOM     23  O   UNL     1      35.780 -17.507 -20.499  0.00  0.00    -0.475 OA
BRANCH  23  24
ATOM     24  C   UNL     1      36.160 -18.625 -21.300  0.00  0.00    +0.206 C 
ATOM     25  C   UNL     1      35.659 -19.894 -20.645  0.00  0.00    +0.051 C 
ENDBRANCH  23  24
ENDBRANCH  22  23
ENDBRANCH  16  17
ENDBRANCH  13  16
ENDBRANCH   4  10
BRANCH   5  26
ATOM     26  O   UNL     1      31.595  -5.105 -21.391  0.00  0.00    -0.379 OA
ATOM     27  H   UNL     1      30.679  -5.400 -21.266  0.00  0.00    +0.211 HD
ENDBRANCH   5  26
BRANCH   6  28
ATOM     28  O   UNL     1      32.213  -9.725 -20.401  0.00  0.00    -0.377 OA
ATOM     29  H   UNL     1      31.711  -9.339 -19.666  0.00  0.00    +0.211 HD
ENDBRANCH   6  28
BRANCH   7  30
ATOM     30  O   UNL     1      32.915  -6.986 -19.490  0.00  0.00    -0.379 OA
ATOM     31  H   UNL     1      33.814  -7.348 -19.520  0.00  0.00    +0.211 HD
ENDBRANCH   7  30
BRANCH   3  32
ATOM     32  C   UNL     1      32.347  -5.611 -24.203  0.00  0.00    +0.169 C 
BRANCH  32  33
ATOM     33  O   UNL     1      31.161  -4.845 -24.323  0.00  0.00    -0.379 OA
ATOM     34  H   UNL     1      30.483  -5.370 -24.777  0.00  0.00    +0.211 HD
ENDBRANCH  32  33
ENDBRANCH   3  32
TORSDOF 10
ENDMDL
MODEL 9
REMARK VINA RESULT:      -8.8     10.388     15.413
REMARK  Name = 44814423
REMARK  10 active torsions:
REMARK  status: ('A' for Active; 'I' for Inactive)
REMARK    1  A    between atoms: C_3  and  C_32
REMARK    2  A    between atoms: C_4  and  C_10
REMARK    3  A    between atoms: C_5  and  O_26
REMARK    4  A    between atoms: C_6  and  O_28
REMARK    5  A    between atoms: C_7  and  O_30
REMARK    6  A    between atoms: C_13  and  C_16
REMARK    7  A    between atoms: C_16  and  C_17
REMARK    8  A    between atoms: C_22  and  O_23
REMARK    9  A    between atoms: O_23  and  C_24
REMARK   10  A    between atoms: C_32  and  O_33
REMARK                            x       y       z     vdW  Elec       q    Type
REMARK                         _______ _______ _______ _____ _____    ______ ____
ROOT
ATOM      1  O   UNL     1      34.641 -13.805 -22.937  0.00  0.00    -0.326 OA
ATOM      2  O   UNL     1      32.348 -13.621 -23.275  0.00  0.00    -0.326 OA
ATOM      3  C   UNL     1      34.057 -15.074 -22.606  0.00  0.00    +0.176 C 
ATOM      4  C   UNL     1      33.635 -13.213 -23.789  0.00  0.00    +0.235 C 
ATOM      5  C   UNL     1      34.217 -15.975 -23.853  0.00  0.00    +0.169 C 
ATOM      6  C   UNL     1      33.804 -13.852 -25.184  0.00  0.00    +0.196 C 
ATOM      7  C   UNL     1      33.560 -15.368 -25.103  0.00  0.00    +0.172 C 
ATOM      8  C   UNL     1      32.627 -14.647 -22.310  0.00  0.00    +0.177 C 
ENDROOT
BRANCH   4  10
ATOM      9 CL   UNL     1      34.340  -7.224 -23.823  0.00  0.00    -0.083 Cl
ATOM     10  C   UNL     1      33.804 -11.708 -23.792  0.00  0.00    +0.031 C 
ATOM     11  C   UNL     1      32.980 -10.911 -22.996  0.00  0.00    -0.003 C 
ATOM     12  C   UNL     1      34.784 -11.118 -24.590  0.00  0.00    +0.001 C 
ATOM     13  C   UNL     1      33.137  -9.525 -22.999  0.00  0.00    -0.007 C 
ATOM     14  C   UNL     1      34.941  -9.732 -24.593  0.00  0.00    +0.011 C 
ATOM     15  C   UNL     1      34.117  -8.935 -23.797  0.00  0.00    +0.054 C 
BRANCH  13  16
ATOM     16  C   UNL     1      32.235  -8.707 -22.131  0.00  0.00    +0.053 C 
BRANCH  16  17
ATOM     17  C   UNL     1      31.758  -7.426 -22.782  0.00  0.00    -0.018 C 
ATOM     18  C   UNL     1      31.944  -6.204 -22.135  0.00  0.00    -0.001 C 
ATOM     19  C   UNL     1      31.132  -7.467 -24.027  0.00  0.00    -0.001 C 
ATOM     20  C   UNL     1      31.503  -5.023 -22.734  0.00  0.00    +0.037 C 
ATOM     21  C   UNL     1      30.692  -6.288 -24.627  0.00  0.00    +0.037 C 
ATOM     22  C   UNL     1      30.877  -5.066 -23.980  0.00  0.00    +0.139 C 
BRANCH  22  23
ATOM     23  O   UNL     1      30.449  -3.914 -24.565  0.00  0.00    -0.475 OA
BRANCH  23  24
ATOM     24  C   UNL     1      31.443  -2.944 -24.894  0.00  0.00    +0.206 C 
ATOM     25  C   UNL     1      32.144  -3.368 -26.166  0.00  0.00    +0.051 C 
ENDBRANCH  23  24
ENDBRANCH  22  23
ENDBRANCH  16  17
ENDBRANCH  13  16
ENDBRANCH   4  10
BRANCH   5  26
ATOM     26  O   UNL     1      33.685 -17.276 -23.620  0.00  0.00    -0.379 OA
ATOM     27  H   UNL     1      33.090 -17.517 -24.348  0.00  0.00    +0.211 HD
ENDBRANCH   5  26
BRANCH   6  28
ATOM     28  O   UNL     1      32.861 -13.288 -26.095  0.00  0.00    -0.377 OA
ATOM     29  H   UNL     1      32.655 -13.935 -26.788  0.00  0.00    +0.211 HD
ENDBRANCH   6  28
BRANCH   7  30
ATOM     30  O   UNL     1      34.103 -15.980 -26.274  0.00  0.00    -0.379 OA
ATOM     31  H   UNL     1      33.581 -15.718 -27.047  0.00  0.00    +0.211 HD
ENDBRANCH   7  30
BRANCH   3  32
ATOM     32  C   UNL     1      34.748 -15.663 -21.384  0.00  0.00    +0.169 C 
BRANCH  32  33
ATOM     33  O   UNL     1      34.837 -14.661 -20.387  0.00  0.00    -0.379 OA
ATOM     34  H   UNL     1      34.735 -15.067 -19.512  0.00  0.00    +0.211 HD
ENDBRANCH  32  33
ENDBRANCH   3  32
TORSDOF 10
ENDMDL
