MODEL 1
REMARK VINA RESULT:      -8.8      0.000      0.000
REMARK  Name = 9844981
REMARK  4 active torsions:
REMARK  status: ('A' for Active; 'I' for Inactive)
REMARK    1  A    between atoms: C_10  and  N_19
REMARK    2  A    between atoms: C_20  and  C_22
REMARK    3  A    between atoms: C_22  and  C_27
REMARK    4  A    between atoms: C_22  and  O_28
REMARK                            x       y       z     vdW  Elec       q    Type
REMARK                         _______ _______ _______ _____ _____    ______ ____
ROOT
ATOM      1  S   UNL     1      33.472 -14.536 -22.436  0.00  0.00    +0.013 S 
ATOM      2  S   UNL     1      33.904 -12.042 -26.597  0.00  0.00    -0.083 S 
ATOM      3  O   UNL     1      34.877 -14.244 -22.637  0.00  0.00    -0.168 OA
ATOM      4  O   UNL     1      33.065 -15.583 -21.518  0.00  0.00    -0.168 OA
ATOM      5  O   UNL     1      34.413 -10.786 -23.928  0.00  0.00    -0.286 OA
ATOM      6  C   UNL     1      32.673 -13.041 -21.949  0.00  0.00    +0.110 C 
ATOM      7  C   UNL     1      32.697 -14.893 -23.991  0.00  0.00    +0.183 C 
ATOM      8  C   UNL     1      32.801 -11.876 -22.709  0.00  0.00    +0.070 C 
ATOM      9  C   UNL     1      33.082 -13.984 -25.110  0.00  0.00    +0.011 C 
ATOM     10  C   UNL     1      32.147 -10.711 -22.281  0.00  0.00    +0.055 C 
ATOM     11  C   UNL     1      33.489 -12.660 -25.041  0.00  0.00    +0.066 C 
ATOM     12  C   UNL     1      33.639 -11.744 -23.922  0.00  0.00    +0.204 C 
ATOM     13  C   UNL     1      31.899 -13.047 -20.784  0.00  0.00    +0.019 C 
ATOM     14  C   UNL     1      31.371 -10.717 -21.122  0.00  0.00    +0.015 C 
ATOM     15  C   UNL     1      33.077 -14.448 -26.473  0.00  0.00    +0.005 C 
ATOM     16  C   UNL     1      31.249 -11.883 -20.374  0.00  0.00    +0.003 C 
ATOM     17  C   UNL     1      33.495 -13.499 -27.372  0.00  0.00    +0.035 C 
ENDROOT
BRANCH  10  19
ATOM     18  O   UNL     1      33.047  -8.037 -21.287  0.00  0.00    -0.272 OA
ATOM     19  N   UNL     1      32.276  -9.489 -22.956  0.00  0.00    -0.282 N 
ATOM     20  C   UNL     1      32.703  -8.258 -22.446  0.00  0.00    +0.259 C 
ATOM     21  H   UNL     1      32.036  -9.499 -23.910  0.00  0.00    +0.155 HD
BRANCH  20  22
ATOM     22  C   UNL     1      32.714  -7.135 -23.497  0.00  0.00    +0.245 C 
ATOM     23  C   UNL     1      32.322  -5.791 -22.882  0.00  0.00    +0.048 C 
BRANCH  22  27
ATOM     24  F   UNL     1      34.262  -8.111 -25.026  0.00  0.00    -0.167 F 
ATOM     25  F   UNL     1      35.078  -7.017 -23.331  0.00  0.00    -0.167 F 
ATOM     26  F   UNL     1      34.137  -5.934 -24.971  0.00  0.00    -0.167 F 
ATOM     27  C   UNL     1      34.055  -7.051 -24.215  0.00  0.00    +0.427 C 
ENDBRANCH  22  27
BRANCH  22  28
ATOM     28  O   UNL     1      31.739  -7.471 -24.484  0.00  0.00    -0.372 OA
ATOM     29  H   UNL     1      30.866  -7.537 -24.066  0.00  0.00    +0.211 HD
ENDBRANCH  22  28
ENDBRANCH  20  22
ENDBRANCH  10  19
TORSDOF 4
ENDMDL
MODEL 2
REMARK VINA RESULT:      -8.7     12.709     15.297
REMARK  Name = 9844981
REMARK  4 active torsions:
REMARK  status: ('A' for Active; 'I' for Inactive)
REMARK    1  A    between atoms: C_10  and  N_19
REMARK    2  A    between atoms: C_20  and  C_22
REMARK    3  A    between atoms: C_22  and  C_27
REMARK    4  A    between atoms: C_22  and  O_28
REMARK                            x       y       z     vdW  Elec       q    Type
REMARK                         _______ _______ _______ _____ _____    ______ ____
ROOT
ATOM      1  S   UNL     1      35.740 -24.307 -11.994  0.00  0.00    +0.013 S 
ATOM      2  S   UNL     1      38.836 -23.920 -15.733  0.00  0.00    -0.083 S 
ATOM      3  O   UNL     1      36.464 -23.060 -11.846  0.00  0.00    -0.168 OA
ATOM      4  O   UNL     1      35.047 -24.891 -10.860  0.00  0.00    -0.168 OA
ATOM      5  O   UNL     1      36.454 -22.131 -15.448  0.00  0.00    -0.286 OA
ATOM      6  C   UNL     1      34.574 -24.104 -13.301  0.00  0.00    +0.110 C 
ATOM      7  C   UNL     1      36.816 -25.562 -12.635  0.00  0.00    +0.183 C 
ATOM      8  C   UNL     1      34.975 -23.648 -14.559  0.00  0.00    +0.070 C 
ATOM      9  C   UNL     1      37.707 -25.121 -13.748  0.00  0.00    +0.011 C 
ATOM     10  C   UNL     1      34.011 -23.501 -15.568  0.00  0.00    +0.055 C 
ATOM     11  C   UNL     1      37.482 -24.121 -14.684  0.00  0.00    +0.066 C 
ATOM     12  C   UNL     1      36.353 -23.235 -14.910  0.00  0.00    +0.204 C 
ATOM     13  C   UNL     1      33.233 -24.415 -13.054  0.00  0.00    +0.019 C 
ATOM     14  C   UNL     1      32.674 -23.816 -15.324  0.00  0.00    +0.015 C 
ATOM     15  C   UNL     1      38.991 -25.738 -13.954  0.00  0.00    +0.005 C 
ATOM     16  C   UNL     1      32.286 -24.271 -14.069  0.00  0.00    +0.003 C 
ATOM     17  C   UNL     1      39.698 -25.186 -14.993  0.00  0.00    +0.035 C 
ENDROOT
BRANCH  10  19
ATOM     18  O   UNL     1      32.237 -22.865 -17.892  0.00  0.00    -0.272 OA
ATOM     19  N   UNL     1      34.325 -22.993 -16.836  0.00  0.00    -0.282 N 
ATOM     20  C   UNL     1      33.457 -22.711 -17.896  0.00  0.00    +0.259 C 
ATOM     21  H   UNL     1      35.278 -22.810 -17.001  0.00  0.00    +0.155 HD
BRANCH  20  22
ATOM     22  C   UNL     1      34.175 -22.160 -19.140  0.00  0.00    +0.245 C 
ATOM     23  C   UNL     1      34.481 -23.271 -20.146  0.00  0.00    +0.048 C 
BRANCH  22  27
ATOM     24  F   UNL     1      32.438 -20.537 -18.962  0.00  0.00    -0.167 F 
ATOM     25  F   UNL     1      32.773 -21.441 -20.913  0.00  0.00    -0.167 F 
ATOM     26  F   UNL     1      34.204 -19.998 -20.124  0.00  0.00    -0.167 F 
ATOM     27  C   UNL     1      33.392 -21.024 -19.785  0.00  0.00    +0.427 C 
ENDBRANCH  22  27
BRANCH  22  28
ATOM     28  O   UNL     1      35.417 -21.608 -18.702  0.00  0.00    -0.372 OA
ATOM     29  H   UNL     1      35.586 -20.778 -19.173  0.00  0.00    +0.211 HD
ENDBRANCH  22  28
ENDBRANCH  20  22
ENDBRANCH  10  19
TORSDOF 4
ENDMDL
MODEL 3
REMARK VINA RESULT:      -8.5     10.501     13.220
REMARK  Name = 9844981
REMARK  4 active torsions:
REMARK  status: ('A' for Active; 'I' for Inactive)
REMARK    1  A    between atoms: C_10  and  N_19
REMARK    2  A    between atoms: C_20  and  C_22
REMARK    3  A    between atoms: C_22  and  C_27
REMARK    4  A    between atoms: C_22  and  O_28
REMARK                            x       y       z     vdW  Elec       q    Type
REMARK                         _______ _______ _______ _____ _____    ______ ____
ROOT
ATOM      1  S   UNL     1      35.400 -24.640 -14.870  0.00  0.00    +0.013 S 
ATOM      2  S   UNL     1      31.234 -23.016 -16.799  0.00  0.00    -0.083 S 
ATOM      3  O   UNL     1      34.868 -25.683 -15.726  0.00  0.00    -0.168 OA
ATOM      4  O   UNL     1      36.399 -24.955 -13.866  0.00  0.00    -0.168 OA
ATOM      5  O   UNL     1      33.693 -23.441 -18.451  0.00  0.00    -0.286 OA
ATOM      6  C   UNL     1      36.049 -23.370 -15.907  0.00  0.00    +0.110 C 
ATOM      7  C   UNL     1      34.077 -23.809 -14.031  0.00  0.00    +0.183 C 
ATOM      8  C   UNL     1      35.270 -22.793 -16.913  0.00  0.00    +0.070 C 
ATOM      9  C   UNL     1      32.890 -23.497 -14.880  0.00  0.00    +0.011 C 
ATOM     10  C   UNL     1      35.831 -21.785 -17.712  0.00  0.00    +0.055 C 
ATOM     11  C   UNL     1      32.849 -23.261 -16.247  0.00  0.00    +0.066 C 
ATOM     12  C   UNL     1      33.892 -23.207 -17.258  0.00  0.00    +0.204 C 
ATOM     13  C   UNL     1      37.365 -22.945 -15.697  0.00  0.00    +0.019 C 
ATOM     14  C   UNL     1      37.141 -21.357 -17.500  0.00  0.00    +0.015 C 
ATOM     15  C   UNL     1      31.573 -23.420 -14.306  0.00  0.00    +0.005 C 
ATOM     16  C   UNL     1      37.907 -21.937 -16.495  0.00  0.00    +0.003 C 
ATOM     17  C   UNL     1      30.591 -23.164 -15.231  0.00  0.00    +0.035 C 
ENDROOT
BRANCH  10  19
ATOM     18  O   UNL     1      36.848 -20.451 -20.189  0.00  0.00    -0.272 OA
ATOM     19  N   UNL     1      35.134 -21.201 -18.779  0.00  0.00    -0.282 N 
ATOM     20  C   UNL     1      35.655 -20.585 -19.921  0.00  0.00    +0.259 C 
ATOM     21  H   UNL     1      34.152 -21.229 -18.716  0.00  0.00    +0.155 HD
BRANCH  20  22
ATOM     22  C   UNL     1      34.571 -20.059 -20.877  0.00  0.00    +0.245 C 
ATOM     23  C   UNL     1      33.169 -20.427 -20.388  0.00  0.00    +0.048 C 
BRANCH  22  27
ATOM     24  F   UNL     1      35.745 -18.033 -20.426  0.00  0.00    -0.167 F 
ATOM     25  F   UNL     1      33.591 -17.905 -20.709  0.00  0.00    -0.167 F 
ATOM     26  F   UNL     1      34.891 -18.280 -22.418  0.00  0.00    -0.167 F 
ATOM     27  C   UNL     1      34.705 -18.560 -21.109  0.00  0.00    +0.427 C 
ENDBRANCH  22  27
BRANCH  22  28
ATOM     28  O   UNL     1      34.778 -20.692 -22.140  0.00  0.00    -0.372 OA
ATOM     29  H   UNL     1      35.035 -20.026 -22.796  0.00  0.00    +0.211 HD
ENDBRANCH  22  28
ENDBRANCH  20  22
ENDBRANCH  10  19
TORSDOF 4
ENDMDL
MODEL 4
REMARK VINA RESULT:      -8.4      3.979      6.469
REMARK  Name = 9844981
REMARK  4 active torsions:
REMARK  status: ('A' for Active; 'I' for Inactive)
REMARK    1  A    between atoms: C_10  and  N_19
REMARK    2  A    between atoms: C_20  and  C_22
REMARK    3  A    between atoms: C_22  and  C_27
REMARK    4  A    between atoms: C_22  and  O_28
REMARK                            x       y       z     vdW  Elec       q    Type
REMARK                         _______ _______ _______ _____ _____    ______ ____
ROOT
ATOM      1  S   UNL     1      31.875  -8.358 -22.238  0.00  0.00    +0.013 S 
ATOM      2  S   UNL     1      34.234 -11.516 -25.097  0.00  0.00    -0.083 S 
ATOM      3  O   UNL     1      31.027  -8.646 -23.378  0.00  0.00    -0.168 OA
ATOM      4  O   UNL     1      31.635  -7.179 -21.426  0.00  0.00    -0.168 OA
ATOM      5  O   UNL     1      31.782 -12.284 -23.561  0.00  0.00    -0.286 OA
ATOM      6  C   UNL     1      31.851  -9.766 -21.176  0.00  0.00    +0.110 C 
ATOM      7  C   UNL     1      33.573  -8.291 -22.744  0.00  0.00    +0.183 C 
ATOM      8  C   UNL     1      32.148 -11.040 -21.664  0.00  0.00    +0.070 C 
ATOM      9  C   UNL     1      33.992  -9.368 -23.688  0.00  0.00    +0.011 C 
ATOM     10  C   UNL     1      32.115 -12.131 -20.782  0.00  0.00    +0.055 C 
ATOM     11  C   UNL     1      33.478 -10.651 -23.810  0.00  0.00    +0.066 C 
ATOM     12  C   UNL     1      32.438 -11.358 -23.081  0.00  0.00    +0.204 C 
ATOM     13  C   UNL     1      31.533  -9.579 -19.827  0.00  0.00    +0.019 C 
ATOM     14  C   UNL     1      31.804 -11.945 -19.435  0.00  0.00    +0.015 C 
ATOM     15  C   UNL     1      35.046  -9.145 -24.642  0.00  0.00    +0.005 C 
ATOM     16  C   UNL     1      31.512 -10.671 -18.959  0.00  0.00    +0.003 C 
ATOM     17  C   UNL     1      35.277 -10.223 -25.459  0.00  0.00    +0.035 C 
ENDROOT
BRANCH  10  19
ATOM     18  O   UNL     1      34.648 -13.718 -20.895  0.00  0.00    -0.272 OA
ATOM     19  N   UNL     1      32.342 -13.446 -21.209  0.00  0.00    -0.282 N 
ATOM     20  C   UNL     1      33.551 -14.149 -21.244  0.00  0.00    +0.259 C 
ATOM     21  H   UNL     1      31.550 -13.939 -21.522  0.00  0.00    +0.155 HD
BRANCH  20  22
ATOM     22  C   UNL     1      33.405 -15.584 -21.779  0.00  0.00    +0.245 C 
ATOM     23  C   UNL     1      33.487 -15.622 -23.305  0.00  0.00    +0.048 C 
BRANCH  22  27
ATOM     24  F   UNL     1      34.831 -16.085 -19.935  0.00  0.00    -0.167 F 
ATOM     25  F   UNL     1      35.516 -16.658 -21.920  0.00  0.00    -0.167 F 
ATOM     26  F   UNL     1      33.896 -17.763 -20.969  0.00  0.00    -0.167 F 
ATOM     27  C   UNL     1      34.416 -16.528 -21.142  0.00  0.00    +0.427 C 
ENDBRANCH  22  27
BRANCH  22  28
ATOM     28  O   UNL     1      32.110 -16.048 -21.395  0.00  0.00    -0.372 OA
ATOM     29  H   UNL     1      31.479 -15.872 -22.110  0.00  0.00    +0.211 HD
ENDBRANCH  22  28
ENDBRANCH  20  22
ENDBRANCH  10  19
TORSDOF 4
ENDMDL
MODEL 5
REMARK VINA RESULT:      -8.4      1.335      1.609
REMARK  Name = 9844981
REMARK  4 active torsions:
REMARK  status: ('A' for Active; 'I' for Inactive)
REMARK    1  A    between atoms: C_10  and  N_19
REMARK    2  A    between atoms: C_20  and  C_22
REMARK    3  A    between atoms: C_22  and  C_27
REMARK    4  A    between atoms: C_22  and  O_28
REMARK                            x       y       z     vdW  Elec       q    Type
REMARK                         _______ _______ _______ _____ _____    ______ ____
ROOT
ATOM      1  S   UNL     1      33.495 -14.454 -22.415  0.00  0.00    +0.013 S 
ATOM      2  S   UNL     1      33.877 -11.854 -26.514  0.00  0.00    -0.083 S 
ATOM      3  O   UNL     1      34.895 -14.133 -22.609  0.00  0.00    -0.168 OA
ATOM      4  O   UNL     1      33.108 -15.530 -21.521  0.00  0.00    -0.168 OA
ATOM      5  O   UNL     1      34.368 -10.654 -23.817  0.00  0.00    -0.286 OA
ATOM      6  C   UNL     1      32.670 -12.986 -21.891  0.00  0.00    +0.110 C 
ATOM      7  C   UNL     1      32.725 -14.788 -23.977  0.00  0.00    +0.183 C 
ATOM      8  C   UNL     1      32.777 -11.801 -22.623  0.00  0.00    +0.070 C 
ATOM      9  C   UNL     1      33.092 -13.846 -25.074  0.00  0.00    +0.011 C 
ATOM     10  C   UNL     1      32.103 -10.657 -22.166  0.00  0.00    +0.055 C 
ATOM     11  C   UNL     1      33.476 -12.516 -24.973  0.00  0.00    +0.066 C 
ATOM     12  C   UNL     1      33.611 -11.625 -23.833  0.00  0.00    +0.204 C 
ATOM     13  C   UNL     1      31.899 -13.033 -20.725  0.00  0.00    +0.019 C 
ATOM     14  C   UNL     1      31.329 -10.705 -21.007  0.00  0.00    +0.015 C 
ATOM     15  C   UNL     1      33.093 -14.277 -26.447  0.00  0.00    +0.005 C 
ATOM     16  C   UNL     1      31.228 -11.891 -20.287  0.00  0.00    +0.003 C 
ATOM     17  C   UNL     1      33.493 -13.300 -27.324  0.00  0.00    +0.035 C 
ENDROOT
BRANCH  10  19
ATOM     18  O   UNL     1      32.903  -7.982 -21.096  0.00  0.00    -0.272 OA
ATOM     19  N   UNL     1      32.209  -9.418 -22.812  0.00  0.00    -0.282 N 
ATOM     20  C   UNL     1      32.589  -8.187 -22.267  0.00  0.00    +0.259 C 
ATOM     21  H   UNL     1      31.990  -9.414 -23.771  0.00  0.00    +0.155 HD
BRANCH  20  22
ATOM     22  C   UNL     1      32.589  -7.041 -23.294  0.00  0.00    +0.245 C 
ATOM     23  C   UNL     1      33.768  -7.158 -24.260  0.00  0.00    +0.048 C 
BRANCH  22  27
ATOM     24  F   UNL     1      31.097  -7.983 -24.897  0.00  0.00    -0.167 F 
ATOM     25  F   UNL     1      31.188  -5.813 -24.763  0.00  0.00    -0.167 F 
ATOM     26  F   UNL     1      30.218  -6.959 -23.183  0.00  0.00    -0.167 F 
ATOM     27  C   UNL     1      31.264  -6.954 -24.039  0.00  0.00    +0.427 C 
ENDBRANCH  22  27
BRANCH  22  28
ATOM     28  O   UNL     1      32.734  -5.822 -22.565  0.00  0.00    -0.372 OA
ATOM     29  H   UNL     1      33.668  -5.562 -22.553  0.00  0.00    +0.211 HD
ENDBRANCH  22  28
ENDBRANCH  20  22
ENDBRANCH  10  19
TORSDOF 4
ENDMDL
MODEL 6
REMARK VINA RESULT:      -8.0      2.768      4.282
REMARK  Name = 9844981
REMARK  4 active torsions:
REMARK  status: ('A' for Active; 'I' for Inactive)
REMARK    1  A    between atoms: C_10  and  N_19
REMARK    2  A    between atoms: C_20  and  C_22
REMARK    3  A    between atoms: C_22  and  C_27
REMARK    4  A    between atoms: C_22  and  O_28
REMARK                            x       y       z     vdW  Elec       q    Type
REMARK                         _______ _______ _______ _____ _____    ______ ____
ROOT
ATOM      1  S   UNL     1      33.354 -14.049 -25.417  0.00  0.00    +0.013 S 
ATOM      2  S   UNL     1      32.366 -13.653 -20.665  0.00  0.00    -0.083 S 
ATOM      3  O   UNL     1      31.914 -14.088 -25.257  0.00  0.00    -0.168 OA
ATOM      4  O   UNL     1      33.968 -14.531 -26.640  0.00  0.00    -0.168 OA
ATOM      5  O   UNL     1      31.708 -11.478 -22.614  0.00  0.00    -0.286 OA
ATOM      6  C   UNL     1      33.881 -12.385 -25.161  0.00  0.00    +0.110 C 
ATOM      7  C   UNL     1      34.138 -14.908 -24.079  0.00  0.00    +0.183 C 
ATOM      8  C   UNL     1      33.524 -11.687 -24.005  0.00  0.00    +0.070 C 
ATOM      9  C   UNL     1      33.566 -14.630 -22.730  0.00  0.00    +0.011 C 
ATOM     10  C   UNL     1      33.967 -10.365 -23.846  0.00  0.00    +0.055 C 
ATOM     11  C   UNL     1      32.927 -13.481 -22.287  0.00  0.00    +0.066 C 
ATOM     12  C   UNL     1      32.643 -12.212 -22.937  0.00  0.00    +0.204 C 
ATOM     13  C   UNL     1      34.674 -11.778 -26.141  0.00  0.00    +0.019 C 
ATOM     14  C   UNL     1      34.761  -9.760 -24.819  0.00  0.00    +0.015 C 
ATOM     15  C   UNL     1      33.619 -15.621 -21.687  0.00  0.00    +0.005 C 
ATOM     16  C   UNL     1      35.113 -10.466 -25.965  0.00  0.00    +0.003 C 
ATOM     17  C   UNL     1      33.011 -15.220 -20.524  0.00  0.00    +0.035 C 
ENDROOT
BRANCH  10  19
ATOM     18  O   UNL     1      31.874  -8.243 -23.592  0.00  0.00    -0.272 OA
ATOM     19  N   UNL     1      33.600  -9.581 -22.744  0.00  0.00    -0.282 N 
ATOM     20  C   UNL     1      32.610  -8.595 -22.673  0.00  0.00    +0.259 C 
ATOM     21  H   UNL     1      34.103  -9.745 -21.913  0.00  0.00    +0.155 HD
BRANCH  20  22
ATOM     22  C   UNL     1      32.497  -7.945 -21.283  0.00  0.00    +0.245 C 
ATOM     23  C   UNL     1      31.701  -6.641 -21.340  0.00  0.00    +0.048 C 
BRANCH  22  27
ATOM     24  F   UNL     1      30.983  -9.722 -20.798  0.00  0.00    -0.167 F 
ATOM     25  F   UNL     1      31.323  -8.238 -19.242  0.00  0.00    -0.167 F 
ATOM     26  F   UNL     1      32.878  -9.690 -19.717  0.00  0.00    -0.167 F 
ATOM     27  C   UNL     1      31.916  -8.909 -20.257  0.00  0.00    +0.427 C 
ENDBRANCH  22  27
BRANCH  22  28
ATOM     28  O   UNL     1      33.823  -7.635 -20.853  0.00  0.00    -0.372 OA
ATOM     29  H   UNL     1      34.461  -8.116 -21.402  0.00  0.00    +0.211 HD
ENDBRANCH  22  28
ENDBRANCH  20  22
ENDBRANCH  10  19
TORSDOF 4
ENDMDL
MODEL 7
REMARK VINA RESULT:      -7.3      1.530      1.828
REMARK  Name = 9844981
REMARK  4 active torsions:
REMARK  status: ('A' for Active; 'I' for Inactive)
REMARK    1  A    between atoms: C_10  and  N_19
REMARK    2  A    between atoms: C_20  and  C_22
REMARK    3  A    between atoms: C_22  and  C_27
REMARK    4  A    between atoms: C_22  and  O_28
REMARK                            x       y       z     vdW  Elec       q    Type
REMARK                         _______ _______ _______ _____ _____    ______ ____
ROOT
ATOM      1  S   UNL     1      33.896 -15.219 -22.799  0.00  0.00    +0.013 S 
ATOM      2  S   UNL     1      33.804 -12.160 -26.587  0.00  0.00    -0.083 S 
ATOM      3  O   UNL     1      35.264 -14.862 -23.117  0.00  0.00    -0.168 OA
ATOM      4  O   UNL     1      33.613 -16.394 -21.997  0.00  0.00    -0.168 OA
ATOM      5  O   UNL     1      34.610 -11.273 -23.845  0.00  0.00    -0.286 OA
ATOM      6  C   UNL     1      33.142 -13.829 -22.017  0.00  0.00    +0.110 C 
ATOM      7  C   UNL     1      32.948 -15.378 -24.289  0.00  0.00    +0.183 C 
ATOM      8  C   UNL     1      33.166 -12.567 -22.614  0.00  0.00    +0.070 C 
ATOM      9  C   UNL     1      33.187 -14.312 -25.305  0.00  0.00    +0.011 C 
ATOM     10  C   UNL     1      32.553 -11.491 -21.953  0.00  0.00    +0.055 C 
ATOM     11  C   UNL     1      33.583 -12.999 -25.097  0.00  0.00    +0.066 C 
ATOM     12  C   UNL     1      33.854 -12.244 -23.885  0.00  0.00    +0.204 C 
ATOM     13  C   UNL     1      32.512 -14.019 -20.783  0.00  0.00    +0.019 C 
ATOM     14  C   UNL     1      31.919 -11.680 -20.725  0.00  0.00    +0.015 C 
ATOM     15  C   UNL     1      33.026 -14.583 -26.710  0.00  0.00    +0.005 C 
ATOM     16  C   UNL     1      31.900 -12.942 -20.141  0.00  0.00    +0.003 C 
ATOM     17  C   UNL     1      33.324 -13.507 -27.508  0.00  0.00    +0.035 C 
ENDROOT
BRANCH  10  19
ATOM     18  O   UNL     1      30.321  -9.677 -22.775  0.00  0.00    -0.272 OA
ATOM     19  N   UNL     1      32.586 -10.184 -22.459  0.00  0.00    -0.282 N 
ATOM     20  C   UNL     1      31.511  -9.372 -22.832  0.00  0.00    +0.259 C 
ATOM     21  H   UNL     1      33.481  -9.788 -22.565  0.00  0.00    +0.155 HD
BRANCH  20  22
ATOM     22  C   UNL     1      31.943  -7.988 -23.347  0.00  0.00    +0.245 C 
ATOM     23  C   UNL     1      30.879  -7.374 -24.257  0.00  0.00    +0.048 C 
BRANCH  22  27
ATOM     24  F   UNL     1      31.563  -7.287 -21.100  0.00  0.00    -0.167 F 
ATOM     25  F   UNL     1      32.107  -5.759 -22.551  0.00  0.00    -0.167 F 
ATOM     26  F   UNL     1      33.607  -7.180 -21.856  0.00  0.00    -0.167 F 
ATOM     27  C   UNL     1      32.307  -7.051 -22.203  0.00  0.00    +0.427 C 
ENDBRANCH  22  27
BRANCH  22  28
ATOM     28  O   UNL     1      33.129  -8.176 -24.119  0.00  0.00    -0.372 OA
ATOM     29  H   UNL     1      33.125  -9.065 -24.506  0.00  0.00    +0.211 HD
ENDBRANCH  22  28
ENDBRANCH  20  22
ENDBRANCH  10  19
TORSDOF 4
ENDMDL
MODEL 8
REMARK VINA RESULT:      -7.1     11.754     14.354
REMARK  Name = 9844981
REMARK  4 active torsions:
REMARK  status: ('A' for Active; 'I' for Inactive)
REMARK    1  A    between atoms: C_10  and  N_19
REMARK    2  A    between atoms: C_20  and  C_22
REMARK    3  A    between atoms: C_22  and  C_27
REMARK    4  A    between atoms: C_22  and  O_28
REMARK                            x       y       z     vdW  Elec       q    Type
REMARK                         _______ _______ _______ _____ _____    ______ ____
ROOT
ATOM      1  S   UNL     1      34.299 -24.392 -13.392  0.00  0.00    +0.013 S 
ATOM      2  S   UNL     1      38.573 -23.713 -15.626  0.00  0.00    -0.083 S 
ATOM      3  O   UNL     1      35.000 -23.329 -12.700  0.00  0.00    -0.168 OA
ATOM      4  O   UNL     1      33.200 -25.086 -12.747  0.00  0.00    -0.168 OA
ATOM      5  O   UNL     1      36.379 -21.681 -15.736  0.00  0.00    -0.286 OA
ATOM      6  C   UNL     1      33.713 -23.746 -14.924  0.00  0.00    +0.110 C 
ATOM      7  C   UNL     1      35.449 -25.636 -13.917  0.00  0.00    +0.183 C 
ATOM      8  C   UNL     1      34.579 -23.105 -15.814  0.00  0.00    +0.070 C 
ATOM      9  C   UNL     1      36.714 -25.114 -14.512  0.00  0.00    +0.011 C 
ATOM     10  C   UNL     1      34.066 -22.606 -17.021  0.00  0.00    +0.055 C 
ATOM     11  C   UNL     1      36.918 -23.919 -15.188  0.00  0.00    +0.066 C 
ATOM     12  C   UNL     1      36.013 -22.843 -15.558  0.00  0.00    +0.204 C 
ATOM     13  C   UNL     1      32.357 -23.893 -15.236  0.00  0.00    +0.019 C 
ATOM     14  C   UNL     1      32.716 -22.758 -17.335  0.00  0.00    +0.015 C 
ATOM     15  C   UNL     1      37.939 -25.863 -14.413  0.00  0.00    +0.005 C 
ATOM     16  C   UNL     1      31.863 -23.399 -16.443  0.00  0.00    +0.003 C 
ATOM     17  C   UNL     1      39.015 -25.221 -14.976  0.00  0.00    +0.035 C 
ENDROOT
BRANCH  10  19
ATOM     18  O   UNL     1      34.550 -23.084 -19.934  0.00  0.00    -0.272 OA
ATOM     19  N   UNL     1      34.859 -21.900 -17.936  0.00  0.00    -0.282 N 
ATOM     20  C   UNL     1      35.055 -22.163 -19.296  0.00  0.00    +0.259 C 
ATOM     21  H   UNL     1      35.337 -21.118 -17.576  0.00  0.00    +0.155 HD
BRANCH  20  22
ATOM     22  C   UNL     1      36.002 -21.160 -19.979  0.00  0.00    +0.245 C 
ATOM     23  C   UNL     1      36.999 -21.870 -20.895  0.00  0.00    +0.048 C 
BRANCH  22  27
ATOM     24  F   UNL     1      35.152 -20.334 -22.048  0.00  0.00    -0.167 F 
ATOM     25  F   UNL     1      35.831 -18.873 -20.585  0.00  0.00    -0.167 F 
ATOM     26  F   UNL     1      33.970 -19.959 -20.252  0.00  0.00    -0.167 F 
ATOM     27  C   UNL     1      35.232 -20.078 -20.723  0.00  0.00    +0.427 C 
ENDBRANCH  22  27
BRANCH  22  28
ATOM     28  O   UNL     1      36.739 -20.505 -18.946  0.00  0.00    -0.372 OA
ATOM     29  H   UNL     1      37.526 -21.029 -18.730  0.00  0.00    +0.211 HD
ENDBRANCH  22  28
ENDBRANCH  20  22
ENDBRANCH  10  19
TORSDOF 4
ENDMDL
MODEL 9
REMARK VINA RESULT:      -6.6      3.774      6.583
REMARK  Name = 9844981
REMARK  4 active torsions:
REMARK  status: ('A' for Active; 'I' for Inactive)
REMARK    1  A    between atoms: C_10  and  N_19
REMARK    2  A    between atoms: C_20  and  C_22
REMARK    3  A    between atoms: C_22  and  C_27
REMARK    4  A    between atoms: C_22  and  O_28
REMARK                            x       y       z     vdW  Elec       q    Type
REMARK                         _______ _______ _______ _____ _____    ______ ____
ROOT
ATOM      1  S   UNL     1      31.788 -10.427 -22.208  0.00  0.00    +0.013 S 
ATOM      2  S   UNL     1      34.552 -11.971 -25.908  0.00  0.00    -0.083 S 
ATOM      3  O   UNL     1      30.931 -10.596 -23.364  0.00  0.00    -0.168 OA
ATOM      4  O   UNL     1      31.352  -9.618 -21.084  0.00  0.00    -0.168 OA
ATOM      5  O   UNL     1      32.506 -13.728 -24.609  0.00  0.00    -0.286 OA
ATOM      6  C   UNL     1      32.198 -12.031 -21.599  0.00  0.00    +0.110 C 
ATOM      7  C   UNL     1      33.367  -9.795 -22.709  0.00  0.00    +0.183 C 
ATOM      8  C   UNL     1      32.741 -13.003 -22.442  0.00  0.00    +0.070 C 
ATOM      9  C   UNL     1      33.940 -10.428 -23.932  0.00  0.00    +0.011 C 
ATOM     10  C   UNL     1      33.050 -14.266 -21.912  0.00  0.00    +0.055 C 
ATOM     11  C   UNL     1      33.736 -11.715 -24.410  0.00  0.00    +0.066 C 
ATOM     12  C   UNL     1      32.965 -12.834 -23.895  0.00  0.00    +0.204 C 
ATOM     13  C   UNL     1      31.971 -12.310 -20.247  0.00  0.00    +0.019 C 
ATOM     14  C   UNL     1      32.831 -14.543 -20.563  0.00  0.00    +0.015 C 
ATOM     15  C   UNL     1      34.817  -9.691 -24.803  0.00  0.00    +0.005 C 
ATOM     16  C   UNL     1      32.291 -13.566 -19.732  0.00  0.00    +0.003 C 
ATOM     17  C   UNL     1      35.221 -10.408 -25.902  0.00  0.00    +0.035 C 
ENDROOT
BRANCH  10  19
ATOM     18  O   UNL     1      35.034 -16.411 -21.274  0.00  0.00    -0.272 OA
ATOM     19  N   UNL     1      33.542 -15.311 -22.706  0.00  0.00    -0.282 N 
ATOM     20  C   UNL     1      34.475 -16.295 -22.362  0.00  0.00    +0.259 C 
ATOM     21  H   UNL     1      33.184 -15.359 -23.622  0.00  0.00    +0.155 HD
BRANCH  20  22
ATOM     22  C   UNL     1      34.768 -17.281 -23.506  0.00  0.00    +0.245 C 
ATOM     23  C   UNL     1      33.912 -18.543 -23.388  0.00  0.00    +0.048 C 
BRANCH  22  27
ATOM     24  F   UNL     1      33.325 -16.641 -25.293  0.00  0.00    -0.167 F 
ATOM     25  F   UNL     1      35.346 -17.263 -25.807  0.00  0.00    -0.167 F 
ATOM     26  F   UNL     1      35.014 -15.335 -24.846  0.00  0.00    -0.167 F 
ATOM     27  C   UNL     1      34.608 -16.624 -24.870  0.00  0.00    +0.427 C 
ENDBRANCH  22  27
BRANCH  22  28
ATOM     28  O   UNL     1      36.138 -17.665 -23.392  0.00  0.00    -0.372 OA
ATOM     29  H   UNL     1      36.194 -18.546 -22.991  0.00  0.00    +0.211 HD
ENDBRANCH  22  28
ENDBRANCH  20  22
ENDBRANCH  10  19
TORSDOF 4
ENDMDL
