MODEL 1
REMARK VINA RESULT:      -2.7      0.000      0.000
REMARK  Name = 24807
REMARK  1 active torsions:
REMARK  status: ('A' for Active; 'I' for Inactive)
REMARK    1  A    between atoms: S_2  and  S_4
REMARK                            x       y       z     vdW  Elec       q    Type
REMARK                         _______ _______ _______ _____ _____    ______ ____
ROOT
ATOM      1 CL   UNL     1      36.605 -21.718 -18.089  0.00  0.00    -0.030 Cl
ATOM      2  S   UNL     1      35.730 -21.210 -19.852  0.00  0.00    +0.030 S 
ENDROOT
BRANCH   2   4
ATOM      3 CL   UNL     1      32.843 -20.206 -20.264  0.00  0.00    -0.030 Cl
ATOM      4  S   UNL     1      33.810 -21.766 -19.394  0.00  0.00    +0.030 S 
ENDBRANCH   2   4
TORSDOF 1
ENDMDL
MODEL 2
REMARK VINA RESULT:      -2.7      2.758      3.756
REMARK  Name = 24807
REMARK  1 active torsions:
REMARK  status: ('A' for Active; 'I' for Inactive)
REMARK    1  A    between atoms: S_2  and  S_4
REMARK                            x       y       z     vdW  Elec       q    Type
REMARK                         _______ _______ _______ _____ _____    ______ ____
ROOT
ATOM      1 CL   UNL     1      34.879 -19.231 -23.587  0.00  0.00    -0.030 Cl
ATOM      2  S   UNL     1      35.031 -18.425 -21.728  0.00  0.00    +0.030 S 
ENDROOT
BRANCH   2   4
ATOM      3 CL   UNL     1      32.839 -20.115 -20.368  0.00  0.00    -0.030 Cl
ATOM      4  S   UNL     1      34.851 -20.157 -20.645  0.00  0.00    +0.030 S 
ENDBRANCH   2   4
TORSDOF 1
ENDMDL
MODEL 3
REMARK VINA RESULT:      -2.7      2.784      3.843
REMARK  Name = 24807
REMARK  1 active torsions:
REMARK  status: ('A' for Active; 'I' for Inactive)
REMARK    1  A    between atoms: S_2  and  S_4
REMARK                            x       y       z     vdW  Elec       q    Type
REMARK                         _______ _______ _______ _____ _____    ______ ____
ROOT
ATOM      1 CL   UNL     1      32.832 -20.133 -20.366  0.00  0.00    -0.030 Cl
ATOM      2  S   UNL     1      34.843 -20.126 -20.661  0.00  0.00    +0.030 S 
ENDROOT
BRANCH   2   4
ATOM      3 CL   UNL     1      34.863 -19.254 -23.619  0.00  0.00    -0.030 Cl
ATOM      4  S   UNL     1      34.966 -18.408 -21.775  0.00  0.00    +0.030 S 
ENDBRANCH   2   4
TORSDOF 1
ENDMDL
MODEL 4
REMARK VINA RESULT:      -2.7      1.736      1.978
REMARK  Name = 24807
REMARK  1 active torsions:
REMARK  status: ('A' for Active; 'I' for Inactive)
REMARK    1  A    between atoms: S_2  and  S_4
REMARK                            x       y       z     vdW  Elec       q    Type
REMARK                         _______ _______ _______ _____ _____    ______ ____
ROOT
ATOM      1 CL   UNL     1      33.922 -22.057 -19.065  0.00  0.00    -0.030 Cl
ATOM      2  S   UNL     1      35.619 -21.245 -19.833  0.00  0.00    +0.030 S 
ENDROOT
BRANCH   2   4
ATOM      3 CL   UNL     1      32.824 -20.067 -20.389  0.00  0.00    -0.030 Cl
ATOM      4  S   UNL     1      34.751 -19.761 -20.951  0.00  0.00    +0.030 S 
ENDBRANCH   2   4
TORSDOF 1
ENDMDL
MODEL 5
REMARK VINA RESULT:      -2.7      1.776      1.776
REMARK  Name = 24807
REMARK  1 active torsions:
REMARK  status: ('A' for Active; 'I' for Inactive)
REMARK    1  A    between atoms: S_2  and  S_4
REMARK                            x       y       z     vdW  Elec       q    Type
REMARK                         _______ _______ _______ _____ _____    ______ ____
ROOT
ATOM      1 CL   UNL     1      35.408 -19.798 -20.802  0.00  0.00    -0.030 Cl
ATOM      2  S   UNL     1      35.656 -21.450 -19.645  0.00  0.00    +0.030 S 
ENDROOT
BRANCH   2   4
ATOM      3 CL   UNL     1      32.877 -20.259 -20.253  0.00  0.00    -0.030 Cl
ATOM      4  S   UNL     1      33.677 -21.872 -19.313  0.00  0.00    +0.030 S 
ENDBRANCH   2   4
TORSDOF 1
ENDMDL
MODEL 6
REMARK VINA RESULT:      -2.7      2.092      3.138
REMARK  Name = 24807
REMARK  1 active torsions:
REMARK  status: ('A' for Active; 'I' for Inactive)
REMARK    1  A    between atoms: S_2  and  S_4
REMARK                            x       y       z     vdW  Elec       q    Type
REMARK                         _______ _______ _______ _____ _____    ______ ____
ROOT
ATOM      1 CL   UNL     1      33.488 -21.642 -19.315  0.00  0.00    -0.030 Cl
ATOM      2  S   UNL     1      33.025 -20.126 -20.588  0.00  0.00    +0.030 S 
ENDROOT
BRANCH   2   4
ATOM      3 CL   UNL     1      35.934 -20.937 -19.961  0.00  0.00    -0.030 Cl
ATOM      4  S   UNL     1      34.935 -19.567 -21.080  0.00  0.00    +0.030 S 
ENDBRANCH   2   4
TORSDOF 1
ENDMDL
MODEL 7
REMARK VINA RESULT:      -2.7      1.824      2.939
REMARK  Name = 24807
REMARK  1 active torsions:
REMARK  status: ('A' for Active; 'I' for Inactive)
REMARK    1  A    between atoms: S_2  and  S_4
REMARK                            x       y       z     vdW  Elec       q    Type
REMARK                         _______ _______ _______ _____ _____    ______ ____
ROOT
ATOM      1 CL   UNL     1      32.829 -20.127 -20.559  0.00  0.00    -0.030 Cl
ATOM      2  S   UNL     1      34.841 -19.947 -20.784  0.00  0.00    +0.030 S 
ENDROOT
BRANCH   2   4
ATOM      3 CL   UNL     1      33.558 -22.119 -19.010  0.00  0.00    -0.030 Cl
ATOM      4  S   UNL     1      35.409 -21.512 -19.588  0.00  0.00    +0.030 S 
ENDBRANCH   2   4
TORSDOF 1
ENDMDL
MODEL 8
REMARK VINA RESULT:      -2.7      1.754      3.059
REMARK  Name = 24807
REMARK  1 active torsions:
REMARK  status: ('A' for Active; 'I' for Inactive)
REMARK    1  A    between atoms: S_2  and  S_4
REMARK                            x       y       z     vdW  Elec       q    Type
REMARK                         _______ _______ _______ _____ _____    ______ ____
ROOT
ATOM      1 CL   UNL     1      32.919 -20.200 -20.456  0.00  0.00    -0.030 Cl
ATOM      2  S   UNL     1      33.582 -21.784 -19.369  0.00  0.00    +0.030 S 
ENDROOT
BRANCH   2   4
ATOM      3 CL   UNL     1      35.497 -19.818 -20.777  0.00  0.00    -0.030 Cl
ATOM      4  S   UNL     1      35.595 -21.498 -19.639  0.00  0.00    +0.030 S 
ENDBRANCH   2   4
TORSDOF 1
ENDMDL
MODEL 9
REMARK VINA RESULT:      -2.6      2.553      3.321
REMARK  Name = 24807
REMARK  1 active torsions:
REMARK  status: ('A' for Active; 'I' for Inactive)
REMARK    1  A    between atoms: S_2  and  S_4
REMARK                            x       y       z     vdW  Elec       q    Type
REMARK                         _______ _______ _______ _____ _____    ______ ____
ROOT
ATOM      1 CL   UNL     1      33.413 -21.442 -19.468  0.00  0.00    -0.030 Cl
ATOM      2  S   UNL     1      33.189 -19.899 -20.771  0.00  0.00    +0.030 S 
ENDROOT
BRANCH   2   4
ATOM      3 CL   UNL     1      35.092 -17.486 -21.035  0.00  0.00    -0.030 Cl
ATOM      4  S   UNL     1      35.175 -19.514 -21.110  0.00  0.00    +0.030 S 
ENDBRANCH   2   4
TORSDOF 1
ENDMDL
