MODEL 1
REMARK VINA RESULT:     -11.0      0.000      0.000
REMARK  Name = 67171867
REMARK  8 active torsions:
REMARK  status: ('A' for Active; 'I' for Inactive)
REMARK    1  A    between atoms: C_1  and  N_4
REMARK    2  A    between atoms: C_1  and  C_17
REMARK    3  A    between atoms: C_5  and  C_9
REMARK    4  A    between atoms: C_10  and  C_13
REMARK    5  A    between atoms: C_13  and  O_15
REMARK    6  A    between atoms: C_17  and  N_18
REMARK    7  A    between atoms: C_21  and  C_24
REMARK    8  A    between atoms: C_29  and  C_31
REMARK                            x       y       z     vdW  Elec       q    Type
REMARK                         _______ _______ _______ _____ _____    ______ ____
ROOT
ATOM      1  C   UNL     1      33.291 -14.576 -24.046  0.00  0.00    +0.094 C 
ATOM      2  C   UNL     1      33.222 -14.948 -25.525  0.00  0.00    +0.023 C 
ENDROOT
BRANCH   1   4
ATOM      3  O   UNL     1      31.968 -13.208 -21.895  0.00  0.00    -0.268 OA
ATOM      4  N   UNL     1      33.145 -13.147 -23.892  0.00  0.00    -0.299 N 
ATOM      5  C   UNL     1      32.486 -12.579 -22.814  0.00  0.00    +0.265 C 
ATOM      6  H   UNL     1      33.528 -12.554 -24.579  0.00  0.00    +0.150 HD
BRANCH   5   9
ATOM      7  N   UNL     1      31.644  -9.184 -22.388  0.00  0.00    -0.238 N 
ATOM      8  N   UNL     1      31.399 -10.488 -22.172  0.00  0.00    -0.177 NA
ATOM      9  C   UNL     1      32.399 -11.096 -22.816  0.00  0.00    +0.153 C 
ATOM     10  C   UNL     1      32.757  -8.951 -23.141  0.00  0.00    +0.071 C 
ATOM     11  C   UNL     1      33.277 -10.187 -23.438  0.00  0.00    +0.039 C 
ATOM     12  H   UNL     1      31.073  -8.464 -22.035  0.00  0.00    +0.174 HD
BRANCH  10  13
ATOM     13  C   UNL     1      33.197  -7.591 -23.491  0.00  0.00    +0.147 C 
ATOM     14  C   UNL     1      34.719  -7.472 -23.691  0.00  0.00    +0.038 C 
BRANCH  13  15
ATOM     15  O   UNL     1      32.805  -6.651 -22.473  0.00  0.00    -0.379 OA
ATOM     16  H   UNL     1      33.594  -6.313 -22.024  0.00  0.00    +0.211 HD
ENDBRANCH  13  15
ENDBRANCH  10  13
ENDBRANCH   5   9
ENDBRANCH   1   4
BRANCH   1  17
ATOM     17  C   UNL     1      34.604 -15.071 -23.423  0.00  0.00    +0.136 C 
BRANCH  17  18
ATOM     18  N   UNL     1      34.686 -16.577 -23.331  0.00  0.00    -0.209 N 
ATOM     19  N   UNL     1      34.446 -17.188 -22.158  0.00  0.00    -0.178 NA
ATOM     20  C   UNL     1      34.986 -17.434 -24.348  0.00  0.00    +0.086 C 
ATOM     21  C   UNL     1      34.603 -18.481 -22.453  0.00  0.00    +0.100 C 
ATOM     22  C   UNL     1      34.941 -18.693 -23.803  0.00  0.00    +0.038 C 
BRANCH  21  24
ATOM     23 CL   UNL     1      36.788 -21.613 -19.019  0.00  0.00    -0.082 Cl
ATOM     24  C   UNL     1      34.430 -19.489 -21.440  0.00  0.00    +0.020 C 
ATOM     25  C   UNL     1      35.542 -20.017 -20.784  0.00  0.00    +0.014 C 
ATOM     26  C   UNL     1      33.150 -19.936 -21.113  0.00  0.00    +0.002 C 
ATOM     27  C   UNL     1      35.374 -20.993 -19.801  0.00  0.00    +0.067 C 
ATOM     28  C   UNL     1      32.982 -20.912 -20.130  0.00  0.00    +0.011 C 
ATOM     29  C   UNL     1      34.094 -21.440 -19.474  0.00  0.00    +0.079 C 
BRANCH  29  31
ATOM     30  N   UNL     1      33.701 -23.252 -17.661  0.00  0.00    -0.191 NA
ATOM     31  C   UNL     1      33.877 -22.441 -18.472  0.00  0.00    +0.101 C 
ENDBRANCH  29  31
ENDBRANCH  21  24
ENDBRANCH  17  18
ENDBRANCH   1  17
TORSDOF 8
ENDMDL
MODEL 2
REMARK VINA RESULT:     -10.5      4.815     11.006
REMARK  Name = 67171867
REMARK  8 active torsions:
REMARK  status: ('A' for Active; 'I' for Inactive)
REMARK    1  A    between atoms: C_1  and  N_4
REMARK    2  A    between atoms: C_1  and  C_17
REMARK    3  A    between atoms: C_5  and  C_9
REMARK    4  A    between atoms: C_10  and  C_13
REMARK    5  A    between atoms: C_13  and  O_15
REMARK    6  A    between atoms: C_17  and  N_18
REMARK    7  A    between atoms: C_21  and  C_24
REMARK    8  A    between atoms: C_29  and  C_31
REMARK                            x       y       z     vdW  Elec       q    Type
REMARK                         _______ _______ _______ _____ _____    ______ ____
ROOT
ATOM      1  C   UNL     1      34.125 -20.865 -20.442  0.00  0.00    +0.094 C 
ATOM      2  C   UNL     1      32.847 -20.158 -20.884  0.00  0.00    +0.023 C 
ENDROOT
BRANCH   1   4
ATOM      3  O   UNL     1      33.936 -23.625 -19.673  0.00  0.00    -0.268 OA
ATOM      4  N   UNL     1      33.962 -21.378 -19.101  0.00  0.00    -0.299 N 
ATOM      5  C   UNL     1      33.880 -22.735 -18.829  0.00  0.00    +0.265 C 
ATOM      6  H   UNL     1      33.907 -20.741 -18.352  0.00  0.00    +0.150 HD
BRANCH   5   9
ATOM      7  N   UNL     1      34.195 -23.681 -15.450  0.00  0.00    -0.238 N 
ATOM      8  N   UNL     1      34.743 -23.417 -16.648  0.00  0.00    -0.177 NA
ATOM      9  C   UNL     1      33.687 -23.099 -17.402  0.00  0.00    +0.153 C 
ATOM     10  C   UNL     1      32.839 -23.542 -15.422  0.00  0.00    +0.071 C 
ATOM     11  C   UNL     1      32.474 -23.159 -16.690  0.00  0.00    +0.039 C 
ATOM     12  H   UNL     1      34.724 -23.951 -14.664  0.00  0.00    +0.174 HD
BRANCH  10  13
ATOM     13  C   UNL     1      32.049 -23.786 -14.204  0.00  0.00    +0.147 C 
ATOM     14  C   UNL     1      30.585 -23.326 -14.322  0.00  0.00    +0.038 C 
BRANCH  13  15
ATOM     15  O   UNL     1      32.638 -23.119 -13.073  0.00  0.00    -0.379 OA
ATOM     16  H   UNL     1      32.018 -23.134 -12.329  0.00  0.00    +0.211 HD
ENDBRANCH  13  15
ENDBRANCH  10  13
ENDBRANCH   5   9
ENDBRANCH   1   4
BRANCH   1  17
ATOM     17  C   UNL     1      35.329 -19.916 -20.531  0.00  0.00    +0.136 C 
BRANCH  17  18
ATOM     18  N   UNL     1      35.121 -18.786 -21.512  0.00  0.00    -0.209 N 
ATOM     19  N   UNL     1      34.442 -17.690 -21.132  0.00  0.00    -0.178 NA
ATOM     20  C   UNL     1      35.564 -18.742 -22.800  0.00  0.00    +0.086 C 
ATOM     21  C   UNL     1      34.461 -16.928 -22.229  0.00  0.00    +0.100 C 
ATOM     22  C   UNL     1      35.145 -17.534 -23.300  0.00  0.00    +0.038 C 
BRANCH  21  24
ATOM     23 CL   UNL     1      33.809 -12.413 -24.589  0.00  0.00    -0.082 Cl
ATOM     24  C   UNL     1      33.823 -15.637 -22.236  0.00  0.00    +0.020 C 
ATOM     25  C   UNL     1      34.077 -14.738 -23.272  0.00  0.00    +0.014 C 
ATOM     26  C   UNL     1      32.950 -15.287 -21.207  0.00  0.00    +0.002 C 
ATOM     27  C   UNL     1      33.458 -13.489 -23.279  0.00  0.00    +0.067 C 
ATOM     28  C   UNL     1      32.330 -14.036 -21.214  0.00  0.00    +0.011 C 
ATOM     29  C   UNL     1      32.584 -13.138 -22.251  0.00  0.00    +0.079 C 
BRANCH  29  31
ATOM     30  N   UNL     1      31.396 -10.834 -22.192  0.00  0.00    -0.191 NA
ATOM     31  C   UNL     1      31.928 -11.865 -22.219  0.00  0.00    +0.101 C 
ENDBRANCH  29  31
ENDBRANCH  21  24
ENDBRANCH  17  18
ENDBRANCH   1  17
TORSDOF 8
ENDMDL
MODEL 3
REMARK VINA RESULT:     -10.5      1.441      1.560
REMARK  Name = 67171867
REMARK  8 active torsions:
REMARK  status: ('A' for Active; 'I' for Inactive)
REMARK    1  A    between atoms: C_1  and  N_4
REMARK    2  A    between atoms: C_1  and  C_17
REMARK    3  A    between atoms: C_5  and  C_9
REMARK    4  A    between atoms: C_10  and  C_13
REMARK    5  A    between atoms: C_13  and  O_15
REMARK    6  A    between atoms: C_17  and  N_18
REMARK    7  A    between atoms: C_21  and  C_24
REMARK    8  A    between atoms: C_29  and  C_31
REMARK                            x       y       z     vdW  Elec       q    Type
REMARK                         _______ _______ _______ _____ _____    ______ ____
ROOT
ATOM      1  C   UNL     1      33.182 -14.400 -23.744  0.00  0.00    +0.094 C 
ATOM      2  C   UNL     1      33.025 -14.459 -25.261  0.00  0.00    +0.023 C 
ENDROOT
BRANCH   1   4
ATOM      3  O   UNL     1      34.166 -11.996 -24.969  0.00  0.00    -0.268 OA
ATOM      4  N   UNL     1      32.970 -13.047 -23.282  0.00  0.00    -0.299 N 
ATOM      5  C   UNL     1      33.489 -11.946 -23.945  0.00  0.00    +0.265 C 
ATOM      6  H   UNL     1      32.438 -12.902 -22.467  0.00  0.00    +0.150 HD
BRANCH   5   9
ATOM      7  N   UNL     1      33.195  -8.538 -23.101  0.00  0.00    -0.238 N 
ATOM      8  N   UNL     1      33.624  -9.507 -23.927  0.00  0.00    -0.177 NA
ATOM      9  C   UNL     1      33.204 -10.625 -23.328  0.00  0.00    +0.153 C 
ATOM     10  C   UNL     1      32.523  -9.003 -22.009  0.00  0.00    +0.071 C 
ATOM     11  C   UNL     1      32.512 -10.371 -22.129  0.00  0.00    +0.039 C 
ATOM     12  H   UNL     1      33.350  -7.580 -23.269  0.00  0.00    +0.174 HD
BRANCH  10  13
ATOM     13  C   UNL     1      31.974  -8.102 -20.983  0.00  0.00    +0.147 C 
ATOM     14  C   UNL     1      32.041  -6.615 -21.375  0.00  0.00    +0.038 C 
BRANCH  13  15
ATOM     15  O   UNL     1      32.671  -8.268 -19.734  0.00  0.00    -0.379 OA
ATOM     16  H   UNL     1      32.029  -8.410 -19.022  0.00  0.00    +0.211 HD
ENDBRANCH  13  15
ENDBRANCH  10  13
ENDBRANCH   5   9
ENDBRANCH   1   4
BRANCH   1  17
ATOM     17  C   UNL     1      34.563 -14.921 -23.321  0.00  0.00    +0.136 C 
BRANCH  17  18
ATOM     18  N   UNL     1      34.636 -16.430 -23.269  0.00  0.00    -0.209 N 
ATOM     19  N   UNL     1      34.426 -17.068 -22.105  0.00  0.00    -0.178 NA
ATOM     20  C   UNL     1      34.900 -17.262 -24.315  0.00  0.00    +0.086 C 
ATOM     21  C   UNL     1      34.565 -18.354 -22.437  0.00  0.00    +0.100 C 
ATOM     22  C   UNL     1      34.861 -18.535 -23.801  0.00  0.00    +0.038 C 
BRANCH  21  24
ATOM     23 CL   UNL     1      36.824 -21.585 -19.146  0.00  0.00    -0.082 Cl
ATOM     24  C   UNL     1      34.414 -19.387 -21.445  0.00  0.00    +0.020 C 
ATOM     25  C   UNL     1      35.540 -19.938 -20.834  0.00  0.00    +0.014 C 
ATOM     26  C   UNL     1      33.140 -19.834 -21.093  0.00  0.00    +0.002 C 
ATOM     27  C   UNL     1      35.393 -20.937 -19.871  0.00  0.00    +0.067 C 
ATOM     28  C   UNL     1      32.993 -20.834 -20.131  0.00  0.00    +0.011 C 
ATOM     29  C   UNL     1      34.120 -21.384 -19.520  0.00  0.00    +0.079 C 
BRANCH  29  31
ATOM     30  N   UNL     1      33.766 -23.239 -17.743  0.00  0.00    -0.191 NA
ATOM     31  C   UNL     1      33.924 -22.409 -18.538  0.00  0.00    +0.101 C 
ENDBRANCH  29  31
ENDBRANCH  21  24
ENDBRANCH  17  18
ENDBRANCH   1  17
TORSDOF 8
ENDMDL
MODEL 4
REMARK VINA RESULT:     -10.3      4.688      7.925
REMARK  Name = 67171867
REMARK  8 active torsions:
REMARK  status: ('A' for Active; 'I' for Inactive)
REMARK    1  A    between atoms: C_1  and  N_4
REMARK    2  A    between atoms: C_1  and  C_17
REMARK    3  A    between atoms: C_5  and  C_9
REMARK    4  A    between atoms: C_10  and  C_13
REMARK    5  A    between atoms: C_13  and  O_15
REMARK    6  A    between atoms: C_17  and  N_18
REMARK    7  A    between atoms: C_21  and  C_24
REMARK    8  A    between atoms: C_29  and  C_31
REMARK                            x       y       z     vdW  Elec       q    Type
REMARK                         _______ _______ _______ _____ _____    ______ ____
ROOT
ATOM      1  C   UNL     1      33.959 -20.748 -19.659  0.00  0.00    +0.094 C 
ATOM      2  C   UNL     1      32.557 -21.281 -19.378  0.00  0.00    +0.023 C 
ENDROOT
BRANCH   1   4
ATOM      3  O   UNL     1      35.950 -18.879 -20.549  0.00  0.00    -0.268 OA
ATOM      4  N   UNL     1      33.968 -20.027 -20.911  0.00  0.00    -0.299 N 
ATOM      5  C   UNL     1      34.978 -19.141 -21.252  0.00  0.00    +0.265 C 
ATOM      6  H   UNL     1      33.229 -20.169 -21.546  0.00  0.00    +0.150 HD
BRANCH   5   9
ATOM      7  N   UNL     1      34.738 -18.238 -24.649  0.00  0.00    -0.238 N 
ATOM      8  N   UNL     1      34.924 -19.165 -23.694  0.00  0.00    -0.177 NA
ATOM      9  C   UNL     1      34.827 -18.460 -22.563  0.00  0.00    +0.153 C 
ATOM     10  C   UNL     1      34.529 -16.981 -24.163  0.00  0.00    +0.071 C 
ATOM     11  C   UNL     1      34.581 -17.093 -22.795  0.00  0.00    +0.039 C 
ATOM     12  H   UNL     1      34.751 -18.447 -25.611  0.00  0.00    +0.174 HD
BRANCH  10  13
ATOM     13  C   UNL     1      34.307 -15.825 -25.046  0.00  0.00    +0.147 C 
ATOM     14  C   UNL     1      33.487 -14.701 -24.387  0.00  0.00    +0.038 C 
BRANCH  13  15
ATOM     15  O   UNL     1      33.627 -16.227 -26.250  0.00  0.00    -0.379 OA
ATOM     16  H   UNL     1      32.773 -15.773 -26.306  0.00  0.00    +0.211 HD
ENDBRANCH  13  15
ENDBRANCH  10  13
ENDBRANCH   5   9
ENDBRANCH   1   4
BRANCH   1  17
ATOM     17  C   UNL     1      34.983 -21.892 -19.670  0.00  0.00    +0.136 C 
BRANCH  17  18
ATOM     18  N   UNL     1      35.779 -21.987 -18.389  0.00  0.00    -0.209 N 
ATOM     19  N   UNL     1      35.252 -22.608 -17.320  0.00  0.00    -0.178 NA
ATOM     20  C   UNL     1      37.033 -21.495 -18.179  0.00  0.00    +0.086 C 
ATOM     21  C   UNL     1      36.216 -22.500 -16.402  0.00  0.00    +0.100 C 
ATOM     22  C   UNL     1      37.348 -21.814 -16.881  0.00  0.00    +0.038 C 
BRANCH  21  24
ATOM     23 CL   UNL     1      38.353 -23.880 -11.941  0.00  0.00    -0.082 Cl
ATOM     24  C   UNL     1      36.037 -23.050 -15.084  0.00  0.00    +0.020 C 
ATOM     25  C   UNL     1      37.133 -23.193 -14.233  0.00  0.00    +0.014 C 
ATOM     26  C   UNL     1      34.767 -23.438 -14.657  0.00  0.00    +0.002 C 
ATOM     27  C   UNL     1      36.959 -23.724 -12.955  0.00  0.00    +0.067 C 
ATOM     28  C   UNL     1      34.593 -23.970 -13.379  0.00  0.00    +0.011 C 
ATOM     29  C   UNL     1      35.690 -24.112 -12.528  0.00  0.00    +0.079 C 
BRANCH  29  31
ATOM     30  N   UNL     1      35.286 -25.110 -10.169  0.00  0.00    -0.191 NA
ATOM     31  C   UNL     1      35.467 -24.664 -11.225  0.00  0.00    +0.101 C 
ENDBRANCH  29  31
ENDBRANCH  21  24
ENDBRANCH  17  18
ENDBRANCH   1  17
TORSDOF 8
ENDMDL
MODEL 5
REMARK VINA RESULT:     -10.3      4.765     11.083
REMARK  Name = 67171867
REMARK  8 active torsions:
REMARK  status: ('A' for Active; 'I' for Inactive)
REMARK    1  A    between atoms: C_1  and  N_4
REMARK    2  A    between atoms: C_1  and  C_17
REMARK    3  A    between atoms: C_5  and  C_9
REMARK    4  A    between atoms: C_10  and  C_13
REMARK    5  A    between atoms: C_13  and  O_15
REMARK    6  A    between atoms: C_17  and  N_18
REMARK    7  A    between atoms: C_21  and  C_24
REMARK    8  A    between atoms: C_29  and  C_31
REMARK                            x       y       z     vdW  Elec       q    Type
REMARK                         _______ _______ _______ _____ _____    ______ ____
ROOT
ATOM      1  C   UNL     1      35.475 -20.328 -20.597  0.00  0.00    +0.094 C 
ATOM      2  C   UNL     1      33.997 -19.959 -20.687  0.00  0.00    +0.023 C 
ENDROOT
BRANCH   1   4
ATOM      3  O   UNL     1      34.720 -22.848 -19.444  0.00  0.00    -0.268 OA
ATOM      4  N   UNL     1      35.783 -20.795 -19.264  0.00  0.00    -0.299 N 
ATOM      5  C   UNL     1      35.372 -22.033 -18.797  0.00  0.00    +0.265 C 
ATOM      6  H   UNL     1      36.305 -20.213 -18.667  0.00  0.00    +0.150 HD
BRANCH   5   9
ATOM      7  N   UNL     1      36.925 -22.436 -15.661  0.00  0.00    -0.238 N 
ATOM      8  N   UNL     1      36.943 -21.988 -16.927  0.00  0.00    -0.177 NA
ATOM      9  C   UNL     1      35.747 -22.354 -17.396  0.00  0.00    +0.153 C 
ATOM     10  C   UNL     1      35.766 -23.067 -15.316  0.00  0.00    +0.071 C 
ATOM     11  C   UNL     1      34.971 -23.030 -16.435  0.00  0.00    +0.039 C 
ATOM     12  H   UNL     1      37.679 -22.318 -15.038  0.00  0.00    +0.174 HD
BRANCH  10  13
ATOM     13  C   UNL     1      35.549 -23.631 -13.974  0.00  0.00    +0.147 C 
ATOM     14  C   UNL     1      36.702 -23.345 -12.996  0.00  0.00    +0.038 C 
BRANCH  13  15
ATOM     15  O   UNL     1      35.365 -25.058 -14.045  0.00  0.00    -0.379 OA
ATOM     16  H   UNL     1      34.609 -25.314 -13.497  0.00  0.00    +0.211 HD
ENDBRANCH  13  15
ENDBRANCH  10  13
ENDBRANCH   5   9
ENDBRANCH   1   4
BRANCH   1  17
ATOM     17  C   UNL     1      36.357 -19.132 -20.985  0.00  0.00    +0.136 C 
BRANCH  17  18
ATOM     18  N   UNL     1      35.678 -18.182 -21.942  0.00  0.00    -0.209 N 
ATOM     19  N   UNL     1      35.084 -17.072 -21.472  0.00  0.00    -0.178 NA
ATOM     20  C   UNL     1      35.594 -18.321 -23.296  0.00  0.00    +0.086 C 
ATOM     21  C   UNL     1      34.608 -16.492 -22.576  0.00  0.00    +0.100 C 
ATOM     22  C   UNL     1      34.895 -17.226 -23.743  0.00  0.00    +0.038 C 
BRANCH  21  24
ATOM     23 CL   UNL     1      33.750 -11.831 -24.554  0.00  0.00    -0.082 Cl
ATOM     24  C   UNL     1      33.885 -15.249 -22.499  0.00  0.00    +0.020 C 
ATOM     25  C   UNL     1      34.120 -14.245 -23.438  0.00  0.00    +0.014 C 
ATOM     26  C   UNL     1      32.948 -15.051 -21.485  0.00  0.00    +0.002 C 
ATOM     27  C   UNL     1      33.419 -13.042 -23.364  0.00  0.00    +0.067 C 
ATOM     28  C   UNL     1      32.246 -13.847 -21.411  0.00  0.00    +0.011 C 
ATOM     29  C   UNL     1      32.481 -12.843 -22.351  0.00  0.00    +0.079 C 
BRANCH  29  31
ATOM     30  N   UNL     1      31.140 -10.634 -22.145  0.00  0.00    -0.191 NA
ATOM     31  C   UNL     1      31.740 -11.622 -22.237  0.00  0.00    +0.101 C 
ENDBRANCH  29  31
ENDBRANCH  21  24
ENDBRANCH  17  18
ENDBRANCH   1  17
TORSDOF 8
ENDMDL
MODEL 6
REMARK VINA RESULT:     -10.2      4.189     10.448
REMARK  Name = 67171867
REMARK  8 active torsions:
REMARK  status: ('A' for Active; 'I' for Inactive)
REMARK    1  A    between atoms: C_1  and  N_4
REMARK    2  A    between atoms: C_1  and  C_17
REMARK    3  A    between atoms: C_5  and  C_9
REMARK    4  A    between atoms: C_10  and  C_13
REMARK    5  A    between atoms: C_13  and  O_15
REMARK    6  A    between atoms: C_17  and  N_18
REMARK    7  A    between atoms: C_21  and  C_24
REMARK    8  A    between atoms: C_29  and  C_31
REMARK                            x       y       z     vdW  Elec       q    Type
REMARK                         _______ _______ _______ _____ _____    ______ ____
ROOT
ATOM      1  C   UNL     1      35.443 -18.917 -22.896  0.00  0.00    +0.094 C 
ATOM      2  C   UNL     1      34.567 -18.664 -24.119  0.00  0.00    +0.023 C 
ENDROOT
BRANCH   1   4
ATOM      3  O   UNL     1      36.430 -19.867 -20.372  0.00  0.00    -0.268 OA
ATOM      4  N   UNL     1      34.731 -19.740 -21.944  0.00  0.00    -0.299 N 
ATOM      5  C   UNL     1      35.296 -20.149 -20.747  0.00  0.00    +0.265 C 
ATOM      6  H   UNL     1      33.811 -20.020 -22.154  0.00  0.00    +0.150 HD
BRANCH   5   9
ATOM      7  N   UNL     1      32.690 -21.812 -19.055  0.00  0.00    -0.238 N 
ATOM      8  N   UNL     1      33.113 -20.895 -19.943  0.00  0.00    -0.177 NA
ATOM      9  C   UNL     1      34.443 -21.013 -19.890  0.00  0.00    +0.153 C 
ATOM     10  C   UNL     1      33.701 -22.498 -18.449  0.00  0.00    +0.071 C 
ATOM     11  C   UNL     1      34.866 -21.997 -18.977  0.00  0.00    +0.039 C 
ATOM     12  H   UNL     1      31.739 -21.973 -18.861  0.00  0.00    +0.174 HD
BRANCH  10  13
ATOM     13  C   UNL     1      33.447 -23.544 -17.445  0.00  0.00    +0.147 C 
ATOM     14  C   UNL     1      32.272 -23.218 -16.506  0.00  0.00    +0.038 C 
BRANCH  13  15
ATOM     15  O   UNL     1      34.617 -23.767 -16.636  0.00  0.00    -0.379 OA
ATOM     16  H   UNL     1      35.292 -23.106 -16.853  0.00  0.00    +0.211 HD
ENDBRANCH  13  15
ENDBRANCH  10  13
ENDBRANCH   5   9
ENDBRANCH   1   4
BRANCH   1  17
ATOM     17  C   UNL     1      35.885 -17.591 -22.261  0.00  0.00    +0.136 C 
BRANCH  17  18
ATOM     18  N   UNL     1      34.727 -16.686 -21.913  0.00  0.00    -0.209 N 
ATOM     19  N   UNL     1      34.672 -15.444 -22.425  0.00  0.00    -0.178 NA
ATOM     20  C   UNL     1      33.675 -16.995 -21.103  0.00  0.00    +0.086 C 
ATOM     21  C   UNL     1      33.540 -14.956 -21.913  0.00  0.00    +0.100 C 
ATOM     22  C   UNL     1      32.877 -15.877 -21.081  0.00  0.00    +0.038 C 
BRANCH  21  24
ATOM     23 CL   UNL     1      30.535 -10.963 -20.729  0.00  0.00    -0.082 Cl
ATOM     24  C   UNL     1      33.112 -13.617 -22.226  0.00  0.00    +0.020 C 
ATOM     25  C   UNL     1      32.147 -12.990 -21.438  0.00  0.00    +0.014 C 
ATOM     26  C   UNL     1      33.665 -12.946 -23.317  0.00  0.00    +0.002 C 
ATOM     27  C   UNL     1      31.734 -11.692 -21.740  0.00  0.00    +0.067 C 
ATOM     28  C   UNL     1      33.252 -11.647 -23.619  0.00  0.00    +0.011 C 
ATOM     29  C   UNL     1      32.287 -11.021 -22.830  0.00  0.00    +0.079 C 
BRANCH  29  31
ATOM     30  N   UNL     1      31.571  -8.609 -23.458  0.00  0.00    -0.191 NA
ATOM     31  C   UNL     1      31.891  -9.689 -23.176  0.00  0.00    +0.101 C 
ENDBRANCH  29  31
ENDBRANCH  21  24
ENDBRANCH  17  18
ENDBRANCH   1  17
TORSDOF 8
ENDMDL
MODEL 7
REMARK VINA RESULT:     -10.2      1.490      1.851
REMARK  Name = 67171867
REMARK  8 active torsions:
REMARK  status: ('A' for Active; 'I' for Inactive)
REMARK    1  A    between atoms: C_1  and  N_4
REMARK    2  A    between atoms: C_1  and  C_17
REMARK    3  A    between atoms: C_5  and  C_9
REMARK    4  A    between atoms: C_10  and  C_13
REMARK    5  A    between atoms: C_13  and  O_15
REMARK    6  A    between atoms: C_17  and  N_18
REMARK    7  A    between atoms: C_21  and  C_24
REMARK    8  A    between atoms: C_29  and  C_31
REMARK                            x       y       z     vdW  Elec       q    Type
REMARK                         _______ _______ _______ _____ _____    ______ ____
ROOT
ATOM      1  C   UNL     1      33.509 -14.866 -24.430  0.00  0.00    +0.094 C 
ATOM      2  C   UNL     1      33.098 -15.201 -25.861  0.00  0.00    +0.023 C 
ENDROOT
BRANCH   1   4
ATOM      3  O   UNL     1      32.088 -13.485 -22.352  0.00  0.00    -0.268 OA
ATOM      4  N   UNL     1      33.454 -13.437 -24.225  0.00  0.00    -0.299 N 
ATOM      5  C   UNL     1      32.737 -12.862 -23.188  0.00  0.00    +0.265 C 
ATOM      6  H   UNL     1      33.943 -12.850 -24.845  0.00  0.00    +0.150 HD
BRANCH   5   9
ATOM      7  N   UNL     1      33.360  -9.416 -23.573  0.00  0.00    -0.238 N 
ATOM      8  N   UNL     1      33.627 -10.696 -23.882  0.00  0.00    -0.177 NA
ATOM      9  C   UNL     1      32.758 -11.378 -23.130  0.00  0.00    +0.153 C 
ATOM     10  C   UNL     1      32.359  -9.268 -22.658  0.00  0.00    +0.071 C 
ATOM     11  C   UNL     1      31.943 -10.539 -22.347  0.00  0.00    +0.039 C 
ATOM     12  H   UNL     1      33.842  -8.655 -23.970  0.00  0.00    +0.174 HD
BRANCH  10  13
ATOM     13  C   UNL     1      31.917  -7.946 -22.186  0.00  0.00    +0.147 C 
ATOM     14  C   UNL     1      30.914  -7.262 -23.133  0.00  0.00    +0.038 C 
BRANCH  13  15
ATOM     15  O   UNL     1      33.041  -7.065 -22.012  0.00  0.00    -0.379 OA
ATOM     16  H   UNL     1      33.597  -7.388 -21.287  0.00  0.00    +0.211 HD
ENDBRANCH  13  15
ENDBRANCH  10  13
ENDBRANCH   5   9
ENDBRANCH   1   4
BRANCH   1  17
ATOM     17  C   UNL     1      34.910 -15.417 -24.125  0.00  0.00    +0.136 C 
BRANCH  17  18
ATOM     18  N   UNL     1      34.911 -16.897 -23.819  0.00  0.00    -0.209 N 
ATOM     19  N   UNL     1      35.136 -17.318 -22.562  0.00  0.00    -0.178 NA
ATOM     20  C   UNL     1      34.697 -17.907 -24.709  0.00  0.00    +0.086 C 
ATOM     21  C   UNL     1      35.060 -18.647 -22.671  0.00  0.00    +0.100 C 
ATOM     22  C   UNL     1      34.790 -19.070 -23.986  0.00  0.00    +0.038 C 
BRANCH  21  24
ATOM     23 CL   UNL     1      32.943 -21.681 -19.108  0.00  0.00    -0.082 Cl
ATOM     24  C   UNL     1      35.249 -19.488 -21.517  0.00  0.00    +0.020 C 
ATOM     25  C   UNL     1      34.153 -20.113 -20.922  0.00  0.00    +0.014 C 
ATOM     26  C   UNL     1      36.529 -19.680 -20.997  0.00  0.00    +0.002 C 
ATOM     27  C   UNL     1      34.337 -20.930 -19.807  0.00  0.00    +0.067 C 
ATOM     28  C   UNL     1      36.713 -20.496 -19.881  0.00  0.00    +0.011 C 
ATOM     29  C   UNL     1      35.617 -21.122 -19.287  0.00  0.00    +0.079 C 
BRANCH  29  31
ATOM     30  N   UNL     1      36.039 -22.622 -17.214  0.00  0.00    -0.191 NA
ATOM     31  C   UNL     1      35.850 -21.951 -18.142  0.00  0.00    +0.101 C 
ENDBRANCH  29  31
ENDBRANCH  21  24
ENDBRANCH  17  18
ENDBRANCH   1  17
TORSDOF 8
ENDMDL
MODEL 8
REMARK VINA RESULT:      -9.9      4.797     11.198
REMARK  Name = 67171867
REMARK  8 active torsions:
REMARK  status: ('A' for Active; 'I' for Inactive)
REMARK    1  A    between atoms: C_1  and  N_4
REMARK    2  A    between atoms: C_1  and  C_17
REMARK    3  A    between atoms: C_5  and  C_9
REMARK    4  A    between atoms: C_10  and  C_13
REMARK    5  A    between atoms: C_13  and  O_15
REMARK    6  A    between atoms: C_17  and  N_18
REMARK    7  A    between atoms: C_21  and  C_24
REMARK    8  A    between atoms: C_29  and  C_31
REMARK                            x       y       z     vdW  Elec       q    Type
REMARK                         _______ _______ _______ _____ _____    ______ ____
ROOT
ATOM      1  C   UNL     1      33.968 -20.912 -20.374  0.00  0.00    +0.094 C 
ATOM      2  C   UNL     1      32.676 -20.143 -20.630  0.00  0.00    +0.023 C 
ENDROOT
BRANCH   1   4
ATOM      3  O   UNL     1      33.893 -23.651 -19.517  0.00  0.00    -0.268 OA
ATOM      4  N   UNL     1      33.992 -21.391 -19.011  0.00  0.00    -0.299 N 
ATOM      5  C   UNL     1      33.951 -22.740 -18.697  0.00  0.00    +0.265 C 
ATOM      6  H   UNL     1      34.039 -20.735 -18.279  0.00  0.00    +0.150 HD
BRANCH   5   9
ATOM      7  N   UNL     1      33.202 -23.625 -15.370  0.00  0.00    -0.238 N 
ATOM      8  N   UNL     1      32.817 -23.405 -16.638  0.00  0.00    -0.177 NA
ATOM      9  C   UNL     1      33.956 -23.067 -17.247  0.00  0.00    +0.153 C 
ATOM     10  C   UNL     1      34.536 -23.439 -15.159  0.00  0.00    +0.071 C 
ATOM     11  C   UNL     1      35.061 -23.072 -16.375  0.00  0.00    +0.039 C 
ATOM     12  H   UNL     1      32.578 -23.896 -14.657  0.00  0.00    +0.174 HD
BRANCH  10  13
ATOM     13  C   UNL     1      35.157 -23.628 -13.838  0.00  0.00    +0.147 C 
ATOM     14  C   UNL     1      36.680 -23.404 -13.840  0.00  0.00    +0.038 C 
BRANCH  13  15
ATOM     15  O   UNL     1      34.901 -24.955 -13.341  0.00  0.00    -0.379 OA
ATOM     16  H   UNL     1      34.861 -25.577 -14.084  0.00  0.00    +0.211 HD
ENDBRANCH  13  15
ENDBRANCH  10  13
ENDBRANCH   5   9
ENDBRANCH   1   4
BRANCH   1  17
ATOM     17  C   UNL     1      35.191 -20.034 -20.676  0.00  0.00    +0.136 C 
BRANCH  17  18
ATOM     18  N   UNL     1      34.999 -19.145 -21.883  0.00  0.00    -0.209 N 
ATOM     19  N   UNL     1      34.730 -17.839 -21.714  0.00  0.00    -0.178 NA
ATOM     20  C   UNL     1      35.071 -19.529 -23.189  0.00  0.00    +0.086 C 
ATOM     21  C   UNL     1      34.630 -17.387 -22.967  0.00  0.00    +0.100 C 
ATOM     22  C   UNL     1      34.832 -18.396 -23.927  0.00  0.00    +0.038 C 
BRANCH  21  24
ATOM     23 CL   UNL     1      33.065 -13.820 -26.314  0.00  0.00    -0.082 Cl
ATOM     24  C   UNL     1      34.341 -16.000 -23.224  0.00  0.00    +0.020 C 
ATOM     25  C   UNL     1      33.896 -15.602 -24.485  0.00  0.00    +0.014 C 
ATOM     26  C   UNL     1      34.504 -15.055 -22.211  0.00  0.00    +0.002 C 
ATOM     27  C   UNL     1      33.614 -14.259 -24.733  0.00  0.00    +0.067 C 
ATOM     28  C   UNL     1      34.222 -13.711 -22.459  0.00  0.00    +0.011 C 
ATOM     29  C   UNL     1      33.777 -13.314 -23.720  0.00  0.00    +0.079 C 
BRANCH  29  31
ATOM     30  N   UNL     1      33.276 -10.799 -24.106  0.00  0.00    -0.191 NA
ATOM     31  C   UNL     1      33.500 -11.924 -23.933  0.00  0.00    +0.101 C 
ENDBRANCH  29  31
ENDBRANCH  21  24
ENDBRANCH  17  18
ENDBRANCH   1  17
TORSDOF 8
ENDMDL
MODEL 9
REMARK VINA RESULT:      -9.9      3.966     10.574
REMARK  Name = 67171867
REMARK  8 active torsions:
REMARK  status: ('A' for Active; 'I' for Inactive)
REMARK    1  A    between atoms: C_1  and  N_4
REMARK    2  A    between atoms: C_1  and  C_17
REMARK    3  A    between atoms: C_5  and  C_9
REMARK    4  A    between atoms: C_10  and  C_13
REMARK    5  A    between atoms: C_13  and  O_15
REMARK    6  A    between atoms: C_17  and  N_18
REMARK    7  A    between atoms: C_21  and  C_24
REMARK    8  A    between atoms: C_29  and  C_31
REMARK                            x       y       z     vdW  Elec       q    Type
REMARK                         _______ _______ _______ _____ _____    ______ ____
ROOT
ATOM      1  C   UNL     1      34.878 -16.387 -23.882  0.00  0.00    +0.094 C 
ATOM      2  C   UNL     1      34.784 -16.800 -25.348  0.00  0.00    +0.023 C 
ENDROOT
BRANCH   1   4
ATOM      3  O   UNL     1      35.092 -16.448 -21.019  0.00  0.00    -0.268 OA
ATOM      4  N   UNL     1      35.102 -17.553 -23.058  0.00  0.00    -0.299 N 
ATOM      5  C   UNL     1      35.191 -17.480 -21.677  0.00  0.00    +0.265 C 
ATOM      6  H   UNL     1      35.195 -18.431 -23.493  0.00  0.00    +0.150 HD
BRANCH   5   9
ATOM      7  N   UNL     1      36.541 -20.273 -20.006  0.00  0.00    -0.238 N 
ATOM      8  N   UNL     1      36.691 -19.072 -20.589  0.00  0.00    -0.177 NA
ATOM      9  C   UNL     1      35.450 -18.764 -20.976  0.00  0.00    +0.153 C 
ATOM     10  C   UNL     1      35.256 -20.731 -20.012  0.00  0.00    +0.071 C 
ATOM     11  C   UNL     1      34.514 -19.762 -20.642  0.00  0.00    +0.039 C 
ATOM     12  H   UNL     1      37.289 -20.777 -19.611  0.00  0.00    +0.174 HD
BRANCH  10  13
ATOM     13  C   UNL     1      34.882 -22.027 -19.424  0.00  0.00    +0.147 C 
ATOM     14  C   UNL     1      33.413 -22.090 -18.966  0.00  0.00    +0.038 C 
BRANCH  13  15
ATOM     15  O   UNL     1      35.717 -22.333 -18.292  0.00  0.00    -0.379 OA
ATOM     16  H   UNL     1      35.250 -22.941 -17.700  0.00  0.00    +0.211 HD
ENDBRANCH  13  15
ENDBRANCH  10  13
ENDBRANCH   5   9
ENDBRANCH   1   4
BRANCH   1  17
ATOM     17  C   UNL     1      33.612 -15.635 -23.448  0.00  0.00    +0.136 C 
BRANCH  17  18
ATOM     18  N   UNL     1      33.547 -14.224 -23.985  0.00  0.00    -0.209 N 
ATOM     19  N   UNL     1      33.312 -13.200 -23.147  0.00  0.00    -0.178 NA
ATOM     20  C   UNL     1      33.710 -13.847 -25.285  0.00  0.00    +0.086 C 
ATOM     21  C   UNL     1      33.328 -12.138 -23.955  0.00  0.00    +0.100 C 
ATOM     22  C   UNL     1      33.570 -12.481 -25.299  0.00  0.00    +0.038 C 
BRANCH  21  24
ATOM     23 CL   UNL     1      34.764  -7.208 -23.858  0.00  0.00    -0.082 Cl
ATOM     24  C   UNL     1      33.110 -10.815 -23.431  0.00  0.00    +0.020 C 
ATOM     25  C   UNL     1      33.930  -9.760 -23.833  0.00  0.00    +0.014 C 
ATOM     26  C   UNL     1      32.075 -10.587 -22.523  0.00  0.00    +0.002 C 
ATOM     27  C   UNL     1      33.717  -8.478 -23.326  0.00  0.00    +0.067 C 
ATOM     28  C   UNL     1      31.862  -9.305 -22.016  0.00  0.00    +0.011 C 
ATOM     29  C   UNL     1      32.683  -8.251 -22.419  0.00  0.00    +0.079 C 
BRANCH  29  31
ATOM     30  N   UNL     1      32.224  -5.897 -21.432  0.00  0.00    -0.191 NA
ATOM     31  C   UNL     1      32.430  -6.951 -21.873  0.00  0.00    +0.101 C 
ENDBRANCH  29  31
ENDBRANCH  21  24
ENDBRANCH  17  18
ENDBRANCH   1  17
TORSDOF 8
ENDMDL
