MODEL 1
REMARK VINA RESULT:      -7.2      0.000      0.000
REMARK  Name = 12218309
REMARK  5 active torsions:
REMARK  status: ('A' for Active; 'I' for Inactive)
REMARK    1  A    between atoms: C_2  and  C_9
REMARK    2  A    between atoms: C_2  and  O_17
REMARK    3  A    between atoms: C_3  and  C_15
REMARK    4  A    between atoms: O_17  and  C_19
REMARK    5  A    between atoms: C_19  and  C_20
REMARK                            x       y       z     vdW  Elec       q    Type
REMARK                         _______ _______ _______ _____ _____    ______ ____
ROOT
ATOM      1  N   UNL     1      35.579 -23.635 -12.023  0.00  0.00    +0.386 N 
ATOM      2  C   UNL     1      36.007 -23.464 -14.953  0.00  0.00    +0.150 C 
ATOM      3  C   UNL     1      34.733 -24.114 -14.326  0.00  0.00    +0.020 C 
ATOM      4  C   UNL     1      36.604 -22.452 -13.946  0.00  0.00    +0.022 C 
ATOM      5  C   UNL     1      35.048 -24.671 -12.917  0.00  0.00    -0.074 C 
ATOM      6  C   UNL     1      36.822 -23.068 -12.558  0.00  0.00    -0.074 C 
ATOM      7  C   UNL     1      35.799 -24.177 -10.683  0.00  0.00    -0.101 C 
ATOM      8  H   UNL     1      34.890 -22.886 -11.961  0.00  0.00    -0.080 HD
ENDROOT
BRANCH   2   9
ATOM      9  C   UNL     1      35.762 -22.910 -16.356  0.00  0.00    +0.013 C 
ATOM     10  C   UNL     1      36.761 -22.183 -17.001  0.00  0.00    -0.001 C 
ATOM     11  C   UNL     1      34.539 -23.132 -16.988  0.00  0.00    -0.001 C 
ATOM     12  C   UNL     1      36.537 -21.677 -18.282  0.00  0.00    -0.000 C 
ATOM     13  C   UNL     1      34.316 -22.626 -18.269  0.00  0.00    -0.000 C 
ATOM     14  C   UNL     1      35.315 -21.898 -18.916  0.00  0.00    -0.000 C 
ENDBRANCH   2   9
BRANCH   3  15
ATOM     15  C   UNL     1      33.529 -23.159 -14.263  0.00  0.00    +0.002 C 
ATOM     16  C   UNL     1      32.238 -23.924 -14.078  0.00  0.00    +0.000 C 
ENDBRANCH   3  15
BRANCH   2  17
ATOM     17  O   UNL     1      37.023 -24.476 -15.109  0.00  0.00    -0.452 OA
BRANCH  17  19
ATOM     18  O   UNL     1      35.666 -26.149 -15.933  0.00  0.00    -0.250 OA
ATOM     19  C   UNL     1      36.567 -25.760 -15.202  0.00  0.00    +0.317 C 
BRANCH  19  20
ATOM     20  C   UNL     1      37.357 -26.631 -14.254  0.00  0.00    +0.110 C 
ATOM     21  C   UNL     1      38.611 -25.937 -13.750  0.00  0.00    +0.012 C 
ENDBRANCH  19  20
ENDBRANCH  17  19
ENDBRANCH   2  17
TORSDOF 5
ENDMDL
MODEL 2
REMARK VINA RESULT:      -7.2      2.248      4.651
REMARK  Name = 12218309
REMARK  5 active torsions:
REMARK  status: ('A' for Active; 'I' for Inactive)
REMARK    1  A    between atoms: C_2  and  C_9
REMARK    2  A    between atoms: C_2  and  O_17
REMARK    3  A    between atoms: C_3  and  C_15
REMARK    4  A    between atoms: O_17  and  C_19
REMARK    5  A    between atoms: C_19  and  C_20
REMARK                            x       y       z     vdW  Elec       q    Type
REMARK                         _______ _______ _______ _____ _____    ______ ____
ROOT
ATOM      1  N   UNL     1      31.404 -23.271 -15.996  0.00  0.00    +0.386 N 
ATOM      2  C   UNL     1      34.158 -23.864 -15.071  0.00  0.00    +0.150 C 
ATOM      3  C   UNL     1      32.951 -23.733 -14.088  0.00  0.00    +0.020 C 
ATOM      4  C   UNL     1      33.629 -24.257 -16.471  0.00  0.00    +0.022 C 
ATOM      5  C   UNL     1      31.868 -22.803 -14.684  0.00  0.00    -0.074 C 
ATOM      6  C   UNL     1      32.511 -23.324 -16.957  0.00  0.00    -0.074 C 
ATOM      7  C   UNL     1      30.332 -22.412 -16.498  0.00  0.00    -0.101 C 
ATOM      8  H   UNL     1      31.036 -24.216 -15.884  0.00  0.00    -0.080 HD
ENDROOT
BRANCH   2   9
ATOM      9  C   UNL     1      35.272 -24.759 -14.528  0.00  0.00    +0.013 C 
ATOM     10  C   UNL     1      35.810 -25.764 -15.330  0.00  0.00    -0.001 C 
ATOM     11  C   UNL     1      35.747 -24.569 -13.231  0.00  0.00    -0.001 C 
ATOM     12  C   UNL     1      36.826 -26.580 -14.834  0.00  0.00    -0.000 C 
ATOM     13  C   UNL     1      36.764 -25.386 -12.736  0.00  0.00    -0.000 C 
ATOM     14  C   UNL     1      37.303 -26.392 -13.537  0.00  0.00    -0.000 C 
ENDBRANCH   2   9
BRANCH   3  15
ATOM     15  C   UNL     1      32.335 -25.086 -13.697  0.00  0.00    +0.002 C 
ATOM     16  C   UNL     1      30.853 -24.949 -13.422  0.00  0.00    +0.000 C 
ENDBRANCH   3  15
BRANCH   2  17
ATOM     17  O   UNL     1      34.759 -22.565 -15.253  0.00  0.00    -0.452 OA
BRANCH  17  19
ATOM     18  O   UNL     1      35.645 -22.678 -17.380  0.00  0.00    -0.250 OA
ATOM     19  C   UNL     1      35.766 -22.506 -16.175  0.00  0.00    +0.317 C 
BRANCH  19  20
ATOM     20  C   UNL     1      37.062 -22.191 -15.466  0.00  0.00    +0.110 C 
ATOM     21  C   UNL     1      38.182 -23.131 -15.876  0.00  0.00    +0.012 C 
ENDBRANCH  19  20
ENDBRANCH  17  19
ENDBRANCH   2  17
TORSDOF 5
ENDMDL
MODEL 3
REMARK VINA RESULT:      -7.2      6.899     10.638
REMARK  Name = 12218309
REMARK  5 active torsions:
REMARK  status: ('A' for Active; 'I' for Inactive)
REMARK    1  A    between atoms: C_2  and  C_9
REMARK    2  A    between atoms: C_2  and  O_17
REMARK    3  A    between atoms: C_3  and  C_15
REMARK    4  A    between atoms: O_17  and  C_19
REMARK    5  A    between atoms: C_19  and  C_20
REMARK                            x       y       z     vdW  Elec       q    Type
REMARK                         _______ _______ _______ _____ _____    ______ ____
ROOT
ATOM      1  N   UNL     1      34.882 -16.761 -24.681  0.00  0.00    +0.386 N 
ATOM      2  C   UNL     1      34.727 -18.274 -22.135  0.00  0.00    +0.150 C 
ATOM      3  C   UNL     1      34.278 -18.881 -23.502  0.00  0.00    +0.020 C 
ATOM      4  C   UNL     1      35.760 -17.152 -22.396  0.00  0.00    +0.022 C 
ATOM      5  C   UNL     1      33.827 -17.760 -24.469  0.00  0.00    -0.074 C 
ATOM      6  C   UNL     1      35.260 -16.121 -23.416  0.00  0.00    -0.074 C 
ATOM      7  C   UNL     1      34.449 -15.757 -25.653  0.00  0.00    -0.101 C 
ATOM      8  H   UNL     1      35.702 -17.240 -25.052  0.00  0.00    -0.080 HD
ENDROOT
BRANCH   2   9
ATOM      9  C   UNL     1      35.167 -19.337 -21.129  0.00  0.00    +0.013 C 
ATOM     10  C   UNL     1      34.229 -20.216 -20.590  0.00  0.00    -0.001 C 
ATOM     11  C   UNL     1      36.506 -19.425 -20.751  0.00  0.00    -0.001 C 
ATOM     12  C   UNL     1      34.631 -21.186 -19.673  0.00  0.00    -0.000 C 
ATOM     13  C   UNL     1      36.908 -20.396 -19.833  0.00  0.00    -0.000 C 
ATOM     14  C   UNL     1      35.970 -21.276 -19.293  0.00  0.00    -0.000 C 
ENDBRANCH   2   9
BRANCH   3  15
ATOM     15  C   UNL     1      35.358 -19.753 -24.164  0.00  0.00    +0.002 C 
ATOM     16  C   UNL     1      34.821 -20.432 -25.405  0.00  0.00    +0.000 C 
ENDBRANCH   3  15
BRANCH   2  17
ATOM     17  O   UNL     1      33.602 -17.606 -21.525  0.00  0.00    -0.452 OA
BRANCH  17  19
ATOM     18  O   UNL     1      34.965 -16.367 -20.137  0.00  0.00    -0.250 OA
ATOM     19  C   UNL     1      33.910 -16.537 -20.732  0.00  0.00    +0.317 C 
BRANCH  19  20
ATOM     20  C   UNL     1      32.734 -15.590 -20.708  0.00  0.00    +0.110 C 
ATOM     21  C   UNL     1      33.140 -14.164 -21.038  0.00  0.00    +0.012 C 
ENDBRANCH  19  20
ENDBRANCH  17  19
ENDBRANCH   2  17
TORSDOF 5
ENDMDL
MODEL 4
REMARK VINA RESULT:      -7.0      0.775      1.602
REMARK  Name = 12218309
REMARK  5 active torsions:
REMARK  status: ('A' for Active; 'I' for Inactive)
REMARK    1  A    between atoms: C_2  and  C_9
REMARK    2  A    between atoms: C_2  and  O_17
REMARK    3  A    between atoms: C_3  and  C_15
REMARK    4  A    between atoms: O_17  and  C_19
REMARK    5  A    between atoms: C_19  and  C_20
REMARK                            x       y       z     vdW  Elec       q    Type
REMARK                         _______ _______ _______ _____ _____    ______ ____
ROOT
ATOM      1  N   UNL     1      35.267 -23.697 -12.406  0.00  0.00    +0.386 N 
ATOM      2  C   UNL     1      35.710 -23.482 -15.330  0.00  0.00    +0.150 C 
ATOM      3  C   UNL     1      34.348 -23.939 -14.718  0.00  0.00    +0.020 C 
ATOM      4  C   UNL     1      36.468 -22.623 -14.291  0.00  0.00    +0.022 C 
ATOM      5  C   UNL     1      34.571 -24.596 -13.334  0.00  0.00    -0.074 C 
ATOM      6  C   UNL     1      36.585 -23.320 -12.929  0.00  0.00    -0.074 C 
ATOM      7  C   UNL     1      35.398 -24.320 -11.089  0.00  0.00    -0.101 C 
ATOM      8  H   UNL     1      34.710 -22.848 -12.309  0.00  0.00    -0.080 HD
ENDROOT
BRANCH   2   9
ATOM      9  C   UNL     1      35.556 -22.840 -16.709  0.00  0.00    +0.013 C 
ATOM     10  C   UNL     1      34.395 -23.057 -17.451  0.00  0.00    -0.001 C 
ATOM     11  C   UNL     1      36.575 -22.040 -17.222  0.00  0.00    -0.001 C 
ATOM     12  C   UNL     1      34.255 -22.472 -18.709  0.00  0.00    -0.000 C 
ATOM     13  C   UNL     1      36.433 -21.455 -18.481  0.00  0.00    -0.000 C 
ATOM     14  C   UNL     1      35.273 -21.671 -19.224  0.00  0.00    -0.000 C 
ENDBRANCH   2   9
BRANCH   3  15
ATOM     15  C   UNL     1      33.318 -22.802 -14.608  0.00  0.00    +0.002 C 
ATOM     16  C   UNL     1      31.907 -23.333 -14.741  0.00  0.00    +0.000 C 
ENDBRANCH   3  15
BRANCH   2  17
ATOM     17  O   UNL     1      36.546 -24.640 -15.534  0.00  0.00    -0.452 OA
BRANCH  17  19
ATOM     18  O   UNL     1      38.573 -23.538 -15.544  0.00  0.00    -0.250 OA
ATOM     19  C   UNL     1      37.864 -24.479 -15.213  0.00  0.00    +0.317 C 
BRANCH  19  20
ATOM     20  C   UNL     1      38.312 -25.655 -14.378  0.00  0.00    +0.110 C 
ATOM     21  C   UNL     1      37.331 -26.812 -14.445  0.00  0.00    +0.012 C 
ENDBRANCH  19  20
ENDBRANCH  17  19
ENDBRANCH   2  17
TORSDOF 5
ENDMDL
MODEL 5
REMARK VINA RESULT:      -7.0     15.447     18.222
REMARK  Name = 12218309
REMARK  5 active torsions:
REMARK  status: ('A' for Active; 'I' for Inactive)
REMARK    1  A    between atoms: C_2  and  C_9
REMARK    2  A    between atoms: C_2  and  O_17
REMARK    3  A    between atoms: C_3  and  C_15
REMARK    4  A    between atoms: O_17  and  C_19
REMARK    5  A    between atoms: C_19  and  C_20
REMARK                            x       y       z     vdW  Elec       q    Type
REMARK                         _______ _______ _______ _____ _____    ______ ____
ROOT
ATOM      1  N   UNL     1      31.324  -5.475 -24.029  0.00  0.00    +0.386 N 
ATOM      2  C   UNL     1      31.876  -8.174 -22.932  0.00  0.00    +0.150 C 
ATOM      3  C   UNL     1      32.497  -6.876 -22.324  0.00  0.00    +0.020 C 
ATOM      4  C   UNL     1      30.567  -7.808 -23.671  0.00  0.00    +0.022 C 
ATOM      5  C   UNL     1      32.619  -5.777 -23.406  0.00  0.00    -0.074 C 
ATOM      6  C   UNL     1      30.762  -6.665 -24.676  0.00  0.00    -0.074 C 
ATOM      7  C   UNL     1      31.461  -4.384 -24.994  0.00  0.00    -0.101 C 
ATOM      8  H   UNL     1      30.680  -5.179 -23.295  0.00  0.00    -0.080 HD
ENDROOT
BRANCH   2   9
ATOM      9  C   UNL     1      31.747  -9.305 -21.912  0.00  0.00    +0.013 C 
ATOM     10  C   UNL     1      32.208  -9.122 -20.609  0.00  0.00    -0.001 C 
ATOM     11  C   UNL     1      31.170 -10.517 -22.287  0.00  0.00    -0.001 C 
ATOM     12  C   UNL     1      32.090 -10.154 -19.679  0.00  0.00    -0.000 C 
ATOM     13  C   UNL     1      31.052 -11.550 -21.355  0.00  0.00    -0.000 C 
ATOM     14  C   UNL     1      31.513 -11.368 -20.051  0.00  0.00    -0.000 C 
ENDBRANCH   2   9
BRANCH   3  15
ATOM     15  C   UNL     1      31.722  -6.343 -21.108  0.00  0.00    +0.002 C 
ATOM     16  C   UNL     1      32.626  -6.217 -19.901  0.00  0.00    +0.000 C 
ENDBRANCH   3  15
BRANCH   2  17
ATOM     17  O   UNL     1      32.753  -8.678 -23.961  0.00  0.00    -0.452 OA
BRANCH  17  19
ATOM     18  O   UNL     1      34.751  -8.182 -22.919  0.00  0.00    -0.250 OA
ATOM     19  C   UNL     1      34.036  -8.934 -23.567  0.00  0.00    +0.317 C 
BRANCH  19  20
ATOM     20  C   UNL     1      34.436 -10.305 -24.060  0.00  0.00    +0.110 C 
ATOM     21  C   UNL     1      35.221 -10.239 -25.359  0.00  0.00    +0.012 C 
ENDBRANCH  19  20
ENDBRANCH  17  19
ENDBRANCH   2  17
TORSDOF 5
ENDMDL
MODEL 6
REMARK VINA RESULT:      -6.8      1.878      4.332
REMARK  Name = 12218309
REMARK  5 active torsions:
REMARK  status: ('A' for Active; 'I' for Inactive)
REMARK    1  A    between atoms: C_2  and  C_9
REMARK    2  A    between atoms: C_2  and  O_17
REMARK    3  A    between atoms: C_3  and  C_15
REMARK    4  A    between atoms: O_17  and  C_19
REMARK    5  A    between atoms: C_19  and  C_20
REMARK                            x       y       z     vdW  Elec       q    Type
REMARK                         _______ _______ _______ _____ _____    ______ ____
ROOT
ATOM      1  N   UNL     1      37.551 -24.352 -15.473  0.00  0.00    +0.386 N 
ATOM      2  C   UNL     1      34.898 -23.867 -14.240  0.00  0.00    +0.150 C 
ATOM      3  C   UNL     1      35.445 -23.007 -15.424  0.00  0.00    +0.020 C 
ATOM      4  C   UNL     1      35.582 -25.254 -14.266  0.00  0.00    +0.022 C 
ATOM      5  C   UNL     1      36.992 -22.996 -15.414  0.00  0.00    -0.074 C 
ATOM      6  C   UNL     1      37.112 -25.151 -14.324  0.00  0.00    -0.074 C 
ATOM      7  C   UNL     1      39.012 -24.303 -15.534  0.00  0.00    -0.101 C 
ATOM      8  H   UNL     1      37.206 -24.800 -16.322  0.00  0.00    -0.080 HD
ENDROOT
BRANCH   2   9
ATOM      9  C   UNL     1      33.371 -23.901 -14.187  0.00  0.00    +0.013 C 
ATOM     10  C   UNL     1      32.646 -22.711 -14.257  0.00  0.00    -0.001 C 
ATOM     11  C   UNL     1      32.705 -25.120 -14.067  0.00  0.00    -0.001 C 
ATOM     12  C   UNL     1      31.253 -22.743 -14.208  0.00  0.00    -0.000 C 
ATOM     13  C   UNL     1      31.311 -25.150 -14.019  0.00  0.00    -0.000 C 
ATOM     14  C   UNL     1      30.585 -23.961 -14.088  0.00  0.00    -0.000 C 
ENDBRANCH   2   9
BRANCH   3  15
ATOM     15  C   UNL     1      34.925 -23.461 -16.798  0.00  0.00    +0.002 C 
ATOM     16  C   UNL     1      34.953 -22.322 -17.793  0.00  0.00    +0.000 C 
ENDBRANCH   3  15
BRANCH   2  17
ATOM     17  O   UNL     1      35.316 -23.271 -12.994  0.00  0.00    -0.452 OA
BRANCH  17  19
ATOM     18  O   UNL     1      34.583 -24.983 -11.632  0.00  0.00    -0.250 OA
ATOM     19  C   UNL     1      35.404 -24.127 -11.933  0.00  0.00    +0.317 C 
BRANCH  19  20
ATOM     20  C   UNL     1      36.686 -23.848 -11.184  0.00  0.00    +0.110 C 
ATOM     21  C   UNL     1      37.468 -22.699 -11.797  0.00  0.00    +0.012 C 
ENDBRANCH  19  20
ENDBRANCH  17  19
ENDBRANCH   2  17
TORSDOF 5
ENDMDL
MODEL 7
REMARK VINA RESULT:      -6.7     14.362     17.154
REMARK  Name = 12218309
REMARK  5 active torsions:
REMARK  status: ('A' for Active; 'I' for Inactive)
REMARK    1  A    between atoms: C_2  and  C_9
REMARK    2  A    between atoms: C_2  and  O_17
REMARK    3  A    between atoms: C_3  and  C_15
REMARK    4  A    between atoms: O_17  and  C_19
REMARK    5  A    between atoms: C_19  and  C_20
REMARK                            x       y       z     vdW  Elec       q    Type
REMARK                         _______ _______ _______ _____ _____    ______ ____
ROOT
ATOM      1  N   UNL     1      32.258 -12.712 -22.694  0.00  0.00    +0.386 N 
ATOM      2  C   UNL     1      32.581  -9.768 -22.855  0.00  0.00    +0.150 C 
ATOM      3  C   UNL     1      33.509 -10.759 -23.627  0.00  0.00    +0.020 C 
ATOM      4  C   UNL     1      31.226 -10.460 -22.574  0.00  0.00    +0.022 C 
ATOM      5  C   UNL     1      33.586 -12.116 -22.887  0.00  0.00    -0.074 C 
ATOM      6  C   UNL     1      31.396 -11.828 -21.900  0.00  0.00    -0.074 C 
ATOM      7  C   UNL     1      32.372 -14.023 -22.056  0.00  0.00    -0.101 C 
ATOM      8  H   UNL     1      31.829 -12.833 -23.611  0.00  0.00    -0.080 HD
ENDROOT
BRANCH   2   9
ATOM      9  C   UNL     1      32.480  -8.401 -23.530  0.00  0.00    +0.013 C 
ATOM     10  C   UNL     1      33.639  -7.696 -23.851  0.00  0.00    -0.001 C 
ATOM     11  C   UNL     1      31.229  -7.861 -23.825  0.00  0.00    -0.001 C 
ATOM     12  C   UNL     1      33.547  -6.448 -24.467  0.00  0.00    -0.000 C 
ATOM     13  C   UNL     1      31.137  -6.612 -24.442  0.00  0.00    -0.000 C 
ATOM     14  C   UNL     1      32.297  -5.906 -24.762  0.00  0.00    -0.000 C 
ENDBRANCH   2   9
BRANCH   3  15
ATOM     15  C   UNL     1      33.087 -10.975 -25.090  0.00  0.00    +0.002 C 
ATOM     16  C   UNL     1      34.206 -11.602 -25.891  0.00  0.00    +0.000 C 
ENDBRANCH   3  15
BRANCH   2  17
ATOM     17  O   UNL     1      33.144  -9.515 -21.551  0.00  0.00    -0.452 OA
BRANCH  17  19
ATOM     18  O   UNL     1      31.334  -9.205 -20.155  0.00  0.00    -0.250 OA
ATOM     19  C   UNL     1      32.354  -8.800 -20.696  0.00  0.00    +0.317 C 
BRANCH  19  20
ATOM     20  C   UNL     1      32.943  -7.420 -20.523  0.00  0.00    +0.110 C 
ATOM     21  C   UNL     1      31.897  -6.328 -20.671  0.00  0.00    +0.012 C 
ENDBRANCH  19  20
ENDBRANCH  17  19
ENDBRANCH   2  17
TORSDOF 5
ENDMDL
MODEL 8
REMARK VINA RESULT:      -6.7      1.938      4.872
REMARK  Name = 12218309
REMARK  5 active torsions:
REMARK  status: ('A' for Active; 'I' for Inactive)
REMARK    1  A    between atoms: C_2  and  C_9
REMARK    2  A    between atoms: C_2  and  O_17
REMARK    3  A    between atoms: C_3  and  C_15
REMARK    4  A    between atoms: O_17  and  C_19
REMARK    5  A    between atoms: C_19  and  C_20
REMARK                            x       y       z     vdW  Elec       q    Type
REMARK                         _______ _______ _______ _____ _____    ______ ____
ROOT
ATOM      1  N   UNL     1      37.347 -23.483 -15.183  0.00  0.00    +0.386 N 
ATOM      2  C   UNL     1      34.405 -23.857 -15.226  0.00  0.00    +0.150 C 
ATOM      3  C   UNL     1      35.374 -24.887 -14.562  0.00  0.00    +0.020 C 
ATOM      4  C   UNL     1      35.086 -22.468 -15.251  0.00  0.00    +0.022 C 
ATOM      5  C   UNL     1      36.766 -24.831 -15.235  0.00  0.00    -0.074 C 
ATOM      6  C   UNL     1      36.488 -22.514 -15.873  0.00  0.00    -0.074 C 
ATOM      7  C   UNL     1      38.690 -23.480 -15.763  0.00  0.00    -0.101 C 
ATOM      8  H   UNL     1      37.416 -23.205 -14.204  0.00  0.00    -0.080 HD
ENDROOT
BRANCH   2   9
ATOM      9  C   UNL     1      33.005 -23.878 -14.614  0.00  0.00    +0.013 C 
ATOM     10  C   UNL     1      32.397 -22.685 -14.226  0.00  0.00    -0.001 C 
ATOM     11  C   UNL     1      32.339 -25.091 -14.444  0.00  0.00    -0.001 C 
ATOM     12  C   UNL     1      31.119 -22.705 -13.667  0.00  0.00    -0.000 C 
ATOM     13  C   UNL     1      31.060 -25.110 -13.885  0.00  0.00    -0.000 C 
ATOM     14  C   UNL     1      30.451 -23.917 -13.496  0.00  0.00    -0.000 C 
ENDBRANCH   2   9
BRANCH   3  15
ATOM     15  C   UNL     1      35.510 -24.702 -13.042  0.00  0.00    +0.002 C 
ATOM     16  C   UNL     1      36.692 -25.479 -12.504  0.00  0.00    +0.000 C 
ENDBRANCH   3  15
BRANCH   2  17
ATOM     17  O   UNL     1      34.226 -24.206 -16.614  0.00  0.00    -0.452 OA
BRANCH  17  19
ATOM     18  O   UNL     1      32.289 -23.076 -17.156  0.00  0.00    -0.250 OA
ATOM     19  C   UNL     1      33.469 -23.337 -17.348  0.00  0.00    +0.317 C 
BRANCH  19  20
ATOM     20  C   UNL     1      34.325 -22.744 -18.442  0.00  0.00    +0.110 C 
ATOM     21  C   UNL     1      33.561 -21.737 -19.284  0.00  0.00    +0.012 C 
ENDBRANCH  19  20
ENDBRANCH  17  19
ENDBRANCH   2  17
TORSDOF 5
ENDMDL
MODEL 9
REMARK VINA RESULT:      -6.5     15.482     18.125
REMARK  Name = 12218309
REMARK  5 active torsions:
REMARK  status: ('A' for Active; 'I' for Inactive)
REMARK    1  A    between atoms: C_2  and  C_9
REMARK    2  A    between atoms: C_2  and  O_17
REMARK    3  A    between atoms: C_3  and  C_15
REMARK    4  A    between atoms: O_17  and  C_19
REMARK    5  A    between atoms: C_19  and  C_20
REMARK                            x       y       z     vdW  Elec       q    Type
REMARK                         _______ _______ _______ _____ _____    ______ ____
ROOT
ATOM      1  N   UNL     1      31.216  -5.317 -22.110  0.00  0.00    +0.386 N 
ATOM      2  C   UNL     1      32.251  -7.988 -22.876  0.00  0.00    +0.150 C 
ATOM      3  C   UNL     1      31.447  -7.083 -23.863  0.00  0.00    +0.020 C 
ATOM      4  C   UNL     1      32.915  -7.096 -21.801  0.00  0.00    +0.022 C 
ATOM      5  C   UNL     1      30.495  -6.146 -23.083  0.00  0.00    -0.074 C 
ATOM      6  C   UNL     1      31.913  -6.151 -21.124  0.00  0.00    -0.074 C 
ATOM      7  C   UNL     1      30.299  -4.394 -21.442  0.00  0.00    -0.101 C 
ATOM      8  H   UNL     1      31.915  -4.771 -22.614  0.00  0.00    -0.080 HD
ENDROOT
BRANCH   2   9
ATOM      9  C   UNL     1      33.199  -8.951 -23.591  0.00  0.00    +0.013 C 
ATOM     10  C   UNL     1      34.524  -8.581 -23.821  0.00  0.00    -0.001 C 
ATOM     11  C   UNL     1      32.737 -10.197 -24.013  0.00  0.00    -0.001 C 
ATOM     12  C   UNL     1      35.388  -9.460 -24.473  0.00  0.00    -0.000 C 
ATOM     13  C   UNL     1      33.603 -11.076 -24.666  0.00  0.00    -0.000 C 
ATOM     14  C   UNL     1      34.928 -10.706 -24.896  0.00  0.00    -0.000 C 
ENDBRANCH   2   9
BRANCH   3  15
ATOM     15  C   UNL     1      32.344  -6.265 -24.807  0.00  0.00    +0.002 C 
ATOM     16  C   UNL     1      31.647  -4.999 -25.256  0.00  0.00    +0.000 C 
ENDBRANCH   3  15
BRANCH   2  17
ATOM     17  O   UNL     1      31.329  -8.824 -22.146  0.00  0.00    -0.452 OA
BRANCH  17  19
ATOM     18  O   UNL     1      32.635  -9.041 -20.257  0.00  0.00    -0.250 OA
ATOM     19  C   UNL     1      31.860  -9.501 -21.085  0.00  0.00    +0.317 C 
BRANCH  19  20
ATOM     20  C   UNL     1      31.335 -10.917 -21.095  0.00  0.00    +0.110 C 
ATOM     21  C   UNL     1      31.557 -11.619 -19.767  0.00  0.00    +0.012 C 
ENDBRANCH  19  20
ENDBRANCH  17  19
ENDBRANCH   2  17
TORSDOF 5
ENDMDL
