MODEL 1
REMARK VINA RESULT:      -9.6      0.000      0.000
REMARK  Name = 3547
REMARK  2 active torsions:
REMARK  status: ('A' for Active; 'I' for Inactive)
REMARK    1  A    between atoms: S_1  and  C_5
REMARK    2  A    between atoms: S_1  and  N_14
REMARK                            x       y       z     vdW  Elec       q    Type
REMARK                         _______ _______ _______ _____ _____    ______ ____
ROOT
ATOM      1  S   UNL     1      35.469 -18.539 -22.510  0.00  0.00    +0.063 S 
ATOM      2  O   UNL     1      34.825 -18.978 -23.731  0.00  0.00    -0.153 OA
ATOM      3  O   UNL     1      36.900 -18.335 -22.430  0.00  0.00    -0.153 OA
ENDROOT
BRANCH   1   5
ATOM      4  N   UNL     1      33.233 -14.445 -25.213  0.00  0.00    -0.242 NA
ATOM      5  C   UNL     1      34.784 -16.917 -22.190  0.00  0.00    +0.122 C 
ATOM      6  C   UNL     1      34.281 -16.127 -23.213  0.00  0.00    +0.022 C 
ATOM      7  C   UNL     1      34.796 -16.516 -20.868  0.00  0.00    +0.020 C 
ATOM      8  C   UNL     1      33.759 -14.860 -22.875  0.00  0.00    +0.020 C 
ATOM      9  C   UNL     1      34.280 -15.264 -20.539  0.00  0.00    +0.001 C 
ATOM     10  C   UNL     1      34.268 -16.530 -24.553  0.00  0.00    +0.022 C 
ATOM     11  C   UNL     1      33.764 -14.438 -21.536  0.00  0.00    +0.002 C 
ATOM     12  C   UNL     1      33.256 -14.074 -23.913  0.00  0.00    +0.099 C 
ATOM     13  C   UNL     1      33.740 -15.664 -25.499  0.00  0.00    +0.099 C 
ENDBRANCH   1   5
BRANCH   1  14
ATOM     14  N   UNL     1      34.973 -19.570 -21.229  0.00  0.00    -0.158 NA
ATOM     15  N   UNL     1      34.673 -22.120 -19.421  0.00  0.00    +0.385 N 
ATOM     16  C   UNL     1      33.590 -20.121 -21.356  0.00  0.00    +0.094 C 
ATOM     17  C   UNL     1      35.994 -20.568 -20.798  0.00  0.00    +0.073 C 
ATOM     18  C   UNL     1      32.978 -20.280 -19.969  0.00  0.00    -0.004 C 
ATOM     19  C   UNL     1      35.719 -21.107 -19.395  0.00  0.00    -0.062 C 
ATOM     20  C   UNL     1      33.315 -21.604 -19.278  0.00  0.00    -0.080 C 
ATOM     21  H   UNL     1      34.846 -22.773 -18.655  0.00  0.00    -0.084 HD
ATOM     22  H   UNL     1      34.719 -22.556 -20.341  0.00  0.00    -0.084 HD
ENDBRANCH   1  14
TORSDOF 2
ENDMDL
MODEL 2
REMARK VINA RESULT:      -9.6      1.410      2.804
REMARK  Name = 3547
REMARK  2 active torsions:
REMARK  status: ('A' for Active; 'I' for Inactive)
REMARK    1  A    between atoms: S_1  and  C_5
REMARK    2  A    between atoms: S_1  and  N_14
REMARK                            x       y       z     vdW  Elec       q    Type
REMARK                         _______ _______ _______ _____ _____    ______ ____
ROOT
ATOM      1  S   UNL     1      35.781 -18.434 -21.315  0.00  0.00    +0.063 S 
ATOM      2  O   UNL     1      37.157 -18.790 -21.598  0.00  0.00    -0.153 OA
ATOM      3  O   UNL     1      35.440 -17.320 -20.458  0.00  0.00    -0.153 OA
ENDROOT
BRANCH   1   5
ATOM      4  N   UNL     1      33.862 -14.076 -23.843  0.00  0.00    -0.242 NA
ATOM      5  C   UNL     1      35.091 -17.983 -22.903  0.00  0.00    +0.122 C 
ATOM      6  C   UNL     1      34.695 -16.683 -23.180  0.00  0.00    +0.022 C 
ATOM      7  C   UNL     1      34.982 -19.011 -23.820  0.00  0.00    +0.020 C 
ATOM      8  C   UNL     1      34.160 -16.411 -24.456  0.00  0.00    +0.020 C 
ATOM      9  C   UNL     1      34.453 -18.739 -25.079  0.00  0.00    +0.001 C 
ATOM     10  C   UNL     1      34.804 -15.638 -22.254  0.00  0.00    +0.022 C 
ATOM     11  C   UNL     1      34.042 -17.445 -25.399  0.00  0.00    +0.002 C 
ATOM     12  C   UNL     1      33.764 -15.098 -24.722  0.00  0.00    +0.099 C 
ATOM     13  C   UNL     1      34.379 -14.374 -22.631  0.00  0.00    +0.099 C 
ENDBRANCH   1   5
BRANCH   1  14
ATOM     14  N   UNL     1      34.953 -19.838 -20.774  0.00  0.00    -0.158 NA
ATOM     15  N   UNL     1      32.927 -21.677 -19.232  0.00  0.00    +0.385 N 
ATOM     16  C   UNL     1      35.682 -20.652 -19.754  0.00  0.00    +0.094 C 
ATOM     17  C   UNL     1      33.506 -19.635 -20.476  0.00  0.00    +0.073 C 
ATOM     18  C   UNL     1      35.345 -22.126 -19.947  0.00  0.00    -0.004 C 
ATOM     19  C   UNL     1      32.726 -20.948 -20.477  0.00  0.00    -0.062 C 
ATOM     20  C   UNL     1      34.072 -22.582 -19.228  0.00  0.00    -0.080 C 
ATOM     21  H   UNL     1      32.087 -22.227 -19.048  0.00  0.00    -0.084 HD
ATOM     22  H   UNL     1      33.114 -20.975 -18.517  0.00  0.00    -0.084 HD
ENDBRANCH   1  14
TORSDOF 2
ENDMDL
MODEL 3
REMARK VINA RESULT:      -9.4      1.321      6.312
REMARK  Name = 3547
REMARK  2 active torsions:
REMARK  status: ('A' for Active; 'I' for Inactive)
REMARK    1  A    between atoms: S_1  and  C_5
REMARK    2  A    between atoms: S_1  and  N_14
REMARK                            x       y       z     vdW  Elec       q    Type
REMARK                         _______ _______ _______ _____ _____    ______ ____
ROOT
ATOM      1  S   UNL     1      35.452 -18.478 -22.389  0.00  0.00    +0.063 S 
ATOM      2  O   UNL     1      36.756 -18.359 -21.771  0.00  0.00    -0.153 OA
ATOM      3  O   UNL     1      35.269 -19.112 -23.677  0.00  0.00    -0.153 OA
ENDROOT
BRANCH   1   5
ATOM      4  N   UNL     1      36.285 -22.156 -18.536  0.00  0.00    -0.242 NA
ATOM      5  C   UNL     1      34.507 -19.503 -21.267  0.00  0.00    +0.122 C 
ATOM      6  C   UNL     1      35.127 -20.369 -20.379  0.00  0.00    +0.022 C 
ATOM      7  C   UNL     1      33.135 -19.371 -21.352  0.00  0.00    +0.020 C 
ATOM      8  C   UNL     1      34.310 -21.143 -19.528  0.00  0.00    +0.020 C 
ATOM      9  C   UNL     1      32.330 -20.138 -20.511  0.00  0.00    +0.001 C 
ATOM     10  C   UNL     1      36.518 -20.505 -20.290  0.00  0.00    +0.022 C 
ATOM     11  C   UNL     1      32.913 -21.020 -19.602  0.00  0.00    +0.002 C 
ATOM     12  C   UNL     1      34.945 -22.011 -18.638  0.00  0.00    +0.099 C 
ATOM     13  C   UNL     1      37.036 -21.399 -19.366  0.00  0.00    +0.099 C 
ENDBRANCH   1   5
BRANCH   1  14
ATOM     14  N   UNL     1      34.714 -16.926 -22.414  0.00  0.00    -0.158 NA
ATOM     15  N   UNL     1      34.278 -13.858 -22.920  0.00  0.00    +0.385 N 
ATOM     16  C   UNL     1      34.740 -16.190 -21.114  0.00  0.00    +0.094 C 
ATOM     17  C   UNL     1      35.058 -16.090 -23.600  0.00  0.00    +0.073 C 
ATOM     18  C   UNL     1      33.482 -15.339 -20.989  0.00  0.00    -0.004 C 
ATOM     19  C   UNL     1      34.044 -14.971 -23.830  0.00  0.00    -0.062 C 
ATOM     20  C   UNL     1      33.586 -13.957 -21.638  0.00  0.00    -0.080 C 
ATOM     21  H   UNL     1      33.969 -13.001 -23.381  0.00  0.00    -0.084 HD
ATOM     22  H   UNL     1      35.275 -13.866 -22.709  0.00  0.00    -0.084 HD
ENDBRANCH   1  14
TORSDOF 2
ENDMDL
MODEL 4
REMARK VINA RESULT:      -9.1      3.918      8.440
REMARK  Name = 3547
REMARK  2 active torsions:
REMARK  status: ('A' for Active; 'I' for Inactive)
REMARK    1  A    between atoms: S_1  and  C_5
REMARK    2  A    between atoms: S_1  and  N_14
REMARK                            x       y       z     vdW  Elec       q    Type
REMARK                         _______ _______ _______ _____ _____    ______ ____
ROOT
ATOM      1  S   UNL     1      33.904 -22.404 -18.927  0.00  0.00    +0.063 S 
ATOM      2  O   UNL     1      34.231 -23.563 -19.732  0.00  0.00    -0.153 OA
ATOM      3  O   UNL     1      32.587 -22.212 -18.360  0.00  0.00    -0.153 OA
ENDROOT
BRANCH   1   5
ATOM      4  N   UNL     1      33.706 -24.087 -13.808  0.00  0.00    -0.242 NA
ATOM      5  C   UNL     1      34.974 -22.525 -17.497  0.00  0.00    +0.122 C 
ATOM      6  C   UNL     1      34.522 -23.045 -16.294  0.00  0.00    +0.022 C 
ATOM      7  C   UNL     1      36.265 -22.066 -17.679  0.00  0.00    +0.020 C 
ATOM      8  C   UNL     1      35.429 -23.105 -15.216  0.00  0.00    +0.020 C 
ATOM      9  C   UNL     1      37.158 -22.126 -16.611  0.00  0.00    +0.001 C 
ATOM     10  C   UNL     1      33.215 -23.511 -16.107  0.00  0.00    +0.022 C 
ATOM     11  C   UNL     1      36.745 -22.642 -15.384  0.00  0.00    +0.002 C 
ATOM     12  C   UNL     1      34.962 -23.631 -14.009  0.00  0.00    +0.099 C 
ATOM     13  C   UNL     1      32.865 -24.014 -14.863  0.00  0.00    +0.099 C 
ENDBRANCH   1   5
BRANCH   1  14
ATOM     14  N   UNL     1      34.358 -20.991 -19.792  0.00  0.00    -0.158 NA
ATOM     15  N   UNL     1      34.490 -18.807 -22.044  0.00  0.00    +0.385 N 
ATOM     16  C   UNL     1      35.668 -21.077 -20.506  0.00  0.00    +0.094 C 
ATOM     17  C   UNL     1      33.264 -20.369 -20.591  0.00  0.00    +0.073 C 
ATOM     18  C   UNL     1      36.333 -19.706 -20.511  0.00  0.00    -0.004 C 
ATOM     19  C   UNL     1      33.556 -18.908 -20.931  0.00  0.00    -0.062 C 
ATOM     20  C   UNL     1      35.900 -18.797 -21.665  0.00  0.00    -0.080 C 
ATOM     21  H   UNL     1      34.291 -17.940 -22.546  0.00  0.00    -0.084 HD
ATOM     22  H   UNL     1      34.350 -19.642 -22.611  0.00  0.00    -0.084 HD
ENDBRANCH   1  14
TORSDOF 2
ENDMDL
MODEL 5
REMARK VINA RESULT:      -8.7      3.966      5.953
REMARK  Name = 3547
REMARK  2 active torsions:
REMARK  status: ('A' for Active; 'I' for Inactive)
REMARK    1  A    between atoms: S_1  and  C_5
REMARK    2  A    between atoms: S_1  and  N_14
REMARK                            x       y       z     vdW  Elec       q    Type
REMARK                         _______ _______ _______ _____ _____    ______ ____
ROOT
ATOM      1  S   UNL     1      33.805 -22.899 -18.587  0.00  0.00    +0.063 S 
ATOM      2  O   UNL     1      32.534 -22.228 -18.409  0.00  0.00    -0.153 OA
ATOM      3  O   UNL     1      33.944 -24.066 -19.432  0.00  0.00    -0.153 OA
ENDROOT
BRANCH   1   5
ATOM      4  N   UNL     1      33.368 -18.332 -21.419  0.00  0.00    -0.242 NA
ATOM      5  C   UNL     1      34.860 -21.678 -19.362  0.00  0.00    +0.122 C 
ATOM      6  C   UNL     1      34.333 -20.586 -20.034  0.00  0.00    +0.022 C 
ATOM      7  C   UNL     1      36.218 -21.904 -19.244  0.00  0.00    +0.020 C 
ATOM      8  C   UNL     1      35.234 -19.670 -20.618  0.00  0.00    +0.020 C 
ATOM      9  C   UNL     1      37.104 -20.997 -19.822  0.00  0.00    +0.001 C 
ATOM     10  C   UNL     1      32.958 -20.354 -20.155  0.00  0.00    +0.022 C 
ATOM     11  C   UNL     1      36.617 -19.885 -20.507  0.00  0.00    +0.002 C 
ATOM     12  C   UNL     1      34.692 -18.574 -21.292  0.00  0.00    +0.099 C 
ATOM     13  C   UNL     1      32.536 -19.229 -20.848  0.00  0.00    +0.099 C 
ENDBRANCH   1   5
BRANCH   1  14
ATOM     14  N   UNL     1      34.465 -23.241 -17.038  0.00  0.00    -0.158 NA
ATOM     15  N   UNL     1      34.821 -23.327 -13.919  0.00  0.00    +0.385 N 
ATOM     16  C   UNL     1      35.620 -22.383 -16.636  0.00  0.00    +0.094 C 
ATOM     17  C   UNL     1      33.455 -23.454 -15.961  0.00  0.00    +0.073 C 
ATOM     18  C   UNL     1      36.580 -23.196 -15.775  0.00  0.00    -0.004 C 
ATOM     19  C   UNL     1      34.034 -24.212 -14.768  0.00  0.00    -0.062 C 
ATOM     20  C   UNL     1      36.230 -23.217 -14.285  0.00  0.00    -0.080 C 
ATOM     21  H   UNL     1      34.768 -23.678 -12.962  0.00  0.00    -0.084 HD
ATOM     22  H   UNL     1      34.422 -22.395 -14.029  0.00  0.00    -0.084 HD
ENDBRANCH   1  14
TORSDOF 2
ENDMDL
MODEL 6
REMARK VINA RESULT:      -8.3      8.984     11.504
REMARK  Name = 3547
REMARK  2 active torsions:
REMARK  status: ('A' for Active; 'I' for Inactive)
REMARK    1  A    between atoms: S_1  and  C_5
REMARK    2  A    between atoms: S_1  and  N_14
REMARK                            x       y       z     vdW  Elec       q    Type
REMARK                         _______ _______ _______ _____ _____    ______ ____
ROOT
ATOM      1  S   UNL     1      34.732 -23.425 -15.608  0.00  0.00    +0.063 S 
ATOM      2  O   UNL     1      35.061 -22.215 -14.882  0.00  0.00    -0.153 OA
ATOM      3  O   UNL     1      34.941 -23.543 -17.035  0.00  0.00    -0.153 OA
ENDROOT
BRANCH   1   5
ATOM      4  N   UNL     1      37.843 -24.190 -11.272  0.00  0.00    -0.242 NA
ATOM      5  C   UNL     1      35.801 -24.679 -14.911  0.00  0.00    +0.122 C 
ATOM      6  C   UNL     1      36.461 -24.484 -13.707  0.00  0.00    +0.022 C 
ATOM      7  C   UNL     1      35.920 -25.839 -15.652  0.00  0.00    +0.020 C 
ATOM      8  C   UNL     1      37.286 -25.523 -13.228  0.00  0.00    +0.020 C 
ATOM      9  C   UNL     1      36.737 -26.863 -15.176  0.00  0.00    +0.001 C 
ATOM     10  C   UNL     1      36.343 -23.310 -12.953  0.00  0.00    +0.022 C 
ATOM     11  C   UNL     1      37.418 -26.708 -13.969  0.00  0.00    +0.002 C 
ATOM     12  C   UNL     1      37.945 -25.314 -12.015  0.00  0.00    +0.099 C 
ATOM     13  C   UNL     1      37.045 -23.217 -11.761  0.00  0.00    +0.099 C 
ENDBRANCH   1   5
BRANCH   1  14
ATOM     14  N   UNL     1      33.113 -23.863 -15.236  0.00  0.00    -0.158 NA
ATOM     15  N   UNL     1      30.013 -23.651 -14.778  0.00  0.00    +0.385 N 
ATOM     16  C   UNL     1      32.806 -23.983 -13.778  0.00  0.00    +0.094 C 
ATOM     17  C   UNL     1      32.073 -23.142 -16.024  0.00  0.00    +0.073 C 
ATOM     18  C   UNL     1      31.764 -25.075 -13.568  0.00  0.00    -0.004 C 
ATOM     19  C   UNL     1      30.735 -23.877 -16.024  0.00  0.00    -0.062 C 
ATOM     20  C   UNL     1      30.315 -24.601 -13.712  0.00  0.00    -0.080 C 
ATOM     21  H   UNL     1      29.014 -23.704 -14.977  0.00  0.00    -0.084 HD
ATOM     22  H   UNL     1      30.309 -22.736 -14.439  0.00  0.00    -0.084 HD
ENDBRANCH   1  14
TORSDOF 2
ENDMDL
MODEL 7
REMARK VINA RESULT:      -8.3      3.040      6.937
REMARK  Name = 3547
REMARK  2 active torsions:
REMARK  status: ('A' for Active; 'I' for Inactive)
REMARK    1  A    between atoms: S_1  and  C_5
REMARK    2  A    between atoms: S_1  and  N_14
REMARK                            x       y       z     vdW  Elec       q    Type
REMARK                         _______ _______ _______ _____ _____    ______ ____
ROOT
ATOM      1  S   UNL     1      33.129 -14.598 -21.590  0.00  0.00    +0.063 S 
ATOM      2  O   UNL     1      31.939 -15.272 -21.114  0.00  0.00    -0.153 OA
ATOM      3  O   UNL     1      34.306 -14.446 -20.761  0.00  0.00    -0.153 OA
ENDROOT
BRANCH   1   5
ATOM      4  N   UNL     1      35.586 -19.313 -22.483  0.00  0.00    -0.242 NA
ATOM      5  C   UNL     1      33.697 -15.591 -22.966  0.00  0.00    +0.122 C 
ATOM      6  C   UNL     1      34.318 -16.816 -22.770  0.00  0.00    +0.022 C 
ATOM      7  C   UNL     1      33.476 -15.054 -24.219  0.00  0.00    +0.020 C 
ATOM      8  C   UNL     1      34.736 -17.536 -23.909  0.00  0.00    +0.020 C 
ATOM      9  C   UNL     1      33.891 -15.768 -25.341  0.00  0.00    +0.001 C 
ATOM     10  C   UNL     1      34.543 -17.363 -21.502  0.00  0.00    +0.022 C 
ATOM     11  C   UNL     1      34.519 -17.003 -25.190  0.00  0.00    +0.002 C 
ATOM     12  C   UNL     1      35.360 -18.767 -23.699  0.00  0.00    +0.099 C 
ATOM     13  C   UNL     1      35.172 -18.596 -21.416  0.00  0.00    +0.099 C 
ENDBRANCH   1   5
BRANCH   1  14
ATOM     14  N   UNL     1      32.676 -13.063 -22.214  0.00  0.00    -0.158 NA
ATOM     15  N   UNL     1      32.862 -10.077 -23.170  0.00  0.00    +0.385 N 
ATOM     16  C   UNL     1      31.946 -12.178 -21.256  0.00  0.00    +0.094 C 
ATOM     17  C   UNL     1      33.735 -12.371 -23.003  0.00  0.00    +0.073 C 
ATOM     18  C   UNL     1      30.942 -11.323 -22.020  0.00  0.00    -0.004 C 
ATOM     19  C   UNL     1      33.161 -11.291 -23.918  0.00  0.00    -0.062 C 
ATOM     20  C   UNL     1      31.522 -10.027 -22.592  0.00  0.00    -0.080 C 
ATOM     21  H   UNL     1      32.964  -9.283 -23.802  0.00  0.00    -0.084 HD
ATOM     22  H   UNL     1      33.513 -10.057 -22.386  0.00  0.00    -0.084 HD
ENDBRANCH   1  14
TORSDOF 2
ENDMDL
MODEL 8
REMARK VINA RESULT:      -8.3      9.262     11.120
REMARK  Name = 3547
REMARK  2 active torsions:
REMARK  status: ('A' for Active; 'I' for Inactive)
REMARK    1  A    between atoms: S_1  and  C_5
REMARK    2  A    between atoms: S_1  and  N_14
REMARK                            x       y       z     vdW  Elec       q    Type
REMARK                         _______ _______ _______ _____ _____    ______ ____
ROOT
ATOM      1  S   UNL     1      32.012 -24.004 -13.608  0.00  0.00    +0.063 S 
ATOM      2  O   UNL     1      32.094 -25.386 -13.183  0.00  0.00    -0.153 OA
ATOM      3  O   UNL     1      31.907 -22.916 -12.659  0.00  0.00    -0.153 OA
ENDROOT
BRANCH   1   5
ATOM      4  N   UNL     1      37.300 -23.987 -12.561  0.00  0.00    -0.242 NA
ATOM      5  C   UNL     1      33.559 -23.693 -14.451  0.00  0.00    +0.122 C 
ATOM      6  C   UNL     1      34.776 -23.798 -13.796  0.00  0.00    +0.022 C 
ATOM      7  C   UNL     1      33.451 -23.342 -15.783  0.00  0.00    +0.020 C 
ATOM      8  C   UNL     1      35.950 -23.535 -14.533  0.00  0.00    +0.020 C 
ATOM      9  C   UNL     1      34.613 -23.082 -16.507  0.00  0.00    +0.001 C 
ATOM     10  C   UNL     1      34.889 -24.153 -12.446  0.00  0.00    +0.022 C 
ATOM     11  C   UNL     1      35.858 -23.178 -15.888  0.00  0.00    +0.002 C 
ATOM     12  C   UNL     1      37.170 -23.645 -13.862  0.00  0.00    +0.099 C 
ATOM     13  C   UNL     1      36.156 -24.231 -11.887  0.00  0.00    +0.099 C 
ENDBRANCH   1   5
BRANCH   1  14
ATOM     14  N   UNL     1      30.754 -23.863 -14.770  0.00  0.00    -0.158 NA
ATOM     15  N   UNL     1      28.001 -23.120 -16.085  0.00  0.00    +0.385 N 
ATOM     16  C   UNL     1      29.942 -25.100 -14.980  0.00  0.00    +0.094 C 
ATOM     17  C   UNL     1      29.950 -22.611 -14.673  0.00  0.00    +0.073 C 
ATOM     18  C   UNL     1      29.494 -25.171 -16.435  0.00  0.00    -0.004 C 
ATOM     19  C   UNL     1      29.202 -22.303 -15.968  0.00  0.00    -0.062 C 
ATOM     20  C   UNL     1      28.198 -24.412 -16.735  0.00  0.00    -0.080 C 
ATOM     21  H   UNL     1      27.313 -22.595 -16.627  0.00  0.00    -0.084 HD
ATOM     22  H   UNL     1      27.698 -23.320 -15.133  0.00  0.00    -0.084 HD
ENDBRANCH   1  14
TORSDOF 2
ENDMDL
MODEL 9
REMARK VINA RESULT:      -8.2      8.247     10.592
REMARK  Name = 3547
REMARK  2 active torsions:
REMARK  status: ('A' for Active; 'I' for Inactive)
REMARK    1  A    between atoms: S_1  and  C_5
REMARK    2  A    between atoms: S_1  and  N_14
REMARK                            x       y       z     vdW  Elec       q    Type
REMARK                         _______ _______ _______ _____ _____    ______ ____
ROOT
ATOM      1  S   UNL     1      32.232  -7.211 -20.837  0.00  0.00    +0.063 S 
ATOM      2  O   UNL     1      33.248  -6.946 -19.840  0.00  0.00    -0.153 OA
ATOM      3  O   UNL     1      31.048  -6.388 -20.962  0.00  0.00    -0.153 OA
ENDROOT
BRANCH   1   5
ATOM      4  N   UNL     1      31.580  -4.568 -25.491  0.00  0.00    -0.242 NA
ATOM      5  C   UNL     1      33.067  -7.003 -22.406  0.00  0.00    +0.122 C 
ATOM      6  C   UNL     1      32.547  -6.192 -23.403  0.00  0.00    +0.022 C 
ATOM      7  C   UNL     1      34.250  -7.702 -22.548  0.00  0.00    +0.020 C 
ATOM      8  C   UNL     1      33.268  -6.082 -24.611  0.00  0.00    +0.020 C 
ATOM      9  C   UNL     1      34.958  -7.593 -23.743  0.00  0.00    +0.001 C 
ATOM     10  C   UNL     1      31.349  -5.481 -23.263  0.00  0.00    +0.022 C 
ATOM     11  C   UNL     1      34.472  -6.787 -24.772  0.00  0.00    +0.002 C 
ATOM     12  C   UNL     1      32.734  -5.263 -25.608  0.00  0.00    +0.099 C 
ATOM     13  C   UNL     1      30.918  -4.697 -24.321  0.00  0.00    +0.099 C 
ENDBRANCH   1   5
BRANCH   1  14
ATOM     14  N   UNL     1      31.764  -8.860 -20.717  0.00  0.00    -0.158 NA
ATOM     15  N   UNL     1      31.789 -11.900 -19.932  0.00  0.00    +0.385 N 
ATOM     16  C   UNL     1      32.056  -9.692 -21.923  0.00  0.00    +0.094 C 
ATOM     17  C   UNL     1      32.107  -9.514 -19.422  0.00  0.00    +0.073 C 
ATOM     18  C   UNL     1      30.978 -10.759 -22.076  0.00  0.00    -0.004 C 
ATOM     19  C   UNL     1      31.273 -10.769 -19.171  0.00  0.00    -0.062 C 
ATOM     20  C   UNL     1      31.237 -12.039 -21.276  0.00  0.00    -0.080 C 
ATOM     21  H   UNL     1      31.577 -12.753 -19.413  0.00  0.00    -0.084 HD
ATOM     22  H   UNL     1      32.788 -11.736 -20.047  0.00  0.00    -0.084 HD
ENDBRANCH   1  14
TORSDOF 2
ENDMDL
