MODEL 1
REMARK VINA RESULT:      -6.1      0.000      0.000
REMARK  Name = 5289579
REMARK  3 active torsions:
REMARK  status: ('A' for Active; 'I' for Inactive)
REMARK    1  A    between atoms: C_3  and  C_14
REMARK    2  A    between atoms: C_5  and  N_9
REMARK    3  A    between atoms: C_14  and  O_15
REMARK                            x       y       z     vdW  Elec       q    Type
REMARK                         _______ _______ _______ _____ _____    ______ ____
ROOT
ATOM      1  N   UNK     1      38.236 -26.819 -14.237  0.00  0.00    +0.382 N 
ATOM      2  C   UNK     1      38.206 -24.572 -13.398  0.00  0.00    -0.013 C 
ATOM      3  C   UNK     1      39.032 -25.859 -13.466  0.00  0.00    +0.037 C 
ATOM      4  C   UNK     1      36.847 -24.977 -13.966  0.00  0.00    -0.044 C 
ATOM      5  C   UNK     1      37.223 -26.059 -14.966  0.00  0.00    -0.134 C 
ATOM      6  C   UNK     1      38.100 -24.008 -11.987  0.00  0.00    -0.002 C 
ATOM      7  H   UNK     1      37.787 -27.485 -13.608  0.00  0.00    -0.087 HD
ATOM      8  H   UNK     1      38.828 -27.342 -14.882  0.00  0.00    -0.087 HD
ENDROOT
BRANCH   5   9
ATOM      9  N   UNK     1      36.084 -26.885 -15.326  0.00  0.00    +0.370 N 
ATOM     10  H   UNK     1      36.022 -27.677 -14.686  0.00  0.00    -0.092 HD
ATOM     11  H   UNK     1      36.201 -27.228 -16.279  0.00  0.00    -0.092 HD
ATOM     12  H   UNK     1      35.230 -26.331 -15.266  0.00  0.00    -0.092 HD
ENDBRANCH   5   9
BRANCH   3  14
ATOM     13  O   UNK     1      40.787 -24.521 -14.493  0.00  0.00    -0.253 OA
ATOM     14  C   UNK     1      40.305 -25.619 -14.256  0.00  0.00    +0.293 C 
BRANCH  14  15
ATOM     15  O   UNK     1      40.840 -26.794 -14.670  0.00  0.00    -0.482 OA
ATOM     16  H   UNK     1      40.779 -27.046 -15.571  0.00  0.00    +0.295 HD
ENDBRANCH  14  15
ENDBRANCH   3  14
TORSDOF 3
ENDMDL
MODEL 2
REMARK VINA RESULT:      -5.8      1.880      2.741
REMARK  Name = 5289579
REMARK  3 active torsions:
REMARK  status: ('A' for Active; 'I' for Inactive)
REMARK    1  A    between atoms: C_3  and  C_14
REMARK    2  A    between atoms: C_5  and  N_9
REMARK    3  A    between atoms: C_14  and  O_15
REMARK                            x       y       z     vdW  Elec       q    Type
REMARK                         _______ _______ _______ _____ _____    ______ ____
ROOT
ATOM      1  N   UNK     1      38.390 -24.105 -13.578  0.00  0.00    +0.382 N 
ATOM      2  C   UNK     1      37.886 -26.345 -14.270  0.00  0.00    -0.013 C 
ATOM      3  C   UNK     1      38.531 -25.028 -14.708  0.00  0.00    +0.037 C 
ATOM      4  C   UNK     1      37.197 -25.997 -12.953  0.00  0.00    -0.044 C 
ATOM      5  C   UNK     1      38.098 -24.908 -12.393  0.00  0.00    -0.134 C 
ATOM      6  C   UNK     1      36.916 -26.904 -15.303  0.00  0.00    -0.002 C 
ATOM      7  H   UNK     1      37.625 -23.453 -13.755  0.00  0.00    -0.087 HD
ATOM      8  H   UNK     1      39.244 -23.563 -13.446  0.00  0.00    -0.087 HD
ENDROOT
BRANCH   5   9
ATOM      9  N   UNK     1      37.434 -24.128 -11.363  0.00  0.00    +0.370 N 
ATOM     10  H   UNK     1      37.444 -24.647 -10.485  0.00  0.00    -0.092 HD
ATOM     11  H   UNK     1      36.469 -23.949 -11.641  0.00  0.00    -0.092 HD
ATOM     12  H   UNK     1      37.922 -23.241 -11.240  0.00  0.00    -0.092 HD
ENDBRANCH   5   9
BRANCH   3  14
ATOM     13  O   UNK     1      40.896 -24.825 -14.168  0.00  0.00    -0.253 OA
ATOM     14  C   UNK     1      40.021 -25.224 -14.922  0.00  0.00    +0.293 C 
BRANCH  14  15
ATOM     15  O   UNK     1      40.254 -25.903 -16.072  0.00  0.00    -0.482 OA
ATOM     16  H   UNK     1      40.382 -26.831 -16.050  0.00  0.00    +0.295 HD
ENDBRANCH  14  15
ENDBRANCH   3  14
TORSDOF 3
ENDMDL
MODEL 3
REMARK VINA RESULT:      -5.7      1.991      2.095
REMARK  Name = 5289579
REMARK  3 active torsions:
REMARK  status: ('A' for Active; 'I' for Inactive)
REMARK    1  A    between atoms: C_3  and  C_14
REMARK    2  A    between atoms: C_5  and  N_9
REMARK    3  A    between atoms: C_14  and  O_15
REMARK                            x       y       z     vdW  Elec       q    Type
REMARK                         _______ _______ _______ _____ _____    ______ ____
ROOT
ATOM      1  N   UNK     1      37.855 -24.565 -15.560  0.00  0.00    +0.382 N 
ATOM      2  C   UNK     1      38.233 -24.852 -13.209  0.00  0.00    -0.013 C 
ATOM      3  C   UNK     1      38.546 -25.424 -14.593  0.00  0.00    +0.037 C 
ATOM      4  C   UNK     1      37.162 -23.797 -13.481  0.00  0.00    -0.044 C 
ATOM      5  C   UNK     1      37.526 -23.317 -14.877  0.00  0.00    -0.134 C 
ATOM      6  C   UNK     1      37.766 -25.910 -12.219  0.00  0.00    -0.002 C 
ATOM      7  H   UNK     1      37.002 -25.021 -15.885  0.00  0.00    -0.087 HD
ATOM      8  H   UNK     1      38.448 -24.388 -16.372  0.00  0.00    -0.087 HD
ENDROOT
BRANCH   5   9
ATOM      9  N   UNK     1      36.424 -22.624 -15.519  0.00  0.00    +0.370 N 
ATOM     10  H   UNK     1      36.722 -22.283 -16.433  0.00  0.00    -0.092 HD
ATOM     11  H   UNK     1      36.133 -21.837 -14.941  0.00  0.00    -0.092 HD
ATOM     12  H   UNK     1      35.640 -23.267 -15.636  0.00  0.00    -0.092 HD
ENDBRANCH   5   9
BRANCH   3  14
ATOM     13  O   UNK     1      40.839 -24.725 -14.173  0.00  0.00    -0.253 OA
ATOM     14  C   UNK     1      40.029 -25.300 -14.886  0.00  0.00    +0.293 C 
BRANCH  14  15
ATOM     15  O   UNK     1      40.340 -25.913 -16.054  0.00  0.00    -0.482 OA
ATOM     16  H   UNK     1      40.147 -26.823 -16.171  0.00  0.00    +0.295 HD
ENDBRANCH  14  15
ENDBRANCH   3  14
TORSDOF 3
ENDMDL
MODEL 4
REMARK VINA RESULT:      -5.6      9.506     10.288
REMARK  Name = 5289579
REMARK  3 active torsions:
REMARK  status: ('A' for Active; 'I' for Inactive)
REMARK    1  A    between atoms: C_3  and  C_14
REMARK    2  A    between atoms: C_5  and  N_9
REMARK    3  A    between atoms: C_14  and  O_15
REMARK                            x       y       z     vdW  Elec       q    Type
REMARK                         _______ _______ _______ _____ _____    ______ ____
ROOT
ATOM      1  N   UNK     1      36.047 -19.198 -20.388  0.00  0.00    +0.382 N 
ATOM      2  C   UNK     1      33.905 -20.079 -21.010  0.00  0.00    -0.013 C 
ATOM      3  C   UNK     1      34.861 -18.899 -21.198  0.00  0.00    +0.037 C 
ATOM      4  C   UNK     1      34.543 -20.895 -19.887  0.00  0.00    -0.044 C 
ATOM      5  C   UNK     1      36.025 -20.629 -20.095  0.00  0.00    -0.134 C 
ATOM      6  C   UNK     1      32.484 -19.645 -20.677  0.00  0.00    -0.002 C 
ATOM      7  H   UNK     1      36.020 -18.663 -19.520  0.00  0.00    -0.087 HD
ATOM      8  H   UNK     1      36.899 -18.945 -20.890  0.00  0.00    -0.087 HD
ENDROOT
BRANCH   5   9
ATOM      9  N   UNK     1      36.806 -20.949 -18.913  0.00  0.00    +0.370 N 
ATOM     10  H   UNK     1      37.422 -21.736 -19.115  0.00  0.00    -0.092 HD
ATOM     11  H   UNK     1      36.179 -21.196 -18.148  0.00  0.00    -0.092 HD
ATOM     12  H   UNK     1      37.365 -20.139 -18.645  0.00  0.00    -0.092 HD
ENDBRANCH   5   9
BRANCH   3  14
ATOM     13  O   UNK     1      34.757 -19.351 -23.587  0.00  0.00    -0.253 OA
ATOM     14  C   UNK     1      35.328 -18.831 -22.640  0.00  0.00    +0.293 C 
BRANCH  14  15
ATOM     15  O   UNK     1      36.473 -18.112 -22.739  0.00  0.00    -0.482 OA
ATOM     16  H   UNK     1      37.299 -18.551 -22.796  0.00  0.00    +0.295 HD
ENDBRANCH  14  15
ENDBRANCH   3  14
TORSDOF 3
ENDMDL
MODEL 5
REMARK VINA RESULT:      -5.6      2.291      3.063
REMARK  Name = 5289579
REMARK  3 active torsions:
REMARK  status: ('A' for Active; 'I' for Inactive)
REMARK    1  A    between atoms: C_3  and  C_14
REMARK    2  A    between atoms: C_5  and  N_9
REMARK    3  A    between atoms: C_14  and  O_15
REMARK                            x       y       z     vdW  Elec       q    Type
REMARK                         _______ _______ _______ _____ _____    ______ ____
ROOT
ATOM      1  N   UNK     1      36.907 -24.589 -13.990  0.00  0.00    +0.382 N 
ATOM      2  C   UNK     1      39.025 -25.656 -13.634  0.00  0.00    -0.013 C 
ATOM      3  C   UNK     1      38.248 -24.351 -13.449  0.00  0.00    +0.037 C 
ATOM      4  C   UNK     1      38.106 -26.510 -14.505  0.00  0.00    -0.044 C 
ATOM      5  C   UNK     1      36.725 -26.036 -14.082  0.00  0.00    -0.134 C 
ATOM      6  C   UNK     1      40.395 -25.448 -14.265  0.00  0.00    -0.002 C 
ATOM      7  H   UNK     1      36.824 -24.168 -14.916  0.00  0.00    -0.087 HD
ATOM      8  H   UNK     1      36.196 -24.173 -13.388  0.00  0.00    -0.087 HD
ENDROOT
BRANCH   5   9
ATOM      9  N   UNK     1      35.707 -26.391 -15.055  0.00  0.00    +0.370 N 
ATOM     10  H   UNK     1      35.143 -25.569 -15.273  0.00  0.00    -0.092 HD
ATOM     11  H   UNK     1      35.108 -27.121 -14.670  0.00  0.00    -0.092 HD
ATOM     12  H   UNK     1      36.154 -26.733 -15.906  0.00  0.00    -0.092 HD
ENDBRANCH   5   9
BRANCH   3  14
ATOM     13  O   UNK     1      37.492 -24.779 -11.175  0.00  0.00    -0.253 OA
ATOM     14  C   UNK     1      38.071 -24.054 -11.971  0.00  0.00    +0.293 C 
BRANCH  14  15
ATOM     15  O   UNK     1      38.643 -22.869 -11.649  0.00  0.00    -0.482 OA
ATOM     16  H   UNK     1      39.189 -22.802 -10.890  0.00  0.00    +0.295 HD
ENDBRANCH  14  15
ENDBRANCH   3  14
TORSDOF 3
ENDMDL
MODEL 6
REMARK VINA RESULT:      -5.6      8.791      9.648
REMARK  Name = 5289579
REMARK  3 active torsions:
REMARK  status: ('A' for Active; 'I' for Inactive)
REMARK    1  A    between atoms: C_3  and  C_14
REMARK    2  A    between atoms: C_5  and  N_9
REMARK    3  A    between atoms: C_14  and  O_15
REMARK                            x       y       z     vdW  Elec       q    Type
REMARK                         _______ _______ _______ _____ _____    ______ ____
ROOT
ATOM      1  N   UNK     1      29.594 -24.734 -15.335  0.00  0.00    +0.382 N 
ATOM      2  C   UNK     1      31.000 -22.953 -16.111  0.00  0.00    -0.013 C 
ATOM      3  C   UNK     1      29.888 -23.922 -16.519  0.00  0.00    +0.037 C 
ATOM      4  C   UNK     1      31.434 -23.451 -14.733  0.00  0.00    -0.044 C 
ATOM      5  C   UNK     1      30.144 -24.033 -14.177  0.00  0.00    -0.134 C 
ATOM      6  C   UNK     1      32.154 -22.919 -17.105  0.00  0.00    -0.002 C 
ATOM      7  H   UNK     1      30.028 -25.653 -15.425  0.00  0.00    -0.087 HD
ATOM      8  H   UNK     1      28.587 -24.869 -15.231  0.00  0.00    -0.087 HD
ENDROOT
BRANCH   5   9
ATOM      9  N   UNK     1      30.388 -24.934 -13.065  0.00  0.00    +0.370 N 
ATOM     10  H   UNK     1      29.663 -25.650 -13.043  0.00  0.00    -0.092 HD
ATOM     11  H   UNK     1      30.374 -24.409 -12.192  0.00  0.00    -0.092 HD
ATOM     12  H   UNK     1      31.300 -25.377 -13.181  0.00  0.00    -0.092 HD
ENDBRANCH   5   9
BRANCH   3  14
ATOM     13  O   UNK     1      28.431 -21.973 -16.587  0.00  0.00    -0.253 OA
ATOM     14  C   UNK     1      28.620 -23.153 -16.842  0.00  0.00    +0.293 C 
BRANCH  14  15
ATOM     15  O   UNK     1      27.717 -23.956 -17.455  0.00  0.00    -0.482 OA
ATOM     16  H   UNK     1      26.997 -23.581 -17.924  0.00  0.00    +0.295 HD
ENDBRANCH  14  15
ENDBRANCH   3  14
TORSDOF 3
ENDMDL
MODEL 7
REMARK VINA RESULT:      -5.5     12.564     13.220
REMARK  Name = 5289579
REMARK  3 active torsions:
REMARK  status: ('A' for Active; 'I' for Inactive)
REMARK    1  A    between atoms: C_3  and  C_14
REMARK    2  A    between atoms: C_5  and  N_9
REMARK    3  A    between atoms: C_14  and  O_15
REMARK                            x       y       z     vdW  Elec       q    Type
REMARK                         _______ _______ _______ _____ _____    ______ ____
ROOT
ATOM      1  N   UNK     1      36.072 -17.782 -22.890  0.00  0.00    +0.382 N 
ATOM      2  C   UNK     1      34.347 -16.127 -22.692  0.00  0.00    -0.013 C 
ATOM      3  C   UNK     1      35.380 -16.733 -23.645  0.00  0.00    +0.037 C 
ATOM      4  C   UNK     1      34.689 -16.746 -21.338  0.00  0.00    -0.044 C 
ATOM      5  C   UNK     1      35.241 -18.106 -21.733  0.00  0.00    -0.134 C 
ATOM      6  C   UNK     1      34.387 -14.605 -22.662  0.00  0.00    -0.002 C 
ATOM      7  H   UNK     1      36.984 -17.445 -22.581  0.00  0.00    -0.087 HD
ATOM      8  H   UNK     1      36.220 -18.607 -23.471  0.00  0.00    -0.087 HD
ENDROOT
BRANCH   5   9
ATOM      9  N   UNK     1      36.016 -18.710 -20.663  0.00  0.00    +0.370 N 
ATOM     10  H   UNK     1      35.815 -18.230 -19.786  0.00  0.00    -0.092 HD
ATOM     11  H   UNK     1      37.010 -18.627 -20.876  0.00  0.00    -0.092 HD
ATOM     12  H   UNK     1      35.768 -19.695 -20.578  0.00  0.00    -0.092 HD
ENDBRANCH   5   9
BRANCH   3  14
ATOM     13  O   UNK     1      34.269 -18.574 -24.786  0.00  0.00    -0.253 OA
ATOM     14  C   UNK     1      34.680 -17.424 -24.802  0.00  0.00    +0.293 C 
BRANCH  14  15
ATOM     15  O   UNK     1      34.574 -16.589 -25.864  0.00  0.00    -0.482 OA
ATOM     16  H   UNK     1      35.262 -16.548 -26.499  0.00  0.00    +0.295 HD
ENDBRANCH  14  15
ENDBRANCH   3  14
TORSDOF 3
ENDMDL
MODEL 8
REMARK VINA RESULT:      -5.4     11.993     12.739
REMARK  Name = 5289579
REMARK  3 active torsions:
REMARK  status: ('A' for Active; 'I' for Inactive)
REMARK    1  A    between atoms: C_3  and  C_14
REMARK    2  A    between atoms: C_5  and  N_9
REMARK    3  A    between atoms: C_14  and  O_15
REMARK                            x       y       z     vdW  Elec       q    Type
REMARK                         _______ _______ _______ _____ _____    ______ ____
ROOT
ATOM      1  N   UNK     1      35.473 -16.507 -23.009  0.00  0.00    +0.382 N 
ATOM      2  C   UNK     1      34.579 -18.494 -22.006  0.00  0.00    -0.013 C 
ATOM      3  C   UNK     1      35.237 -17.144 -21.710  0.00  0.00    +0.037 C 
ATOM      4  C   UNK     1      34.694 -18.633 -23.523  0.00  0.00    -0.044 C 
ATOM      5  C   UNK     1      34.628 -17.187 -23.988  0.00  0.00    -0.134 C 
ATOM      6  C   UNK     1      35.236 -19.651 -21.266  0.00  0.00    -0.002 C 
ATOM      7  H   UNK     1      36.454 -16.600 -23.270  0.00  0.00    -0.087 HD
ATOM      8  H   UNK     1      35.249 -15.512 -22.968  0.00  0.00    -0.087 HD
ENDROOT
BRANCH   5   9
ATOM      9  N   UNK     1      35.133 -17.027 -25.340  0.00  0.00    +0.370 N 
ATOM     10  H   UNK     1      34.798 -17.795 -25.921  0.00  0.00    -0.092 HD
ATOM     11  H   UNK     1      36.152 -17.031 -25.325  0.00  0.00    -0.092 HD
ATOM     12  H   UNK     1      34.803 -16.141 -25.723  0.00  0.00    -0.092 HD
ENDBRANCH   5   9
BRANCH   3  14
ATOM     13  O   UNK     1      33.054 -16.298 -21.045  0.00  0.00    -0.253 OA
ATOM     14  C   UNK     1      34.272 -16.248 -20.957  0.00  0.00    +0.293 C 
BRANCH  14  15
ATOM     15  O   UNK     1      34.945 -15.375 -20.168  0.00  0.00    -0.482 OA
ATOM     16  H   UNK     1      35.240 -15.642 -19.319  0.00  0.00    +0.295 HD
ENDBRANCH  14  15
ENDBRANCH   3  14
TORSDOF 3
ENDMDL
MODEL 9
REMARK VINA RESULT:      -5.4      2.709      3.553
REMARK  Name = 5289579
REMARK  3 active torsions:
REMARK  status: ('A' for Active; 'I' for Inactive)
REMARK    1  A    between atoms: C_3  and  C_14
REMARK    2  A    between atoms: C_5  and  N_9
REMARK    3  A    between atoms: C_14  and  O_15
REMARK                            x       y       z     vdW  Elec       q    Type
REMARK                         _______ _______ _______ _____ _____    ______ ____
ROOT
ATOM      1  N   UNK     1      38.437 -25.405 -15.239  0.00  0.00    +0.382 N 
ATOM      2  C   UNK     1      37.322 -24.648 -13.256  0.00  0.00    -0.013 C 
ATOM      3  C   UNK     1      37.197 -24.777 -14.776  0.00  0.00    +0.037 C 
ATOM      4  C   UNK     1      38.776 -25.023 -12.974  0.00  0.00    -0.044 C 
ATOM      5  C   UNK     1      39.073 -26.024 -14.079  0.00  0.00    -0.134 C 
ATOM      6  C   UNK     1      36.972 -23.257 -12.746  0.00  0.00    -0.002 C 
ATOM      7  H   UNK     1      39.056 -24.701 -15.642  0.00  0.00    -0.087 HD
ATOM      8  H   UNK     1      38.241 -26.103 -15.959  0.00  0.00    -0.087 HD
ENDROOT
BRANCH   5   9
ATOM      9  N   UNK     1      40.500 -26.206 -14.278  0.00  0.00    +0.370 N 
ATOM     10  H   UNK     1      40.931 -25.307 -14.493  0.00  0.00    -0.092 HD
ATOM     11  H   UNK     1      40.656 -26.851 -15.052  0.00  0.00    -0.092 HD
ATOM     12  H   UNK     1      40.916 -26.589 -13.428  0.00  0.00    -0.092 HD
ENDBRANCH   5   9
BRANCH   3  14
ATOM     13  O   UNK     1      36.183 -26.716 -15.844  0.00  0.00    -0.253 OA
ATOM     14  C   UNK     1      36.071 -25.733 -15.127  0.00  0.00    +0.293 C 
BRANCH  14  15
ATOM     15  O   UNK     1      34.914 -25.346 -14.536  0.00  0.00    -0.482 OA
ATOM     16  H   UNK     1      34.715 -24.435 -14.446  0.00  0.00    +0.295 HD
ENDBRANCH  14  15
ENDBRANCH   3  14
TORSDOF 3
ENDMDL
