MODEL 1
REMARK VINA RESULT:      -9.7      0.000      0.000
REMARK  Name = 3335
REMARK  6 active torsions:
REMARK  status: ('A' for Active; 'I' for Inactive)
REMARK    1  A    between atoms: C_1  and  C_14
REMARK    2  A    between atoms: C_2  and  C_7
REMARK    3  A    between atoms: C_14  and  C_15
REMARK    4  A    between atoms: C_15  and  C_16
REMARK    5  A    between atoms: C_16  and  C_18
REMARK    6  A    between atoms: C_18  and  O_19
REMARK                            x       y       z     vdW  Elec       q    Type
REMARK                         _______ _______ _______ _____ _____    ______ ____
ROOT
ATOM      1  C   UNL     1      35.463 -21.020 -19.526  0.00  0.00    +0.035 C 
ATOM      2  C   UNL     1      35.131 -19.289 -21.639  0.00  0.00    +0.000 C 
ATOM      3  C   UNL     1      36.571 -20.388 -20.042  0.00  0.00    +0.003 C 
ATOM      4  C   UNL     1      34.195 -20.823 -20.025  0.00  0.00    +0.003 C 
ATOM      5  C   UNL     1      36.403 -19.510 -21.112  0.00  0.00    +0.000 C 
ATOM      6  C   UNL     1      34.026 -19.946 -21.096  0.00  0.00    +0.000 C 
ENDROOT
BRANCH   2   7
ATOM      7  C   UNL     1      34.955 -18.379 -22.751  0.00  0.00    +0.000 C 
ATOM      8  C   UNL     1      34.653 -18.877 -24.019  0.00  0.00    +0.000 C 
ATOM      9  C   UNL     1      35.089 -17.005 -22.556  0.00  0.00    +0.000 C 
ATOM     10  C   UNL     1      34.484 -18.001 -25.090  0.00  0.00    +0.000 C 
ATOM     11  C   UNL     1      34.920 -16.128 -23.627  0.00  0.00    +0.000 C 
ATOM     12  C   UNL     1      34.617 -16.626 -24.894  0.00  0.00    +0.000 C 
ENDBRANCH   2   7
BRANCH   1  14
ATOM     13  O   UNL     1      34.779 -22.804 -18.157  0.00  0.00    -0.291 OA
ATOM     14  C   UNL     1      35.642 -21.959 -18.380  0.00  0.00    +0.174 C 
BRANCH  14  15
ATOM     15  C   UNL     1      36.894 -21.838 -17.526  0.00  0.00    +0.081 C 
BRANCH  15  16
ATOM     16  C   UNL     1      36.625 -22.166 -16.061  0.00  0.00    +0.117 C 
BRANCH  16  18
ATOM     17  O   UNL     1      36.451 -24.509 -15.503  0.00  0.00    -0.250 OA
ATOM     18  C   UNL     1      37.158 -23.530 -15.707  0.00  0.00    +0.314 C 
BRANCH  18  19
ATOM     19  O   UNL     1      38.511 -23.555 -15.626  0.00  0.00    -0.480 OA
ATOM     20  H   UNL     1      38.941 -24.256 -15.176  0.00  0.00    +0.295 HD
ENDBRANCH  18  19
ENDBRANCH  16  18
ENDBRANCH  15  16
ENDBRANCH  14  15
ENDBRANCH   1  14
TORSDOF 6
ENDMDL
MODEL 2
REMARK VINA RESULT:      -9.6      2.132      3.273
REMARK  Name = 3335
REMARK  6 active torsions:
REMARK  status: ('A' for Active; 'I' for Inactive)
REMARK    1  A    between atoms: C_1  and  C_14
REMARK    2  A    between atoms: C_2  and  C_7
REMARK    3  A    between atoms: C_14  and  C_15
REMARK    4  A    between atoms: C_15  and  C_16
REMARK    5  A    between atoms: C_16  and  C_18
REMARK    6  A    between atoms: C_18  and  O_19
REMARK                            x       y       z     vdW  Elec       q    Type
REMARK                         _______ _______ _______ _____ _____    ______ ____
ROOT
ATOM      1  C   UNL     1      34.671 -21.368 -19.377  0.00  0.00    +0.035 C 
ATOM      2  C   UNL     1      34.717 -19.526 -21.421  0.00  0.00    +0.000 C 
ATOM      3  C   UNL     1      33.474 -20.919 -19.888  0.00  0.00    +0.003 C 
ATOM      4  C   UNL     1      35.890 -20.932 -19.845  0.00  0.00    +0.003 C 
ATOM      5  C   UNL     1      33.498 -19.986 -20.925  0.00  0.00    +0.000 C 
ATOM      6  C   UNL     1      35.914 -19.999 -20.881  0.00  0.00    +0.000 C 
ENDROOT
BRANCH   2   7
ATOM      7  C   UNL     1      34.742 -18.557 -22.496  0.00  0.00    +0.000 C 
ATOM      8  C   UNL     1      34.884 -17.199 -22.207  0.00  0.00    +0.000 C 
ATOM      9  C   UNL     1      34.624 -18.979 -23.819  0.00  0.00    +0.000 C 
ATOM     10  C   UNL     1      34.909 -16.265 -23.242  0.00  0.00    +0.000 C 
ATOM     11  C   UNL     1      34.648 -18.045 -24.854  0.00  0.00    +0.000 C 
ATOM     12  C   UNL     1      34.791 -16.688 -24.566  0.00  0.00    +0.000 C 
ENDBRANCH   2   7
BRANCH   1  14
ATOM     13  O   UNL     1      35.655 -22.530 -17.586  0.00  0.00    -0.291 OA
ATOM     14  C   UNL     1      34.646 -22.367 -18.268  0.00  0.00    +0.174 C 
BRANCH  14  15
ATOM     15  C   UNL     1      33.368 -23.151 -18.020  0.00  0.00    +0.081 C 
BRANCH  15  16
ATOM     16  C   UNL     1      33.062 -23.297 -16.533  0.00  0.00    +0.117 C 
BRANCH  16  18
ATOM     17  O   UNL     1      31.033 -24.035 -15.452  0.00  0.00    -0.250 OA
ATOM     18  C   UNL     1      31.575 -23.326 -16.289  0.00  0.00    +0.314 C 
BRANCH  18  19
ATOM     19  O   UNL     1      30.897 -22.485 -17.108  0.00  0.00    -0.480 OA
ATOM     20  H   UNL     1      31.365 -21.927 -17.699  0.00  0.00    +0.295 HD
ENDBRANCH  18  19
ENDBRANCH  16  18
ENDBRANCH  15  16
ENDBRANCH  14  15
ENDBRANCH   1  14
TORSDOF 6
ENDMDL
MODEL 3
REMARK VINA RESULT:      -9.6      5.106      8.989
REMARK  Name = 3335
REMARK  6 active torsions:
REMARK  status: ('A' for Active; 'I' for Inactive)
REMARK    1  A    between atoms: C_1  and  C_14
REMARK    2  A    between atoms: C_2  and  C_7
REMARK    3  A    between atoms: C_14  and  C_15
REMARK    4  A    between atoms: C_15  and  C_16
REMARK    5  A    between atoms: C_16  and  C_18
REMARK    6  A    between atoms: C_18  and  O_19
REMARK                            x       y       z     vdW  Elec       q    Type
REMARK                         _______ _______ _______ _____ _____    ______ ____
ROOT
ATOM      1  C   UNL     1      34.518 -17.161 -23.843  0.00  0.00    +0.035 C 
ATOM      2  C   UNL     1      34.761 -19.047 -21.855  0.00  0.00    +0.000 C 
ATOM      3  C   UNL     1      34.623 -18.486 -24.200  0.00  0.00    +0.003 C 
ATOM      4  C   UNL     1      34.530 -16.739 -22.533  0.00  0.00    +0.003 C 
ATOM      5  C   UNL     1      34.746 -19.441 -23.192  0.00  0.00    +0.000 C 
ATOM      6  C   UNL     1      34.654 -17.695 -21.525  0.00  0.00    +0.000 C 
ENDROOT
BRANCH   2   7
ATOM      7  C   UNL     1      34.889 -20.038 -20.808  0.00  0.00    +0.000 C 
ATOM      8  C   UNL     1      33.749 -20.644 -20.279  0.00  0.00    +0.000 C 
ATOM      9  C   UNL     1      36.151 -20.388 -20.328  0.00  0.00    +0.000 C 
ATOM     10  C   UNL     1      33.871 -21.600 -19.271  0.00  0.00    +0.000 C 
ATOM     11  C   UNL     1      36.273 -21.344 -19.320  0.00  0.00    +0.000 C 
ATOM     12  C   UNL     1      35.134 -21.950 -18.792  0.00  0.00    +0.000 C 
ENDBRANCH   2   7
BRANCH   1  14
ATOM     13  O   UNL     1      34.889 -16.356 -26.021  0.00  0.00    -0.291 OA
ATOM     14  C   UNL     1      34.386 -16.137 -24.922  0.00  0.00    +0.174 C 
BRANCH  14  15
ATOM     15  C   UNL     1      33.629 -14.854 -24.621  0.00  0.00    +0.081 C 
BRANCH  15  16
ATOM     16  C   UNL     1      32.762 -14.409 -25.794  0.00  0.00    +0.117 C 
BRANCH  16  18
ATOM     17  O   UNL     1      33.574 -12.173 -26.211  0.00  0.00    -0.250 OA
ATOM     18  C   UNL     1      33.446 -13.330 -26.592  0.00  0.00    +0.314 C 
BRANCH  18  19
ATOM     19  O   UNL     1      33.897 -13.776 -27.790  0.00  0.00    -0.480 OA
ATOM     20  H   UNL     1      33.857 -13.219 -28.543  0.00  0.00    +0.295 HD
ENDBRANCH  18  19
ENDBRANCH  16  18
ENDBRANCH  15  16
ENDBRANCH  14  15
ENDBRANCH   1  14
TORSDOF 6
ENDMDL
MODEL 4
REMARK VINA RESULT:      -9.6      1.465      1.818
REMARK  Name = 3335
REMARK  6 active torsions:
REMARK  status: ('A' for Active; 'I' for Inactive)
REMARK    1  A    between atoms: C_1  and  C_14
REMARK    2  A    between atoms: C_2  and  C_7
REMARK    3  A    between atoms: C_14  and  C_15
REMARK    4  A    between atoms: C_15  and  C_16
REMARK    5  A    between atoms: C_16  and  C_18
REMARK    6  A    between atoms: C_18  and  O_19
REMARK                            x       y       z     vdW  Elec       q    Type
REMARK                         _______ _______ _______ _____ _____    ______ ____
ROOT
ATOM      1  C   UNL     1      34.336 -21.791 -19.104  0.00  0.00    +0.035 C 
ATOM      2  C   UNL     1      34.578 -19.768 -20.954  0.00  0.00    +0.000 C 
ATOM      3  C   UNL     1      35.596 -21.419 -19.514  0.00  0.00    +0.003 C 
ATOM      4  C   UNL     1      33.191 -21.194 -19.583  0.00  0.00    +0.003 C 
ATOM      5  C   UNL     1      35.719 -20.393 -20.451  0.00  0.00    +0.000 C 
ATOM      6  C   UNL     1      33.314 -20.169 -20.520  0.00  0.00    +0.000 C 
ENDROOT
BRANCH   2   7
ATOM      7  C   UNL     1      34.705 -18.705 -21.928  0.00  0.00    +0.000 C 
ATOM      8  C   UNL     1      34.766 -19.009 -23.288  0.00  0.00    +0.000 C 
ATOM      9  C   UNL     1      34.766 -17.377 -21.506  0.00  0.00    +0.000 C 
ATOM     10  C   UNL     1      34.888 -17.985 -24.226  0.00  0.00    +0.000 C 
ATOM     11  C   UNL     1      34.888 -16.352 -22.445  0.00  0.00    +0.000 C 
ATOM     12  C   UNL     1      34.948 -16.656 -23.805  0.00  0.00    +0.000 C 
ENDBRANCH   2   7
BRANCH   1  14
ATOM     13  O   UNL     1      33.504 -23.862 -18.366  0.00  0.00    -0.291 OA
ATOM     14  C   UNL     1      34.204 -22.888 -18.101  0.00  0.00    +0.174 C 
BRANCH  14  15
ATOM     15  C   UNL     1      34.945 -22.761 -16.779  0.00  0.00    +0.081 C 
BRANCH  15  16
ATOM     16  C   UNL     1      34.181 -23.406 -15.627  0.00  0.00    +0.117 C 
BRANCH  16  18
ATOM     17  O   UNL     1      35.880 -25.122 -15.624  0.00  0.00    -0.250 OA
ATOM     18  C   UNL     1      34.950 -24.568 -15.054  0.00  0.00    +0.314 C 
BRANCH  18  19
ATOM     19  O   UNL     1      34.491 -24.944 -13.835  0.00  0.00    -0.480 OA
ATOM     20  H   UNL     1      35.066 -25.363 -13.226  0.00  0.00    +0.295 HD
ENDBRANCH  18  19
ENDBRANCH  16  18
ENDBRANCH  15  16
ENDBRANCH  14  15
ENDBRANCH   1  14
TORSDOF 6
ENDMDL
MODEL 5
REMARK VINA RESULT:      -9.3      4.897      8.185
REMARK  Name = 3335
REMARK  6 active torsions:
REMARK  status: ('A' for Active; 'I' for Inactive)
REMARK    1  A    between atoms: C_1  and  C_14
REMARK    2  A    between atoms: C_2  and  C_7
REMARK    3  A    between atoms: C_14  and  C_15
REMARK    4  A    between atoms: C_15  and  C_16
REMARK    5  A    between atoms: C_16  and  C_18
REMARK    6  A    between atoms: C_18  and  O_19
REMARK                            x       y       z     vdW  Elec       q    Type
REMARK                         _______ _______ _______ _____ _____    ______ ____
ROOT
ATOM      1  C   UNL     1      34.587 -17.101 -23.525  0.00  0.00    +0.035 C 
ATOM      2  C   UNL     1      34.708 -19.096 -21.633  0.00  0.00    +0.000 C 
ATOM      3  C   UNL     1      34.611 -16.748 -22.195  0.00  0.00    +0.003 C 
ATOM      4  C   UNL     1      34.621 -18.411 -23.948  0.00  0.00    +0.003 C 
ATOM      5  C   UNL     1      34.673 -17.759 -21.236  0.00  0.00    +0.000 C 
ATOM      6  C   UNL     1      34.682 -19.422 -22.989  0.00  0.00    +0.000 C 
ENDROOT
BRANCH   2   7
ATOM      7  C   UNL     1      34.772 -20.145 -20.638  0.00  0.00    +0.000 C 
ATOM      8  C   UNL     1      36.010 -20.578 -20.161  0.00  0.00    +0.000 C 
ATOM      9  C   UNL     1      33.598 -20.724 -20.158  0.00  0.00    +0.000 C 
ATOM     10  C   UNL     1      36.072 -21.589 -19.202  0.00  0.00    +0.000 C 
ATOM     11  C   UNL     1      33.661 -21.735 -19.199  0.00  0.00    +0.000 C 
ATOM     12  C   UNL     1      34.897 -22.167 -18.721  0.00  0.00    +0.000 C 
ENDBRANCH   2   7
BRANCH   1  14
ATOM     13  O   UNL     1      34.591 -16.318 -25.741  0.00  0.00    -0.291 OA
ATOM     14  C   UNL     1      34.521 -16.020 -24.551  0.00  0.00    +0.174 C 
BRANCH  14  15
ATOM     15  C   UNL     1      34.368 -14.581 -24.087  0.00  0.00    +0.081 C 
BRANCH  15  16
ATOM     16  C   UNL     1      32.923 -14.101 -24.167  0.00  0.00    +0.117 C 
BRANCH  16  18
ATOM     17  O   UNL     1      32.121 -14.444 -21.915  0.00  0.00    -0.250 OA
ATOM     18  C   UNL     1      32.423 -13.668 -22.813  0.00  0.00    +0.314 C 
BRANCH  18  19
ATOM     19  O   UNL     1      32.330 -12.321 -22.699  0.00  0.00    -0.480 OA
ATOM     20  H   UNL     1      31.515 -11.890 -22.871  0.00  0.00    +0.295 HD
ENDBRANCH  18  19
ENDBRANCH  16  18
ENDBRANCH  15  16
ENDBRANCH  14  15
ENDBRANCH   1  14
TORSDOF 6
ENDMDL
MODEL 6
REMARK VINA RESULT:      -9.1      2.534      4.734
REMARK  Name = 3335
REMARK  6 active torsions:
REMARK  status: ('A' for Active; 'I' for Inactive)
REMARK    1  A    between atoms: C_1  and  C_14
REMARK    2  A    between atoms: C_2  and  C_7
REMARK    3  A    between atoms: C_14  and  C_15
REMARK    4  A    between atoms: C_15  and  C_16
REMARK    5  A    between atoms: C_16  and  C_18
REMARK    6  A    between atoms: C_18  and  O_19
REMARK                            x       y       z     vdW  Elec       q    Type
REMARK                         _______ _______ _______ _____ _____    ______ ____
ROOT
ATOM      1  C   UNL     1      35.118 -23.613 -16.005  0.00  0.00    +0.035 C 
ATOM      2  C   UNL     1      34.737 -22.027 -18.221  0.00  0.00    +0.000 C 
ATOM      3  C   UNL     1      33.906 -23.666 -16.654  0.00  0.00    +0.003 C 
ATOM      4  C   UNL     1      36.149 -22.798 -16.419  0.00  0.00    +0.003 C 
ATOM      5  C   UNL     1      33.713 -22.863 -17.777  0.00  0.00    +0.000 C 
ATOM      6  C   UNL     1      35.956 -21.994 -17.542  0.00  0.00    +0.000 C 
ENDROOT
BRANCH   2   7
ATOM      7  C   UNL     1      34.537 -21.192 -19.387  0.00  0.00    +0.000 C 
ATOM      8  C   UNL     1      35.638 -20.710 -20.095  0.00  0.00    +0.000 C 
ATOM      9  C   UNL     1      33.246 -20.871 -19.802  0.00  0.00    +0.000 C 
ATOM     10  C   UNL     1      35.447 -19.906 -21.219  0.00  0.00    +0.000 C 
ATOM     11  C   UNL     1      33.054 -20.067 -20.925  0.00  0.00    +0.000 C 
ATOM     12  C   UNL     1      34.154 -19.585 -21.634  0.00  0.00    +0.000 C 
ENDBRANCH   2   7
BRANCH   1  14
ATOM     13  O   UNL     1      36.047 -25.463 -14.892  0.00  0.00    -0.291 OA
ATOM     14  C   UNL     1      35.326 -24.472 -14.803  0.00  0.00    +0.174 C 
BRANCH  14  15
ATOM     15  C   UNL     1      34.636 -24.090 -13.504  0.00  0.00    +0.081 C 
BRANCH  15  16
ATOM     16  C   UNL     1      35.632 -23.728 -12.408  0.00  0.00    +0.117 C 
BRANCH  16  18
ATOM     17  O   UNL     1      35.312 -24.789 -10.263  0.00  0.00    -0.250 OA
ATOM     18  C   UNL     1      35.757 -24.843 -11.402  0.00  0.00    +0.314 C 
BRANCH  18  19
ATOM     19  O   UNL     1      36.429 -25.913 -11.892  0.00  0.00    -0.480 OA
ATOM     20  H   UNL     1      36.864 -26.502 -11.307  0.00  0.00    +0.295 HD
ENDBRANCH  18  19
ENDBRANCH  16  18
ENDBRANCH  15  16
ENDBRANCH  14  15
ENDBRANCH   1  14
TORSDOF 6
ENDMDL
MODEL 7
REMARK VINA RESULT:      -9.1      5.682      9.311
REMARK  Name = 3335
REMARK  6 active torsions:
REMARK  status: ('A' for Active; 'I' for Inactive)
REMARK    1  A    between atoms: C_1  and  C_14
REMARK    2  A    between atoms: C_2  and  C_7
REMARK    3  A    between atoms: C_14  and  C_15
REMARK    4  A    between atoms: C_15  and  C_16
REMARK    5  A    between atoms: C_16  and  C_18
REMARK    6  A    between atoms: C_18  and  O_19
REMARK                            x       y       z     vdW  Elec       q    Type
REMARK                         _______ _______ _______ _____ _____    ______ ____
ROOT
ATOM      1  C   UNL     1      33.980 -15.436 -23.614  0.00  0.00    +0.035 C 
ATOM      2  C   UNL     1      34.644 -17.640 -22.106  0.00  0.00    +0.000 C 
ATOM      3  C   UNL     1      34.469 -16.551 -24.255  0.00  0.00    +0.003 C 
ATOM      4  C   UNL     1      33.809 -15.377 -22.249  0.00  0.00    +0.003 C 
ATOM      5  C   UNL     1      34.805 -17.668 -23.491  0.00  0.00    +0.000 C 
ATOM      6  C   UNL     1      34.146 -16.494 -21.485  0.00  0.00    +0.000 C 
ENDROOT
BRANCH   2   7
ATOM      7  C   UNL     1      34.993 -18.799 -21.312  0.00  0.00    +0.000 C 
ATOM      8  C   UNL     1      36.329 -19.054 -21.002  0.00  0.00    +0.000 C 
ATOM      9  C   UNL     1      33.995 -19.661 -20.859  0.00  0.00    +0.000 C 
ATOM     10  C   UNL     1      36.666 -20.170 -20.237  0.00  0.00    +0.000 C 
ATOM     11  C   UNL     1      34.332 -20.778 -20.094  0.00  0.00    +0.000 C 
ATOM     12  C   UNL     1      35.667 -21.032 -19.783  0.00  0.00    +0.000 C 
ENDBRANCH   2   7
BRANCH   1  14
ATOM     13  O   UNL     1      33.294 -14.393 -25.606  0.00  0.00    -0.291 OA
ATOM     14  C   UNL     1      33.619 -14.240 -24.431  0.00  0.00    +0.174 C 
BRANCH  14  15
ATOM     15  C   UNL     1      33.665 -12.869 -23.778  0.00  0.00    +0.081 C 
BRANCH  15  16
ATOM     16  C   UNL     1      33.880 -11.754 -24.796  0.00  0.00    +0.117 C 
BRANCH  16  18
ATOM     17  O   UNL     1      33.244  -9.765 -23.582  0.00  0.00    -0.250 OA
ATOM     18  C   UNL     1      34.123 -10.435 -24.108  0.00  0.00    +0.314 C 
BRANCH  18  19
ATOM     19  O   UNL     1      35.426 -10.063 -24.144  0.00  0.00    -0.480 OA
ATOM     20  H   UNL     1      36.101 -10.708 -24.066  0.00  0.00    +0.295 HD
ENDBRANCH  18  19
ENDBRANCH  16  18
ENDBRANCH  15  16
ENDBRANCH  14  15
ENDBRANCH   1  14
TORSDOF 6
ENDMDL
MODEL 8
REMARK VINA RESULT:      -9.1      2.115      3.935
REMARK  Name = 3335
REMARK  6 active torsions:
REMARK  status: ('A' for Active; 'I' for Inactive)
REMARK    1  A    between atoms: C_1  and  C_14
REMARK    2  A    between atoms: C_2  and  C_7
REMARK    3  A    between atoms: C_14  and  C_15
REMARK    4  A    between atoms: C_15  and  C_16
REMARK    5  A    between atoms: C_16  and  C_18
REMARK    6  A    between atoms: C_18  and  O_19
REMARK                            x       y       z     vdW  Elec       q    Type
REMARK                         _______ _______ _______ _____ _____    ______ ____
ROOT
ATOM      1  C   UNL     1      35.229 -18.414 -21.655  0.00  0.00    +0.035 C 
ATOM      2  C   UNL     1      34.423 -16.412 -23.362  0.00  0.00    +0.000 C 
ATOM      3  C   UNL     1      35.179 -18.678 -23.005  0.00  0.00    +0.003 C 
ATOM      4  C   UNL     1      34.891 -17.190 -21.123  0.00  0.00    +0.003 C 
ATOM      5  C   UNL     1      34.771 -17.663 -23.870  0.00  0.00    +0.000 C 
ATOM      6  C   UNL     1      34.482 -16.175 -21.988  0.00  0.00    +0.000 C 
ENDROOT
BRANCH   2   7
ATOM      7  C   UNL     1      33.998 -15.358 -24.259  0.00  0.00    +0.000 C 
ATOM      8  C   UNL     1      33.622 -15.666 -25.567  0.00  0.00    +0.000 C 
ATOM      9  C   UNL     1      33.967 -14.036 -23.817  0.00  0.00    +0.000 C 
ATOM     10  C   UNL     1      33.213 -14.652 -26.432  0.00  0.00    +0.000 C 
ATOM     11  C   UNL     1      33.558 -13.021 -24.683  0.00  0.00    +0.000 C 
ATOM     12  C   UNL     1      33.180 -13.329 -25.989  0.00  0.00    +0.000 C 
ENDBRANCH   2   7
BRANCH   1  14
ATOM     13  O   UNL     1      36.828 -19.516 -20.330  0.00  0.00    -0.291 OA
ATOM     14  C   UNL     1      35.666 -19.500 -20.729  0.00  0.00    +0.174 C 
BRANCH  14  15
ATOM     15  C   UNL     1      34.653 -20.551 -20.307  0.00  0.00    +0.081 C 
BRANCH  15  16
ATOM     16  C   UNL     1      35.286 -21.656 -19.468  0.00  0.00    +0.117 C 
BRANCH  16  18
ATOM     17  O   UNL     1      34.439 -23.061 -17.696  0.00  0.00    -0.250 OA
ATOM     18  C   UNL     1      34.233 -22.447 -18.735  0.00  0.00    +0.314 C 
BRANCH  18  19
ATOM     19  O   UNL     1      33.030 -22.415 -19.359  0.00  0.00    -0.480 OA
ATOM     20  H   UNL     1      32.602 -21.595 -19.510  0.00  0.00    +0.295 HD
ENDBRANCH  18  19
ENDBRANCH  16  18
ENDBRANCH  15  16
ENDBRANCH  14  15
ENDBRANCH   1  14
TORSDOF 6
ENDMDL
MODEL 9
REMARK VINA RESULT:      -9.0      2.944      5.115
REMARK  Name = 3335
REMARK  6 active torsions:
REMARK  status: ('A' for Active; 'I' for Inactive)
REMARK    1  A    between atoms: C_1  and  C_14
REMARK    2  A    between atoms: C_2  and  C_7
REMARK    3  A    between atoms: C_14  and  C_15
REMARK    4  A    between atoms: C_15  and  C_16
REMARK    5  A    between atoms: C_16  and  C_18
REMARK    6  A    between atoms: C_18  and  O_19
REMARK                            x       y       z     vdW  Elec       q    Type
REMARK                         _______ _______ _______ _____ _____    ______ ____
ROOT
ATOM      1  C   UNL     1      36.711 -23.524 -15.355  0.00  0.00    +0.035 C 
ATOM      2  C   UNL     1      35.698 -22.252 -17.575  0.00  0.00    +0.000 C 
ATOM      3  C   UNL     1      37.542 -22.702 -16.082  0.00  0.00    +0.003 C 
ATOM      4  C   UNL     1      35.393 -23.737 -15.694  0.00  0.00    +0.003 C 
ATOM      5  C   UNL     1      37.028 -22.057 -17.206  0.00  0.00    +0.000 C 
ATOM      6  C   UNL     1      34.880 -23.093 -16.819  0.00  0.00    +0.000 C 
ENDROOT
BRANCH   2   7
ATOM      7  C   UNL     1      35.164 -21.584 -18.743  0.00  0.00    +0.000 C 
ATOM      8  C   UNL     1      36.021 -20.900 -19.606  0.00  0.00    +0.000 C 
ATOM      9  C   UNL     1      33.795 -21.622 -19.005  0.00  0.00    +0.000 C 
ATOM     10  C   UNL     1      35.508 -20.256 -20.732  0.00  0.00    +0.000 C 
ATOM     11  C   UNL     1      33.282 -20.978 -20.130  0.00  0.00    +0.000 C 
ATOM     12  C   UNL     1      34.138 -20.295 -20.994  0.00  0.00    +0.000 C 
ENDBRANCH   2   7
BRANCH   1  14
ATOM     13  O   UNL     1      37.059 -23.730 -13.039  0.00  0.00    -0.291 OA
ATOM     14  C   UNL     1      37.260 -24.214 -14.151  0.00  0.00    +0.174 C 
BRANCH  14  15
ATOM     15  C   UNL     1      38.050 -25.498 -14.342  0.00  0.00    +0.081 C 
BRANCH  15  16
ATOM     16  C   UNL     1      39.454 -25.402 -13.756  0.00  0.00    +0.117 C 
BRANCH  16  18
ATOM     17  O   UNL     1      40.498 -25.879 -15.881  0.00  0.00    -0.250 OA
ATOM     18  C   UNL     1      40.465 -26.047 -14.669  0.00  0.00    +0.314 C 
BRANCH  18  19
ATOM     19  O   UNL     1      41.332 -26.848 -14.001  0.00  0.00    -0.480 OA
ATOM     20  H   UNL     1      41.507 -26.696 -13.093  0.00  0.00    +0.295 HD
ENDBRANCH  18  19
ENDBRANCH  16  18
ENDBRANCH  15  16
ENDBRANCH  14  15
ENDBRANCH   1  14
TORSDOF 6
ENDMDL
