MODEL 1
REMARK VINA RESULT:      -9.5      0.000      0.000
REMARK  Name = 57380301
REMARK  6 active torsions:
REMARK  status: ('A' for Active; 'I' for Inactive)
REMARK    1  A    between atoms: N_1  and  N_15
REMARK    2  A    between atoms: C_2  and  C_4
REMARK    3  A    between atoms: C_2  and  C_10
REMARK    4  A    between atoms: N_15  and  C_18
REMARK    5  A    between atoms: C_18  and  N_19
REMARK    6  A    between atoms: N_19  and  C_21
REMARK                            x       y       z     vdW  Elec       q    Type
REMARK                         _______ _______ _______ _____ _____    ______ ____
ROOT
ATOM      1  N   UNL     1      33.167  -9.756 -23.886  0.00  0.00    -0.177 NA
ATOM      2  C   UNL     1      32.468  -9.066 -23.030  0.00  0.00    +0.134 C 
ENDROOT
BRANCH   2   4
ATOM      3  N   UNL     1      31.001  -7.158 -22.826  0.00  0.00    -0.242 NA
ATOM      4  C   UNL     1      32.138  -7.645 -23.373  0.00  0.00    +0.102 C 
ATOM      5  C   UNL     1      32.972  -6.916 -24.205  0.00  0.00    +0.021 C 
ATOM      6  C   UNL     1      32.620  -5.602 -24.492  0.00  0.00    +0.003 C 
ATOM      7  C   UNL     1      30.690  -5.877 -23.127  0.00  0.00    +0.099 C 
ATOM      8  C   UNL     1      31.458  -5.064 -23.946  0.00  0.00    +0.021 C 
ENDBRANCH   2   4
BRANCH   2  10
ATOM      9  N   UNL     1      31.180 -10.686 -21.812  0.00  0.00    -0.242 NA
ATOM     10  C   UNL     1      31.978  -9.598 -21.736  0.00  0.00    +0.102 C 
ATOM     11  C   UNL     1      32.341  -8.984 -20.547  0.00  0.00    +0.021 C 
ATOM     12  C   UNL     1      31.854  -9.524 -19.361  0.00  0.00    +0.003 C 
ATOM     13  C   UNL     1      30.726 -11.182 -20.640  0.00  0.00    +0.099 C 
ATOM     14  C   UNL     1      31.031 -10.643 -19.400  0.00  0.00    +0.021 C 
ENDBRANCH   2  10
BRANCH   1  15
ATOM     15  N   UNL     1      33.476 -11.045 -23.593  0.00  0.00    -0.218 N 
ATOM     16  H   UNL     1      33.437 -11.349 -22.658  0.00  0.00    +0.176 HD
BRANCH  15  18
ATOM     17  S   UNL     1      34.537 -11.440 -26.054  0.00  0.00    -0.017 S 
ATOM     18  C   UNL     1      33.847 -11.948 -24.592  0.00  0.00    +0.154 C 
BRANCH  18  19
ATOM     19  N   UNL     1      33.596 -13.317 -24.273  0.00  0.00    -0.290 N 
ATOM     20  C   UNL     1      33.071 -14.250 -25.283  0.00  0.00    +0.114 C 
BRANCH  19  21
ATOM     21  C   UNL     1      33.825 -13.894 -22.971  0.00  0.00    +0.074 C 
ATOM     22  C   UNL     1      34.555 -15.233 -23.098  0.00  0.00    +0.020 C 
ATOM     23  C   UNL     1      32.506 -14.049 -22.208  0.00  0.00    +0.020 C 
ATOM     24  C   UNL     1      34.764 -15.891 -21.737  0.00  0.00    +0.002 C 
ATOM     25  C   UNL     1      32.718 -14.708 -20.847  0.00  0.00    +0.002 C 
ATOM     26  C   UNL     1      33.449 -16.042 -20.977  0.00  0.00    +0.000 C 
ENDBRANCH  19  21
ENDBRANCH  18  19
ENDBRANCH  15  18
ENDBRANCH   1  15
TORSDOF 6
ENDMDL
MODEL 2
REMARK VINA RESULT:      -9.4      1.099      1.706
REMARK  Name = 57380301
REMARK  6 active torsions:
REMARK  status: ('A' for Active; 'I' for Inactive)
REMARK    1  A    between atoms: N_1  and  N_15
REMARK    2  A    between atoms: C_2  and  C_4
REMARK    3  A    between atoms: C_2  and  C_10
REMARK    4  A    between atoms: N_15  and  C_18
REMARK    5  A    between atoms: C_18  and  N_19
REMARK    6  A    between atoms: N_19  and  C_21
REMARK                            x       y       z     vdW  Elec       q    Type
REMARK                         _______ _______ _______ _____ _____    ______ ____
ROOT
ATOM      1  N   UNL     1      33.387 -10.159 -23.950  0.00  0.00    -0.177 NA
ATOM      2  C   UNL     1      32.656  -9.368 -23.217  0.00  0.00    +0.134 C 
ENDROOT
BRANCH   2   4
ATOM      3  N   UNL     1      31.060  -7.647 -23.784  0.00  0.00    -0.242 NA
ATOM      4  C   UNL     1      32.366  -7.993 -23.738  0.00  0.00    +0.102 C 
ATOM      5  C   UNL     1      33.402  -7.165 -24.139  0.00  0.00    +0.021 C 
ATOM      6  C   UNL     1      33.078  -5.900 -24.616  0.00  0.00    +0.003 C 
ATOM      7  C   UNL     1      30.782  -6.409 -24.254  0.00  0.00    +0.099 C 
ATOM      8  C   UNL     1      31.744  -5.506 -24.677  0.00  0.00    +0.021 C 
ENDBRANCH   2   4
BRANCH   2  10
ATOM      9  N   UNL     1      31.311 -10.843 -21.883  0.00  0.00    -0.242 NA
ATOM     10  C   UNL     1      32.093  -9.741 -21.897  0.00  0.00    +0.102 C 
ATOM     11  C   UNL     1      32.378  -8.977 -20.776  0.00  0.00    +0.021 C 
ATOM     12  C   UNL     1      31.825  -9.372 -19.562  0.00  0.00    +0.003 C 
ATOM     13  C   UNL     1      30.792 -11.196 -20.686  0.00  0.00    +0.099 C 
ATOM     14  C   UNL     1      31.015 -10.500 -19.508  0.00  0.00    +0.021 C 
ENDBRANCH   2  10
BRANCH   1  15
ATOM     15  N   UNL     1      33.662 -11.407 -23.494  0.00  0.00    -0.218 N 
ATOM     16  H   UNL     1      33.893 -11.534 -22.546  0.00  0.00    +0.176 HD
BRANCH  15  18
ATOM     17  S   UNL     1      33.725 -12.364 -26.028  0.00  0.00    -0.017 S 
ATOM     18  C   UNL     1      33.621 -12.516 -24.343  0.00  0.00    +0.154 C 
BRANCH  18  19
ATOM     19  N   UNL     1      33.487 -13.769 -23.672  0.00  0.00    -0.290 N 
ATOM     20  C   UNL     1      32.430 -13.987 -22.671  0.00  0.00    +0.114 C 
BRANCH  19  21
ATOM     21  C   UNL     1      34.349 -14.902 -23.905  0.00  0.00    +0.074 C 
ATOM     22  C   UNL     1      33.779 -15.791 -25.012  0.00  0.00    +0.020 C 
ATOM     23  C   UNL     1      34.565 -15.693 -22.612  0.00  0.00    +0.020 C 
ATOM     24  C   UNL     1      34.646 -17.027 -25.243  0.00  0.00    +0.002 C 
ATOM     25  C   UNL     1      35.431 -16.928 -22.845  0.00  0.00    +0.002 C 
ATOM     26  C   UNL     1      34.862 -17.812 -23.952  0.00  0.00    +0.000 C 
ENDBRANCH  19  21
ENDBRANCH  18  19
ENDBRANCH  15  18
ENDBRANCH   1  15
TORSDOF 6
ENDMDL
MODEL 3
REMARK VINA RESULT:      -9.4      3.119      5.965
REMARK  Name = 57380301
REMARK  6 active torsions:
REMARK  status: ('A' for Active; 'I' for Inactive)
REMARK    1  A    between atoms: N_1  and  N_15
REMARK    2  A    between atoms: C_2  and  C_4
REMARK    3  A    between atoms: C_2  and  C_10
REMARK    4  A    between atoms: N_15  and  C_18
REMARK    5  A    between atoms: C_18  and  N_19
REMARK    6  A    between atoms: N_19  and  C_21
REMARK                            x       y       z     vdW  Elec       q    Type
REMARK                         _______ _______ _______ _____ _____    ______ ____
ROOT
ATOM      1  N   UNL     1      34.207 -14.618 -22.499  0.00  0.00    -0.177 NA
ATOM      2  C   UNL     1      33.484 -13.695 -23.067  0.00  0.00    +0.134 C 
ENDROOT
BRANCH   2   4
ATOM      3  N   UNL     1      32.231 -11.653 -22.759  0.00  0.00    -0.242 NA
ATOM      4  C   UNL     1      32.670 -12.797 -22.186  0.00  0.00    +0.102 C 
ATOM      5  C   UNL     1      32.410 -13.154 -20.873  0.00  0.00    +0.021 C 
ATOM      6  C   UNL     1      31.651 -12.285 -20.099  0.00  0.00    +0.003 C 
ATOM      7  C   UNL     1      31.496 -10.832 -21.976  0.00  0.00    +0.099 C 
ATOM      8  C   UNL     1      31.180 -11.099 -20.654  0.00  0.00    +0.021 C 
ENDBRANCH   2   4
BRANCH   2  10
ATOM      9  N   UNL     1      32.866 -14.483 -25.250  0.00  0.00    -0.242 NA
ATOM     10  C   UNL     1      33.414 -13.478 -24.532  0.00  0.00    +0.102 C 
ATOM     11  C   UNL     1      33.894 -12.301 -25.086  0.00  0.00    +0.021 C 
ATOM     12  C   UNL     1      33.803 -12.147 -26.465  0.00  0.00    +0.003 C 
ATOM     13  C   UNL     1      32.795 -14.298 -26.586  0.00  0.00    +0.099 C 
ATOM     14  C   UNL     1      33.246 -13.160 -27.237  0.00  0.00    +0.021 C 
ENDBRANCH   2  10
BRANCH   1  15
ATOM     15  N   UNL     1      34.951 -15.442 -23.280  0.00  0.00    -0.218 N 
ATOM     16  H   UNL     1      35.620 -15.054 -23.888  0.00  0.00    +0.176 HD
BRANCH  15  18
ATOM     17  S   UNL     1      34.613 -17.758 -24.642  0.00  0.00    -0.017 S 
ATOM     18  C   UNL     1      34.787 -16.829 -23.237  0.00  0.00    +0.154 C 
BRANCH  18  19
ATOM     19  N   UNL     1      34.779 -17.381 -21.921  0.00  0.00    -0.290 N 
ATOM     20  C   UNL     1      34.912 -16.521 -20.733  0.00  0.00    +0.114 C 
BRANCH  19  21
ATOM     21  C   UNL     1      34.645 -18.790 -21.640  0.00  0.00    +0.074 C 
ATOM     22  C   UNL     1      33.347 -19.064 -20.878  0.00  0.00    +0.020 C 
ATOM     23  C   UNL     1      35.863 -19.307 -20.871  0.00  0.00    +0.020 C 
ATOM     24  C   UNL     1      33.205 -20.542 -20.523  0.00  0.00    +0.002 C 
ATOM     25  C   UNL     1      35.718 -20.785 -20.517  0.00  0.00    +0.002 C 
ATOM     26  C   UNL     1      34.422 -21.057 -19.758  0.00  0.00    +0.000 C 
ENDBRANCH  19  21
ENDBRANCH  18  19
ENDBRANCH  15  18
ENDBRANCH   1  15
TORSDOF 6
ENDMDL
MODEL 4
REMARK VINA RESULT:      -9.3      2.068      7.907
REMARK  Name = 57380301
REMARK  6 active torsions:
REMARK  status: ('A' for Active; 'I' for Inactive)
REMARK    1  A    between atoms: N_1  and  N_15
REMARK    2  A    between atoms: C_2  and  C_4
REMARK    3  A    between atoms: C_2  and  C_10
REMARK    4  A    between atoms: N_15  and  C_18
REMARK    5  A    between atoms: C_18  and  N_19
REMARK    6  A    between atoms: N_19  and  C_21
REMARK                            x       y       z     vdW  Elec       q    Type
REMARK                         _______ _______ _______ _____ _____    ______ ____
ROOT
ATOM      1  N   UNL     1      32.467 -13.241 -22.196  0.00  0.00    -0.177 NA
ATOM      2  C   UNL     1      33.118 -13.960 -23.066  0.00  0.00    +0.134 C 
ENDROOT
BRANCH   2   4
ATOM      3  N   UNL     1      34.850 -15.623 -23.338  0.00  0.00    -0.242 NA
ATOM      4  C   UNL     1      33.818 -15.193 -22.577  0.00  0.00    +0.102 C 
ATOM      5  C   UNL     1      33.398 -15.820 -21.415  0.00  0.00    +0.021 C 
ATOM      6  C   UNL     1      34.081 -16.960 -21.007  0.00  0.00    +0.003 C 
ATOM      7  C   UNL     1      35.490 -16.734 -22.911  0.00  0.00    +0.099 C 
ATOM      8  C   UNL     1      35.149 -17.432 -21.763  0.00  0.00    +0.021 C 
ENDBRANCH   2   4
BRANCH   2  10
ATOM      9  N   UNL     1      33.764 -12.439 -24.808  0.00  0.00    -0.242 NA
ATOM     10  C   UNL     1      33.213 -13.636 -24.509  0.00  0.00    +0.102 C 
ATOM     11  C   UNL     1      32.752 -14.536 -25.457  0.00  0.00    +0.021 C 
ATOM     12  C   UNL     1      32.865 -14.183 -26.798  0.00  0.00    +0.003 C 
ATOM     13  C   UNL     1      33.857 -12.131 -26.120  0.00  0.00    +0.099 C 
ATOM     14  C   UNL     1      33.426 -12.960 -27.144  0.00  0.00    +0.021 C 
ENDBRANCH   2  10
BRANCH   1  15
ATOM     15  N   UNL     1      31.827 -12.121 -22.619  0.00  0.00    -0.218 N 
ATOM     16  H   UNL     1      31.425 -12.106 -23.517  0.00  0.00    +0.176 HD
BRANCH  15  18
ATOM     17  S   UNL     1      31.118 -11.067 -20.227  0.00  0.00    -0.017 S 
ATOM     18  C   UNL     1      31.728 -10.990 -21.806  0.00  0.00    +0.154 C 
BRANCH  18  19
ATOM     19  N   UNL     1      32.181  -9.782 -22.417  0.00  0.00    -0.290 N 
ATOM     20  C   UNL     1      33.280  -9.790 -23.398  0.00  0.00    +0.114 C 
BRANCH  19  21
ATOM     21  C   UNL     1      31.623  -8.481 -22.139  0.00  0.00    +0.074 C 
ATOM     22  C   UNL     1      31.376  -7.714 -23.439  0.00  0.00    +0.020 C 
ATOM     23  C   UNL     1      32.533  -7.693 -21.192  0.00  0.00    +0.020 C 
ATOM     24  C   UNL     1      30.834  -6.312 -23.171  0.00  0.00    +0.002 C 
ATOM     25  C   UNL     1      31.988  -6.292 -20.925  0.00  0.00    +0.002 C 
ATOM     26  C   UNL     1      31.740  -5.530 -22.224  0.00  0.00    +0.000 C 
ENDBRANCH  19  21
ENDBRANCH  18  19
ENDBRANCH  15  18
ENDBRANCH   1  15
TORSDOF 6
ENDMDL
MODEL 5
REMARK VINA RESULT:      -9.1      1.954      7.792
REMARK  Name = 57380301
REMARK  6 active torsions:
REMARK  status: ('A' for Active; 'I' for Inactive)
REMARK    1  A    between atoms: N_1  and  N_15
REMARK    2  A    between atoms: C_2  and  C_4
REMARK    3  A    between atoms: C_2  and  C_10
REMARK    4  A    between atoms: N_15  and  C_18
REMARK    5  A    between atoms: C_18  and  N_19
REMARK    6  A    between atoms: N_19  and  C_21
REMARK                            x       y       z     vdW  Elec       q    Type
REMARK                         _______ _______ _______ _____ _____    ______ ____
ROOT
ATOM      1  N   UNL     1      32.821 -12.748 -22.165  0.00  0.00    -0.177 NA
ATOM      2  C   UNL     1      33.300 -13.580 -23.046  0.00  0.00    +0.134 C 
ENDROOT
BRANCH   2   4
ATOM      3  N   UNL     1      34.880 -15.397 -23.238  0.00  0.00    -0.242 NA
ATOM      4  C   UNL     1      33.823 -14.898 -22.558  0.00  0.00    +0.102 C 
ATOM      5  C   UNL     1      33.229 -15.528 -21.477  0.00  0.00    +0.021 C 
ATOM      6  C   UNL     1      33.753 -16.748 -21.065  0.00  0.00    +0.003 C 
ATOM      7  C   UNL     1      35.362 -16.586 -22.811  0.00  0.00    +0.099 C 
ATOM      8  C   UNL     1      34.841 -17.294 -21.740  0.00  0.00    +0.021 C 
ENDBRANCH   2   4
BRANCH   2  10
ATOM      9  N   UNL     1      33.955 -12.146 -24.857  0.00  0.00    -0.242 NA
ATOM     10  C   UNL     1      33.361 -13.307 -24.501  0.00  0.00    +0.102 C 
ATOM     11  C   UNL     1      32.827 -14.214 -25.404  0.00  0.00    +0.021 C 
ATOM     12  C   UNL     1      32.912 -13.909 -26.759  0.00  0.00    +0.003 C 
ATOM     13  C   UNL     1      34.018 -11.884 -26.181  0.00  0.00    +0.099 C 
ATOM     14  C   UNL     1      33.516 -12.724 -27.163  0.00  0.00    +0.021 C 
ENDBRANCH   2  10
BRANCH   1  15
ATOM     15  N   UNL     1      32.343 -11.550 -22.587  0.00  0.00    -0.218 N 
ATOM     16  H   UNL     1      32.444 -11.297 -23.532  0.00  0.00    +0.176 HD
BRANCH  15  18
ATOM     17  S   UNL     1      30.471 -11.172 -20.666  0.00  0.00    -0.017 S 
ATOM     18  C   UNL     1      31.710 -10.669 -21.706  0.00  0.00    +0.154 C 
BRANCH  18  19
ATOM     19  N   UNL     1      32.195  -9.328 -21.763  0.00  0.00    -0.290 N 
ATOM     20  C   UNL     1      32.494  -8.573 -20.534  0.00  0.00    +0.114 C 
BRANCH  19  21
ATOM     21  C   UNL     1      32.430  -8.608 -22.991  0.00  0.00    +0.074 C 
ATOM     22  C   UNL     1      33.794  -7.915 -22.955  0.00  0.00    +0.020 C 
ATOM     23  C   UNL     1      31.303  -7.606 -23.255  0.00  0.00    +0.020 C 
ATOM     24  C   UNL     1      34.045  -7.103 -24.223  0.00  0.00    +0.002 C 
ATOM     25  C   UNL     1      31.557  -6.795 -24.523  0.00  0.00    +0.002 C 
ATOM     26  C   UNL     1      32.919  -6.107 -24.486  0.00  0.00    +0.000 C 
ENDBRANCH  19  21
ENDBRANCH  18  19
ENDBRANCH  15  18
ENDBRANCH   1  15
TORSDOF 6
ENDMDL
MODEL 6
REMARK VINA RESULT:      -8.8      3.908      9.604
REMARK  Name = 57380301
REMARK  6 active torsions:
REMARK  status: ('A' for Active; 'I' for Inactive)
REMARK    1  A    between atoms: N_1  and  N_15
REMARK    2  A    between atoms: C_2  and  C_4
REMARK    3  A    between atoms: C_2  and  C_10
REMARK    4  A    between atoms: N_15  and  C_18
REMARK    5  A    between atoms: C_18  and  N_19
REMARK    6  A    between atoms: N_19  and  C_21
REMARK                            x       y       z     vdW  Elec       q    Type
REMARK                         _______ _______ _______ _____ _____    ______ ____
ROOT
ATOM      1  N   UNL     1      34.835 -16.821 -20.635  0.00  0.00    -0.177 NA
ATOM      2  C   UNL     1      34.969 -17.873 -21.392  0.00  0.00    +0.134 C 
ENDROOT
BRANCH   2   4
ATOM      3  N   UNL     1      36.601 -19.414 -20.500  0.00  0.00    -0.242 NA
ATOM      4  C   UNL     1      35.290 -19.180 -20.730  0.00  0.00    +0.102 C 
ATOM      5  C   UNL     1      34.274 -20.061 -20.397  0.00  0.00    +0.021 C 
ATOM      6  C   UNL     1      34.626 -21.259 -19.786  0.00  0.00    +0.003 C 
ATOM      7  C   UNL     1      36.906 -20.589 -19.904  0.00  0.00    +0.099 C 
ATOM      8  C   UNL     1      35.966 -21.536 -19.530  0.00  0.00    +0.021 C 
ENDBRANCH   2   4
BRANCH   2  10
ATOM      9  N   UNL     1      35.100 -16.684 -23.474  0.00  0.00    -0.242 NA
ATOM     10  C   UNL     1      34.825 -17.860 -22.867  0.00  0.00    +0.102 C 
ATOM     11  C   UNL     1      34.430 -19.007 -23.539  0.00  0.00    +0.021 C 
ATOM     12  C   UNL     1      34.312 -18.941 -24.923  0.00  0.00    +0.003 C 
ATOM     13  C   UNL     1      34.973 -16.659 -24.819  0.00  0.00    +0.099 C 
ATOM     14  C   UNL     1      34.586 -17.748 -25.583  0.00  0.00    +0.021 C 
ENDBRANCH   2  10
BRANCH   1  15
ATOM     15  N   UNL     1      34.546 -15.628 -21.215  0.00  0.00    -0.218 N 
ATOM     16  H   UNL     1      35.271 -15.103 -21.623  0.00  0.00    +0.176 HD
BRANCH  15  18
ATOM     17  S   UNL     1      31.952 -15.946 -20.505  0.00  0.00    -0.017 S 
ATOM     18  C   UNL     1      33.240 -15.132 -21.246  0.00  0.00    +0.154 C 
BRANCH  18  19
ATOM     19  N   UNL     1      33.094 -13.897 -21.946  0.00  0.00    -0.290 N 
ATOM     20  C   UNL     1      33.951 -13.568 -23.097  0.00  0.00    +0.114 C 
BRANCH  19  21
ATOM     21  C   UNL     1      32.124 -12.887 -21.600  0.00  0.00    +0.074 C 
ATOM     22  C   UNL     1      32.221 -11.699 -22.560  0.00  0.00    +0.020 C 
ATOM     23  C   UNL     1      32.300 -12.442 -20.145  0.00  0.00    +0.020 C 
ATOM     24  C   UNL     1      31.240 -10.591 -22.185  0.00  0.00    +0.002 C 
ATOM     25  C   UNL     1      31.318 -11.334 -19.773  0.00  0.00    +0.002 C 
ATOM     26  C   UNL     1      31.415 -10.152 -20.734  0.00  0.00    +0.000 C 
ENDBRANCH  19  21
ENDBRANCH  18  19
ENDBRANCH  15  18
ENDBRANCH   1  15
TORSDOF 6
ENDMDL
MODEL 7
REMARK VINA RESULT:      -8.5      2.077      7.747
REMARK  Name = 57380301
REMARK  6 active torsions:
REMARK  status: ('A' for Active; 'I' for Inactive)
REMARK    1  A    between atoms: N_1  and  N_15
REMARK    2  A    between atoms: C_2  and  C_4
REMARK    3  A    between atoms: C_2  and  C_10
REMARK    4  A    between atoms: N_15  and  C_18
REMARK    5  A    between atoms: C_18  and  N_19
REMARK    6  A    between atoms: N_19  and  C_21
REMARK                            x       y       z     vdW  Elec       q    Type
REMARK                         _______ _______ _______ _____ _____    ______ ____
ROOT
ATOM      1  N   UNL     1      32.185 -11.321 -22.358  0.00  0.00    -0.177 NA
ATOM      2  C   UNL     1      33.040 -12.054 -23.013  0.00  0.00    +0.134 C 
ENDROOT
BRANCH   2   4
ATOM      3  N   UNL     1      32.325 -13.953 -21.703  0.00  0.00    -0.242 NA
ATOM      4  C   UNL     1      33.256 -13.465 -22.554  0.00  0.00    +0.102 C 
ATOM      5  C   UNL     1      34.355 -14.183 -22.996  0.00  0.00    +0.021 C 
ATOM      6  C   UNL     1      34.508 -15.487 -22.540  0.00  0.00    +0.003 C 
ATOM      7  C   UNL     1      32.506 -15.224 -21.279  0.00  0.00    +0.099 C 
ATOM      8  C   UNL     1      33.569 -16.026 -21.665  0.00  0.00    +0.021 C 
ENDBRANCH   2   4
BRANCH   2  10
ATOM      9  N   UNL     1      34.666 -10.556 -23.951  0.00  0.00    -0.242 NA
ATOM     10  C   UNL     1      33.816 -11.580 -24.184  0.00  0.00    +0.102 C 
ATOM     11  C   UNL     1      33.646 -12.181 -25.422  0.00  0.00    +0.021 C 
ATOM     12  C   UNL     1      34.398 -11.699 -26.488  0.00  0.00    +0.003 C 
ATOM     13  C   UNL     1      35.379 -10.114 -25.010  0.00  0.00    +0.099 C 
ATOM     14  C   UNL     1      35.283 -10.646 -26.286  0.00  0.00    +0.021 C 
ENDBRANCH   2  10
BRANCH   1  15
ATOM     15  N   UNL     1      31.976 -10.041 -22.758  0.00  0.00    -0.218 N 
ATOM     16  H   UNL     1      31.635  -9.869 -23.664  0.00  0.00    +0.176 HD
BRANCH  15  18
ATOM     17  S   UNL     1      32.041  -9.075 -20.228  0.00  0.00    -0.017 S 
ATOM     18  C   UNL     1      32.235  -8.963 -21.908  0.00  0.00    +0.154 C 
BRANCH  18  19
ATOM     19  N   UNL     1      32.669  -7.778 -22.573  0.00  0.00    -0.290 N 
ATOM     20  C   UNL     1      34.096  -7.535 -22.844  0.00  0.00    +0.114 C 
BRANCH  19  21
ATOM     21  C   UNL     1      31.779  -6.737 -23.028  0.00  0.00    +0.074 C 
ATOM     22  C   UNL     1      32.242  -6.187 -24.378  0.00  0.00    +0.020 C 
ATOM     23  C   UNL     1      31.666  -5.625 -21.982  0.00  0.00    +0.020 C 
ATOM     24  C   UNL     1      31.346  -5.048 -24.858  0.00  0.00    +0.002 C 
ATOM     25  C   UNL     1      30.770  -4.488 -22.465  0.00  0.00    +0.002 C 
ATOM     26  C   UNL     1      31.233  -3.942 -23.813  0.00  0.00    +0.000 C 
ENDBRANCH  19  21
ENDBRANCH  18  19
ENDBRANCH  15  18
ENDBRANCH   1  15
TORSDOF 6
ENDMDL
MODEL 8
REMARK VINA RESULT:      -8.5      4.153      8.655
REMARK  Name = 57380301
REMARK  6 active torsions:
REMARK  status: ('A' for Active; 'I' for Inactive)
REMARK    1  A    between atoms: N_1  and  N_15
REMARK    2  A    between atoms: C_2  and  C_4
REMARK    3  A    between atoms: C_2  and  C_10
REMARK    4  A    between atoms: N_15  and  C_18
REMARK    5  A    between atoms: C_18  and  N_19
REMARK    6  A    between atoms: N_19  and  C_21
REMARK                            x       y       z     vdW  Elec       q    Type
REMARK                         _______ _______ _______ _____ _____    ______ ____
ROOT
ATOM      1  N   UNL     1      35.548 -17.457 -23.061  0.00  0.00    -0.177 NA
ATOM      2  C   UNL     1      35.060 -17.598 -21.861  0.00  0.00    +0.134 C 
ENDROOT
BRANCH   2   4
ATOM      3  N   UNL     1      36.713 -18.975 -20.763  0.00  0.00    -0.242 NA
ATOM      4  C   UNL     1      35.410 -18.841 -21.100  0.00  0.00    +0.102 C 
ATOM      5  C   UNL     1      34.430 -19.768 -20.787  0.00  0.00    +0.021 C 
ATOM      6  C   UNL     1      34.808 -20.904 -20.080  0.00  0.00    +0.003 C 
ATOM      7  C   UNL     1      37.045 -20.091 -20.076  0.00  0.00    +0.099 C 
ATOM      8  C   UNL     1      36.140 -21.076 -19.714  0.00  0.00    +0.021 C 
ENDBRANCH   2   4
BRANCH   2  10
ATOM      9  N   UNL     1      34.792 -15.504 -20.718  0.00  0.00    -0.242 NA
ATOM     10  C   UNL     1      34.178 -16.607 -21.200  0.00  0.00    +0.102 C 
ATOM     11  C   UNL     1      32.815 -16.839 -21.106  0.00  0.00    +0.021 C 
ATOM     12  C   UNL     1      32.032 -15.877 -20.477  0.00  0.00    +0.003 C 
ATOM     13  C   UNL     1      34.000 -14.591 -20.113  0.00  0.00    +0.099 C 
ATOM     14  C   UNL     1      32.629 -14.729 -19.968  0.00  0.00    +0.021 C 
ENDBRANCH   2  10
BRANCH   1  15
ATOM     15  N   UNL     1      35.241 -16.339 -23.766  0.00  0.00    -0.218 N 
ATOM     16  H   UNL     1      35.701 -15.495 -23.555  0.00  0.00    +0.176 HD
BRANCH  15  18
ATOM     17  S   UNL     1      33.832 -17.799 -25.561  0.00  0.00    -0.017 S 
ATOM     18  C   UNL     1      34.288 -16.362 -24.787  0.00  0.00    +0.154 C 
BRANCH  18  19
ATOM     19  N   UNL     1      33.742 -15.084 -25.114  0.00  0.00    -0.290 N 
ATOM     20  C   UNL     1      33.131 -14.830 -26.429  0.00  0.00    +0.114 C 
BRANCH  19  21
ATOM     21  C   UNL     1      33.739 -13.957 -24.213  0.00  0.00    +0.074 C 
ATOM     22  C   UNL     1      32.398 -13.857 -23.483  0.00  0.00    +0.020 C 
ATOM     23  C   UNL     1      34.061 -12.663 -24.965  0.00  0.00    +0.020 C 
ATOM     24  C   UNL     1      32.349 -12.641 -22.561  0.00  0.00    +0.002 C 
ATOM     25  C   UNL     1      34.011 -11.448 -24.041  0.00  0.00    +0.002 C 
ATOM     26  C   UNL     1      32.674 -11.352 -23.312  0.00  0.00    +0.000 C 
ENDBRANCH  19  21
ENDBRANCH  18  19
ENDBRANCH  15  18
ENDBRANCH   1  15
TORSDOF 6
ENDMDL
MODEL 9
REMARK VINA RESULT:      -8.5      4.755      6.690
REMARK  Name = 57380301
REMARK  6 active torsions:
REMARK  status: ('A' for Active; 'I' for Inactive)
REMARK    1  A    between atoms: N_1  and  N_15
REMARK    2  A    between atoms: C_2  and  C_4
REMARK    3  A    between atoms: C_2  and  C_10
REMARK    4  A    between atoms: N_15  and  C_18
REMARK    5  A    between atoms: C_18  and  N_19
REMARK    6  A    between atoms: N_19  and  C_21
REMARK                            x       y       z     vdW  Elec       q    Type
REMARK                         _______ _______ _______ _____ _____    ______ ____
ROOT
ATOM      1  N   UNL     1      35.127 -16.167 -23.955  0.00  0.00    -0.177 NA
ATOM      2  C   UNL     1      34.200 -15.280 -23.725  0.00  0.00    +0.134 C 
ENDROOT
BRANCH   2   4
ATOM      3  N   UNL     1      33.297 -14.975 -25.945  0.00  0.00    -0.242 NA
ATOM      4  C   UNL     1      33.804 -14.368 -24.848  0.00  0.00    +0.102 C 
ATOM      5  C   UNL     1      33.969 -12.998 -24.726  0.00  0.00    +0.021 C 
ATOM      6  C   UNL     1      33.587 -12.199 -25.797  0.00  0.00    +0.003 C 
ATOM      7  C   UNL     1      32.937 -14.166 -26.967  0.00  0.00    +0.099 C 
ATOM      8  C   UNL     1      33.059 -12.786 -26.943  0.00  0.00    +0.021 C 
ENDBRANCH   2   4
BRANCH   2  10
ATOM      9  N   UNL     1      33.056 -16.251 -21.851  0.00  0.00    -0.242 NA
ATOM     10  C   UNL     1      33.511 -15.114 -22.423  0.00  0.00    +0.102 C 
ATOM     11  C   UNL     1      33.366 -13.853 -21.867  0.00  0.00    +0.021 C 
ATOM     12  C   UNL     1      32.713 -13.753 -20.643  0.00  0.00    +0.003 C 
ATOM     13  C   UNL     1      32.426 -16.114 -20.663  0.00  0.00    +0.099 C 
ATOM     14  C   UNL     1      32.230 -14.900 -20.023  0.00  0.00    +0.021 C 
ENDBRANCH   2  10
BRANCH   1  15
ATOM     15  N   UNL     1      35.499 -17.001 -22.951  0.00  0.00    -0.218 N 
ATOM     16  H   UNL     1      35.904 -16.624 -22.137  0.00  0.00    +0.176 HD
BRANCH  15  18
ATOM     17  S   UNL     1      34.700 -19.112 -24.447  0.00  0.00    -0.017 S 
ATOM     18  C   UNL     1      35.317 -18.382 -23.048  0.00  0.00    +0.154 C 
BRANCH  18  19
ATOM     19  N   UNL     1      35.693 -19.111 -21.880  0.00  0.00    -0.290 N 
ATOM     20  C   UNL     1      36.923 -18.782 -21.140  0.00  0.00    +0.114 C 
BRANCH  19  21
ATOM     21  C   UNL     1      34.928 -20.205 -21.333  0.00  0.00    +0.074 C 
ATOM     22  C   UNL     1      33.572 -19.710 -20.825  0.00  0.00    +0.020 C 
ATOM     23  C   UNL     1      35.712 -20.914 -20.226  0.00  0.00    +0.020 C 
ATOM     24  C   UNL     1      32.762 -20.839 -20.193  0.00  0.00    +0.002 C 
ATOM     25  C   UNL     1      34.900 -22.043 -19.596  0.00  0.00    +0.002 C 
ATOM     26  C   UNL     1      33.547 -21.547 -19.092  0.00  0.00    +0.000 C 
ENDBRANCH  19  21
ENDBRANCH  18  19
ENDBRANCH  15  18
ENDBRANCH   1  15
TORSDOF 6
ENDMDL
