MODEL 1
REMARK VINA RESULT:      -9.3      0.000      0.000
REMARK  Name = 5282176
REMARK  8 active torsions:
REMARK  status: ('A' for Active; 'I' for Inactive)
REMARK    1  A    between atoms: C_1  and  C_4
REMARK    2  A    between atoms: C_2  and  C_14
REMARK    3  A    between atoms: C_3  and  C_6
REMARK    4  A    between atoms: C_6  and  O_7
REMARK    5  A    between atoms: C_6  and  C_9
REMARK    6  A    between atoms: C_9  and  C_10
REMARK    7  A    between atoms: C_10  and  C_11
REMARK    8  A    between atoms: C_13  and  C_22
REMARK                            x       y       z     vdW  Elec       q    Type
REMARK                         _______ _______ _______ _____ _____    ______ ____
ROOT
ATOM      1  C   UNL     1      34.417 -19.477 -21.207  0.00  0.00    -0.004 C 
ATOM      2  C   UNL     1      33.284 -20.021 -20.733  0.00  0.00    -0.000 C 
ENDROOT
BRANCH   1   4
ATOM      3  C   UNL     1      34.471 -17.220 -22.079  0.00  0.00    -0.002 C 
ATOM      4  C   UNL     1      34.538 -18.545 -22.332  0.00  0.00    -0.024 C 
ATOM      5  C   UNL     1      34.735 -19.135 -23.704  0.00  0.00    +0.031 C 
BRANCH   3   6
ATOM      6  C   UNL     1      34.548 -16.070 -23.049  0.00  0.00    +0.132 C 
BRANCH   6   7
ATOM      7  O   UNL     1      35.807 -16.144 -23.725  0.00  0.00    -0.380 OA
ATOM      8  H   UNL     1      36.059 -15.260 -24.036  0.00  0.00    +0.211 HD
ENDBRANCH   6   7
BRANCH   6   9
ATOM      9  C   UNL     1      34.456 -14.703 -22.354  0.00  0.00    +0.034 C 
BRANCH   9  10
ATOM     10  C   UNL     1      34.116 -14.744 -20.861  0.00  0.00    +0.003 C 
BRANCH  10  11
ATOM     11  C   UNL     1      32.671 -14.390 -20.501  0.00  0.00    +0.000 C 
ATOM     12  C   UNL     1      32.154 -13.149 -21.211  0.00  0.00    +0.000 C 
ENDBRANCH  10  11
ENDBRANCH   9  10
ENDBRANCH   6   9
ENDBRANCH   3   6
ENDBRANCH   1   4
BRANCH   2  14
ATOM     13  C   UNL     1      34.264 -21.781 -19.345  0.00  0.00    +0.058 C 
ATOM     14  C   UNL     1      33.262 -20.933 -19.609  0.00  0.00    +0.005 C 
BRANCH  13  22
ATOM     15  O   UNL     1      36.845 -21.117 -18.103  0.00  0.00    -0.274 OA
ATOM     16  O   UNL     1      33.137 -23.365 -18.057  0.00  0.00    -0.269 OA
ATOM     17  N   UNL     1      35.209 -22.648 -17.260  0.00  0.00    -0.226 N 
ATOM     18  C   UNL     1      36.493 -23.488 -15.495  0.00  0.00    +0.032 C 
ATOM     19  C   UNL     1      35.077 -23.361 -16.003  0.00  0.00    +0.102 C 
ATOM     20  C   UNL     1      37.146 -22.205 -15.971  0.00  0.00    +0.087 C 
ATOM     21  C   UNL     1      36.427 -21.905 -17.267  0.00  0.00    +0.232 C 
ATOM     22  C   UNL     1      34.148 -22.672 -18.177  0.00  0.00    +0.255 C 
ENDBRANCH  13  22
ENDBRANCH   2  14
TORSDOF 8
ENDMDL
MODEL 2
REMARK VINA RESULT:      -9.0      5.045      7.921
REMARK  Name = 5282176
REMARK  8 active torsions:
REMARK  status: ('A' for Active; 'I' for Inactive)
REMARK    1  A    between atoms: C_1  and  C_4
REMARK    2  A    between atoms: C_2  and  C_14
REMARK    3  A    between atoms: C_3  and  C_6
REMARK    4  A    between atoms: C_6  and  O_7
REMARK    5  A    between atoms: C_6  and  C_9
REMARK    6  A    between atoms: C_9  and  C_10
REMARK    7  A    between atoms: C_10  and  C_11
REMARK    8  A    between atoms: C_13  and  C_22
REMARK                            x       y       z     vdW  Elec       q    Type
REMARK                         _______ _______ _______ _____ _____    ______ ____
ROOT
ATOM      1  C   UNL     1      32.311 -12.880 -21.455  0.00  0.00    -0.004 C 
ATOM      2  C   UNL     1      32.673 -13.773 -20.520  0.00  0.00    -0.000 C 
ENDROOT
BRANCH   1   4
ATOM      3  C   UNL     1      31.972 -10.604 -22.206  0.00  0.00    -0.002 C 
ATOM      4  C   UNL     1      31.822 -11.517 -21.223  0.00  0.00    -0.024 C 
ATOM      5  C   UNL     1      31.177 -11.228 -19.892  0.00  0.00    +0.031 C 
BRANCH   3   6
ATOM      6  C   UNL     1      31.578  -9.150 -22.211  0.00  0.00    +0.132 C 
BRANCH   6   7
ATOM      7  O   UNL     1      31.254  -8.783 -23.555  0.00  0.00    -0.380 OA
ATOM      8  H   UNL     1      30.376  -9.126 -23.781  0.00  0.00    +0.211 HD
ENDBRANCH   6   7
BRANCH   6   9
ATOM      9  C   UNL     1      32.706  -8.230 -21.721  0.00  0.00    +0.034 C 
BRANCH   9  10
ATOM     10  C   UNL     1      33.284  -7.277 -22.773  0.00  0.00    +0.003 C 
BRANCH  10  11
ATOM     11  C   UNL     1      34.701  -7.597 -23.251  0.00  0.00    +0.000 C 
ATOM     12  C   UNL     1      34.782  -8.834 -24.131  0.00  0.00    +0.000 C 
ENDBRANCH  10  11
ENDBRANCH   9  10
ENDBRANCH   6   9
ENDBRANCH   3   6
ENDBRANCH   1   4
BRANCH   2  14
ATOM     13  C   UNL     1      34.404 -15.341 -21.247  0.00  0.00    +0.058 C 
ATOM     14  C   UNL     1      33.150 -15.101 -20.846  0.00  0.00    +0.005 C 
BRANCH  13  22
ATOM     15  O   UNL     1      33.902 -15.240 -24.142  0.00  0.00    -0.274 OA
ATOM     16  O   UNL     1      35.171 -17.459 -20.640  0.00  0.00    -0.269 OA
ATOM     17  N   UNL     1      34.728 -17.114 -22.904  0.00  0.00    -0.226 N 
ATOM     18  C   UNL     1      34.653 -18.664 -24.654  0.00  0.00    +0.032 C 
ATOM     19  C   UNL     1      35.268 -18.402 -23.301  0.00  0.00    +0.102 C 
ATOM     20  C   UNL     1      34.550 -17.277 -25.260  0.00  0.00    +0.087 C 
ATOM     21  C   UNL     1      34.318 -16.386 -24.061  0.00  0.00    +0.232 C 
ATOM     22  C   UNL     1      34.794 -16.728 -21.557  0.00  0.00    +0.255 C 
ENDBRANCH  13  22
ENDBRANCH   2  14
TORSDOF 8
ENDMDL
MODEL 3
REMARK VINA RESULT:      -8.9      2.487      4.288
REMARK  Name = 5282176
REMARK  8 active torsions:
REMARK  status: ('A' for Active; 'I' for Inactive)
REMARK    1  A    between atoms: C_1  and  C_4
REMARK    2  A    between atoms: C_2  and  C_14
REMARK    3  A    between atoms: C_3  and  C_6
REMARK    4  A    between atoms: C_6  and  O_7
REMARK    5  A    between atoms: C_6  and  C_9
REMARK    6  A    between atoms: C_9  and  C_10
REMARK    7  A    between atoms: C_10  and  C_11
REMARK    8  A    between atoms: C_13  and  C_22
REMARK                            x       y       z     vdW  Elec       q    Type
REMARK                         _______ _______ _______ _____ _____    ______ ____
ROOT
ATOM      1  C   UNL     1      34.633 -15.718 -22.965  0.00  0.00    -0.004 C 
ATOM      2  C   UNL     1      34.285 -16.140 -21.739  0.00  0.00    -0.000 C 
ENDROOT
BRANCH   1   4
ATOM      3  C   UNL     1      34.002 -13.399 -23.253  0.00  0.00    -0.002 C 
ATOM      4  C   UNL     1      33.985 -14.657 -23.744  0.00  0.00    -0.024 C 
ATOM      5  C   UNL     1      33.344 -15.048 -25.050  0.00  0.00    +0.031 C 
BRANCH   3   6
ATOM      6  C   UNL     1      33.400 -12.150 -23.843  0.00  0.00    +0.132 C 
BRANCH   6   7
ATOM      7  O   UNL     1      34.470 -11.288 -24.240  0.00  0.00    -0.380 OA
ATOM      8  H   UNL     1      34.173 -10.365 -24.201  0.00  0.00    +0.211 HD
ENDBRANCH   6   7
BRANCH   6   9
ATOM      9  C   UNL     1      32.519 -11.390 -22.840  0.00  0.00    +0.034 C 
BRANCH   9  10
ATOM     10  C   UNL     1      31.869 -12.247 -21.749  0.00  0.00    +0.003 C 
BRANCH  10  11
ATOM     11  C   UNL     1      30.913 -11.510 -20.808  0.00  0.00    +0.000 C 
ATOM     12  C   UNL     1      31.559 -11.078 -19.501  0.00  0.00    +0.000 C 
ENDBRANCH  10  11
ENDBRANCH   9  10
ENDBRANCH   6   9
ENDBRANCH   3   6
ENDBRANCH   1   4
BRANCH   2  14
ATOM     13  C   UNL     1      35.208 -18.400 -21.588  0.00  0.00    +0.058 C 
ATOM     14  C   UNL     1      34.989 -17.197 -21.043  0.00  0.00    +0.005 C 
BRANCH  13  22
ATOM     15  O   UNL     1      32.870 -19.950 -20.711  0.00  0.00    -0.274 OA
ATOM     16  O   UNL     1      37.162 -19.340 -20.728  0.00  0.00    -0.269 OA
ATOM     17  N   UNL     1      35.161 -20.414 -20.196  0.00  0.00    -0.226 N 
ATOM     18  C   UNL     1      34.763 -22.146 -18.675  0.00  0.00    +0.032 C 
ATOM     19  C   UNL     1      35.824 -21.537 -19.560  0.00  0.00    +0.102 C 
ATOM     20  C   UNL     1      33.487 -21.920 -19.463  0.00  0.00    +0.087 C 
ATOM     21  C   UNL     1      33.749 -20.623 -20.193  0.00  0.00    +0.232 C 
ATOM     22  C   UNL     1      35.935 -19.412 -20.799  0.00  0.00    +0.255 C 
ENDBRANCH  13  22
ENDBRANCH   2  14
TORSDOF 8
ENDMDL
MODEL 4
REMARK VINA RESULT:      -8.9      3.162      9.026
REMARK  Name = 5282176
REMARK  8 active torsions:
REMARK  status: ('A' for Active; 'I' for Inactive)
REMARK    1  A    between atoms: C_1  and  C_4
REMARK    2  A    between atoms: C_2  and  C_14
REMARK    3  A    between atoms: C_3  and  C_6
REMARK    4  A    between atoms: C_6  and  O_7
REMARK    5  A    between atoms: C_6  and  C_9
REMARK    6  A    between atoms: C_9  and  C_10
REMARK    7  A    between atoms: C_10  and  C_11
REMARK    8  A    between atoms: C_13  and  C_22
REMARK                            x       y       z     vdW  Elec       q    Type
REMARK                         _______ _______ _______ _____ _____    ______ ____
ROOT
ATOM      1  C   UNL     1      34.231 -19.372 -20.679  0.00  0.00    -0.004 C 
ATOM      2  C   UNL     1      34.968 -18.452 -21.323  0.00  0.00    -0.000 C 
ENDROOT
BRANCH   1   4
ATOM      3  C   UNL     1      33.827 -21.427 -19.466  0.00  0.00    -0.002 C 
ATOM      4  C   UNL     1      34.702 -20.655 -20.146  0.00  0.00    -0.024 C 
ATOM      5  C   UNL     1      36.139 -21.027 -20.401  0.00  0.00    +0.031 C 
BRANCH   3   6
ATOM      6  C   UNL     1      34.062 -22.763 -18.811  0.00  0.00    +0.132 C 
BRANCH   6   7
ATOM      7  O   UNL     1      33.922 -23.777 -19.810  0.00  0.00    -0.380 OA
ATOM      8  H   UNL     1      33.068 -23.673 -20.258  0.00  0.00    +0.211 HD
ENDBRANCH   6   7
BRANCH   6   9
ATOM      9  C   UNL     1      33.056 -23.055 -17.687  0.00  0.00    +0.034 C 
BRANCH   9  10
ATOM     10  C   UNL     1      33.665 -23.285 -16.300  0.00  0.00    +0.003 C 
BRANCH  10  11
ATOM     11  C   UNL     1      32.664 -23.410 -15.149  0.00  0.00    +0.000 C 
ATOM     12  C   UNL     1      31.253 -22.981 -15.520  0.00  0.00    +0.000 C 
ENDBRANCH  10  11
ENDBRANCH   9  10
ENDBRANCH   6   9
ENDBRANCH   3   6
ENDBRANCH   1   4
BRANCH   2  14
ATOM     13  C   UNL     1      35.084 -16.394 -22.641  0.00  0.00    +0.058 C 
ATOM     14  C   UNL     1      34.416 -17.206 -21.812  0.00  0.00    +0.005 C 
BRANCH  13  22
ATOM     15  O   UNL     1      34.268 -17.316 -25.310  0.00  0.00    -0.274 OA
ATOM     16  O   UNL     1      34.420 -14.182 -22.318  0.00  0.00    -0.269 OA
ATOM     17  N   UNL     1      33.857 -15.157 -24.360  0.00  0.00    -0.226 N 
ATOM     18  C   UNL     1      32.971 -14.166 -26.285  0.00  0.00    +0.032 C 
ATOM     19  C   UNL     1      33.051 -14.028 -24.784  0.00  0.00    +0.102 C 
ATOM     20  C   UNL     1      32.959 -15.669 -26.491  0.00  0.00    +0.087 C 
ATOM     21  C   UNL     1      33.799 -16.188 -25.346  0.00  0.00    +0.232 C 
ATOM     22  C   UNL     1      34.437 -15.146 -23.084  0.00  0.00    +0.255 C 
ENDBRANCH  13  22
ENDBRANCH   2  14
TORSDOF 8
ENDMDL
MODEL 5
REMARK VINA RESULT:      -8.8      2.877      8.649
REMARK  Name = 5282176
REMARK  8 active torsions:
REMARK  status: ('A' for Active; 'I' for Inactive)
REMARK    1  A    between atoms: C_1  and  C_4
REMARK    2  A    between atoms: C_2  and  C_14
REMARK    3  A    between atoms: C_3  and  C_6
REMARK    4  A    between atoms: C_6  and  O_7
REMARK    5  A    between atoms: C_6  and  C_9
REMARK    6  A    between atoms: C_9  and  C_10
REMARK    7  A    between atoms: C_10  and  C_11
REMARK    8  A    between atoms: C_13  and  C_22
REMARK                            x       y       z     vdW  Elec       q    Type
REMARK                         _______ _______ _______ _____ _____    ______ ____
ROOT
ATOM      1  C   UNL     1      34.982 -19.791 -20.782  0.00  0.00    -0.004 C 
ATOM      2  C   UNL     1      35.953 -18.961 -21.197  0.00  0.00    -0.000 C 
ENDROOT
BRANCH   1   4
ATOM      3  C   UNL     1      34.021 -21.595 -19.486  0.00  0.00    -0.002 C 
ATOM      4  C   UNL     1      35.131 -20.927 -19.867  0.00  0.00    -0.024 C 
ATOM      5  C   UNL     1      36.525 -21.275 -19.415  0.00  0.00    +0.031 C 
BRANCH   3   6
ATOM      6  C   UNL     1      33.903 -22.770 -18.551  0.00  0.00    +0.132 C 
BRANCH   6   7
ATOM      7  O   UNL     1      33.854 -23.962 -19.342  0.00  0.00    -0.380 OA
ATOM      8  H   UNL     1      33.075 -23.933 -19.921  0.00  0.00    +0.211 HD
ENDBRANCH   6   7
BRANCH   6   9
ATOM      9  C   UNL     1      32.633 -22.714 -17.689  0.00  0.00    +0.034 C 
BRANCH   9  10
ATOM     10  C   UNL     1      32.729 -23.411 -16.328  0.00  0.00    +0.003 C 
BRANCH  10  11
ATOM     11  C   UNL     1      31.396 -23.670 -15.620  0.00  0.00    +0.000 C 
ATOM     12  C   UNL     1      31.222 -22.871 -14.339  0.00  0.00    +0.000 C 
ENDBRANCH  10  11
ENDBRANCH   9  10
ENDBRANCH   6   9
ENDBRANCH   3   6
ENDBRANCH   1   4
BRANCH   2  14
ATOM     13  C   UNL     1      34.657 -17.041 -21.981  0.00  0.00    +0.058 C 
ATOM     14  C   UNL     1      35.710 -17.858 -22.103  0.00  0.00    +0.005 C 
BRANCH  13  22
ATOM     15  O   UNL     1      32.792 -15.404 -20.405  0.00  0.00    -0.274 OA
ATOM     16  O   UNL     1      35.100 -16.008 -24.025  0.00  0.00    -0.269 OA
ATOM     17  N   UNL     1      33.663 -14.883 -22.573  0.00  0.00    -0.226 N 
ATOM     18  C   UNL     1      32.344 -12.991 -22.959  0.00  0.00    +0.032 C 
ATOM     19  C   UNL     1      33.603 -13.694 -23.403  0.00  0.00    +0.102 C 
ATOM     20  C   UNL     1      32.278 -13.305 -21.477  0.00  0.00    +0.087 C 
ATOM     21  C   UNL     1      32.907 -14.676 -21.380  0.00  0.00    +0.232 C 
ATOM     22  C   UNL     1      34.494 -15.946 -22.955  0.00  0.00    +0.255 C 
ENDBRANCH  13  22
ENDBRANCH   2  14
TORSDOF 8
ENDMDL
MODEL 6
REMARK VINA RESULT:      -8.7      3.214      5.099
REMARK  Name = 5282176
REMARK  8 active torsions:
REMARK  status: ('A' for Active; 'I' for Inactive)
REMARK    1  A    between atoms: C_1  and  C_4
REMARK    2  A    between atoms: C_2  and  C_14
REMARK    3  A    between atoms: C_3  and  C_6
REMARK    4  A    between atoms: C_6  and  O_7
REMARK    5  A    between atoms: C_6  and  C_9
REMARK    6  A    between atoms: C_9  and  C_10
REMARK    7  A    between atoms: C_10  and  C_11
REMARK    8  A    between atoms: C_13  and  C_22
REMARK                            x       y       z     vdW  Elec       q    Type
REMARK                         _______ _______ _______ _____ _____    ______ ____
ROOT
ATOM      1  C   UNL     1      34.348 -22.088 -18.839  0.00  0.00    -0.004 C 
ATOM      2  C   UNL     1      34.680 -22.589 -17.638  0.00  0.00    -0.000 C 
ENDROOT
BRANCH   1   4
ATOM      3  C   UNL     1      34.549 -20.265 -20.419  0.00  0.00    -0.002 C 
ATOM      4  C   UNL     1      35.169 -21.209 -19.679  0.00  0.00    -0.024 C 
ATOM      5  C   UNL     1      36.660 -21.421 -19.655  0.00  0.00    +0.031 C 
BRANCH   3   6
ATOM      6  C   UNL     1      35.155 -19.263 -21.366  0.00  0.00    +0.132 C 
BRANCH   6   7
ATOM      7  O   UNL     1      35.146 -17.984 -20.723  0.00  0.00    -0.380 OA
ATOM      8  H   UNL     1      35.126 -17.285 -21.395  0.00  0.00    +0.211 HD
ENDBRANCH   6   7
BRANCH   6   9
ATOM      9  C   UNL     1      34.370 -19.143 -22.681  0.00  0.00    +0.034 C 
BRANCH   9  10
ATOM     10  C   UNL     1      35.206 -18.814 -23.922  0.00  0.00    +0.003 C 
BRANCH  10  11
ATOM     11  C   UNL     1      34.734 -17.610 -24.739  0.00  0.00    +0.000 C 
ATOM     12  C   UNL     1      34.834 -16.290 -23.992  0.00  0.00    +0.000 C 
ENDBRANCH  10  11
ENDBRANCH   9  10
ENDBRANCH   6   9
ENDBRANCH   3   6
ENDBRANCH   1   4
BRANCH   2  14
ATOM     13  C   UNL     1      33.108 -23.031 -15.817  0.00  0.00    +0.058 C 
ATOM     14  C   UNL     1      33.803 -23.456 -16.879  0.00  0.00    +0.005 C 
BRANCH  13  22
ATOM     15  O   UNL     1      30.586 -22.319 -17.150  0.00  0.00    -0.274 OA
ATOM     16  O   UNL     1      32.741 -24.728 -14.259  0.00  0.00    -0.269 OA
ATOM     17  N   UNL     1      30.888 -24.005 -15.477  0.00  0.00    -0.226 N 
ATOM     18  C   UNL     1      28.625 -24.516 -15.181  0.00  0.00    +0.032 C 
ATOM     19  C   UNL     1      30.020 -25.044 -14.953  0.00  0.00    +0.102 C 
ATOM     20  C   UNL     1      28.758 -23.742 -16.479  0.00  0.00    +0.087 C 
ATOM     21  C   UNL     1      30.175 -23.219 -16.433  0.00  0.00    +0.232 C 
ATOM     22  C   UNL     1      32.240 -23.990 -15.109  0.00  0.00    +0.255 C 
ENDBRANCH  13  22
ENDBRANCH   2  14
TORSDOF 8
ENDMDL
MODEL 7
REMARK VINA RESULT:      -8.7      1.594      3.098
REMARK  Name = 5282176
REMARK  8 active torsions:
REMARK  status: ('A' for Active; 'I' for Inactive)
REMARK    1  A    between atoms: C_1  and  C_4
REMARK    2  A    between atoms: C_2  and  C_14
REMARK    3  A    between atoms: C_3  and  C_6
REMARK    4  A    between atoms: C_6  and  O_7
REMARK    5  A    between atoms: C_6  and  C_9
REMARK    6  A    between atoms: C_9  and  C_10
REMARK    7  A    between atoms: C_10  and  C_11
REMARK    8  A    between atoms: C_13  and  C_22
REMARK                            x       y       z     vdW  Elec       q    Type
REMARK                         _______ _______ _______ _____ _____    ______ ____
ROOT
ATOM      1  C   UNL     1      34.922 -20.910 -19.681  0.00  0.00    -0.004 C 
ATOM      2  C   UNL     1      36.246 -21.012 -19.478  0.00  0.00    -0.000 C 
ENDROOT
BRANCH   1   4
ATOM      3  C   UNL     1      35.010 -19.485 -21.635  0.00  0.00    -0.002 C 
ATOM      4  C   UNL     1      34.252 -20.094 -20.699  0.00  0.00    -0.024 C 
ATOM      5  C   UNL     1      32.750 -19.995 -20.630  0.00  0.00    +0.031 C 
BRANCH   3   6
ATOM      6  C   UNL     1      34.573 -18.588 -22.765  0.00  0.00    +0.132 C 
BRANCH   6   7
ATOM      7  O   UNL     1      35.214 -19.040 -23.962  0.00  0.00    -0.380 OA
ATOM      8  H   UNL     1      34.701 -18.747 -24.732  0.00  0.00    +0.211 HD
ENDBRANCH   6   7
BRANCH   6   9
ATOM      9  C   UNL     1      34.962 -17.119 -22.538  0.00  0.00    +0.034 C 
BRANCH   9  10
ATOM     10  C   UNL     1      34.940 -16.649 -21.079  0.00  0.00    +0.003 C 
BRANCH  10  11
ATOM     11  C   UNL     1      34.343 -15.260 -20.840  0.00  0.00    +0.000 C 
ATOM     12  C   UNL     1      32.838 -15.273 -20.628  0.00  0.00    +0.000 C 
ENDBRANCH  10  11
ENDBRANCH   9  10
ENDBRANCH   6   9
ENDBRANCH   3   6
ENDBRANCH   1   4
BRANCH   2  14
ATOM     13  C   UNL     1      36.443 -21.777 -17.163  0.00  0.00    +0.058 C 
ATOM     14  C   UNL     1      36.819 -21.850 -18.446  0.00  0.00    +0.005 C 
BRANCH  13  22
ATOM     15  O   UNL     1      33.987 -22.922 -16.023  0.00  0.00    -0.274 OA
ATOM     16  O   UNL     1      38.316 -22.692 -16.117  0.00  0.00    -0.269 OA
ATOM     17  N   UNL     1      36.235 -23.468 -15.405  0.00  0.00    -0.226 N 
ATOM     18  C   UNL     1      35.702 -24.828 -13.579  0.00  0.00    +0.032 C 
ATOM     19  C   UNL     1      36.804 -24.497 -14.555  0.00  0.00    +0.102 C 
ATOM     20  C   UNL     1      34.444 -24.654 -14.408  0.00  0.00    +0.087 C 
ATOM     21  C   UNL     1      34.810 -23.552 -15.375  0.00  0.00    +0.232 C 
ATOM     22  C   UNL     1      37.087 -22.673 -16.185  0.00  0.00    +0.255 C 
ENDBRANCH  13  22
ENDBRANCH   2  14
TORSDOF 8
ENDMDL
MODEL 8
REMARK VINA RESULT:      -8.7      2.981      4.698
REMARK  Name = 5282176
REMARK  8 active torsions:
REMARK  status: ('A' for Active; 'I' for Inactive)
REMARK    1  A    between atoms: C_1  and  C_4
REMARK    2  A    between atoms: C_2  and  C_14
REMARK    3  A    between atoms: C_3  and  C_6
REMARK    4  A    between atoms: C_6  and  O_7
REMARK    5  A    between atoms: C_6  and  C_9
REMARK    6  A    between atoms: C_9  and  C_10
REMARK    7  A    between atoms: C_10  and  C_11
REMARK    8  A    between atoms: C_13  and  C_22
REMARK                            x       y       z     vdW  Elec       q    Type
REMARK                         _______ _______ _______ _____ _____    ______ ____
ROOT
ATOM      1  C   UNL     1      34.054 -15.739 -22.368  0.00  0.00    -0.004 C 
ATOM      2  C   UNL     1      34.813 -16.682 -22.950  0.00  0.00    -0.000 C 
ENDROOT
BRANCH   1   4
ATOM      3  C   UNL     1      33.435 -14.548 -24.381  0.00  0.00    -0.002 C 
ATOM      4  C   UNL     1      33.293 -14.685 -23.046  0.00  0.00    -0.024 C 
ATOM      5  C   UNL     1      32.395 -13.823 -22.197  0.00  0.00    +0.031 C 
BRANCH   3   6
ATOM      6  C   UNL     1      32.787 -13.544 -25.299  0.00  0.00    +0.132 C 
BRANCH   6   7
ATOM      7  O   UNL     1      32.401 -14.224 -26.497  0.00  0.00    -0.380 OA
ATOM      8  H   UNL     1      31.720 -14.883 -26.289  0.00  0.00    +0.211 HD
ENDBRANCH   6   7
BRANCH   6   9
ATOM      9  C   UNL     1      33.734 -12.397 -25.683  0.00  0.00    +0.034 C 
BRANCH   9  10
ATOM     10  C   UNL     1      33.825 -11.249 -24.671  0.00  0.00    +0.003 C 
BRANCH  10  11
ATOM     11  C   UNL     1      35.005 -10.293 -24.859  0.00  0.00    +0.000 C 
ATOM     12  C   UNL     1      35.646 -10.379 -26.235  0.00  0.00    +0.000 C 
ENDBRANCH  10  11
ENDBRANCH   9  10
ENDBRANCH   6   9
ENDBRANCH   3   6
ENDBRANCH   1   4
BRANCH   2  14
ATOM     13  C   UNL     1      34.911 -18.570 -21.398  0.00  0.00    +0.058 C 
ATOM     14  C   UNL     1      35.528 -17.690 -22.196  0.00  0.00    +0.005 C 
BRANCH  13  22
ATOM     15  O   UNL     1      32.697 -20.209 -20.372  0.00  0.00    -0.274 OA
ATOM     16  O   UNL     1      36.953 -19.443 -20.684  0.00  0.00    -0.269 OA
ATOM     17  N   UNL     1      35.034 -20.591 -20.022  0.00  0.00    -0.226 N 
ATOM     18  C   UNL     1      34.806 -22.344 -18.490  0.00  0.00    +0.032 C 
ATOM     19  C   UNL     1      35.779 -21.693 -19.443  0.00  0.00    +0.102 C 
ATOM     20  C   UNL     1      33.470 -22.161 -19.185  0.00  0.00    +0.087 C 
ATOM     21  C   UNL     1      33.634 -20.851 -19.922  0.00  0.00    +0.232 C 
ATOM     22  C   UNL     1      35.727 -19.559 -20.670  0.00  0.00    +0.255 C 
ENDBRANCH  13  22
ENDBRANCH   2  14
TORSDOF 8
ENDMDL
MODEL 9
REMARK VINA RESULT:      -8.7      1.270      2.271
REMARK  Name = 5282176
REMARK  8 active torsions:
REMARK  status: ('A' for Active; 'I' for Inactive)
REMARK    1  A    between atoms: C_1  and  C_4
REMARK    2  A    between atoms: C_2  and  C_14
REMARK    3  A    between atoms: C_3  and  C_6
REMARK    4  A    between atoms: C_6  and  O_7
REMARK    5  A    between atoms: C_6  and  C_9
REMARK    6  A    between atoms: C_9  and  C_10
REMARK    7  A    between atoms: C_10  and  C_11
REMARK    8  A    between atoms: C_13  and  C_22
REMARK                            x       y       z     vdW  Elec       q    Type
REMARK                         _______ _______ _______ _____ _____    ______ ____
ROOT
ATOM      1  C   UNL     1      35.111 -19.132 -20.891  0.00  0.00    -0.004 C 
ATOM      2  C   UNL     1      35.692 -20.334 -20.750  0.00  0.00    -0.000 C 
ENDROOT
BRANCH   1   4
ATOM      3  C   UNL     1      34.798 -17.061 -22.105  0.00  0.00    -0.002 C 
ATOM      4  C   UNL     1      34.888 -18.407 -22.147  0.00  0.00    -0.024 C 
ATOM      5  C   UNL     1      34.779 -19.223 -23.409  0.00  0.00    +0.031 C 
BRANCH   3   6
ATOM      6  C   UNL     1      34.556 -16.097 -23.237  0.00  0.00    +0.132 C 
BRANCH   6   7
ATOM      7  O   UNL     1      35.722 -16.088 -24.067  0.00  0.00    -0.380 OA
ATOM      8  H   UNL     1      36.104 -16.979 -24.096  0.00  0.00    +0.211 HD
ENDBRANCH   6   7
BRANCH   6   9
ATOM      9  C   UNL     1      34.306 -14.662 -22.748  0.00  0.00    +0.034 C 
BRANCH   9  10
ATOM     10  C   UNL     1      34.184 -14.494 -21.230  0.00  0.00    +0.003 C 
BRANCH  10  11
ATOM     11  C   UNL     1      32.764 -14.284 -20.698  0.00  0.00    +0.000 C 
ATOM     12  C   UNL     1      32.093 -13.029 -21.233  0.00  0.00    +0.000 C 
ENDBRANCH  10  11
ENDBRANCH   9  10
ENDBRANCH   6   9
ENDBRANCH   3   6
ENDBRANCH   1   4
BRANCH   2  14
ATOM     13  C   UNL     1      35.027 -21.912 -19.004  0.00  0.00    +0.058 C 
ATOM     14  C   UNL     1      35.865 -20.976 -19.464  0.00  0.00    +0.005 C 
BRANCH  13  22
ATOM     15  O   UNL     1      32.228 -22.404 -18.251  0.00  0.00    -0.274 OA
ATOM     16  O   UNL     1      36.453 -22.618 -17.298  0.00  0.00    -0.269 OA
ATOM     17  N   UNL     1      34.168 -22.931 -16.951  0.00  0.00    -0.226 N 
ATOM     18  C   UNL     1      33.037 -23.588 -15.011  0.00  0.00    +0.032 C 
ATOM     19  C   UNL     1      34.362 -23.687 -15.727  0.00  0.00    +0.102 C 
ATOM     20  C   UNL     1      32.033 -23.570 -16.148  0.00  0.00    +0.087 C 
ATOM     21  C   UNL     1      32.776 -22.870 -17.263  0.00  0.00    +0.232 C 
ATOM     22  C   UNL     1      35.287 -22.507 -17.680  0.00  0.00    +0.255 C 
ENDBRANCH  13  22
ENDBRANCH   2  14
TORSDOF 8
ENDMDL
