MODEL 1
REMARK VINA RESULT:     -11.9      0.000      0.000
REMARK  Name = 16720766
REMARK  7 active torsions:
REMARK  status: ('A' for Active; 'I' for Inactive)
REMARK    1  A    between atoms: N_1  and  C_10
REMARK    2  A    between atoms: C_11  and  C_17
REMARK    3  A    between atoms: C_13  and  O_15
REMARK    4  A    between atoms: C_17  and  O_18
REMARK    5  A    between atoms: O_18  and  S_19
REMARK    6  A    between atoms: S_19  and  N_22
REMARK    7  A    between atoms: N_25  and  C_27
REMARK                            x       y       z     vdW  Elec       q    Type
REMARK                         _______ _______ _______ _____ _____    ______ ____
ROOT
ATOM      1  N   UNL     1      34.040 -21.623 -19.195  0.00  0.00    -0.276 N 
ATOM      2  N   UNL     1      36.299 -20.882 -19.599  0.00  0.00    -0.233 NA
ATOM      3  N   UNL     1      36.420 -18.993 -21.129  0.00  0.00    -0.233 NA
ATOM      4  C   UNL     1      34.969 -20.805 -19.780  0.00  0.00    +0.120 C 
ATOM      5  C   UNL     1      32.784 -21.257 -19.607  0.00  0.00    +0.062 C 
ATOM      6  C   UNL     1      34.293 -19.894 -20.584  0.00  0.00    +0.131 C 
ATOM      7  C   UNL     1      32.910 -20.187 -20.467  0.00  0.00    +0.004 C 
ATOM      8  C   UNL     1      35.066 -18.952 -21.283  0.00  0.00    +0.113 C 
ATOM      9  C   UNL     1      36.942 -19.937 -20.313  0.00  0.00    +0.252 C 
ATOM     10  N   UNL     1      34.479 -18.005 -22.107  0.00  0.00    -0.319 N 
ATOM     11  H   UNL     1      33.498 -18.007 -22.191  0.00  0.00    +0.148 HD
ENDROOT
BRANCH  10  12
ATOM     12  C   UNL     1      35.223 -17.015 -22.847  0.00  0.00    +0.093 C 
ATOM     13  C   UNL     1      35.335 -17.408 -24.332  0.00  0.00    +0.029 C 
ATOM     14  C   UNL     1      34.451 -15.734 -22.943  0.00  0.00    -0.008 C 
ATOM     15  C   UNL     1      34.112 -16.808 -25.047  0.00  0.00    +0.028 C 
ATOM     16  C   UNL     1      33.829 -15.614 -24.192  0.00  0.00    -0.025 C 
ATOM     17  C   UNL     1      34.296 -14.757 -21.971  0.00  0.00    -0.003 C 
ATOM     18  C   UNL     1      33.034 -14.521 -24.491  0.00  0.00    -0.005 C 
ATOM     19  C   UNL     1      33.506 -13.646 -22.270  0.00  0.00    -0.000 C 
ATOM     20  C   UNL     1      32.878 -13.529 -23.521  0.00  0.00    -0.000 C 
ENDBRANCH  10  12
BRANCH   1  21
ATOM     21  C   UNL     1      34.329 -22.721 -18.276  0.00  0.00    +0.081 C 
ATOM     22  C   UNL     1      33.487 -22.964 -15.992  0.00  0.00    +0.061 C 
ATOM     23  C   UNL     1      33.113 -23.209 -17.460  0.00  0.00    +0.025 C 
ATOM     24  C   UNL     1      35.008 -23.117 -15.981  0.00  0.00    +0.115 C 
ATOM     25  C   UNL     1      35.432 -22.385 -17.251  0.00  0.00    +0.049 C 
BRANCH  24  26
ATOM     26  O   UNL     1      35.382 -24.486 -16.065  0.00  0.00    -0.384 OA
ATOM     27  H   UNL     1      36.177 -24.571 -16.616  0.00  0.00    +0.210 HD
ENDBRANCH  24  26
BRANCH  22  28
ATOM     28  C   UNL     1      32.749 -23.890 -15.038  0.00  0.00    +0.176 C 
BRANCH  28  29
ATOM     29  O   UNL     1      31.481 -24.200 -15.592  0.00  0.00    -0.230 OA
BRANCH  29  30
ATOM     30  S   UNL     1      30.134 -24.060 -14.673  0.00  0.00    +0.045 S 
ATOM     31  O   UNL     1      29.801 -22.651 -14.555  0.00  0.00    -0.056 OA
ATOM     32  O   UNL     1      29.154 -24.996 -15.194  0.00  0.00    -0.056 OA
BRANCH  30  33
ATOM     33  N   UNL     1      30.621 -24.623 -13.129  0.00  0.00    -0.204 NA
ATOM     34  H   UNL     1      29.797 -24.791 -12.553  0.00  0.00    +0.144 HD
ATOM     35  H   UNL     1      31.211 -23.921 -12.682  0.00  0.00    +0.144 HD
ENDBRANCH  30  33
ENDBRANCH  29  30
ENDBRANCH  28  29
ENDBRANCH  22  28
ENDBRANCH   1  21
TORSDOF 7
ENDMDL
MODEL 2
REMARK VINA RESULT:     -11.5      1.994      2.283
REMARK  Name = 16720766
REMARK  7 active torsions:
REMARK  status: ('A' for Active; 'I' for Inactive)
REMARK    1  A    between atoms: N_1  and  C_10
REMARK    2  A    between atoms: C_11  and  C_17
REMARK    3  A    between atoms: C_13  and  O_15
REMARK    4  A    between atoms: C_17  and  O_18
REMARK    5  A    between atoms: O_18  and  S_19
REMARK    6  A    between atoms: S_19  and  N_22
REMARK    7  A    between atoms: N_25  and  C_27
REMARK                            x       y       z     vdW  Elec       q    Type
REMARK                         _______ _______ _______ _____ _____    ______ ____
ROOT
ATOM      1  N   UNL     1      34.730 -21.273 -19.522  0.00  0.00    -0.276 N 
ATOM      2  N   UNL     1      36.867 -20.321 -20.105  0.00  0.00    -0.233 NA
ATOM      3  N   UNL     1      36.690 -18.508 -21.720  0.00  0.00    -0.233 NA
ATOM      4  C   UNL     1      35.527 -20.392 -20.201  0.00  0.00    +0.120 C 
ATOM      5  C   UNL     1      33.418 -21.061 -19.864  0.00  0.00    +0.062 C 
ATOM      6  C   UNL     1      34.709 -19.599 -20.997  0.00  0.00    +0.131 C 
ATOM      7  C   UNL     1      33.376 -20.029 -20.777  0.00  0.00    +0.004 C 
ATOM      8  C   UNL     1      35.332 -18.617 -21.785  0.00  0.00    +0.113 C 
ATOM      9  C   UNL     1      37.359 -19.350 -20.900  0.00  0.00    +0.252 C 
ATOM     10  N   UNL     1      34.597 -17.778 -22.609  0.00  0.00    -0.319 N 
ATOM     11  H   UNL     1      33.619 -17.887 -22.628  0.00  0.00    +0.148 HD
ENDROOT
BRANCH  10  12
ATOM     12  C   UNL     1      35.184 -16.755 -23.439  0.00  0.00    +0.093 C 
ATOM     13  C   UNL     1      35.014 -17.092 -24.932  0.00  0.00    +0.029 C 
ATOM     14  C   UNL     1      34.403 -15.479 -23.338  0.00  0.00    -0.008 C 
ATOM     15  C   UNL     1      33.675 -16.479 -25.380  0.00  0.00    +0.028 C 
ATOM     16  C   UNL     1      33.555 -15.320 -24.442  0.00  0.00    -0.025 C 
ATOM     17  C   UNL     1      34.430 -14.540 -22.319  0.00  0.00    -0.003 C 
ATOM     18  C   UNL     1      32.713 -14.226 -24.544  0.00  0.00    -0.005 C 
ATOM     19  C   UNL     1      33.593 -13.427 -22.421  0.00  0.00    -0.000 C 
ATOM     20  C   UNL     1      32.740 -13.272 -23.525  0.00  0.00    -0.000 C 
ENDBRANCH  10  12
BRANCH   1  21
ATOM     21  C   UNL     1      35.191 -22.287 -18.577  0.00  0.00    +0.081 C 
ATOM     22  C   UNL     1      34.298 -22.700 -16.338  0.00  0.00    +0.061 C 
ATOM     23  C   UNL     1      34.061 -23.017 -17.819  0.00  0.00    +0.025 C 
ATOM     24  C   UNL     1      35.815 -22.534 -16.245  0.00  0.00    +0.115 C 
ATOM     25  C   UNL     1      36.144 -21.730 -17.500  0.00  0.00    +0.049 C 
BRANCH  24  26
ATOM     26  O   UNL     1      36.469 -23.796 -16.296  0.00  0.00    -0.384 OA
ATOM     27  H   UNL     1      36.856 -23.995 -15.429  0.00  0.00    +0.210 HD
ENDBRANCH  24  26
BRANCH  22  28
ATOM     28  C   UNL     1      33.719 -23.760 -15.413  0.00  0.00    +0.176 C 
BRANCH  28  29
ATOM     29  O   UNL     1      34.013 -23.405 -14.072  0.00  0.00    -0.230 OA
BRANCH  29  30
ATOM     30  S   UNL     1      35.121 -24.263 -13.226  0.00  0.00    +0.045 S 
ATOM     31  O   UNL     1      36.318 -23.454 -13.081  0.00  0.00    -0.056 OA
ATOM     32  O   UNL     1      34.454 -24.790 -12.049  0.00  0.00    -0.056 OA
BRANCH  30  33
ATOM     33  N   UNL     1      35.493 -25.587 -14.249  0.00  0.00    -0.204 NA
ATOM     34  H   UNL     1      35.348 -25.317 -15.221  0.00  0.00    +0.144 HD
ATOM     35  H   UNL     1      34.884 -26.373 -14.021  0.00  0.00    +0.144 HD
ENDBRANCH  30  33
ENDBRANCH  29  30
ENDBRANCH  28  29
ENDBRANCH  22  28
ENDBRANCH   1  21
TORSDOF 7
ENDMDL
MODEL 3
REMARK VINA RESULT:     -11.3      8.195     11.928
REMARK  Name = 16720766
REMARK  7 active torsions:
REMARK  status: ('A' for Active; 'I' for Inactive)
REMARK    1  A    between atoms: N_1  and  C_10
REMARK    2  A    between atoms: C_11  and  C_17
REMARK    3  A    between atoms: C_13  and  O_15
REMARK    4  A    between atoms: C_17  and  O_18
REMARK    5  A    between atoms: O_18  and  S_19
REMARK    6  A    between atoms: S_19  and  N_22
REMARK    7  A    between atoms: N_25  and  C_27
REMARK                            x       y       z     vdW  Elec       q    Type
REMARK                         _______ _______ _______ _____ _____    ______ ____
ROOT
ATOM      1  N   UNL     1      32.457 -13.057 -22.089  0.00  0.00    -0.276 N 
ATOM      2  N   UNL     1      33.014 -14.151 -24.164  0.00  0.00    -0.233 NA
ATOM      3  N   UNL     1      33.941 -16.379 -23.844  0.00  0.00    -0.233 NA
ATOM      4  C   UNL     1      32.935 -14.109 -22.822  0.00  0.00    +0.120 C 
ATOM      5  C   UNL     1      32.526 -13.361 -20.753  0.00  0.00    +0.062 C 
ATOM      6  C   UNL     1      33.319 -15.110 -21.937  0.00  0.00    +0.131 C 
ATOM      7  C   UNL     1      33.056 -14.628 -20.629  0.00  0.00    +0.004 C 
ATOM      8  C   UNL     1      33.843 -16.291 -22.487  0.00  0.00    +0.113 C 
ATOM      9  C   UNL     1      33.529 -15.324 -24.583  0.00  0.00    +0.252 C 
ATOM     10  N   UNL     1      34.250 -17.344 -21.682  0.00  0.00    -0.319 N 
ATOM     11  H   UNL     1      34.163 -17.243 -20.706  0.00  0.00    +0.148 HD
ENDROOT
BRANCH  10  12
ATOM     12  C   UNL     1      34.796 -18.578 -22.191  0.00  0.00    +0.093 C 
ATOM     13  C   UNL     1      36.330 -18.499 -22.302  0.00  0.00    +0.029 C 
ATOM     14  C   UNL     1      34.633 -19.682 -21.190  0.00  0.00    -0.008 C 
ATOM     15  C   UNL     1      36.901 -18.975 -20.955  0.00  0.00    +0.028 C 
ATOM     16  C   UNL     1      35.828 -19.911 -20.497  0.00  0.00    -0.025 C 
ATOM     17  C   UNL     1      33.490 -20.411 -20.903  0.00  0.00    -0.003 C 
ATOM     18  C   UNL     1      35.902 -20.867 -19.498  0.00  0.00    -0.005 C 
ATOM     19  C   UNL     1      33.560 -21.386 -19.906  0.00  0.00    -0.000 C 
ATOM     20  C   UNL     1      34.757 -21.612 -19.207  0.00  0.00    -0.000 C 
ENDBRANCH  10  12
BRANCH   1  21
ATOM     21  C   UNL     1      31.951 -11.799 -22.632  0.00  0.00    +0.081 C 
ATOM     22  C   UNL     1      33.039  -9.613 -22.493  0.00  0.00    +0.061 C 
ATOM     23  C   UNL     1      33.022 -10.914 -23.305  0.00  0.00    +0.025 C 
ATOM     24  C   UNL     1      31.599  -9.485 -21.992  0.00  0.00    +0.115 C 
ATOM     25  C   UNL     1      31.258 -10.913 -21.577  0.00  0.00    +0.049 C 
BRANCH  24  26
ATOM     26  O   UNL     1      30.733  -9.067 -23.040  0.00  0.00    -0.384 OA
ATOM     27  H   UNL     1      29.895  -8.756 -22.661  0.00  0.00    +0.210 HD
ENDBRANCH  24  26
BRANCH  22  28
ATOM     28  C   UNL     1      33.537  -8.425 -23.302  0.00  0.00    +0.176 C 
BRANCH  28  29
ATOM     29  O   UNL     1      32.822  -7.269 -22.901  0.00  0.00    -0.230 OA
BRANCH  29  30
ATOM     30  S   UNL     1      32.242  -6.235 -24.030  0.00  0.00    +0.045 S 
ATOM     31  O   UNL     1      33.325  -5.881 -24.930  0.00  0.00    -0.056 OA
ATOM     32  O   UNL     1      31.019  -6.812 -24.558  0.00  0.00    -0.056 OA
BRANCH  30  33
ATOM     33  N   UNL     1      31.814  -4.837 -23.135  0.00  0.00    -0.204 NA
ATOM     34  H   UNL     1      32.038  -4.004 -23.679  0.00  0.00    +0.144 HD
ATOM     35  H   UNL     1      32.335  -4.822 -22.259  0.00  0.00    +0.144 HD
ENDBRANCH  30  33
ENDBRANCH  29  30
ENDBRANCH  28  29
ENDBRANCH  22  28
ENDBRANCH   1  21
TORSDOF 7
ENDMDL
MODEL 4
REMARK VINA RESULT:     -11.1      3.779      6.516
REMARK  Name = 16720766
REMARK  7 active torsions:
REMARK  status: ('A' for Active; 'I' for Inactive)
REMARK    1  A    between atoms: N_1  and  C_10
REMARK    2  A    between atoms: C_11  and  C_17
REMARK    3  A    between atoms: C_13  and  O_15
REMARK    4  A    between atoms: C_17  and  O_18
REMARK    5  A    between atoms: O_18  and  S_19
REMARK    6  A    between atoms: S_19  and  N_22
REMARK    7  A    between atoms: N_25  and  C_27
REMARK                            x       y       z     vdW  Elec       q    Type
REMARK                         _______ _______ _______ _____ _____    ______ ____
ROOT
ATOM      1  N   UNL     1      33.967 -16.203 -21.691  0.00  0.00    -0.276 N 
ATOM      2  N   UNL     1      33.592 -15.579 -23.990  0.00  0.00    -0.233 NA
ATOM      3  N   UNL     1      32.765 -13.303 -24.233  0.00  0.00    -0.233 NA
ATOM      4  C   UNL     1      33.589 -15.324 -22.669  0.00  0.00    +0.120 C 
ATOM      5  C   UNL     1      33.836 -15.606 -20.463  0.00  0.00    +0.062 C 
ATOM      6  C   UNL     1      33.206 -14.137 -22.055  0.00  0.00    +0.131 C 
ATOM      7  C   UNL     1      33.366 -14.325 -20.659  0.00  0.00    +0.004 C 
ATOM      8  C   UNL     1      32.778 -13.089 -22.887  0.00  0.00    +0.113 C 
ATOM      9  C   UNL     1      33.164 -14.511 -24.692  0.00  0.00    +0.252 C 
ATOM     10  N   UNL     1      32.380 -11.869 -22.364  0.00  0.00    -0.319 N 
ATOM     11  H   UNL     1      32.404 -11.753 -21.386  0.00  0.00    +0.148 HD
ENDROOT
BRANCH  10  12
ATOM     12  C   UNL     1      31.931 -10.759 -23.169  0.00  0.00    +0.093 C 
ATOM     13  C   UNL     1      30.932  -9.882 -22.392  0.00  0.00    +0.029 C 
ATOM     14  C   UNL     1      33.049  -9.789 -23.404  0.00  0.00    -0.008 C 
ATOM     15  C   UNL     1      31.756  -8.817 -21.648  0.00  0.00    +0.028 C 
ATOM     16  C   UNL     1      32.944  -8.685 -22.548  0.00  0.00    -0.025 C 
ATOM     17  C   UNL     1      34.099  -9.898 -24.302  0.00  0.00    -0.003 C 
ATOM     18  C   UNL     1      33.890  -7.675 -22.566  0.00  0.00    -0.005 C 
ATOM     19  C   UNL     1      35.050  -8.877 -24.336  0.00  0.00    -0.000 C 
ATOM     20  C   UNL     1      34.947  -7.773 -23.473  0.00  0.00    -0.000 C 
ENDBRANCH  10  12
BRANCH   1  21
ATOM     21  C   UNL     1      34.438 -17.569 -21.907  0.00  0.00    +0.081 C 
ATOM     22  C   UNL     1      34.003 -19.501 -20.472  0.00  0.00    +0.061 C 
ATOM     23  C   UNL     1      33.392 -18.663 -21.602  0.00  0.00    +0.025 C 
ATOM     24  C   UNL     1      35.508 -19.395 -20.721  0.00  0.00    +0.115 C 
ATOM     25  C   UNL     1      35.689 -17.923 -21.077  0.00  0.00    +0.049 C 
BRANCH  24  26
ATOM     26  O   UNL     1      35.900 -20.209 -21.819  0.00  0.00    -0.384 OA
ATOM     27  H   UNL     1      36.122 -19.644 -22.577  0.00  0.00    +0.210 HD
ENDBRANCH  24  26
BRANCH  22  28
ATOM     28  C   UNL     1      33.464 -20.923 -20.441  0.00  0.00    +0.176 C 
BRANCH  28  29
ATOM     29  O   UNL     1      34.343 -21.727 -19.673  0.00  0.00    -0.230 OA
BRANCH  29  30
ATOM     30  S   UNL     1      33.736 -22.858 -18.657  0.00  0.00    +0.045 S 
ATOM     31  O   UNL     1      32.439 -22.405 -18.184  0.00  0.00    -0.056 OA
ATOM     32  O   UNL     1      33.858 -24.145 -19.317  0.00  0.00    -0.056 OA
BRANCH  30  33
ATOM     33  N   UNL     1      34.819 -22.850 -17.328  0.00  0.00    -0.204 NA
ATOM     34  H   UNL     1      35.312 -23.742 -17.287  0.00  0.00    +0.144 HD
ATOM     35  H   UNL     1      34.296 -22.710 -16.464  0.00  0.00    +0.144 HD
ENDBRANCH  30  33
ENDBRANCH  29  30
ENDBRANCH  28  29
ENDBRANCH  22  28
ENDBRANCH   1  21
TORSDOF 7
ENDMDL
MODEL 5
REMARK VINA RESULT:     -10.6      3.300      4.972
REMARK  Name = 16720766
REMARK  7 active torsions:
REMARK  status: ('A' for Active; 'I' for Inactive)
REMARK    1  A    between atoms: N_1  and  C_10
REMARK    2  A    between atoms: C_11  and  C_17
REMARK    3  A    between atoms: C_13  and  O_15
REMARK    4  A    between atoms: C_17  and  O_18
REMARK    5  A    between atoms: O_18  and  S_19
REMARK    6  A    between atoms: S_19  and  N_22
REMARK    7  A    between atoms: N_25  and  C_27
REMARK                            x       y       z     vdW  Elec       q    Type
REMARK                         _______ _______ _______ _____ _____    ______ ____
ROOT
ATOM      1  N   UNL     1      36.156 -22.995 -16.213  0.00  0.00    -0.276 N 
ATOM      2  N   UNL     1      34.028 -23.520 -17.217  0.00  0.00    -0.233 NA
ATOM      3  N   UNL     1      33.606 -22.265 -19.260  0.00  0.00    -0.233 NA
ATOM      4  C   UNL     1      35.196 -22.855 -17.178  0.00  0.00    +0.120 C 
ATOM      5  C   UNL     1      37.210 -22.162 -16.491  0.00  0.00    +0.062 C 
ATOM      6  C   UNL     1      35.644 -21.911 -18.095  0.00  0.00    +0.131 C 
ATOM      7  C   UNL     1      36.920 -21.479 -17.653  0.00  0.00    +0.004 C 
ATOM      8  C   UNL     1      34.801 -21.614 -19.179  0.00  0.00    +0.113 C 
ATOM      9  C   UNL     1      33.300 -23.160 -18.293  0.00  0.00    +0.252 C 
ATOM     10  N   UNL     1      35.165 -20.688 -20.144  0.00  0.00    -0.319 N 
ATOM     11  H   UNL     1      36.037 -20.239 -20.051  0.00  0.00    +0.148 HD
ENDROOT
BRANCH  10  12
ATOM     12  C   UNL     1      34.340 -20.343 -21.276  0.00  0.00    +0.093 C 
ATOM     13  C   UNL     1      32.873 -20.146 -20.850  0.00  0.00    +0.029 C 
ATOM     14  C   UNL     1      34.682 -18.975 -21.784  0.00  0.00    -0.008 C 
ATOM     15  C   UNL     1      32.713 -18.663 -20.471  0.00  0.00    +0.028 C 
ATOM     16  C   UNL     1      33.756 -18.026 -21.334  0.00  0.00    -0.025 C 
ATOM     17  C   UNL     1      35.760 -18.603 -22.572  0.00  0.00    -0.003 C 
ATOM     18  C   UNL     1      33.893 -16.686 -21.655  0.00  0.00    -0.005 C 
ATOM     19  C   UNL     1      35.898 -17.255 -22.910  0.00  0.00    -0.000 C 
ATOM     20  C   UNL     1      34.972 -16.303 -22.454  0.00  0.00    -0.000 C 
ENDBRANCH  10  12
BRANCH   1  21
ATOM     21  C   UNL     1      36.082 -23.888 -15.059  0.00  0.00    +0.081 C 
ATOM     22  C   UNL     1      37.881 -24.364 -13.472  0.00  0.00    +0.061 C 
ATOM     23  C   UNL     1      36.774 -23.351 -13.788  0.00  0.00    +0.025 C 
ATOM     24  C   UNL     1      37.317 -25.686 -13.995  0.00  0.00    +0.115 C 
ATOM     25  C   UNL     1      36.688 -25.282 -15.325  0.00  0.00    +0.049 C 
BRANCH  24  26
ATOM     26  O   UNL     1      36.315 -26.192 -13.122  0.00  0.00    -0.384 OA
ATOM     27  H   UNL     1      35.486 -25.708 -13.267  0.00  0.00    +0.210 HD
ENDBRANCH  24  26
BRANCH  22  28
ATOM     28  C   UNL     1      38.260 -24.376 -11.999  0.00  0.00    +0.176 C 
BRANCH  28  29
ATOM     29  O   UNL     1      37.186 -24.927 -11.256  0.00  0.00    -0.230 OA
BRANCH  29  30
ATOM     30  S   UNL     1      36.097 -23.936 -10.541  0.00  0.00    +0.045 S 
ATOM     31  O   UNL     1      35.504 -24.638  -9.416  0.00  0.00    -0.056 OA
ATOM     32  O   UNL     1      36.747 -22.654 -10.335  0.00  0.00    -0.056 OA
BRANCH  30  33
ATOM     33  N   UNL     1      34.884 -23.718 -11.732  0.00  0.00    -0.204 NA
ATOM     34  H   UNL     1      35.242 -23.119 -12.476  0.00  0.00    +0.144 HD
ATOM     35  H   UNL     1      34.066 -23.282 -11.308  0.00  0.00    +0.144 HD
ENDBRANCH  30  33
ENDBRANCH  29  30
ENDBRANCH  28  29
ENDBRANCH  22  28
ENDBRANCH   1  21
TORSDOF 7
ENDMDL
MODEL 6
REMARK VINA RESULT:     -10.5      6.696     10.619
REMARK  Name = 16720766
REMARK  7 active torsions:
REMARK  status: ('A' for Active; 'I' for Inactive)
REMARK    1  A    between atoms: N_1  and  C_10
REMARK    2  A    between atoms: C_11  and  C_17
REMARK    3  A    between atoms: C_13  and  O_15
REMARK    4  A    between atoms: C_17  and  O_18
REMARK    5  A    between atoms: O_18  and  S_19
REMARK    6  A    between atoms: S_19  and  N_22
REMARK    7  A    between atoms: N_25  and  C_27
REMARK                            x       y       z     vdW  Elec       q    Type
REMARK                         _______ _______ _______ _____ _____    ______ ____
ROOT
ATOM      1  N   UNL     1      34.532 -15.770 -22.557  0.00  0.00    -0.276 N 
ATOM      2  N   UNL     1      34.947 -17.671 -23.982  0.00  0.00    -0.233 NA
ATOM      3  N   UNL     1      35.253 -19.741 -22.739  0.00  0.00    -0.233 NA
ATOM      4  C   UNL     1      34.781 -17.098 -22.776  0.00  0.00    +0.120 C 
ATOM      5  C   UNL     1      34.421 -15.542 -21.209  0.00  0.00    +0.062 C 
ATOM      6  C   UNL     1      34.831 -17.735 -21.542  0.00  0.00    +0.131 C 
ATOM      7  C   UNL     1      34.601 -16.742 -20.556  0.00  0.00    +0.004 C 
ATOM      8  C   UNL     1      35.078 -19.117 -21.539  0.00  0.00    +0.113 C 
ATOM      9  C   UNL     1      35.178 -18.993 -23.863  0.00  0.00    +0.252 C 
ATOM     10  N   UNL     1      35.144 -19.837 -20.356  0.00  0.00    -0.319 N 
ATOM     11  H   UNL     1      35.011 -19.351 -19.509  0.00  0.00    +0.148 HD
ENDROOT
BRANCH  10  12
ATOM     12  C   UNL     1      35.394 -21.256 -20.293  0.00  0.00    +0.093 C 
ATOM     13  C   UNL     1      36.858 -21.541 -19.907  0.00  0.00    +0.029 C 
ATOM     14  C   UNL     1      34.664 -21.872 -19.138  0.00  0.00    -0.008 C 
ATOM     15  C   UNL     1      36.910 -21.614 -18.371  0.00  0.00    +0.028 C 
ATOM     16  C   UNL     1      35.525 -22.082 -18.053  0.00  0.00    -0.025 C 
ATOM     17  C   UNL     1      33.320 -22.199 -19.055  0.00  0.00    -0.003 C 
ATOM     18  C   UNL     1      35.058 -22.613 -16.863  0.00  0.00    -0.005 C 
ATOM     19  C   UNL     1      32.843 -22.747 -17.863  0.00  0.00    -0.000 C 
ATOM     20  C   UNL     1      33.706 -22.952 -16.774  0.00  0.00    -0.000 C 
ENDBRANCH  10  12
BRANCH   1  21
ATOM     21  C   UNL     1      34.404 -14.744 -23.589  0.00  0.00    +0.081 C 
ATOM     22  C   UNL     1      33.004 -12.741 -23.482  0.00  0.00    +0.061 C 
ATOM     23  C   UNL     1      34.368 -13.297 -23.053  0.00  0.00    +0.025 C 
ATOM     24  C   UNL     1      32.708 -13.486 -24.785  0.00  0.00    +0.115 C 
ATOM     25  C   UNL     1      33.146 -14.913 -24.465  0.00  0.00    +0.049 C 
BRANCH  24  26
ATOM     26  O   UNL     1      33.491 -12.970 -25.854  0.00  0.00    -0.384 OA
ATOM     27  H   UNL     1      33.595 -12.012 -25.745  0.00  0.00    +0.210 HD
ENDBRANCH  24  26
BRANCH  22  28
ATOM     28  C   UNL     1      33.003 -11.225 -23.605  0.00  0.00    +0.176 C 
BRANCH  28  29
ATOM     29  O   UNL     1      32.240 -10.683 -22.540  0.00  0.00    -0.230 OA
BRANCH  29  30
ATOM     30  S   UNL     1      32.105  -9.060 -22.378  0.00  0.00    +0.045 S 
ATOM     31  O   UNL     1      31.051  -8.594 -23.262  0.00  0.00    -0.056 OA
ATOM     32  O   UNL     1      32.042  -8.770 -20.957  0.00  0.00    -0.056 OA
BRANCH  30  33
ATOM     33  N   UNL     1      33.598  -8.456 -22.966  0.00  0.00    -0.204 NA
ATOM     34  H   UNL     1      33.703  -8.706 -23.949  0.00  0.00    +0.144 HD
ATOM     35  H   UNL     1      34.364  -8.863 -22.429  0.00  0.00    +0.144 HD
ENDBRANCH  30  33
ENDBRANCH  29  30
ENDBRANCH  28  29
ENDBRANCH  22  28
ENDBRANCH   1  21
TORSDOF 7
ENDMDL
MODEL 7
REMARK VINA RESULT:     -10.4      3.611      5.785
REMARK  Name = 16720766
REMARK  7 active torsions:
REMARK  status: ('A' for Active; 'I' for Inactive)
REMARK    1  A    between atoms: N_1  and  C_10
REMARK    2  A    between atoms: C_11  and  C_17
REMARK    3  A    between atoms: C_13  and  O_15
REMARK    4  A    between atoms: C_17  and  O_18
REMARK    5  A    between atoms: O_18  and  S_19
REMARK    6  A    between atoms: S_19  and  N_22
REMARK    7  A    between atoms: N_25  and  C_27
REMARK                            x       y       z     vdW  Elec       q    Type
REMARK                         _______ _______ _______ _____ _____    ______ ____
ROOT
ATOM      1  N   UNL     1      36.090 -22.585 -16.144  0.00  0.00    -0.276 N 
ATOM      2  N   UNL     1      33.886 -22.996 -17.032  0.00  0.00    -0.233 NA
ATOM      3  N   UNL     1      33.514 -21.925 -19.185  0.00  0.00    -0.233 NA
ATOM      4  C   UNL     1      35.114 -22.450 -17.094  0.00  0.00    +0.120 C 
ATOM      5  C   UNL     1      37.209 -21.895 -16.537  0.00  0.00    +0.062 C 
ATOM      6  C   UNL     1      35.617 -21.657 -18.118  0.00  0.00    +0.131 C 
ATOM      7  C   UNL     1      36.945 -21.311 -17.758  0.00  0.00    +0.004 C 
ATOM      8  C   UNL     1      34.769 -21.392 -19.205  0.00  0.00    +0.113 C 
ATOM      9  C   UNL     1      33.158 -22.679 -18.121  0.00  0.00    +0.252 C 
ATOM     10  N   UNL     1      35.186 -20.612 -20.273  0.00  0.00    -0.319 N 
ATOM     11  H   UNL     1      36.099 -20.246 -20.252  0.00  0.00    +0.148 HD
ENDROOT
BRANCH  10  12
ATOM     12  C   UNL     1      34.357 -20.307 -21.415  0.00  0.00    +0.093 C 
ATOM     13  C   UNL     1      32.891 -20.100 -20.992  0.00  0.00    +0.029 C 
ATOM     14  C   UNL     1      34.695 -18.955 -21.967  0.00  0.00    -0.008 C 
ATOM     15  C   UNL     1      32.728 -18.606 -20.661  0.00  0.00    +0.028 C 
ATOM     16  C   UNL     1      33.767 -17.994 -21.546  0.00  0.00    -0.025 C 
ATOM     17  C   UNL     1      35.770 -18.605 -22.769  0.00  0.00    -0.003 C 
ATOM     18  C   UNL     1      33.900 -16.665 -21.911  0.00  0.00    -0.005 C 
ATOM     19  C   UNL     1      35.904 -17.269 -23.151  0.00  0.00    -0.000 C 
ATOM     20  C   UNL     1      34.976 -16.306 -22.724  0.00  0.00    -0.000 C 
ENDBRANCH  10  12
BRANCH   1  21
ATOM     21  C   UNL     1      35.972 -23.341 -14.900  0.00  0.00    +0.081 C 
ATOM     22  C   UNL     1      37.466 -25.118 -14.131  0.00  0.00    +0.061 C 
ATOM     23  C   UNL     1      37.310 -23.592 -14.173  0.00  0.00    +0.025 C 
ATOM     24  C   UNL     1      36.023 -25.623 -14.078  0.00  0.00    +0.115 C 
ATOM     25  C   UNL     1      35.313 -24.723 -15.085  0.00  0.00    +0.049 C 
BRANCH  24  26
ATOM     26  O   UNL     1      35.465 -25.433 -12.784  0.00  0.00    -0.384 OA
ATOM     27  H   UNL     1      34.630 -25.923 -12.718  0.00  0.00    +0.210 HD
ENDBRANCH  24  26
BRANCH  22  28
ATOM     28  C   UNL     1      38.343 -25.584 -12.979  0.00  0.00    +0.176 C 
BRANCH  28  29
ATOM     29  O   UNL     1      39.289 -26.516 -13.475  0.00  0.00    -0.230 OA
BRANCH  29  30
ATOM     30  S   UNL     1      40.641 -25.983 -14.228  0.00  0.00    +0.045 S 
ATOM     31  O   UNL     1      40.887 -24.612 -13.819  0.00  0.00    -0.056 OA
ATOM     32  O   UNL     1      41.668 -26.992 -14.040  0.00  0.00    -0.056 OA
BRANCH  30  33
ATOM     33  N   UNL     1      40.218 -25.976 -15.890  0.00  0.00    -0.204 NA
ATOM     34  H   UNL     1      40.369 -26.905 -16.283  0.00  0.00    +0.144 HD
ATOM     35  H   UNL     1      40.798 -25.299 -16.385  0.00  0.00    +0.144 HD
ENDBRANCH  30  33
ENDBRANCH  29  30
ENDBRANCH  28  29
ENDBRANCH  22  28
ENDBRANCH   1  21
TORSDOF 7
ENDMDL
MODEL 8
REMARK VINA RESULT:     -10.1      5.123     10.290
REMARK  Name = 16720766
REMARK  7 active torsions:
REMARK  status: ('A' for Active; 'I' for Inactive)
REMARK    1  A    between atoms: N_1  and  C_10
REMARK    2  A    between atoms: C_11  and  C_17
REMARK    3  A    between atoms: C_13  and  O_15
REMARK    4  A    between atoms: C_17  and  O_18
REMARK    5  A    between atoms: O_18  and  S_19
REMARK    6  A    between atoms: S_19  and  N_22
REMARK    7  A    between atoms: N_25  and  C_27
REMARK                            x       y       z     vdW  Elec       q    Type
REMARK                         _______ _______ _______ _____ _____    ______ ____
ROOT
ATOM      1  N   UNL     1      35.757 -20.862 -19.707  0.00  0.00    -0.276 N 
ATOM      2  N   UNL     1      33.813 -22.216 -19.259  0.00  0.00    -0.233 NA
ATOM      3  N   UNL     1      33.992 -23.479 -17.186  0.00  0.00    -0.233 NA
ATOM      4  C   UNL     1      35.037 -21.749 -18.953  0.00  0.00    +0.120 C 
ATOM      5  C   UNL     1      36.958 -20.611 -19.093  0.00  0.00    +0.062 C 
ATOM      6  C   UNL     1      35.792 -22.074 -17.833  0.00  0.00    +0.131 C 
ATOM      7  C   UNL     1      37.007 -21.348 -17.929  0.00  0.00    +0.004 C 
ATOM      8  C   UNL     1      35.232 -22.980 -16.917  0.00  0.00    +0.113 C 
ATOM      9  C   UNL     1      33.372 -23.075 -18.317  0.00  0.00    +0.252 C 
ATOM     10  N   UNL     1      35.911 -23.361 -15.770  0.00  0.00    -0.319 N 
ATOM     11  H   UNL     1      36.804 -22.977 -15.611  0.00  0.00    +0.148 HD
ENDROOT
BRANCH  10  12
ATOM     12  C   UNL     1      35.385 -24.287 -14.797  0.00  0.00    +0.093 C 
ATOM     13  C   UNL     1      35.568 -25.742 -15.266  0.00  0.00    +0.029 C 
ATOM     14  C   UNL     1      36.219 -24.276 -13.551  0.00  0.00    -0.008 C 
ATOM     15  C   UNL     1      36.940 -26.210 -14.750  0.00  0.00    +0.028 C 
ATOM     16  C   UNL     1      37.093 -25.369 -13.522  0.00  0.00    -0.025 C 
ATOM     17  C   UNL     1      36.213 -23.340 -12.529  0.00  0.00    -0.003 C 
ATOM     18  C   UNL     1      37.983 -25.544 -12.476  0.00  0.00    -0.005 C 
ATOM     19  C   UNL     1      37.099 -23.516 -11.465  0.00  0.00    -0.000 C 
ATOM     20  C   UNL     1      37.979 -24.610 -11.439  0.00  0.00    -0.000 C 
ENDBRANCH  10  12
BRANCH   1  21
ATOM     21  C   UNL     1      35.327 -20.269 -20.970  0.00  0.00    +0.081 C 
ATOM     22  C   UNL     1      35.057 -17.884 -21.439  0.00  0.00    +0.061 C 
ATOM     23  C   UNL     1      36.106 -19.001 -21.380  0.00  0.00    +0.025 C 
ATOM     24  C   UNL     1      33.774 -18.617 -21.835  0.00  0.00    +0.115 C 
ATOM     25  C   UNL     1      33.833 -19.884 -20.987  0.00  0.00    +0.049 C 
BRANCH  24  26
ATOM     26  O   UNL     1      33.792 -18.960 -23.215  0.00  0.00    -0.384 OA
ATOM     27  H   UNL     1      34.685 -19.243 -23.467  0.00  0.00    +0.210 HD
ENDBRANCH  24  26
BRANCH  22  28
ATOM     28  C   UNL     1      35.456 -16.754 -22.375  0.00  0.00    +0.176 C 
BRANCH  28  29
ATOM     29  O   UNL     1      34.282 -16.109 -22.839  0.00  0.00    -0.230 OA
BRANCH  29  30
ATOM     30  S   UNL     1      33.757 -14.743 -22.105  0.00  0.00    +0.045 S 
ATOM     31  O   UNL     1      32.309 -14.796 -22.013  0.00  0.00    -0.056 OA
ATOM     32  O   UNL     1      34.555 -14.561 -20.906  0.00  0.00    -0.056 OA
BRANCH  30  33
ATOM     33  N   UNL     1      34.175 -13.494 -23.202  0.00  0.00    -0.204 NA
ATOM     34  H   UNL     1      35.082 -13.104 -22.944  0.00  0.00    +0.144 HD
ATOM     35  H   UNL     1      33.468 -12.761 -23.168  0.00  0.00    +0.144 HD
ENDBRANCH  30  33
ENDBRANCH  29  30
ENDBRANCH  28  29
ENDBRANCH  22  28
ENDBRANCH   1  21
TORSDOF 7
ENDMDL
MODEL 9
REMARK VINA RESULT:     -10.1      5.292      8.715
REMARK  Name = 16720766
REMARK  7 active torsions:
REMARK  status: ('A' for Active; 'I' for Inactive)
REMARK    1  A    between atoms: N_1  and  C_10
REMARK    2  A    between atoms: C_11  and  C_17
REMARK    3  A    between atoms: C_13  and  O_15
REMARK    4  A    between atoms: C_17  and  O_18
REMARK    5  A    between atoms: O_18  and  S_19
REMARK    6  A    between atoms: S_19  and  N_22
REMARK    7  A    between atoms: N_25  and  C_27
REMARK                            x       y       z     vdW  Elec       q    Type
REMARK                         _______ _______ _______ _____ _____    ______ ____
ROOT
ATOM      1  N   UNL     1      33.498 -14.614 -23.636  0.00  0.00    -0.276 N 
ATOM      2  N   UNL     1      32.296 -14.176 -21.591  0.00  0.00    -0.233 NA
ATOM      3  N   UNL     1      31.723 -11.827 -21.311  0.00  0.00    -0.233 NA
ATOM      4  C   UNL     1      32.862 -13.788 -22.748  0.00  0.00    +0.120 C 
ATOM      5  C   UNL     1      33.952 -13.878 -24.700  0.00  0.00    +0.062 C 
ATOM      6  C   UNL     1      32.910 -12.495 -23.255  0.00  0.00    +0.131 C 
ATOM      7  C   UNL     1      33.602 -12.561 -24.491  0.00  0.00    +0.004 C 
ATOM      8  C   UNL     1      32.309 -11.480 -22.492  0.00  0.00    +0.113 C 
ATOM      9  C   UNL     1      31.752 -13.128 -20.942  0.00  0.00    +0.252 C 
ATOM     10  N   UNL     1      32.307 -10.161 -22.918  0.00  0.00    -0.319 N 
ATOM     11  H   UNL     1      32.740  -9.950 -23.777  0.00  0.00    +0.148 HD
ENDROOT
BRANCH  10  12
ATOM     12  C   UNL     1      31.706  -9.080 -22.176  0.00  0.00    +0.093 C 
ATOM     13  C   UNL     1      32.655  -8.574 -21.074  0.00  0.00    +0.029 C 
ATOM     14  C   UNL     1      31.577  -7.857 -23.033  0.00  0.00    -0.008 C 
ATOM     15  C   UNL     1      33.519  -7.466 -21.701  0.00  0.00    +0.028 C 
ATOM     16  C   UNL     1      32.600  -6.940 -22.757  0.00  0.00    -0.025 C 
ATOM     17  C   UNL     1      30.628  -7.594 -24.008  0.00  0.00    -0.003 C 
ATOM     18  C   UNL     1      32.698  -5.748 -23.455  0.00  0.00    -0.005 C 
ATOM     19  C   UNL     1      30.713  -6.389 -24.708  0.00  0.00    -0.000 C 
ATOM     20  C   UNL     1      31.741  -5.473 -24.434  0.00  0.00    -0.000 C 
ENDBRANCH  10  12
BRANCH   1  21
ATOM     21  C   UNL     1      33.673 -16.056 -23.484  0.00  0.00    +0.081 C 
ATOM     22  C   UNL     1      35.686 -17.200 -22.696  0.00  0.00    +0.061 C 
ATOM     23  C   UNL     1      34.425 -16.478 -22.203  0.00  0.00    +0.025 C 
ATOM     24  C   UNL     1      35.247 -17.822 -24.023  0.00  0.00    +0.115 C 
ATOM     25  C   UNL     1      34.425 -16.707 -24.663  0.00  0.00    +0.049 C 
BRANCH  24  26
ATOM     26  O   UNL     1      34.426 -18.962 -23.803  0.00  0.00    -0.384 OA
ATOM     27  H   UNL     1      34.036 -19.246 -24.645  0.00  0.00    +0.210 HD
ENDBRANCH  24  26
BRANCH  22  28
ATOM     28  C   UNL     1      36.226 -18.194 -21.678  0.00  0.00    +0.176 C 
BRANCH  28  29
ATOM     29  O   UNL     1      35.184 -18.542 -20.783  0.00  0.00    -0.230 OA
BRANCH  29  30
ATOM     30  S   UNL     1      34.760 -20.111 -20.596  0.00  0.00    +0.045 S 
ATOM     31  O   UNL     1      33.426 -20.164 -20.024  0.00  0.00    -0.056 OA
ATOM     32  O   UNL     1      35.040 -20.789 -21.849  0.00  0.00    -0.056 OA
BRANCH  30  33
ATOM     33  N   UNL     1      35.865 -20.705 -19.427  0.00  0.00    -0.204 NA
ATOM     34  H   UNL     1      35.466 -21.524 -18.968  0.00  0.00    +0.144 HD
ATOM     35  H   UNL     1      36.046 -19.981 -18.732  0.00  0.00    +0.144 HD
ENDBRANCH  30  33
ENDBRANCH  29  30
ENDBRANCH  28  29
ENDBRANCH  22  28
ENDBRANCH   1  21
TORSDOF 7
ENDMDL
