MODEL 1
REMARK VINA RESULT:      -9.1      0.000      0.000
REMARK  Name = 30949
REMARK  10 active torsions:
REMARK  status: ('A' for Active; 'I' for Inactive)
REMARK    1  A    between atoms: N_2  and  C_14
REMARK    2  A    between atoms: C_6  and  C_8
REMARK    3  A    between atoms: C_14  and  C_15
REMARK    4  A    between atoms: C_15  and  N_16
REMARK    5  A    between atoms: N_16  and  C_18
REMARK    6  A    between atoms: N_16  and  C_22
REMARK    7  A    between atoms: C_18  and  C_19
REMARK    8  A    between atoms: C_19  and  C_20
REMARK    9  A    between atoms: C_22  and  C_23
REMARK   10  A    between atoms: C_23  and  C_24
REMARK                            x       y       z     vdW  Elec       q    Type
REMARK                         _______ _______ _______ _____ _____    ______ ____
ROOT
ATOM      1  O   UNL     1      35.359 -17.815 -23.803  0.00  0.00    -0.296 OA
ATOM      2  N   UNL     1      34.863 -15.626 -23.247  0.00  0.00    -0.278 N 
ATOM      3  N   UNL     1      34.553 -17.493 -21.739  0.00  0.00    -0.296 NA
ATOM      4  N   UNL     1      35.306 -19.079 -23.206  0.00  0.00    -0.005 NA
ATOM      5  C   UNL     1      34.899 -16.938 -22.873  0.00  0.00    +0.376 C 
ATOM      6  C   UNL     1      34.820 -18.808 -21.990  0.00  0.00    +0.128 C 
ATOM      7  H   UNL     1      35.169 -15.398 -24.154  0.00  0.00    +0.152 HD
ENDROOT
BRANCH   6   8
ATOM      8  C   UNL     1      34.590 -19.825 -21.007  0.00  0.00    +0.077 C 
ATOM      9  C   UNL     1      33.290 -20.116 -20.593  0.00  0.00    +0.011 C 
ATOM     10  C   UNL     1      35.667 -20.525 -20.461  0.00  0.00    +0.011 C 
ATOM     11  C   UNL     1      33.066 -21.105 -19.636  0.00  0.00    +0.001 C 
ATOM     12  C   UNL     1      35.442 -21.514 -19.504  0.00  0.00    +0.001 C 
ATOM     13  C   UNL     1      34.143 -21.804 -19.091  0.00  0.00    +0.000 C 
ENDBRANCH   6   8
BRANCH   2  14
ATOM     14  C   UNL     1      34.407 -14.552 -22.397  0.00  0.00    +0.069 C 
BRANCH  14  15
ATOM     15  C   UNL     1      33.156 -13.922 -22.998  0.00  0.00    -0.056 C 
BRANCH  15  16
ATOM     16  N   UNL     1      33.205 -12.464 -22.864  0.00  0.00    +0.388 N 
ATOM     17  H   UNL     1      33.846 -12.230 -22.105  0.00  0.00    -0.080 HD
BRANCH  16  18
ATOM     18  C   UNL     1      33.706 -11.857 -24.099  0.00  0.00    -0.077 C 
BRANCH  18  19
ATOM     19  C   UNL     1      33.678 -10.334 -23.990  0.00  0.00    -0.023 C 
BRANCH  19  20
ATOM     20  C   UNL     1      34.994  -9.721 -24.471  0.00  0.00    -0.002 C 
ATOM     21  C   UNL     1      35.443 -10.331 -25.790  0.00  0.00    -0.000 C 
ENDBRANCH  19  20
ENDBRANCH  18  19
ENDBRANCH  16  18
BRANCH  16  22
ATOM     22  C   UNL     1      31.889 -11.935 -22.529  0.00  0.00    -0.077 C 
BRANCH  22  23
ATOM     23  C   UNL     1      31.579 -12.178 -21.053  0.00  0.00    -0.023 C 
BRANCH  23  24
ATOM     24  C   UNL     1      31.017 -10.920 -20.392  0.00  0.00    -0.002 C 
ATOM     25  C   UNL     1      31.456 -10.808 -18.941  0.00  0.00    -0.000 C 
ENDBRANCH  23  24
ENDBRANCH  22  23
ENDBRANCH  16  22
ENDBRANCH  15  16
ENDBRANCH  14  15
ENDBRANCH   2  14
TORSDOF 10
ENDMDL
MODEL 2
REMARK VINA RESULT:      -9.0      1.843      7.702
REMARK  Name = 30949
REMARK  10 active torsions:
REMARK  status: ('A' for Active; 'I' for Inactive)
REMARK    1  A    between atoms: N_2  and  C_14
REMARK    2  A    between atoms: C_6  and  C_8
REMARK    3  A    between atoms: C_14  and  C_15
REMARK    4  A    between atoms: C_15  and  N_16
REMARK    5  A    between atoms: N_16  and  C_18
REMARK    6  A    between atoms: N_16  and  C_22
REMARK    7  A    between atoms: C_18  and  C_19
REMARK    8  A    between atoms: C_19  and  C_20
REMARK    9  A    between atoms: C_22  and  C_23
REMARK   10  A    between atoms: C_23  and  C_24
REMARK                            x       y       z     vdW  Elec       q    Type
REMARK                         _______ _______ _______ _____ _____    ______ ____
ROOT
ATOM      1  O   UNL     1      33.238 -16.171 -26.225  0.00  0.00    -0.296 OA
ATOM      2  N   UNL     1      34.549 -17.721 -25.119  0.00  0.00    -0.278 N 
ATOM      3  N   UNL     1      34.119 -15.492 -24.281  0.00  0.00    -0.296 NA
ATOM      4  N   UNL     1      32.799 -14.855 -26.038  0.00  0.00    -0.005 NA
ATOM      5  C   UNL     1      34.008 -16.468 -25.146  0.00  0.00    +0.376 C 
ATOM      6  C   UNL     1      33.360 -14.523 -24.871  0.00  0.00    +0.128 C 
ATOM      7  H   UNL     1      34.350 -18.324 -25.871  0.00  0.00    +0.152 HD
ENDROOT
BRANCH   6   8
ATOM      8  C   UNL     1      33.183 -13.234 -24.269  0.00  0.00    +0.077 C 
ATOM      9  C   UNL     1      32.376 -13.096 -23.139  0.00  0.00    +0.011 C 
ATOM     10  C   UNL     1      33.817 -12.116 -24.812  0.00  0.00    +0.011 C 
ATOM     11  C   UNL     1      32.204 -11.842 -22.553  0.00  0.00    +0.001 C 
ATOM     12  C   UNL     1      33.644 -10.863 -24.225  0.00  0.00    +0.001 C 
ATOM     13  C   UNL     1      32.838 -10.725 -23.097  0.00  0.00    +0.000 C 
ENDBRANCH   6   8
BRANCH   2  14
ATOM     14  C   UNL     1      35.392 -18.219 -24.058  0.00  0.00    +0.069 C 
BRANCH  14  15
ATOM     15  C   UNL     1      34.559 -19.057 -23.095  0.00  0.00    -0.056 C 
BRANCH  15  16
ATOM     16  N   UNL     1      34.939 -18.768 -21.711  0.00  0.00    +0.388 N 
ATOM     17  H   UNL     1      35.906 -18.443 -21.700  0.00  0.00    -0.080 HD
BRANCH  16  18
ATOM     18  C   UNL     1      34.088 -17.711 -21.160  0.00  0.00    -0.077 C 
BRANCH  18  19
ATOM     19  C   UNL     1      34.910 -16.451 -20.897  0.00  0.00    -0.023 C 
BRANCH  19  20
ATOM     20  C   UNL     1      34.007 -15.258 -20.583  0.00  0.00    -0.002 C 
ATOM     21  C   UNL     1      32.537 -15.618 -20.728  0.00  0.00    -0.000 C 
ENDBRANCH  19  20
ENDBRANCH  18  19
ENDBRANCH  16  18
BRANCH  16  22
ATOM     22  C   UNL     1      34.854 -19.973 -20.893  0.00  0.00    -0.077 C 
BRANCH  22  23
ATOM     23  C   UNL     1      33.417 -20.195 -20.424  0.00  0.00    -0.023 C 
BRANCH  23  24
ATOM     24  C   UNL     1      33.312 -21.437 -19.539  0.00  0.00    -0.002 C 
ATOM     25  C   UNL     1      34.684 -21.959 -19.144  0.00  0.00    -0.000 C 
ENDBRANCH  23  24
ENDBRANCH  22  23
ENDBRANCH  16  22
ENDBRANCH  15  16
ENDBRANCH  14  15
ENDBRANCH   2  14
TORSDOF 10
ENDMDL
MODEL 3
REMARK VINA RESULT:      -8.8      0.793      2.865
REMARK  Name = 30949
REMARK  10 active torsions:
REMARK  status: ('A' for Active; 'I' for Inactive)
REMARK    1  A    between atoms: N_2  and  C_14
REMARK    2  A    between atoms: C_6  and  C_8
REMARK    3  A    between atoms: C_14  and  C_15
REMARK    4  A    between atoms: C_15  and  N_16
REMARK    5  A    between atoms: N_16  and  C_18
REMARK    6  A    between atoms: N_16  and  C_22
REMARK    7  A    between atoms: C_18  and  C_19
REMARK    8  A    between atoms: C_19  and  C_20
REMARK    9  A    between atoms: C_22  and  C_23
REMARK   10  A    between atoms: C_23  and  C_24
REMARK                            x       y       z     vdW  Elec       q    Type
REMARK                         _______ _______ _______ _____ _____    ______ ____
ROOT
ATOM      1  O   UNL     1      34.831 -17.827 -24.068  0.00  0.00    -0.296 OA
ATOM      2  N   UNL     1      34.393 -15.627 -23.510  0.00  0.00    -0.278 N 
ATOM      3  N   UNL     1      34.325 -17.449 -21.919  0.00  0.00    -0.296 NA
ATOM      4  N   UNL     1      34.880 -19.073 -23.433  0.00  0.00    -0.005 NA
ATOM      5  C   UNL     1      34.498 -16.927 -23.107  0.00  0.00    +0.376 C 
ATOM      6  C   UNL     1      34.570 -18.769 -22.168  0.00  0.00    +0.128 C 
ATOM      7  H   UNL     1      34.562 -15.423 -24.458  0.00  0.00    +0.152 HD
ENDROOT
BRANCH   6   8
ATOM      8  C   UNL     1      34.496 -19.757 -21.133  0.00  0.00    +0.077 C 
ATOM      9  C   UNL     1      33.255 -20.164 -20.644  0.00  0.00    +0.011 C 
ATOM     10  C   UNL     1      35.665 -20.314 -20.614  0.00  0.00    +0.011 C 
ATOM     11  C   UNL     1      33.182 -21.126 -19.636  0.00  0.00    +0.001 C 
ATOM     12  C   UNL     1      35.592 -21.275 -19.606  0.00  0.00    +0.001 C 
ATOM     13  C   UNL     1      34.352 -21.681 -19.116  0.00  0.00    +0.000 C 
ENDBRANCH   6   8
BRANCH   2  14
ATOM     14  C   UNL     1      34.050 -14.531 -22.634  0.00  0.00    +0.069 C 
BRANCH  14  15
ATOM     15  C   UNL     1      33.922 -13.249 -23.448  0.00  0.00    -0.056 C 
BRANCH  15  16
ATOM     16  N   UNL     1      32.671 -12.561 -23.120  0.00  0.00    +0.388 N 
ATOM     17  H   UNL     1      31.937 -12.911 -23.736  0.00  0.00    -0.080 HD
BRANCH  16  18
ATOM     18  C   UNL     1      32.286 -12.838 -21.735  0.00  0.00    -0.077 C 
BRANCH  18  19
ATOM     19  C   UNL     1      31.310 -11.776 -21.233  0.00  0.00    -0.023 C 
BRANCH  19  20
ATOM     20  C   UNL     1      31.577 -11.430 -19.767  0.00  0.00    -0.002 C 
ATOM     21  C   UNL     1      31.828  -9.942 -19.583  0.00  0.00    -0.000 C 
ENDBRANCH  19  20
ENDBRANCH  18  19
ENDBRANCH  16  18
BRANCH  16  22
ATOM     22  C   UNL     1      32.802 -11.125 -23.339  0.00  0.00    -0.077 C 
BRANCH  22  23
ATOM     23  C   UNL     1      34.092 -10.820 -24.099  0.00  0.00    -0.023 C 
BRANCH  23  24
ATOM     24  C   UNL     1      34.439  -9.333 -24.022  0.00  0.00    -0.002 C 
ATOM     25  C   UNL     1      33.529  -8.597 -23.052  0.00  0.00    -0.000 C 
ENDBRANCH  23  24
ENDBRANCH  22  23
ENDBRANCH  16  22
ENDBRANCH  15  16
ENDBRANCH  14  15
ENDBRANCH   2  14
TORSDOF 10
ENDMDL
MODEL 4
REMARK VINA RESULT:      -8.8      1.902      7.891
REMARK  Name = 30949
REMARK  10 active torsions:
REMARK  status: ('A' for Active; 'I' for Inactive)
REMARK    1  A    between atoms: N_2  and  C_14
REMARK    2  A    between atoms: C_6  and  C_8
REMARK    3  A    between atoms: C_14  and  C_15
REMARK    4  A    between atoms: C_15  and  N_16
REMARK    5  A    between atoms: N_16  and  C_18
REMARK    6  A    between atoms: N_16  and  C_22
REMARK    7  A    between atoms: C_18  and  C_19
REMARK    8  A    between atoms: C_19  and  C_20
REMARK    9  A    between atoms: C_22  and  C_23
REMARK   10  A    between atoms: C_23  and  C_24
REMARK                            x       y       z     vdW  Elec       q    Type
REMARK                         _______ _______ _______ _____ _____    ______ ____
ROOT
ATOM      1  O   UNL     1      33.399 -16.028 -26.283  0.00  0.00    -0.296 OA
ATOM      2  N   UNL     1      34.608 -17.615 -25.115  0.00  0.00    -0.278 N 
ATOM      3  N   UNL     1      34.121 -15.406 -24.257  0.00  0.00    -0.296 NA
ATOM      4  N   UNL     1      32.953 -14.714 -26.098  0.00  0.00    -0.005 NA
ATOM      5  C   UNL     1      34.077 -16.358 -25.153  0.00  0.00    +0.376 C 
ATOM      6  C   UNL     1      33.418 -14.416 -24.881  0.00  0.00    +0.128 C 
ATOM      7  H   UNL     1      34.469 -18.198 -25.897  0.00  0.00    +0.152 HD
ENDROOT
BRANCH   6   8
ATOM      8  C   UNL     1      33.198 -13.143 -24.261  0.00  0.00    +0.077 C 
ATOM      9  C   UNL     1      32.376 -13.044 -23.139  0.00  0.00    +0.011 C 
ATOM     10  C   UNL     1      33.806 -12.000 -24.781  0.00  0.00    +0.011 C 
ATOM     11  C   UNL     1      32.163 -11.805 -22.536  0.00  0.00    +0.001 C 
ATOM     12  C   UNL     1      33.593 -10.760 -24.178  0.00  0.00    +0.001 C 
ATOM     13  C   UNL     1      32.770 -10.662 -23.056  0.00  0.00    +0.000 C 
ENDBRANCH   6   8
BRANCH   2  14
ATOM     14  C   UNL     1      35.360 -18.146 -24.002  0.00  0.00    +0.069 C 
BRANCH  14  15
ATOM     15  C   UNL     1      34.487 -19.113 -23.212  0.00  0.00    -0.056 C 
BRANCH  15  16
ATOM     16  N   UNL     1      34.238 -18.591 -21.867  0.00  0.00    +0.388 N 
ATOM     17  H   UNL     1      33.392 -18.021 -21.891  0.00  0.00    -0.080 HD
BRANCH  16  18
ATOM     18  C   UNL     1      34.028 -19.692 -20.925  0.00  0.00    -0.077 C 
BRANCH  18  19
ATOM     19  C   UNL     1      35.368 -20.285 -20.495  0.00  0.00    -0.023 C 
BRANCH  19  20
ATOM     20  C   UNL     1      35.172 -21.423 -19.492  0.00  0.00    -0.002 C 
ATOM     21  C   UNL     1      36.403 -21.616 -18.621  0.00  0.00    -0.000 C 
ENDBRANCH  19  20
ENDBRANCH  18  19
ENDBRANCH  16  18
BRANCH  16  22
ATOM     22  C   UNL     1      35.344 -17.747 -21.431  0.00  0.00    -0.077 C 
BRANCH  22  23
ATOM     23  C   UNL     1      34.812 -16.480 -20.761  0.00  0.00    -0.023 C 
BRANCH  23  24
ATOM     24  C   UNL     1      33.373 -16.192 -21.190  0.00  0.00    -0.002 C 
ATOM     25  C   UNL     1      32.735 -15.122 -20.319  0.00  0.00    -0.000 C 
ENDBRANCH  23  24
ENDBRANCH  22  23
ENDBRANCH  16  22
ENDBRANCH  15  16
ENDBRANCH  14  15
ENDBRANCH   2  14
TORSDOF 10
ENDMDL
MODEL 5
REMARK VINA RESULT:      -8.7      3.278      9.288
REMARK  Name = 30949
REMARK  10 active torsions:
REMARK  status: ('A' for Active; 'I' for Inactive)
REMARK    1  A    between atoms: N_2  and  C_14
REMARK    2  A    between atoms: C_6  and  C_8
REMARK    3  A    between atoms: C_14  and  C_15
REMARK    4  A    between atoms: C_15  and  N_16
REMARK    5  A    between atoms: N_16  and  C_18
REMARK    6  A    between atoms: N_16  and  C_22
REMARK    7  A    between atoms: C_18  and  C_19
REMARK    8  A    between atoms: C_19  and  C_20
REMARK    9  A    between atoms: C_22  and  C_23
REMARK   10  A    between atoms: C_23  and  C_24
REMARK                            x       y       z     vdW  Elec       q    Type
REMARK                         _______ _______ _______ _____ _____    ______ ____
ROOT
ATOM      1  O   UNL     1      35.310  -9.661 -24.190  0.00  0.00    -0.296 OA
ATOM      2  N   UNL     1      34.391 -11.763 -24.472  0.00  0.00    -0.278 N 
ATOM      3  N   UNL     1      33.199  -9.904 -23.483  0.00  0.00    -0.296 NA
ATOM      4  N   UNL     1      34.925  -8.416 -23.680  0.00  0.00    -0.005 NA
ATOM      5  C   UNL     1      34.237 -10.479 -24.036  0.00  0.00    +0.376 C 
ATOM      6  C   UNL     1      33.669  -8.638 -23.282  0.00  0.00    +0.128 C 
ATOM      7  H   UNL     1      35.258 -12.015 -24.866  0.00  0.00    +0.152 HD
ENDROOT
BRANCH   6   8
ATOM      8  C   UNL     1      32.858  -7.621 -22.681  0.00  0.00    +0.077 C 
ATOM      9  C   UNL     1      32.685  -7.592 -21.297  0.00  0.00    +0.011 C 
ATOM     10  C   UNL     1      32.241  -6.658 -23.479  0.00  0.00    +0.011 C 
ATOM     11  C   UNL     1      31.896  -6.602 -20.712  0.00  0.00    +0.001 C 
ATOM     12  C   UNL     1      31.452  -5.668 -22.894  0.00  0.00    +0.001 C 
ATOM     13  C   UNL     1      31.278  -5.640 -21.511  0.00  0.00    +0.000 C 
ENDBRANCH   6   8
BRANCH   2  14
ATOM     14  C   UNL     1      33.365 -12.777 -24.393  0.00  0.00    +0.069 C 
BRANCH  14  15
ATOM     15  C   UNL     1      33.867 -13.947 -23.557  0.00  0.00    -0.056 C 
BRANCH  15  16
ATOM     16  N   UNL     1      33.420 -13.809 -22.169  0.00  0.00    +0.388 N 
ATOM     17  H   UNL     1      34.129 -13.289 -21.650  0.00  0.00    -0.080 HD
BRANCH  16  18
ATOM     18  C   UNL     1      32.162 -13.063 -22.112  0.00  0.00    -0.077 C 
BRANCH  18  19
ATOM     19  C   UNL     1      31.932 -12.518 -20.704  0.00  0.00    -0.023 C 
BRANCH  19  20
ATOM     20  C   UNL     1      31.086 -11.244 -20.736  0.00  0.00    -0.002 C 
ATOM     21  C   UNL     1      31.154 -10.496 -19.414  0.00  0.00    -0.000 C 
ENDBRANCH  19  20
ENDBRANCH  18  19
ENDBRANCH  16  18
BRANCH  16  22
ATOM     22  C   UNL     1      33.269 -15.118 -21.545  0.00  0.00    -0.077 C 
BRANCH  22  23
ATOM     23  C   UNL     1      34.549 -15.505 -20.806  0.00  0.00    -0.023 C 
BRANCH  23  24
ATOM     24  C   UNL     1      34.907 -16.971 -21.052  0.00  0.00    -0.002 C 
ATOM     25  C   UNL     1      35.336 -17.207 -22.492  0.00  0.00    -0.000 C 
ENDBRANCH  23  24
ENDBRANCH  22  23
ENDBRANCH  16  22
ENDBRANCH  15  16
ENDBRANCH  14  15
ENDBRANCH   2  14
TORSDOF 10
ENDMDL
MODEL 6
REMARK VINA RESULT:      -8.7      3.414      9.225
REMARK  Name = 30949
REMARK  10 active torsions:
REMARK  status: ('A' for Active; 'I' for Inactive)
REMARK    1  A    between atoms: N_2  and  C_14
REMARK    2  A    between atoms: C_6  and  C_8
REMARK    3  A    between atoms: C_14  and  C_15
REMARK    4  A    between atoms: C_15  and  N_16
REMARK    5  A    between atoms: N_16  and  C_18
REMARK    6  A    between atoms: N_16  and  C_22
REMARK    7  A    between atoms: C_18  and  C_19
REMARK    8  A    between atoms: C_19  and  C_20
REMARK    9  A    between atoms: C_22  and  C_23
REMARK   10  A    between atoms: C_23  and  C_24
REMARK                            x       y       z     vdW  Elec       q    Type
REMARK                         _______ _______ _______ _____ _____    ______ ____
ROOT
ATOM      1  O   UNL     1      35.373  -9.445 -24.053  0.00  0.00    -0.296 OA
ATOM      2  N   UNL     1      34.518 -11.577 -24.314  0.00  0.00    -0.278 N 
ATOM      3  N   UNL     1      33.197  -9.686 -23.582  0.00  0.00    -0.296 NA
ATOM      4  N   UNL     1      34.917  -8.179 -23.667  0.00  0.00    -0.005 NA
ATOM      5  C   UNL     1      34.299 -10.273 -23.976  0.00  0.00    +0.376 C 
ATOM      6  C   UNL     1      33.625  -8.402 -23.404  0.00  0.00    +0.128 C 
ATOM      7  H   UNL     1      35.427 -11.834 -24.590  0.00  0.00    +0.152 HD
ENDROOT
BRANCH   6   8
ATOM      8  C   UNL     1      32.738  -7.367 -22.962  0.00  0.00    +0.077 C 
ATOM      9  C   UNL     1      32.097  -6.551 -23.895  0.00  0.00    +0.011 C 
ATOM     10  C   UNL     1      32.513  -7.174 -21.599  0.00  0.00    +0.011 C 
ATOM     11  C   UNL     1      31.233  -5.544 -23.466  0.00  0.00    +0.001 C 
ATOM     12  C   UNL     1      31.649  -6.167 -21.170  0.00  0.00    +0.001 C 
ATOM     13  C   UNL     1      31.010  -5.351 -22.102  0.00  0.00    +0.000 C 
ENDBRANCH   6   8
BRANCH   2  14
ATOM     14  C   UNL     1      33.502 -12.603 -24.294  0.00  0.00    +0.069 C 
BRANCH  14  15
ATOM     15  C   UNL     1      33.842 -13.637 -23.229  0.00  0.00    -0.056 C 
BRANCH  15  16
ATOM     16  N   UNL     1      32.688 -13.871 -22.359  0.00  0.00    +0.388 N 
ATOM     17  H   UNL     1      32.086 -14.569 -22.798  0.00  0.00    -0.080 HD
BRANCH  16  18
ATOM     18  C   UNL     1      33.126 -14.387 -21.060  0.00  0.00    -0.077 C 
BRANCH  18  19
ATOM     19  C   UNL     1      34.563 -14.894 -21.149  0.00  0.00    -0.023 C 
BRANCH  19  20
ATOM     20  C   UNL     1      34.634 -16.400 -20.891  0.00  0.00    -0.002 C 
ATOM     21  C   UNL     1      35.174 -17.148 -22.099  0.00  0.00    -0.000 C 
ENDBRANCH  19  20
ENDBRANCH  18  19
ENDBRANCH  16  18
BRANCH  16  22
ATOM     22  C   UNL     1      31.915 -12.646 -22.191  0.00  0.00    -0.077 C 
BRANCH  22  23
ATOM     23  C   UNL     1      31.778 -12.305 -20.708  0.00  0.00    -0.023 C 
BRANCH  23  24
ATOM     24  C   UNL     1      31.244 -10.886 -20.515  0.00  0.00    -0.002 C 
ATOM     25  C   UNL     1      31.583 -10.344 -19.135  0.00  0.00    -0.000 C 
ENDBRANCH  23  24
ENDBRANCH  22  23
ENDBRANCH  16  22
ENDBRANCH  15  16
ENDBRANCH  14  15
ENDBRANCH   2  14
TORSDOF 10
ENDMDL
MODEL 7
REMARK VINA RESULT:      -8.6      4.001      6.548
REMARK  Name = 30949
REMARK  10 active torsions:
REMARK  status: ('A' for Active; 'I' for Inactive)
REMARK    1  A    between atoms: N_2  and  C_14
REMARK    2  A    between atoms: C_6  and  C_8
REMARK    3  A    between atoms: C_14  and  C_15
REMARK    4  A    between atoms: C_15  and  N_16
REMARK    5  A    between atoms: N_16  and  C_18
REMARK    6  A    between atoms: N_16  and  C_22
REMARK    7  A    between atoms: C_18  and  C_19
REMARK    8  A    between atoms: C_19  and  C_20
REMARK    9  A    between atoms: C_22  and  C_23
REMARK   10  A    between atoms: C_23  and  C_24
REMARK                            x       y       z     vdW  Elec       q    Type
REMARK                         _______ _______ _______ _____ _____    ______ ____
ROOT
ATOM      1  O   UNL     1      34.576 -22.958 -18.687  0.00  0.00    -0.296 OA
ATOM      2  N   UNL     1      34.011 -21.216 -20.099  0.00  0.00    -0.278 N 
ATOM      3  N   UNL     1      32.631 -21.939 -18.247  0.00  0.00    -0.296 NA
ATOM      4  N   UNL     1      34.040 -23.611 -17.571  0.00  0.00    -0.005 NA
ATOM      5  C   UNL     1      33.685 -21.988 -19.021  0.00  0.00    +0.376 C 
ATOM      6  C   UNL     1      32.893 -22.954 -17.372  0.00  0.00    +0.128 C 
ATOM      7  H   UNL     1      34.858 -21.406 -20.561  0.00  0.00    +0.152 HD
ENDROOT
BRANCH   6   8
ATOM      8  C   UNL     1      31.988 -23.285 -16.310  0.00  0.00    +0.077 C 
ATOM      9  C   UNL     1      32.470 -23.868 -15.138  0.00  0.00    +0.011 C 
ATOM     10  C   UNL     1      30.625 -23.025 -16.448  0.00  0.00    +0.011 C 
ATOM     11  C   UNL     1      31.590 -24.191 -14.106  0.00  0.00    +0.001 C 
ATOM     12  C   UNL     1      29.745 -23.348 -15.416  0.00  0.00    +0.001 C 
ATOM     13  C   UNL     1      30.226 -23.932 -14.245  0.00  0.00    +0.000 C 
ENDBRANCH   6   8
BRANCH   2  14
ATOM     14  C   UNL     1      33.192 -20.139 -20.603  0.00  0.00    +0.069 C 
BRANCH  14  15
ATOM     15  C   UNL     1      33.826 -19.563 -21.863  0.00  0.00    -0.056 C 
BRANCH  15  16
ATOM     16  N   UNL     1      34.697 -18.436 -21.525  0.00  0.00    +0.388 N 
ATOM     17  H   UNL     1      35.341 -18.732 -20.791  0.00  0.00    -0.080 HD
BRANCH  16  18
ATOM     18  C   UNL     1      35.481 -18.031 -22.694  0.00  0.00    -0.077 C 
BRANCH  18  19
ATOM     19  C   UNL     1      35.073 -18.852 -23.916  0.00  0.00    -0.023 C 
BRANCH  19  20
ATOM     20  C   UNL     1      34.529 -17.954 -25.028  0.00  0.00    -0.002 C 
ATOM     21  C   UNL     1      34.543 -16.490 -24.619  0.00  0.00    -0.000 C 
ENDBRANCH  19  20
ENDBRANCH  18  19
ENDBRANCH  16  18
BRANCH  16  22
ATOM     22  C   UNL     1      33.913 -17.315 -21.020  0.00  0.00    -0.077 C 
BRANCH  22  23
ATOM     23  C   UNL     1      34.799 -16.081 -20.854  0.00  0.00    -0.023 C 
BRANCH  23  24
ATOM     24  C   UNL     1      33.990 -14.795 -21.023  0.00  0.00    -0.002 C 
ATOM     25  C   UNL     1      32.553 -15.087 -21.423  0.00  0.00    -0.000 C 
ENDBRANCH  23  24
ENDBRANCH  22  23
ENDBRANCH  16  22
ENDBRANCH  15  16
ENDBRANCH  14  15
ENDBRANCH   2  14
TORSDOF 10
ENDMDL
MODEL 8
REMARK VINA RESULT:      -8.5      3.260      9.535
REMARK  Name = 30949
REMARK  10 active torsions:
REMARK  status: ('A' for Active; 'I' for Inactive)
REMARK    1  A    between atoms: N_2  and  C_14
REMARK    2  A    between atoms: C_6  and  C_8
REMARK    3  A    between atoms: C_14  and  C_15
REMARK    4  A    between atoms: C_15  and  N_16
REMARK    5  A    between atoms: N_16  and  C_18
REMARK    6  A    between atoms: N_16  and  C_22
REMARK    7  A    between atoms: C_18  and  C_19
REMARK    8  A    between atoms: C_19  and  C_20
REMARK    9  A    between atoms: C_22  and  C_23
REMARK   10  A    between atoms: C_23  and  C_24
REMARK                            x       y       z     vdW  Elec       q    Type
REMARK                         _______ _______ _______ _____ _____    ______ ____
ROOT
ATOM      1  O   UNL     1      35.229  -9.907 -24.104  0.00  0.00    -0.296 OA
ATOM      2  N   UNL     1      34.292 -12.018 -24.221  0.00  0.00    -0.278 N 
ATOM      3  N   UNL     1      33.094 -10.063 -23.446  0.00  0.00    -0.296 NA
ATOM      4  N   UNL     1      34.844  -8.616 -23.724  0.00  0.00    -0.005 NA
ATOM      5  C   UNL     1      34.141 -10.697 -23.910  0.00  0.00    +0.376 C 
ATOM      6  C   UNL     1      33.573  -8.789 -23.348  0.00  0.00    +0.128 C 
ATOM      7  H   UNL     1      35.167 -12.313 -24.561  0.00  0.00    +0.152 HD
ENDROOT
BRANCH   6   8
ATOM      8  C   UNL     1      32.757  -7.712 -22.870  0.00  0.00    +0.077 C 
ATOM      9  C   UNL     1      32.718  -7.416 -21.508  0.00  0.00    +0.011 C 
ATOM     10  C   UNL     1      32.000  -6.958 -23.768  0.00  0.00    +0.011 C 
ATOM     11  C   UNL     1      31.924  -6.368 -21.042  0.00  0.00    +0.001 C 
ATOM     12  C   UNL     1      31.206  -5.910 -23.302  0.00  0.00    +0.001 C 
ATOM     13  C   UNL     1      31.167  -5.615 -21.940  0.00  0.00    +0.000 C 
ENDBRANCH   6   8
BRANCH   2  14
ATOM     14  C   UNL     1      33.251 -13.009 -24.082  0.00  0.00    +0.069 C 
BRANCH  14  15
ATOM     15  C   UNL     1      33.411 -13.735 -22.752  0.00  0.00    -0.056 C 
BRANCH  15  16
ATOM     16  N   UNL     1      33.603 -15.170 -22.976  0.00  0.00    +0.388 N 
ATOM     17  H   UNL     1      32.808 -15.669 -22.577  0.00  0.00    -0.080 HD
BRANCH  16  18
ATOM     18  C   UNL     1      33.660 -15.457 -24.410  0.00  0.00    -0.077 C 
BRANCH  18  19
ATOM     19  C   UNL     1      34.782 -16.450 -24.708  0.00  0.00    -0.023 C 
BRANCH  19  20
ATOM     20  C   UNL     1      34.236 -17.720 -25.363  0.00  0.00    -0.002 C 
ATOM     21  C   UNL     1      34.612 -18.961 -24.571  0.00  0.00    -0.000 C 
ENDBRANCH  19  20
ENDBRANCH  18  19
ENDBRANCH  16  18
BRANCH  16  22
ATOM     22  C   UNL     1      34.814 -15.636 -22.311  0.00  0.00    -0.077 C 
BRANCH  22  23
ATOM     23  C   UNL     1      34.457 -16.461 -21.076  0.00  0.00    -0.023 C 
BRANCH  23  24
ATOM     24  C   UNL     1      35.071 -17.860 -21.150  0.00  0.00    -0.002 C 
ATOM     25  C   UNL     1      34.009 -18.942 -21.032  0.00  0.00    -0.000 C 
ENDBRANCH  23  24
ENDBRANCH  22  23
ENDBRANCH  16  22
ENDBRANCH  15  16
ENDBRANCH  14  15
ENDBRANCH   2  14
TORSDOF 10
ENDMDL
MODEL 9
REMARK VINA RESULT:      -8.5      4.555     10.402
REMARK  Name = 30949
REMARK  10 active torsions:
REMARK  status: ('A' for Active; 'I' for Inactive)
REMARK    1  A    between atoms: N_2  and  C_14
REMARK    2  A    between atoms: C_6  and  C_8
REMARK    3  A    between atoms: C_14  and  C_15
REMARK    4  A    between atoms: C_15  and  N_16
REMARK    5  A    between atoms: N_16  and  C_18
REMARK    6  A    between atoms: N_16  and  C_22
REMARK    7  A    between atoms: C_18  and  C_19
REMARK    8  A    between atoms: C_19  and  C_20
REMARK    9  A    between atoms: C_22  and  C_23
REMARK   10  A    between atoms: C_23  and  C_24
REMARK                            x       y       z     vdW  Elec       q    Type
REMARK                         _______ _______ _______ _____ _____    ______ ____
ROOT
ATOM      1  O   UNL     1      36.475 -20.257 -19.707  0.00  0.00    -0.296 OA
ATOM      2  N   UNL     1      34.811 -21.652 -18.911  0.00  0.00    -0.278 N 
ATOM      3  N   UNL     1      34.531 -20.186 -20.816  0.00  0.00    -0.296 NA
ATOM      4  N   UNL     1      36.648 -19.323 -20.735  0.00  0.00    -0.005 NA
ATOM      5  C   UNL     1      35.202 -20.717 -19.826  0.00  0.00    +0.376 C 
ATOM      6  C   UNL     1      35.459 -19.337 -21.346  0.00  0.00    +0.128 C 
ATOM      7  H   UNL     1      35.466 -21.932 -18.231  0.00  0.00    +0.152 HD
ENDROOT
BRANCH   6   8
ATOM      8  C   UNL     1      35.167 -18.515 -22.483  0.00  0.00    +0.077 C 
ATOM      9  C   UNL     1      34.839 -19.104 -23.704  0.00  0.00    +0.011 C 
ATOM     10  C   UNL     1      35.209 -17.125 -22.370  0.00  0.00    +0.011 C 
ATOM     11  C   UNL     1      34.554 -18.305 -24.811  0.00  0.00    +0.001 C 
ATOM     12  C   UNL     1      34.924 -16.326 -23.477  0.00  0.00    +0.001 C 
ATOM     13  C   UNL     1      34.597 -16.915 -24.698  0.00  0.00    +0.000 C 
ENDBRANCH   6   8
BRANCH   2  14
ATOM     14  C   UNL     1      33.501 -22.256 -18.878  0.00  0.00    +0.069 C 
BRANCH  14  15
ATOM     15  C   UNL     1      33.534 -23.499 -17.996  0.00  0.00    -0.056 C 
BRANCH  15  16
ATOM     16  N   UNL     1      33.295 -23.137 -16.597  0.00  0.00    +0.388 N 
ATOM     17  H   UNL     1      33.402 -22.126 -16.501  0.00  0.00    -0.080 HD
BRANCH  16  18
ATOM     18  C   UNL     1      31.932 -23.499 -16.204  0.00  0.00    -0.077 C 
BRANCH  18  19
ATOM     19  C   UNL     1      31.563 -22.824 -14.884  0.00  0.00    -0.023 C 
BRANCH  19  20
ATOM     20  C   UNL     1      31.052 -23.845 -13.866  0.00  0.00    -0.002 C 
ATOM     21  C   UNL     1      30.530 -25.098 -14.549  0.00  0.00    -0.000 C 
ENDBRANCH  19  20
ENDBRANCH  18  19
ENDBRANCH  16  18
BRANCH  16  22
ATOM     22  C   UNL     1      34.269 -23.783 -15.725  0.00  0.00    -0.077 C 
BRANCH  22  23
ATOM     23  C   UNL     1      35.274 -22.758 -15.201  0.00  0.00    -0.023 C 
BRANCH  23  24
ATOM     24  C   UNL     1      36.688 -23.072 -15.687  0.00  0.00    -0.002 C 
ATOM     25  C   UNL     1      37.298 -21.894 -16.430  0.00  0.00    -0.000 C 
ENDBRANCH  23  24
ENDBRANCH  22  23
ENDBRANCH  16  22
ENDBRANCH  15  16
ENDBRANCH  14  15
ENDBRANCH   2  14
TORSDOF 10
ENDMDL
