MODEL 1
REMARK VINA RESULT:      -6.9      0.000      0.000
REMARK  Name = 5202
REMARK  4 active torsions:
REMARK  status: ('A' for Active; 'I' for Inactive)
REMARK    1  A    between atoms: C_2  and  C_13
REMARK    2  A    between atoms: C_8  and  O_11
REMARK    3  A    between atoms: C_13  and  C_14
REMARK    4  A    between atoms: C_14  and  N_15
REMARK                            x       y       z     vdW  Elec       q    Type
REMARK                         _______ _______ _______ _____ _____    ______ ____
ROOT
ATOM      1  N   UNL     1      37.186 -19.682 -20.637  0.00  0.00    -0.312 N 
ATOM      2  C   UNL     1      35.314 -18.890 -21.529  0.00  0.00    -0.008 C 
ATOM      3  C   UNL     1      34.972 -19.957 -20.651  0.00  0.00    +0.014 C 
ATOM      4  C   UNL     1      36.164 -20.436 -20.105  0.00  0.00    +0.048 C 
ATOM      5  C   UNL     1      36.681 -18.745 -21.498  0.00  0.00    +0.057 C 
ATOM      6  C   UNL     1      33.759 -20.563 -20.269  0.00  0.00    +0.038 C 
ATOM      7  C   UNL     1      36.204 -21.494 -19.190  0.00  0.00    +0.018 C 
ATOM      8  C   UNL     1      33.783 -21.623 -19.355  0.00  0.00    +0.134 C 
ATOM      9  C   UNL     1      34.988 -22.080 -18.825  0.00  0.00    +0.038 C 
ATOM     10  H   UNL     1      38.141 -19.799 -20.429  0.00  0.00    +0.152 HD
ENDROOT
BRANCH   8  11
ATOM     11  O   UNL     1      32.613 -22.214 -18.981  0.00  0.00    -0.506 OA
ATOM     12  H   UNL     1      32.554 -22.655 -18.156  0.00  0.00    +0.292 HD
ENDBRANCH   8  11
BRANCH   2  13
ATOM     13  C   UNL     1      34.377 -18.079 -22.332  0.00  0.00    +0.004 C 
BRANCH  13  14
ATOM     14  C   UNL     1      34.892 -17.802 -23.757  0.00  0.00    -0.081 C 
BRANCH  14  15
ATOM     15  N   UNL     1      35.362 -16.429 -23.909  0.00  0.00    +0.381 N 
ATOM     16  H   UNL     1      35.977 -16.193 -23.130  0.00  0.00    -0.089 HD
ATOM     17  H   UNL     1      34.564 -15.795 -23.917  0.00  0.00    -0.089 HD
ATOM     18  H   UNL     1      35.876 -16.341 -24.785  0.00  0.00    -0.089 HD
ENDBRANCH  14  15
ENDBRANCH  13  14
ENDBRANCH   2  13
TORSDOF 4
ENDMDL
MODEL 2
REMARK VINA RESULT:      -6.8      1.951      2.576
REMARK  Name = 5202
REMARK  4 active torsions:
REMARK  status: ('A' for Active; 'I' for Inactive)
REMARK    1  A    between atoms: C_2  and  C_13
REMARK    2  A    between atoms: C_8  and  O_11
REMARK    3  A    between atoms: C_13  and  C_14
REMARK    4  A    between atoms: C_14  and  N_15
REMARK                            x       y       z     vdW  Elec       q    Type
REMARK                         _______ _______ _______ _____ _____    ______ ____
ROOT
ATOM      1  N   UNL     1      32.701 -20.530 -20.622  0.00  0.00    -0.312 N 
ATOM      2  C   UNL     1      34.659 -19.613 -21.123  0.00  0.00    -0.008 C 
ATOM      3  C   UNL     1      34.868 -20.576 -20.096  0.00  0.00    +0.014 C 
ATOM      4  C   UNL     1      33.624 -21.137 -19.800  0.00  0.00    +0.048 C 
ATOM      5  C   UNL     1      33.317 -19.609 -21.425  0.00  0.00    +0.057 C 
ATOM      6  C   UNL     1      36.000 -21.025 -19.387  0.00  0.00    +0.038 C 
ATOM      7  C   UNL     1      33.454 -22.128 -18.828  0.00  0.00    +0.018 C 
ATOM      8  C   UNL     1      35.847 -22.016 -18.411  0.00  0.00    +0.134 C 
ATOM      9  C   UNL     1      34.592 -22.558 -18.137  0.00  0.00    +0.038 C 
ATOM     10  H   UNL     1      31.737 -20.731 -20.631  0.00  0.00    +0.152 HD
ENDROOT
BRANCH   8  11
ATOM     11  O   UNL     1      36.937 -22.454 -17.722  0.00  0.00    -0.506 OA
ATOM     12  H   UNL     1      37.403 -23.212 -18.014  0.00  0.00    +0.292 HD
ENDBRANCH   8  11
BRANCH   2  13
ATOM     13  C   UNL     1      35.689 -18.767 -21.758  0.00  0.00    +0.004 C 
BRANCH  13  14
ATOM     14  C   UNL     1      35.328 -18.358 -23.197  0.00  0.00    -0.081 C 
BRANCH  14  15
ATOM     15  N   UNL     1      35.589 -16.944 -23.443  0.00  0.00    +0.381 N 
ATOM     16  H   UNL     1      36.499 -16.694 -23.055  0.00  0.00    -0.089 HD
ATOM     17  H   UNL     1      34.863 -16.382 -22.998  0.00  0.00    -0.089 HD
ATOM     18  H   UNL     1      35.589 -16.768 -24.448  0.00  0.00    -0.089 HD
ENDBRANCH  14  15
ENDBRANCH  13  14
ENDBRANCH   2  13
TORSDOF 4
ENDMDL
MODEL 3
REMARK VINA RESULT:      -6.8      4.188      5.619
REMARK  Name = 5202
REMARK  4 active torsions:
REMARK  status: ('A' for Active; 'I' for Inactive)
REMARK    1  A    between atoms: C_2  and  C_13
REMARK    2  A    between atoms: C_8  and  O_11
REMARK    3  A    between atoms: C_13  and  C_14
REMARK    4  A    between atoms: C_14  and  N_15
REMARK                            x       y       z     vdW  Elec       q    Type
REMARK                         _______ _______ _______ _____ _____    ______ ____
ROOT
ATOM      1  N   UNL     1      35.211 -18.253 -21.762  0.00  0.00    -0.312 N 
ATOM      2  C   UNL     1      34.648 -16.120 -21.510  0.00  0.00    -0.008 C 
ATOM      3  C   UNL     1      34.503 -16.460 -22.885  0.00  0.00    +0.014 C 
ATOM      4  C   UNL     1      34.862 -17.803 -23.015  0.00  0.00    +0.048 C 
ATOM      5  C   UNL     1      35.084 -17.243 -20.846  0.00  0.00    +0.057 C 
ATOM      6  C   UNL     1      34.099 -15.751 -24.033  0.00  0.00    +0.038 C 
ATOM      7  C   UNL     1      34.838 -18.475 -24.242  0.00  0.00    +0.018 C 
ATOM      8  C   UNL     1      34.069 -16.410 -25.268  0.00  0.00    +0.134 C 
ATOM      9  C   UNL     1      34.433 -17.751 -25.368  0.00  0.00    +0.038 C 
ATOM     10  H   UNL     1      35.509 -19.168 -21.554  0.00  0.00    +0.152 HD
ENDROOT
BRANCH   8  11
ATOM     11  O   UNL     1      33.681 -15.730 -26.383  0.00  0.00    -0.506 OA
ATOM     12  H   UNL     1      33.128 -14.978 -26.304  0.00  0.00    +0.292 HD
ENDBRANCH   8  11
BRANCH   2  13
ATOM     13  C   UNL     1      34.381 -14.804 -20.897  0.00  0.00    +0.004 C 
BRANCH  13  14
ATOM     14  C   UNL     1      32.880 -14.539 -20.675  0.00  0.00    -0.081 C 
BRANCH  14  15
ATOM     15  N   UNL     1      32.349 -13.578 -21.636  0.00  0.00    +0.381 N 
ATOM     16  H   UNL     1      32.356 -12.645 -21.224  0.00  0.00    -0.089 HD
ATOM     17  H   UNL     1      31.393 -13.835 -21.881  0.00  0.00    -0.089 HD
ATOM     18  H   UNL     1      32.929 -13.582 -22.476  0.00  0.00    -0.089 HD
ENDBRANCH  14  15
ENDBRANCH  13  14
ENDBRANCH   2  13
TORSDOF 4
ENDMDL
MODEL 4
REMARK VINA RESULT:      -6.7      3.200      5.390
REMARK  Name = 5202
REMARK  4 active torsions:
REMARK  status: ('A' for Active; 'I' for Inactive)
REMARK    1  A    between atoms: C_2  and  C_13
REMARK    2  A    between atoms: C_8  and  O_11
REMARK    3  A    between atoms: C_13  and  C_14
REMARK    4  A    between atoms: C_14  and  N_15
REMARK                            x       y       z     vdW  Elec       q    Type
REMARK                         _______ _______ _______ _____ _____    ______ ____
ROOT
ATOM      1  N   UNL     1      33.196 -21.939 -19.127  0.00  0.00    -0.312 N 
ATOM      2  C   UNL     1      35.383 -21.742 -18.800  0.00  0.00    -0.008 C 
ATOM      3  C   UNL     1      34.994 -20.798 -19.793  0.00  0.00    +0.014 C 
ATOM      4  C   UNL     1      33.618 -20.943 -19.979  0.00  0.00    +0.048 C 
ATOM      5  C   UNL     1      34.256 -22.427 -18.411  0.00  0.00    +0.057 C 
ATOM      6  C   UNL     1      35.684 -19.833 -20.553  0.00  0.00    +0.038 C 
ATOM      7  C   UNL     1      32.893 -20.167 -20.890  0.00  0.00    +0.018 C 
ATOM      8  C   UNL     1      34.973 -19.049 -21.469  0.00  0.00    +0.134 C 
ATOM      9  C   UNL     1      33.599 -19.215 -21.633  0.00  0.00    +0.038 C 
ATOM     10  H   UNL     1      32.267 -22.254 -19.044  0.00  0.00    +0.152 HD
ENDROOT
BRANCH   8  11
ATOM     11  O   UNL     1      35.633 -18.114 -22.208  0.00  0.00    -0.506 OA
ATOM     12  H   UNL     1      36.289 -17.578 -21.807  0.00  0.00    +0.292 HD
ENDBRANCH   8  11
BRANCH   2  13
ATOM     13  C   UNL     1      36.747 -21.954 -18.277  0.00  0.00    +0.004 C 
BRANCH  13  14
ATOM     14  C   UNL     1      36.813 -21.910 -16.739  0.00  0.00    -0.081 C 
BRANCH  14  15
ATOM     15  N   UNL     1      37.589 -23.020 -16.195  0.00  0.00    +0.381 N 
ATOM     16  H   UNL     1      37.210 -23.285 -15.286  0.00  0.00    -0.089 HD
ATOM     17  H   UNL     1      38.562 -22.735 -16.089  0.00  0.00    -0.089 HD
ATOM     18  H   UNL     1      37.534 -23.815 -16.831  0.00  0.00    -0.089 HD
ENDBRANCH  14  15
ENDBRANCH  13  14
ENDBRANCH   2  13
TORSDOF 4
ENDMDL
MODEL 5
REMARK VINA RESULT:      -6.7      3.190      5.471
REMARK  Name = 5202
REMARK  4 active torsions:
REMARK  status: ('A' for Active; 'I' for Inactive)
REMARK    1  A    between atoms: C_2  and  C_13
REMARK    2  A    between atoms: C_8  and  O_11
REMARK    3  A    between atoms: C_13  and  C_14
REMARK    4  A    between atoms: C_14  and  N_15
REMARK                            x       y       z     vdW  Elec       q    Type
REMARK                         _______ _______ _______ _____ _____    ______ ____
ROOT
ATOM      1  N   UNL     1      35.348 -17.902 -23.942  0.00  0.00    -0.312 N 
ATOM      2  C   UNL     1      34.695 -18.682 -21.969  0.00  0.00    -0.008 C 
ATOM      3  C   UNL     1      34.435 -17.283 -22.002  0.00  0.00    +0.014 C 
ATOM      4  C   UNL     1      34.854 -16.818 -23.251  0.00  0.00    +0.048 C 
ATOM      5  C   UNL     1      35.255 -19.032 -23.175  0.00  0.00    +0.057 C 
ATOM      6  C   UNL     1      33.882 -16.366 -21.087  0.00  0.00    +0.038 C 
ATOM      7  C   UNL     1      34.746 -15.477 -23.632  0.00  0.00    +0.018 C 
ATOM      8  C   UNL     1      33.768 -15.020 -21.454  0.00  0.00    +0.134 C 
ATOM      9  C   UNL     1      34.194 -14.584 -22.707  0.00  0.00    +0.038 C 
ATOM     10  H   UNL     1      35.714 -17.869 -24.855  0.00  0.00    +0.152 HD
ENDROOT
BRANCH   8  11
ATOM     11  O   UNL     1      33.236 -14.126 -20.574  0.00  0.00    -0.506 OA
ATOM     12  H   UNL     1      32.775 -14.432 -19.817  0.00  0.00    +0.292 HD
ENDBRANCH   8  11
BRANCH   2  13
ATOM     13  C   UNL     1      34.417 -19.601 -20.847  0.00  0.00    +0.004 C 
BRANCH  13  14
ATOM     14  C   UNL     1      32.936 -20.013 -20.761  0.00  0.00    -0.081 C 
BRANCH  14  15
ATOM     15  N   UNL     1      32.661 -20.813 -19.573  0.00  0.00    +0.381 N 
ATOM     16  H   UNL     1      31.691 -21.127 -19.591  0.00  0.00    -0.089 HD
ATOM     17  H   UNL     1      32.821 -20.249 -18.738  0.00  0.00    -0.089 HD
ATOM     18  H   UNL     1      33.280 -21.624 -19.559  0.00  0.00    -0.089 HD
ENDBRANCH  14  15
ENDBRANCH  13  14
ENDBRANCH   2  13
TORSDOF 4
ENDMDL
MODEL 6
REMARK VINA RESULT:      -6.7      3.839      5.452
REMARK  Name = 5202
REMARK  4 active torsions:
REMARK  status: ('A' for Active; 'I' for Inactive)
REMARK    1  A    between atoms: C_2  and  C_13
REMARK    2  A    between atoms: C_8  and  O_11
REMARK    3  A    between atoms: C_13  and  C_14
REMARK    4  A    between atoms: C_14  and  N_15
REMARK                            x       y       z     vdW  Elec       q    Type
REMARK                         _______ _______ _______ _____ _____    ______ ____
ROOT
ATOM      1  N   UNL     1      33.910 -16.277 -25.461  0.00  0.00    -0.312 N 
ATOM      2  C   UNL     1      33.837 -14.815 -23.792  0.00  0.00    -0.008 C 
ATOM      3  C   UNL     1      34.399 -16.026 -23.298  0.00  0.00    +0.014 C 
ATOM      4  C   UNL     1      34.433 -16.927 -24.365  0.00  0.00    +0.048 C 
ATOM      5  C   UNL     1      33.549 -15.000 -25.124  0.00  0.00    +0.057 C 
ATOM      6  C   UNL     1      34.882 -16.444 -22.042  0.00  0.00    +0.038 C 
ATOM      7  C   UNL     1      34.929 -18.229 -24.239  0.00  0.00    +0.018 C 
ATOM      8  C   UNL     1      35.381 -17.744 -21.900  0.00  0.00    +0.134 C 
ATOM      9  C   UNL     1      35.403 -18.621 -22.982  0.00  0.00    +0.038 C 
ATOM     10  H   UNL     1      33.811 -16.673 -26.357  0.00  0.00    +0.152 HD
ENDROOT
BRANCH   8  11
ATOM     11  O   UNL     1      35.849 -18.155 -20.688  0.00  0.00    -0.506 OA
ATOM     12  H   UNL     1      35.802 -17.581 -19.949  0.00  0.00    +0.292 HD
ENDBRANCH   8  11
BRANCH   2  13
ATOM     13  C   UNL     1      33.604 -13.577 -23.022  0.00  0.00    +0.004 C 
BRANCH  13  14
ATOM     14  C   UNL     1      32.344 -13.647 -22.140  0.00  0.00    -0.081 C 
BRANCH  14  15
ATOM     15  N   UNL     1      31.583 -12.403 -22.179  0.00  0.00    +0.381 N 
ATOM     16  H   UNL     1      32.185 -11.627 -21.902  0.00  0.00    -0.089 HD
ATOM     17  H   UNL     1      30.793 -12.467 -21.537  0.00  0.00    -0.089 HD
ATOM     18  H   UNL     1      31.239 -12.244 -23.126  0.00  0.00    -0.089 HD
ENDBRANCH  14  15
ENDBRANCH  13  14
ENDBRANCH   2  13
TORSDOF 4
ENDMDL
MODEL 7
REMARK VINA RESULT:      -6.6      3.720      6.384
REMARK  Name = 5202
REMARK  4 active torsions:
REMARK  status: ('A' for Active; 'I' for Inactive)
REMARK    1  A    between atoms: C_2  and  C_13
REMARK    2  A    between atoms: C_8  and  O_11
REMARK    3  A    between atoms: C_13  and  C_14
REMARK    4  A    between atoms: C_14  and  N_15
REMARK                            x       y       z     vdW  Elec       q    Type
REMARK                         _______ _______ _______ _____ _____    ______ ____
ROOT
ATOM      1  N   UNL     1      34.336 -15.182 -21.245  0.00  0.00    -0.312 N 
ATOM      2  C   UNL     1      34.987 -17.092 -22.171  0.00  0.00    -0.008 C 
ATOM      3  C   UNL     1      34.434 -16.268 -23.192  0.00  0.00    +0.014 C 
ATOM      4  C   UNL     1      34.033 -15.076 -22.584  0.00  0.00    +0.048 C 
ATOM      5  C   UNL     1      34.913 -16.396 -20.986  0.00  0.00    +0.057 C 
ATOM      6  C   UNL     1      34.235 -16.424 -24.578  0.00  0.00    +0.038 C 
ATOM      7  C   UNL     1      33.442 -14.027 -23.296  0.00  0.00    +0.018 C 
ATOM      8  C   UNL     1      33.645 -15.383 -25.304  0.00  0.00    +0.134 C 
ATOM      9  C   UNL     1      33.255 -14.204 -24.671  0.00  0.00    +0.038 C 
ATOM     10  H   UNL     1      34.162 -14.486 -20.571  0.00  0.00    +0.152 HD
ENDROOT
BRANCH   8  11
ATOM     11  O   UNL     1      33.449 -15.526 -26.644  0.00  0.00    -0.506 OA
ATOM     12  H   UNL     1      32.964 -14.880 -27.119  0.00  0.00    +0.292 HD
ENDBRANCH   8  11
BRANCH   2  13
ATOM     13  C   UNL     1      35.543 -18.449 -22.342  0.00  0.00    +0.004 C 
BRANCH  13  14
ATOM     14  C   UNL     1      35.321 -19.348 -21.112  0.00  0.00    -0.081 C 
BRANCH  14  15
ATOM     15  N   UNL     1      36.550 -19.541 -20.349  0.00  0.00    +0.381 N 
ATOM     16  H   UNL     1      36.330 -19.571 -19.354  0.00  0.00    -0.089 HD
ATOM     17  H   UNL     1      37.189 -18.768 -20.534  0.00  0.00    -0.089 HD
ATOM     18  H   UNL     1      36.988 -20.419 -20.627  0.00  0.00    -0.089 HD
ENDBRANCH  14  15
ENDBRANCH  13  14
ENDBRANCH   2  13
TORSDOF 4
ENDMDL
MODEL 8
REMARK VINA RESULT:      -6.6      9.471     11.016
REMARK  Name = 5202
REMARK  4 active torsions:
REMARK  status: ('A' for Active; 'I' for Inactive)
REMARK    1  A    between atoms: C_2  and  C_13
REMARK    2  A    between atoms: C_8  and  O_11
REMARK    3  A    between atoms: C_13  and  C_14
REMARK    4  A    between atoms: C_14  and  N_15
REMARK                            x       y       z     vdW  Elec       q    Type
REMARK                         _______ _______ _______ _____ _____    ______ ____
ROOT
ATOM      1  N   UNL     1      32.151  -8.097 -19.495  0.00  0.00    -0.312 N 
ATOM      2  C   UNL     1      32.637  -7.900 -21.653  0.00  0.00    -0.008 C 
ATOM      3  C   UNL     1      32.227  -9.242 -21.409  0.00  0.00    +0.014 C 
ATOM      4  C   UNL     1      31.929  -9.338 -20.048  0.00  0.00    +0.048 C 
ATOM      5  C   UNL     1      32.579  -7.222 -20.457  0.00  0.00    +0.057 C 
ATOM      6  C   UNL     1      32.083 -10.386 -22.218  0.00  0.00    +0.038 C 
ATOM      7  C   UNL     1      31.490 -10.526 -19.454  0.00  0.00    +0.018 C 
ATOM      8  C   UNL     1      31.644 -11.582 -21.638  0.00  0.00    +0.134 C 
ATOM      9  C   UNL     1      31.353 -11.649 -20.277  0.00  0.00    +0.038 C 
ATOM     10  H   UNL     1      32.022  -7.871 -18.546  0.00  0.00    +0.152 HD
ENDROOT
BRANCH   8  11
ATOM     11  O   UNL     1      31.503 -12.692 -22.414  0.00  0.00    -0.506 OA
ATOM     12  H   UNL     1      31.855 -12.705 -23.283  0.00  0.00    +0.292 HD
ENDBRANCH   8  11
BRANCH   2  13
ATOM     13  C   UNL     1      33.050  -7.330 -22.950  0.00  0.00    +0.004 C 
BRANCH  13  14
ATOM     14  C   UNL     1      34.549  -7.529 -23.243  0.00  0.00    -0.081 C 
BRANCH  14  15
ATOM     15  N   UNL     1      34.800  -8.766 -23.974  0.00  0.00    +0.381 N 
ATOM     16  H   UNL     1      35.785  -8.812 -24.235  0.00  0.00    -0.089 HD
ATOM     17  H   UNL     1      34.224  -8.787 -24.816  0.00  0.00    -0.089 HD
ATOM     18  H   UNL     1      34.568  -9.564 -23.382  0.00  0.00    -0.089 HD
ENDBRANCH  14  15
ENDBRANCH  13  14
ENDBRANCH   2  13
TORSDOF 4
ENDMDL
MODEL 9
REMARK VINA RESULT:      -6.6      2.847      4.086
REMARK  Name = 5202
REMARK  4 active torsions:
REMARK  status: ('A' for Active; 'I' for Inactive)
REMARK    1  A    between atoms: C_2  and  C_13
REMARK    2  A    between atoms: C_8  and  O_11
REMARK    3  A    between atoms: C_13  and  C_14
REMARK    4  A    between atoms: C_14  and  N_15
REMARK                            x       y       z     vdW  Elec       q    Type
REMARK                         _______ _______ _______ _____ _____    ______ ____
ROOT
ATOM      1  N   UNL     1      33.143 -22.464 -18.633  0.00  0.00    -0.312 N 
ATOM      2  C   UNL     1      34.886 -21.411 -19.515  0.00  0.00    -0.008 C 
ATOM      3  C   UNL     1      35.286 -21.966 -18.267  0.00  0.00    +0.014 C 
ATOM      4  C   UNL     1      34.174 -22.621 -17.734  0.00  0.00    +0.048 C 
ATOM      5  C   UNL     1      33.564 -21.735 -19.712  0.00  0.00    +0.057 C 
ATOM      6  C   UNL     1      36.491 -21.972 -17.537  0.00  0.00    +0.038 C 
ATOM      7  C   UNL     1      34.207 -23.287 -16.504  0.00  0.00    +0.018 C 
ATOM      8  C   UNL     1      36.540 -22.634 -16.305  0.00  0.00    +0.134 C 
ATOM      9  C   UNL     1      35.414 -23.281 -15.798  0.00  0.00    +0.038 C 
ATOM     10  H   UNL     1      32.234 -22.825 -18.517  0.00  0.00    +0.152 HD
ENDROOT
BRANCH   8  11
ATOM     11  O   UNL     1      37.702 -22.644 -15.593  0.00  0.00    -0.506 OA
ATOM     12  H   UNL     1      37.999 -23.437 -15.193  0.00  0.00    +0.292 HD
ENDBRANCH   8  11
BRANCH   2  13
ATOM     13  C   UNL     1      35.730 -20.628 -20.439  0.00  0.00    +0.004 C 
BRANCH  13  14
ATOM     14  C   UNL     1      34.976 -19.455 -21.094  0.00  0.00    -0.081 C 
BRANCH  14  15
ATOM     15  N   UNL     1      35.582 -18.169 -20.768  0.00  0.00    +0.381 N 
ATOM     16  H   UNL     1      34.924 -17.610 -20.225  0.00  0.00    -0.089 HD
ATOM     17  H   UNL     1      35.817 -17.676 -21.630  0.00  0.00    -0.089 HD
ATOM     18  H   UNL     1      36.430 -18.321 -20.221  0.00  0.00    -0.089 HD
ENDBRANCH  14  15
ENDBRANCH  13  14
ENDBRANCH   2  13
TORSDOF 4
ENDMDL
