MODEL 1
REMARK VINA RESULT:     -11.0      0.000      0.000
REMARK  Name = 9935681
REMARK  12 active torsions:
REMARK  status: ('A' for Active; 'I' for Inactive)
REMARK    1  A    between atoms: C_1  and  C_21
REMARK    2  A    between atoms: C_2  and  C_7
REMARK    3  A    between atoms: C_8  and  O_13
REMARK    4  A    between atoms: C_9  and  O_15
REMARK    5  A    between atoms: C_10  and  C_17
REMARK    6  A    between atoms: C_17  and  O_18
REMARK    7  A    between atoms: O_18  and  C_19
REMARK    8  A    between atoms: C_21  and  CA_22
REMARK    9  A    between atoms: CA_22  and  N_24
REMARK   10  A    between atoms: CA_22  and  C_36
REMARK   11  A    between atoms: C_25  and  C_29
REMARK   12  A    between atoms: C_36  and  O_37
REMARK                            x       y       z     vdW  Elec       q    Type
REMARK                         _______ _______ _______ _____ _____    ______ ____
ROOT
ATOM      1  C   UNL     1      35.531 -20.590 -20.024  0.00  0.00    -0.020 C 
ATOM      2  C   UNL     1      34.904 -18.406 -21.611  0.00  0.00    +0.006 C 
ATOM      3  C   UNL     1      34.213 -20.377 -20.397  0.00  0.00    -0.004 C 
ATOM      4  C   UNL     1      36.541 -19.732 -20.430  0.00  0.00    -0.004 C 
ATOM      5  C   UNL     1      33.897 -19.278 -21.195  0.00  0.00    -0.000 C 
ATOM      6  C   UNL     1      36.225 -18.632 -21.228  0.00  0.00    -0.000 C 
ENDROOT
BRANCH   2   7
ATOM      7  C   UNL     1      34.576 -17.266 -22.439  0.00  0.00    +0.068 C 
ATOM      8  C   UNL     1      34.078 -16.096 -21.859  0.00  0.00    +0.141 C 
ATOM      9  C   UNL     1      34.756 -17.329 -23.824  0.00  0.00    +0.141 C 
ATOM     10  C   UNL     1      33.942 -15.064 -24.039  0.00  0.00    +0.013 C 
ATOM     11  C   UNL     1      33.762 -14.997 -22.659  0.00  0.00    +0.035 C 
ATOM     12  C   UNL     1      34.439 -16.230 -24.622  0.00  0.00    +0.035 C 
BRANCH   8  13
ATOM     13  O   UNL     1      33.893 -16.000 -20.512  0.00  0.00    -0.471 OA
ATOM     14  C   UNL     1      32.759 -15.262 -20.065  0.00  0.00    +0.252 C 
ENDBRANCH   8  13
BRANCH   9  15
ATOM     15  O   UNL     1      35.240 -18.455 -24.422  0.00  0.00    -0.471 OA
ATOM     16  C   UNL     1      34.298 -19.286 -25.096  0.00  0.00    +0.252 C 
ENDBRANCH   9  15
BRANCH  10  17
ATOM     17  C   UNL     1      33.606 -13.888 -24.894  0.00  0.00    +0.169 C 
BRANCH  17  18
ATOM     18  O   UNL     1      33.928 -12.690 -24.197  0.00  0.00    -0.349 OA
BRANCH  18  19
ATOM     19  C   UNL     1      33.925 -11.566 -25.066  0.00  0.00    +0.143 C 
ATOM     20  C   UNL     1      34.410 -10.352 -24.303  0.00  0.00    +0.035 C 
ENDBRANCH  18  19
ENDBRANCH  17  18
ENDBRANCH  10  17
ENDBRANCH   2   7
BRANCH   1  21
ATOM     21  C   UNL     1      35.873 -21.779 -19.160  0.00  0.00    +0.057 C 
BRANCH  21  22
ATOM     22  CA  UNL     1      34.822 -22.053 -18.076  0.00  0.00    +0.176 C 
BRANCH  22  24
ATOM     23  O   UNL     1      36.993 -21.347 -16.335  0.00  0.00    -0.270 OA
ATOM     24  N   UNL     1      35.369 -22.857 -17.013  0.00  0.00    -0.293 N 
ATOM     25  C   UNL     1      36.425 -22.430 -16.220  0.00  0.00    +0.251 C 
ATOM     26  H   UNL     1      34.979 -23.746 -16.842  0.00  0.00    +0.150 HD
BRANCH  25  29
ATOM     27  F   UNL     1      34.758 -23.308 -14.142  0.00  0.00    -0.204 F 
ATOM     28  F   UNL     1      39.028 -23.474 -16.217  0.00  0.00    -0.204 F 
ATOM     29  C   UNL     1      36.891 -23.387 -15.184  0.00  0.00    +0.108 C 
ATOM     30  C   UNL     1      36.015 -23.774 -14.191  0.00  0.00    +0.147 C 
ATOM     31  C   UNL     1      38.186 -23.859 -15.247  0.00  0.00    +0.147 C 
ATOM     32  C   UNL     1      36.452 -24.674 -13.219  0.00  0.00    +0.030 C 
ATOM     33  C   UNL     1      38.624 -24.758 -14.275  0.00  0.00    +0.030 C 
ATOM     34  C   UNL     1      37.757 -25.165 -13.261  0.00  0.00    +0.005 C 
ENDBRANCH  25  29
ENDBRANCH  22  24
BRANCH  22  36
ATOM     35  OXT UNL     1      32.451 -22.366 -18.440  0.00  0.00    -0.248 OA
ATOM     36  C   UNL     1      33.599 -22.716 -18.693  0.00  0.00    +0.332 C 
BRANCH  36  37
ATOM     37  O   UNL     1      33.873 -23.725 -19.554  0.00  0.00    -0.479 OA
ATOM     38  H   UNL     1      34.044 -24.586 -19.228  0.00  0.00    +0.295 HD
ENDBRANCH  36  37
ENDBRANCH  22  36
ENDBRANCH  21  22
ENDBRANCH   1  21
TORSDOF 12
ENDMDL
MODEL 2
REMARK VINA RESULT:     -10.9      0.103      2.685
REMARK  Name = 9935681
REMARK  12 active torsions:
REMARK  status: ('A' for Active; 'I' for Inactive)
REMARK    1  A    between atoms: C_1  and  C_21
REMARK    2  A    between atoms: C_2  and  C_7
REMARK    3  A    between atoms: C_8  and  O_13
REMARK    4  A    between atoms: C_9  and  O_15
REMARK    5  A    between atoms: C_10  and  C_17
REMARK    6  A    between atoms: C_17  and  O_18
REMARK    7  A    between atoms: O_18  and  C_19
REMARK    8  A    between atoms: C_21  and  CA_22
REMARK    9  A    between atoms: CA_22  and  N_24
REMARK   10  A    between atoms: CA_22  and  C_36
REMARK   11  A    between atoms: C_25  and  C_29
REMARK   12  A    between atoms: C_36  and  O_37
REMARK                            x       y       z     vdW  Elec       q    Type
REMARK                         _______ _______ _______ _____ _____    ______ ____
ROOT
ATOM      1  C   UNL     1      35.633 -20.548 -20.031  0.00  0.00    -0.020 C 
ATOM      2  C   UNL     1      34.965 -18.392 -21.640  0.00  0.00    +0.006 C 
ATOM      3  C   UNL     1      36.636 -19.717 -20.506  0.00  0.00    -0.004 C 
ATOM      4  C   UNL     1      34.302 -20.320 -20.346  0.00  0.00    -0.004 C 
ATOM      5  C   UNL     1      36.300 -18.633 -21.315  0.00  0.00    -0.000 C 
ATOM      6  C   UNL     1      33.966 -19.236 -21.156  0.00  0.00    -0.000 C 
ENDROOT
BRANCH   2   7
ATOM      7  C   UNL     1      34.616 -17.266 -22.479  0.00  0.00    +0.068 C 
ATOM      8  C   UNL     1      34.761 -17.353 -23.867  0.00  0.00    +0.141 C 
ATOM      9  C   UNL     1      34.134 -16.086 -21.907  0.00  0.00    +0.141 C 
ATOM     10  C   UNL     1      33.944 -15.092 -24.101  0.00  0.00    +0.013 C 
ATOM     11  C   UNL     1      34.425 -16.267 -24.676  0.00  0.00    +0.035 C 
ATOM     12  C   UNL     1      33.798 -15.001 -22.717  0.00  0.00    +0.035 C 
BRANCH   8  13
ATOM     13  O   UNL     1      35.226 -18.490 -24.458  0.00  0.00    -0.471 OA
ATOM     14  C   UNL     1      34.269 -19.318 -25.112  0.00  0.00    +0.252 C 
ENDBRANCH   8  13
BRANCH   9  15
ATOM     15  O   UNL     1      33.980 -15.968 -20.557  0.00  0.00    -0.471 OA
ATOM     16  C   UNL     1      32.835 -15.258 -20.096  0.00  0.00    +0.252 C 
ENDBRANCH   9  15
BRANCH  10  17
ATOM     17  C   UNL     1      33.583 -13.931 -24.967  0.00  0.00    +0.169 C 
BRANCH  17  18
ATOM     18  O   UNL     1      33.709 -12.727 -24.220  0.00  0.00    -0.349 OA
BRANCH  18  19
ATOM     19  C   UNL     1      33.993 -11.620 -25.063  0.00  0.00    +0.143 C 
ATOM     20  C   UNL     1      34.306 -10.414 -24.204  0.00  0.00    +0.035 C 
ENDBRANCH  18  19
ENDBRANCH  17  18
ENDBRANCH  10  17
ENDBRANCH   2   7
BRANCH   1  21
ATOM     21  C   UNL     1      35.997 -21.722 -19.156  0.00  0.00    +0.057 C 
BRANCH  21  22
ATOM     22  CA  UNL     1      34.894 -22.087 -18.154  0.00  0.00    +0.176 C 
BRANCH  22  24
ATOM     23  O   UNL     1      36.961 -21.320 -16.316  0.00  0.00    -0.270 OA
ATOM     24  N   UNL     1      35.418 -22.878 -17.070  0.00  0.00    -0.293 N 
ATOM     25  C   UNL     1      36.423 -22.421 -16.229  0.00  0.00    +0.251 C 
ATOM     26  H   UNL     1      35.049 -23.779 -16.919  0.00  0.00    +0.150 HD
BRANCH  25  29
ATOM     27  F   UNL     1      39.008 -23.512 -16.206  0.00  0.00    -0.204 F 
ATOM     28  F   UNL     1      34.741 -23.231 -14.137  0.00  0.00    -0.204 F 
ATOM     29  C   UNL     1      36.872 -23.367 -15.176  0.00  0.00    +0.108 C 
ATOM     30  C   UNL     1      38.158 -23.864 -15.229  0.00  0.00    +0.147 C 
ATOM     31  C   UNL     1      35.988 -23.721 -14.177  0.00  0.00    +0.147 C 
ATOM     32  C   UNL     1      38.580 -24.752 -14.240  0.00  0.00    +0.030 C 
ATOM     33  C   UNL     1      36.410 -24.609 -13.187  0.00  0.00    +0.030 C 
ATOM     34  C   UNL     1      37.705 -25.124 -13.219  0.00  0.00    +0.005 C 
ENDBRANCH  25  29
ENDBRANCH  22  24
BRANCH  22  36
ATOM     35  OXT UNL     1      33.954 -23.689 -19.704  0.00  0.00    -0.248 OA
ATOM     36  C   UNL     1      33.763 -22.814 -18.867  0.00  0.00    +0.332 C 
BRANCH  36  37
ATOM     37  O   UNL     1      32.518 -22.425 -18.501  0.00  0.00    -0.479 OA
ATOM     38  H   UNL     1      32.079 -21.748 -18.977  0.00  0.00    +0.295 HD
ENDBRANCH  36  37
ENDBRANCH  22  36
ENDBRANCH  21  22
ENDBRANCH   1  21
TORSDOF 12
ENDMDL
MODEL 3
REMARK VINA RESULT:     -10.7      1.726      2.939
REMARK  Name = 9935681
REMARK  12 active torsions:
REMARK  status: ('A' for Active; 'I' for Inactive)
REMARK    1  A    between atoms: C_1  and  C_21
REMARK    2  A    between atoms: C_2  and  C_7
REMARK    3  A    between atoms: C_8  and  O_13
REMARK    4  A    between atoms: C_9  and  O_15
REMARK    5  A    between atoms: C_10  and  C_17
REMARK    6  A    between atoms: C_17  and  O_18
REMARK    7  A    between atoms: O_18  and  C_19
REMARK    8  A    between atoms: C_21  and  CA_22
REMARK    9  A    between atoms: CA_22  and  N_24
REMARK   10  A    between atoms: CA_22  and  C_36
REMARK   11  A    between atoms: C_25  and  C_29
REMARK   12  A    between atoms: C_36  and  O_37
REMARK                            x       y       z     vdW  Elec       q    Type
REMARK                         _______ _______ _______ _____ _____    ______ ____
ROOT
ATOM      1  C   UNL     1      35.466 -21.331 -19.320  0.00  0.00    -0.020 C 
ATOM      2  C   UNL     1      35.178 -19.350 -21.237  0.00  0.00    +0.006 C 
ATOM      3  C   UNL     1      36.592 -20.680 -19.799  0.00  0.00    -0.004 C 
ATOM      4  C   UNL     1      34.199 -21.011 -19.782  0.00  0.00    -0.004 C 
ATOM      5  C   UNL     1      36.447 -19.683 -20.763  0.00  0.00    -0.000 C 
ATOM      6  C   UNL     1      34.054 -20.014 -20.746  0.00  0.00    -0.000 C 
ENDROOT
BRANCH   2   7
ATOM      7  C   UNL     1      35.028 -18.315 -22.237  0.00  0.00    +0.068 C 
ATOM      8  C   UNL     1      35.016 -18.646 -23.594  0.00  0.00    +0.141 C 
ATOM      9  C   UNL     1      34.893 -16.979 -21.850  0.00  0.00    +0.141 C 
ATOM     10  C   UNL     1      34.738 -16.317 -24.169  0.00  0.00    +0.013 C 
ATOM     11  C   UNL     1      34.871 -17.648 -24.559  0.00  0.00    +0.035 C 
ATOM     12  C   UNL     1      34.748 -15.981 -22.815  0.00  0.00    +0.035 C 
BRANCH   8  13
ATOM     13  O   UNL     1      35.143 -19.940 -24.006  0.00  0.00    -0.471 OA
ATOM     14  C   UNL     1      34.678 -20.251 -25.316  0.00  0.00    +0.252 C 
ENDBRANCH   8  13
BRANCH   9  15
ATOM     15  O   UNL     1      34.899 -16.621 -20.534  0.00  0.00    -0.471 OA
ATOM     16  C   UNL     1      34.458 -15.303 -20.220  0.00  0.00    +0.252 C 
ENDBRANCH   9  15
BRANCH  10  17
ATOM     17  C   UNL     1      34.580 -15.250 -25.200  0.00  0.00    +0.169 C 
BRANCH  17  18
ATOM     18  O   UNL     1      33.730 -15.718 -26.239  0.00  0.00    -0.349 OA
BRANCH  18  19
ATOM     19  C   UNL     1      32.695 -14.788 -26.524  0.00  0.00    +0.143 C 
ATOM     20  C   UNL     1      33.306 -13.537 -27.117  0.00  0.00    +0.035 C 
ENDBRANCH  18  19
ENDBRANCH  17  18
ENDBRANCH  10  17
ENDBRANCH   2   7
BRANCH   1  21
ATOM     21  C   UNL     1      35.624 -22.410 -18.278  0.00  0.00    +0.057 C 
BRANCH  21  22
ATOM     22  CA  UNL     1      34.549 -22.349 -17.184  0.00  0.00    +0.176 C 
BRANCH  22  24
ATOM     23  O   UNL     1      35.205 -24.897 -16.035  0.00  0.00    -0.270 OA
ATOM     24  N   UNL     1      35.118 -22.585 -15.882  0.00  0.00    -0.293 N 
ATOM     25  C   UNL     1      35.403 -23.859 -15.410  0.00  0.00    +0.251 C 
ATOM     26  H   UNL     1      35.314 -21.812 -15.304  0.00  0.00    +0.150 HD
BRANCH  25  29
ATOM     27  F   UNL     1      33.766 -24.056 -13.140  0.00  0.00    -0.204 F 
ATOM     28  F   UNL     1      38.164 -23.813 -14.920  0.00  0.00    -0.204 F 
ATOM     29  C   UNL     1      35.963 -23.934 -14.036  0.00  0.00    +0.108 C 
ATOM     30  C   UNL     1      35.096 -24.029 -12.967  0.00  0.00    +0.147 C 
ATOM     31  C   UNL     1      37.333 -23.906 -13.873  0.00  0.00    +0.147 C 
ATOM     32  C   UNL     1      35.622 -24.101 -11.677  0.00  0.00    +0.030 C 
ATOM     33  C   UNL     1      37.859 -23.978 -12.582  0.00  0.00    +0.030 C 
ATOM     34  C   UNL     1      37.003 -24.075 -11.485  0.00  0.00    +0.005 C 
ENDBRANCH  25  29
ENDBRANCH  22  24
BRANCH  22  36
ATOM     35  OXT UNL     1      32.379 -23.371 -16.875  0.00  0.00    -0.248 OA
ATOM     36  C   UNL     1      33.441 -23.347 -17.488  0.00  0.00    +0.332 C 
BRANCH  36  37
ATOM     37  O   UNL     1      33.711 -24.208 -18.497  0.00  0.00    -0.479 OA
ATOM     38  H   UNL     1      34.000 -25.078 -18.306  0.00  0.00    +0.295 HD
ENDBRANCH  36  37
ENDBRANCH  22  36
ENDBRANCH  21  22
ENDBRANCH   1  21
TORSDOF 12
ENDMDL
MODEL 4
REMARK VINA RESULT:     -10.6      3.585      6.747
REMARK  Name = 9935681
REMARK  12 active torsions:
REMARK  status: ('A' for Active; 'I' for Inactive)
REMARK    1  A    between atoms: C_1  and  C_21
REMARK    2  A    between atoms: C_2  and  C_7
REMARK    3  A    between atoms: C_8  and  O_13
REMARK    4  A    between atoms: C_9  and  O_15
REMARK    5  A    between atoms: C_10  and  C_17
REMARK    6  A    between atoms: C_17  and  O_18
REMARK    7  A    between atoms: O_18  and  C_19
REMARK    8  A    between atoms: C_21  and  CA_22
REMARK    9  A    between atoms: CA_22  and  N_24
REMARK   10  A    between atoms: CA_22  and  C_36
REMARK   11  A    between atoms: C_25  and  C_29
REMARK   12  A    between atoms: C_36  and  O_37
REMARK                            x       y       z     vdW  Elec       q    Type
REMARK                         _______ _______ _______ _____ _____    ______ ____
ROOT
ATOM      1  C   UNL     1      34.705 -15.708 -23.270  0.00  0.00    -0.020 C 
ATOM      2  C   UNL     1      33.614 -13.161 -23.254  0.00  0.00    +0.006 C 
ATOM      3  C   UNL     1      34.855 -14.912 -22.145  0.00  0.00    -0.004 C 
ATOM      4  C   UNL     1      34.020 -15.254 -24.387  0.00  0.00    -0.004 C 
ATOM      5  C   UNL     1      34.305 -13.631 -22.137  0.00  0.00    -0.000 C 
ATOM      6  C   UNL     1      33.471 -13.973 -24.378  0.00  0.00    -0.000 C 
ENDROOT
BRANCH   2   7
ATOM      7  C   UNL     1      33.043 -11.831 -23.244  0.00  0.00    +0.068 C 
ATOM      8  C   UNL     1      33.492 -10.868 -24.153  0.00  0.00    +0.141 C 
ATOM      9  C   UNL     1      32.041 -11.503 -22.327  0.00  0.00    +0.141 C 
ATOM     10  C   UNL     1      31.942  -9.263 -23.227  0.00  0.00    +0.013 C 
ATOM     11  C   UNL     1      32.941  -9.586 -24.143  0.00  0.00    +0.035 C 
ATOM     12  C   UNL     1      31.492 -10.221 -22.319  0.00  0.00    +0.035 C 
BRANCH   8  13
ATOM     13  O   UNL     1      34.466 -11.156 -25.062  0.00  0.00    -0.471 OA
ATOM     14  C   UNL     1      35.378 -10.111 -25.385  0.00  0.00    +0.252 C 
ENDBRANCH   8  13
BRANCH   9  15
ATOM     15  O   UNL     1      31.580 -12.419 -21.428  0.00  0.00    -0.471 OA
ATOM     16  C   UNL     1      31.597 -12.041 -20.054  0.00  0.00    +0.252 C 
ENDBRANCH   9  15
BRANCH  10  17
ATOM     17  C   UNL     1      31.353  -7.892 -23.219  0.00  0.00    +0.169 C 
BRANCH  17  18
ATOM     18  O   UNL     1      32.262  -6.990 -22.601  0.00  0.00    -0.349 OA
BRANCH  18  19
ATOM     19  C   UNL     1      31.792  -6.567 -21.329  0.00  0.00    +0.143 C 
ATOM     20  C   UNL     1      32.578  -7.282 -20.250  0.00  0.00    +0.035 C 
ENDBRANCH  18  19
ENDBRANCH  17  18
ENDBRANCH  10  17
ENDBRANCH   2   7
BRANCH   1  21
ATOM     21  C   UNL     1      35.300 -17.095 -23.279  0.00  0.00    +0.057 C 
BRANCH  21  22
ATOM     22  CA  UNL     1      34.256 -18.194 -23.516  0.00  0.00    +0.176 C 
BRANCH  22  24
ATOM     23  O   UNL     1      34.543 -17.880 -20.677  0.00  0.00    -0.270 OA
ATOM     24  N   UNL     1      34.382 -19.248 -22.542  0.00  0.00    -0.293 N 
ATOM     25  C   UNL     1      34.517 -18.999 -21.183  0.00  0.00    +0.251 C 
ATOM     26  H   UNL     1      34.371 -20.183 -22.852  0.00  0.00    +0.150 HD
BRANCH  25  29
ATOM     27  F   UNL     1      37.025 -19.965 -20.381  0.00  0.00    -0.204 F 
ATOM     28  F   UNL     1      32.300 -20.432 -20.237  0.00  0.00    -0.204 F 
ATOM     29  C   UNL     1      34.662 -20.194 -20.313  0.00  0.00    +0.108 C 
ATOM     30  C   UNL     1      35.928 -20.611 -19.959  0.00  0.00    +0.147 C 
ATOM     31  C   UNL     1      33.525 -20.849 -19.886  0.00  0.00    +0.147 C 
ATOM     32  C   UNL     1      36.064 -21.733 -19.141  0.00  0.00    +0.030 C 
ATOM     33  C   UNL     1      33.661 -21.970 -19.068  0.00  0.00    +0.030 C 
ATOM     34  C   UNL     1      34.930 -22.412 -18.696  0.00  0.00    +0.005 C 
ENDBRANCH  25  29
ENDBRANCH  22  24
BRANCH  22  36
ATOM     35  OXT UNL     1      34.083 -18.084 -25.926  0.00  0.00    -0.248 OA
ATOM     36  C   UNL     1      34.383 -18.736 -24.932  0.00  0.00    +0.332 C 
BRANCH  36  37
ATOM     37  O   UNL     1      34.863 -20.000 -25.016  0.00  0.00    -0.479 OA
ATOM     38  H   UNL     1      35.031 -20.490 -24.236  0.00  0.00    +0.295 HD
ENDBRANCH  36  37
ENDBRANCH  22  36
ENDBRANCH  21  22
ENDBRANCH   1  21
TORSDOF 12
ENDMDL
MODEL 5
REMARK VINA RESULT:     -10.6      3.577      6.420
REMARK  Name = 9935681
REMARK  12 active torsions:
REMARK  status: ('A' for Active; 'I' for Inactive)
REMARK    1  A    between atoms: C_1  and  C_21
REMARK    2  A    between atoms: C_2  and  C_7
REMARK    3  A    between atoms: C_8  and  O_13
REMARK    4  A    between atoms: C_9  and  O_15
REMARK    5  A    between atoms: C_10  and  C_17
REMARK    6  A    between atoms: C_17  and  O_18
REMARK    7  A    between atoms: O_18  and  C_19
REMARK    8  A    between atoms: C_21  and  CA_22
REMARK    9  A    between atoms: CA_22  and  N_24
REMARK   10  A    between atoms: CA_22  and  C_36
REMARK   11  A    between atoms: C_25  and  C_29
REMARK   12  A    between atoms: C_36  and  O_37
REMARK                            x       y       z     vdW  Elec       q    Type
REMARK                         _______ _______ _______ _____ _____    ______ ____
ROOT
ATOM      1  C   UNL     1      34.697 -15.703 -23.298  0.00  0.00    -0.020 C 
ATOM      2  C   UNL     1      33.603 -13.156 -23.270  0.00  0.00    +0.006 C 
ATOM      3  C   UNL     1      34.822 -14.923 -22.159  0.00  0.00    -0.004 C 
ATOM      4  C   UNL     1      34.037 -15.234 -24.423  0.00  0.00    -0.004 C 
ATOM      5  C   UNL     1      34.271 -13.641 -22.145  0.00  0.00    -0.000 C 
ATOM      6  C   UNL     1      33.486 -13.953 -24.408  0.00  0.00    -0.000 C 
ENDROOT
BRANCH   2   7
ATOM      7  C   UNL     1      33.031 -11.828 -23.254  0.00  0.00    +0.068 C 
ATOM      8  C   UNL     1      32.033 -11.503 -22.332  0.00  0.00    +0.141 C 
ATOM      9  C   UNL     1      33.475 -10.862 -24.161  0.00  0.00    +0.141 C 
ATOM     10  C   UNL     1      31.926  -9.261 -23.224  0.00  0.00    +0.013 C 
ATOM     11  C   UNL     1      31.482 -10.221 -22.317  0.00  0.00    +0.035 C 
ATOM     12  C   UNL     1      32.923  -9.580 -24.146  0.00  0.00    +0.035 C 
BRANCH   8  13
ATOM     13  O   UNL     1      31.579 -12.421 -21.431  0.00  0.00    -0.471 OA
ATOM     14  C   UNL     1      31.627 -12.056 -20.055  0.00  0.00    +0.252 C 
ENDBRANCH   8  13
BRANCH   9  15
ATOM     15  O   UNL     1      34.448 -11.145 -25.074  0.00  0.00    -0.471 OA
ATOM     16  C   UNL     1      35.358 -10.097 -25.395  0.00  0.00    +0.252 C 
ENDBRANCH   9  15
BRANCH  10  17
ATOM     17  C   UNL     1      31.338  -7.890 -23.207  0.00  0.00    +0.169 C 
BRANCH  17  18
ATOM     18  O   UNL     1      32.251  -6.992 -22.589  0.00  0.00    -0.349 OA
BRANCH  18  19
ATOM     19  C   UNL     1      31.769  -6.543 -21.330  0.00  0.00    +0.143 C 
ATOM     20  C   UNL     1      32.513  -7.270 -20.230  0.00  0.00    +0.035 C 
ENDBRANCH  18  19
ENDBRANCH  17  18
ENDBRANCH  10  17
ENDBRANCH   2   7
BRANCH   1  21
ATOM     21  C   UNL     1      35.294 -17.089 -23.313  0.00  0.00    +0.057 C 
BRANCH  21  22
ATOM     22  CA  UNL     1      34.246 -18.190 -23.517  0.00  0.00    +0.176 C 
BRANCH  22  24
ATOM     23  O   UNL     1      34.478 -17.865 -20.675  0.00  0.00    -0.270 OA
ATOM     24  N   UNL     1      34.397 -19.239 -22.541  0.00  0.00    -0.293 N 
ATOM     25  C   UNL     1      34.502 -18.984 -21.181  0.00  0.00    +0.251 C 
ATOM     26  H   UNL     1      34.427 -20.174 -22.850  0.00  0.00    +0.150 HD
BRANCH  25  29
ATOM     27  F   UNL     1      32.324 -20.464 -20.214  0.00  0.00    -0.204 F 
ATOM     28  F   UNL     1      37.036 -19.890 -20.392  0.00  0.00    -0.204 F 
ATOM     29  C   UNL     1      34.680 -20.172 -20.307  0.00  0.00    +0.108 C 
ATOM     30  C   UNL     1      33.562 -20.851 -19.869  0.00  0.00    +0.147 C 
ATOM     31  C   UNL     1      35.958 -20.559 -19.960  0.00  0.00    +0.147 C 
ATOM     32  C   UNL     1      33.728 -21.967 -19.049  0.00  0.00    +0.030 C 
ATOM     33  C   UNL     1      36.125 -21.675 -19.140  0.00  0.00    +0.030 C 
ATOM     34  C   UNL     1      35.010 -22.378 -18.684  0.00  0.00    +0.005 C 
ENDBRANCH  25  29
ENDBRANCH  22  24
BRANCH  22  36
ATOM     35  OXT UNL     1      33.962 -18.116 -25.918  0.00  0.00    -0.248 OA
ATOM     36  C   UNL     1      34.339 -18.741 -24.933  0.00  0.00    +0.332 C 
BRANCH  36  37
ATOM     37  O   UNL     1      34.879 -19.979 -25.027  0.00  0.00    -0.479 OA
ATOM     38  H   UNL     1      34.363 -20.693 -25.346  0.00  0.00    +0.295 HD
ENDBRANCH  36  37
ENDBRANCH  22  36
ENDBRANCH  21  22
ENDBRANCH   1  21
TORSDOF 12
ENDMDL
MODEL 6
REMARK VINA RESULT:      -9.9      8.657     15.939
REMARK  Name = 9935681
REMARK  12 active torsions:
REMARK  status: ('A' for Active; 'I' for Inactive)
REMARK    1  A    between atoms: C_1  and  C_21
REMARK    2  A    between atoms: C_2  and  C_7
REMARK    3  A    between atoms: C_8  and  O_13
REMARK    4  A    between atoms: C_9  and  O_15
REMARK    5  A    between atoms: C_10  and  C_17
REMARK    6  A    between atoms: C_17  and  O_18
REMARK    7  A    between atoms: O_18  and  C_19
REMARK    8  A    between atoms: C_21  and  CA_22
REMARK    9  A    between atoms: CA_22  and  N_24
REMARK   10  A    between atoms: CA_22  and  C_36
REMARK   11  A    between atoms: C_25  and  C_29
REMARK   12  A    between atoms: C_36  and  O_37
REMARK                            x       y       z     vdW  Elec       q    Type
REMARK                         _______ _______ _______ _____ _____    ______ ____
ROOT
ATOM      1  C   UNL     1      31.409  -6.312 -22.129  0.00  0.00    -0.020 C 
ATOM      2  C   UNL     1      32.128  -8.936 -22.659  0.00  0.00    +0.006 C 
ATOM      3  C   UNL     1      30.798  -6.986 -23.176  0.00  0.00    -0.004 C 
ATOM      4  C   UNL     1      32.372  -6.925 -21.343  0.00  0.00    -0.004 C 
ATOM      5  C   UNL     1      31.160  -8.306 -23.442  0.00  0.00    -0.000 C 
ATOM      6  C   UNL     1      32.733  -8.246 -21.609  0.00  0.00    -0.000 C 
ENDROOT
BRANCH   2   7
ATOM      7  C   UNL     1      32.502 -10.306 -22.935  0.00  0.00    +0.068 C 
ATOM      8  C   UNL     1      31.837 -11.358 -22.299  0.00  0.00    +0.141 C 
ATOM      9  C   UNL     1      33.530 -10.584 -23.839  0.00  0.00    +0.141 C 
ATOM     10  C   UNL     1      33.225 -12.953 -23.467  0.00  0.00    +0.013 C 
ATOM     11  C   UNL     1      32.198 -12.679 -22.565  0.00  0.00    +0.035 C 
ATOM     12  C   UNL     1      33.891 -11.906 -24.104  0.00  0.00    +0.035 C 
BRANCH   8  13
ATOM     13  O   UNL     1      30.827 -11.121 -21.413  0.00  0.00    -0.471 OA
ATOM     14  C   UNL     1      31.147 -11.215 -20.028  0.00  0.00    +0.252 C 
ENDBRANCH   8  13
BRANCH   9  15
ATOM     15  O   UNL     1      34.200  -9.582 -24.477  0.00  0.00    -0.471 OA
ATOM     16  C   UNL     1      35.326  -9.956 -25.265  0.00  0.00    +0.252 C 
ENDBRANCH   9  15
BRANCH  10  17
ATOM     17  C   UNL     1      33.609 -14.365 -23.753  0.00  0.00    +0.169 C 
BRANCH  17  18
ATOM     18  O   UNL     1      34.757 -14.708 -22.985  0.00  0.00    -0.349 OA
BRANCH  18  19
ATOM     19  C   UNL     1      34.490 -15.791 -22.106  0.00  0.00    +0.143 C 
ATOM     20  C   UNL     1      34.526 -15.288 -20.679  0.00  0.00    +0.035 C 
ENDBRANCH  18  19
ENDBRANCH  17  18
ENDBRANCH  10  17
ENDBRANCH   2   7
BRANCH   1  21
ATOM     21  C   UNL     1      31.018  -4.883 -21.842  0.00  0.00    +0.057 C 
BRANCH  21  22
ATOM     22  CA  UNL     1      30.857  -4.039 -23.113  0.00  0.00    +0.176 C 
BRANCH  22  24
ATOM     23  O   UNL     1      30.871  -3.798 -25.974  0.00  0.00    -0.270 OA
ATOM     24  N   UNL     1      31.996  -4.186 -23.983  0.00  0.00    -0.293 N 
ATOM     25  C   UNL     1      31.906  -4.051 -25.362  0.00  0.00    +0.251 C 
ATOM     26  H   UNL     1      32.873  -4.390 -23.584  0.00  0.00    +0.150 HD
BRANCH  25  29
ATOM     27  F   UNL     1      33.423  -6.398 -25.120  0.00  0.00    -0.204 F 
ATOM     28  F   UNL     1      32.919  -2.122 -27.127  0.00  0.00    -0.204 F 
ATOM     29  C   UNL     1      33.166  -4.259 -26.120  0.00  0.00    +0.108 C 
ATOM     30  C   UNL     1      33.860  -5.439 -25.950  0.00  0.00    +0.147 C 
ATOM     31  C   UNL     1      33.603  -3.264 -26.971  0.00  0.00    +0.147 C 
ATOM     32  C   UNL     1      35.043  -5.634 -26.663  0.00  0.00    +0.030 C 
ATOM     33  C   UNL     1      34.786  -3.460 -27.684  0.00  0.00    +0.030 C 
ATOM     34  C   UNL     1      35.506  -4.644 -27.529  0.00  0.00    +0.005 C 
ENDBRANCH  25  29
ENDBRANCH  22  24
BRANCH  22  36
ATOM     35  OXT UNL     1      29.521  -2.107 -22.535  0.00  0.00    -0.248 OA
ATOM     36  C   UNL     1      30.633  -2.580 -22.743  0.00  0.00    +0.332 C 
BRANCH  36  37
ATOM     37  O   UNL     1      31.762  -1.837 -22.653  0.00  0.00    -0.479 OA
ATOM     38  H   UNL     1      32.446  -1.945 -23.284  0.00  0.00    +0.295 HD
ENDBRANCH  36  37
ENDBRANCH  22  36
ENDBRANCH  21  22
ENDBRANCH   1  21
TORSDOF 12
ENDMDL
MODEL 7
REMARK VINA RESULT:      -9.8      3.424     10.712
REMARK  Name = 9935681
REMARK  12 active torsions:
REMARK  status: ('A' for Active; 'I' for Inactive)
REMARK    1  A    between atoms: C_1  and  C_21
REMARK    2  A    between atoms: C_2  and  C_7
REMARK    3  A    between atoms: C_8  and  O_13
REMARK    4  A    between atoms: C_9  and  O_15
REMARK    5  A    between atoms: C_10  and  C_17
REMARK    6  A    between atoms: C_17  and  O_18
REMARK    7  A    between atoms: O_18  and  C_19
REMARK    8  A    between atoms: C_21  and  CA_22
REMARK    9  A    between atoms: CA_22  and  N_24
REMARK   10  A    between atoms: CA_22  and  C_36
REMARK   11  A    between atoms: C_25  and  C_29
REMARK   12  A    between atoms: C_36  and  O_37
REMARK                            x       y       z     vdW  Elec       q    Type
REMARK                         _______ _______ _______ _____ _____    ______ ____
ROOT
ATOM      1  C   UNL     1      34.106 -20.302 -20.634  0.00  0.00    -0.020 C 
ATOM      2  C   UNL     1      34.542 -21.874 -18.393  0.00  0.00    +0.006 C 
ATOM      3  C   UNL     1      35.406 -20.583 -20.244  0.00  0.00    -0.004 C 
ATOM      4  C   UNL     1      33.020 -20.792 -19.925  0.00  0.00    -0.004 C 
ATOM      5  C   UNL     1      35.625 -21.374 -19.116  0.00  0.00    -0.000 C 
ATOM      6  C   UNL     1      33.239 -21.583 -18.798  0.00  0.00    -0.000 C 
ENDROOT
BRANCH   2   7
ATOM      7  C   UNL     1      34.770 -22.695 -17.224  0.00  0.00    +0.068 C 
ATOM      8  C   UNL     1      33.711 -23.396 -16.641  0.00  0.00    +0.141 C 
ATOM      9  C   UNL     1      36.051 -22.793 -16.673  0.00  0.00    +0.141 C 
ATOM     10  C   UNL     1      35.209 -24.282 -14.966  0.00  0.00    +0.013 C 
ATOM     11  C   UNL     1      33.931 -24.187 -15.513  0.00  0.00    +0.035 C 
ATOM     12  C   UNL     1      36.270 -23.584 -15.546  0.00  0.00    +0.035 C 
BRANCH   8  13
ATOM     13  O   UNL     1      32.450 -23.324 -17.154  0.00  0.00    -0.471 OA
ATOM     14  C   UNL     1      31.373 -23.270 -16.223  0.00  0.00    +0.252 C 
ENDBRANCH   8  13
BRANCH   9  15
ATOM     15  O   UNL     1      37.106 -22.123 -17.218  0.00  0.00    -0.471 OA
ATOM     16  C   UNL     1      37.869 -21.297 -16.344  0.00  0.00    +0.252 C 
ENDBRANCH   9  15
BRANCH  10  17
ATOM     17  C   UNL     1      35.445 -25.130 -13.762  0.00  0.00    +0.169 C 
BRANCH  17  18
ATOM     18  O   UNL     1      36.593 -25.942 -13.972  0.00  0.00    -0.349 OA
BRANCH  18  19
ATOM     19  C   UNL     1      37.445 -25.944 -12.835  0.00  0.00    +0.143 C 
ATOM     20  C   UNL     1      38.815 -25.446 -13.245  0.00  0.00    +0.035 C 
ENDBRANCH  18  19
ENDBRANCH  17  18
ENDBRANCH  10  17
ENDBRANCH   2   7
BRANCH   1  21
ATOM     21  C   UNL     1      33.869 -19.445 -21.854  0.00  0.00    +0.057 C 
BRANCH  21  22
ATOM     22  CA  UNL     1      34.875 -18.294 -21.982  0.00  0.00    +0.176 C 
BRANCH  22  24
ATOM     23  O   UNL     1      35.091 -15.997 -20.274  0.00  0.00    -0.270 OA
ATOM     24  N   UNL     1      34.201 -17.031 -22.149  0.00  0.00    -0.293 N 
ATOM     25  C   UNL     1      34.368 -15.973 -21.267  0.00  0.00    +0.251 C 
ATOM     26  H   UNL     1      33.598 -16.914 -22.919  0.00  0.00    +0.150 HD
BRANCH  25  29
ATOM     27  F   UNL     1      32.427 -14.981 -19.502  0.00  0.00    -0.204 F 
ATOM     28  F   UNL     1      34.732 -14.503 -23.628  0.00  0.00    -0.204 F 
ATOM     29  C   UNL     1      33.583 -14.747 -21.563  0.00  0.00    +0.108 C 
ATOM     30  C   UNL     1      32.644 -14.319 -20.648  0.00  0.00    +0.147 C 
ATOM     31  C   UNL     1      33.817 -14.076 -22.746  0.00  0.00    +0.147 C 
ATOM     32  C   UNL     1      31.907 -13.168 -20.926  0.00  0.00    +0.030 C 
ATOM     33  C   UNL     1      33.080 -12.925 -23.025  0.00  0.00    +0.030 C 
ATOM     34  C   UNL     1      32.125 -12.471 -22.115  0.00  0.00    +0.005 C 
ENDBRANCH  25  29
ENDBRANCH  22  24
BRANCH  22  36
ATOM     35  OXT UNL     1      35.451 -18.925 -24.245  0.00  0.00    -0.248 OA
ATOM     36  C   UNL     1      35.829 -18.564 -23.136  0.00  0.00    +0.332 C 
BRANCH  36  37
ATOM     37  O   UNL     1      37.138 -18.367 -22.849  0.00  0.00    -0.479 OA
ATOM     38  H   UNL     1      37.709 -19.101 -22.736  0.00  0.00    +0.295 HD
ENDBRANCH  36  37
ENDBRANCH  22  36
ENDBRANCH  21  22
ENDBRANCH   1  21
TORSDOF 12
ENDMDL
MODEL 8
REMARK VINA RESULT:      -9.8      3.435     10.821
REMARK  Name = 9935681
REMARK  12 active torsions:
REMARK  status: ('A' for Active; 'I' for Inactive)
REMARK    1  A    between atoms: C_1  and  C_21
REMARK    2  A    between atoms: C_2  and  C_7
REMARK    3  A    between atoms: C_8  and  O_13
REMARK    4  A    between atoms: C_9  and  O_15
REMARK    5  A    between atoms: C_10  and  C_17
REMARK    6  A    between atoms: C_17  and  O_18
REMARK    7  A    between atoms: O_18  and  C_19
REMARK    8  A    between atoms: C_21  and  CA_22
REMARK    9  A    between atoms: CA_22  and  N_24
REMARK   10  A    between atoms: CA_22  and  C_36
REMARK   11  A    between atoms: C_25  and  C_29
REMARK   12  A    between atoms: C_36  and  O_37
REMARK                            x       y       z     vdW  Elec       q    Type
REMARK                         _______ _______ _______ _____ _____    ______ ____
ROOT
ATOM      1  C   UNL     1      34.042 -20.316 -20.584  0.00  0.00    -0.020 C 
ATOM      2  C   UNL     1      34.517 -21.906 -18.363  0.00  0.00    +0.006 C 
ATOM      3  C   UNL     1      35.349 -20.587 -20.209  0.00  0.00    -0.004 C 
ATOM      4  C   UNL     1      32.969 -20.825 -19.869  0.00  0.00    -0.004 C 
ATOM      5  C   UNL     1      35.588 -21.387 -19.092  0.00  0.00    -0.000 C 
ATOM      6  C   UNL     1      33.207 -21.625 -18.752  0.00  0.00    -0.000 C 
ENDROOT
BRANCH   2   7
ATOM      7  C   UNL     1      34.765 -22.736 -17.205  0.00  0.00    +0.068 C 
ATOM      8  C   UNL     1      36.054 -22.835 -16.674  0.00  0.00    +0.141 C 
ATOM      9  C   UNL     1      33.716 -23.443 -16.610  0.00  0.00    +0.141 C 
ATOM     10  C   UNL     1      35.245 -24.340 -14.967  0.00  0.00    +0.013 C 
ATOM     11  C   UNL     1      36.293 -23.636 -15.557  0.00  0.00    +0.035 C 
ATOM     12  C   UNL     1      33.956 -24.244 -15.493  0.00  0.00    +0.035 C 
BRANCH   8  13
ATOM     13  O   UNL     1      37.099 -22.156 -17.229  0.00  0.00    -0.471 OA
ATOM     14  C   UNL     1      37.879 -21.345 -16.356  0.00  0.00    +0.252 C 
ENDBRANCH   8  13
BRANCH   9  15
ATOM     15  O   UNL     1      32.446 -23.369 -17.102  0.00  0.00    -0.471 OA
ATOM     16  C   UNL     1      31.384 -23.364 -16.152  0.00  0.00    +0.252 C 
ENDBRANCH   9  15
BRANCH  10  17
ATOM     17  C   UNL     1      35.500 -25.195 -13.771  0.00  0.00    +0.169 C 
BRANCH  17  18
ATOM     18  O   UNL     1      36.852 -25.636 -13.786  0.00  0.00    -0.349 OA
BRANCH  18  19
ATOM     19  C   UNL     1      37.385 -25.725 -12.472  0.00  0.00    +0.143 C 
ATOM     20  C   UNL     1      37.806 -24.343 -12.017  0.00  0.00    +0.035 C 
ENDBRANCH  18  19
ENDBRANCH  17  18
ENDBRANCH  10  17
ENDBRANCH   2   7
BRANCH   1  21
ATOM     21  C   UNL     1      33.784 -19.450 -21.792  0.00  0.00    +0.057 C 
BRANCH  21  22
ATOM     22  CA  UNL     1      34.795 -18.305 -21.935  0.00  0.00    +0.176 C 
BRANCH  22  24
ATOM     23  O   UNL     1      35.150 -15.921 -20.376  0.00  0.00    -0.270 OA
ATOM     24  N   UNL     1      34.127 -17.043 -22.129  0.00  0.00    -0.293 N 
ATOM     25  C   UNL     1      34.365 -15.940 -21.320  0.00  0.00    +0.251 C 
ATOM     26  H   UNL     1      33.476 -16.959 -22.863  0.00  0.00    +0.150 HD
BRANCH  25  29
ATOM     27  F   UNL     1      34.727 -14.499 -23.699  0.00  0.00    -0.204 F 
ATOM     28  F   UNL     1      32.418 -14.932 -19.570  0.00  0.00    -0.204 F 
ATOM     29  C   UNL     1      33.576 -14.721 -21.633  0.00  0.00    +0.108 C 
ATOM     30  C   UNL     1      33.810 -14.063 -22.823  0.00  0.00    +0.147 C 
ATOM     31  C   UNL     1      32.635 -14.284 -20.723  0.00  0.00    +0.147 C 
ATOM     32  C   UNL     1      33.069 -12.918 -23.117  0.00  0.00    +0.030 C 
ATOM     33  C   UNL     1      31.894 -13.139 -21.018  0.00  0.00    +0.030 C 
ATOM     34  C   UNL     1      32.111 -12.457 -22.214  0.00  0.00    +0.005 C 
ENDBRANCH  25  29
ENDBRANCH  22  24
BRANCH  22  36
ATOM     35  OXT UNL     1      35.390 -19.057 -24.156  0.00  0.00    -0.248 OA
ATOM     36  C   UNL     1      35.755 -18.598 -23.079  0.00  0.00    +0.332 C 
BRANCH  36  37
ATOM     37  O   UNL     1      37.053 -18.308 -22.821  0.00  0.00    -0.479 OA
ATOM     38  H   UNL     1      37.553 -18.860 -22.253  0.00  0.00    +0.295 HD
ENDBRANCH  36  37
ENDBRANCH  22  36
ENDBRANCH  21  22
ENDBRANCH   1  21
TORSDOF 12
ENDMDL
MODEL 9
REMARK VINA RESULT:      -9.7      8.603     16.041
REMARK  Name = 9935681
REMARK  12 active torsions:
REMARK  status: ('A' for Active; 'I' for Inactive)
REMARK    1  A    between atoms: C_1  and  C_21
REMARK    2  A    between atoms: C_2  and  C_7
REMARK    3  A    between atoms: C_8  and  O_13
REMARK    4  A    between atoms: C_9  and  O_15
REMARK    5  A    between atoms: C_10  and  C_17
REMARK    6  A    between atoms: C_17  and  O_18
REMARK    7  A    between atoms: O_18  and  C_19
REMARK    8  A    between atoms: C_21  and  CA_22
REMARK    9  A    between atoms: CA_22  and  N_24
REMARK   10  A    between atoms: CA_22  and  C_36
REMARK   11  A    between atoms: C_25  and  C_29
REMARK   12  A    between atoms: C_36  and  O_37
REMARK                            x       y       z     vdW  Elec       q    Type
REMARK                         _______ _______ _______ _____ _____    ______ ____
ROOT
ATOM      1  C   UNL     1      31.389  -6.252 -22.041  0.00  0.00    -0.020 C 
ATOM      2  C   UNL     1      32.064  -8.891 -22.557  0.00  0.00    +0.006 C 
ATOM      3  C   UNL     1      32.339  -6.878 -21.249  0.00  0.00    -0.004 C 
ATOM      4  C   UNL     1      30.771  -6.921 -23.086  0.00  0.00    -0.004 C 
ATOM      5  C   UNL     1      32.679  -8.205 -21.508  0.00  0.00    -0.000 C 
ATOM      6  C   UNL     1      31.111  -8.248 -23.346  0.00  0.00    -0.000 C 
ENDROOT
BRANCH   2   7
ATOM      7  C   UNL     1      32.418 -10.267 -22.826  0.00  0.00    +0.068 C 
ATOM      8  C   UNL     1      33.416 -10.567 -23.757  0.00  0.00    +0.141 C 
ATOM      9  C   UNL     1      31.763 -11.305 -22.157  0.00  0.00    +0.141 C 
ATOM     10  C   UNL     1      33.101 -12.927 -23.348  0.00  0.00    +0.013 C 
ATOM     11  C   UNL     1      33.757 -11.895 -24.017  0.00  0.00    +0.035 C 
ATOM     12  C   UNL     1      32.104 -12.632 -22.418  0.00  0.00    +0.035 C 
BRANCH   8  13
ATOM     13  O   UNL     1      34.077  -9.579 -24.426  0.00  0.00    -0.471 OA
ATOM     14  C   UNL     1      35.282  -9.943 -25.093  0.00  0.00    +0.252 C 
ENDBRANCH   8  13
BRANCH   9  15
ATOM     15  O   UNL     1      30.784 -11.047 -21.242  0.00  0.00    -0.471 OA
ATOM     16  C   UNL     1      31.138 -11.166 -19.867  0.00  0.00    +0.252 C 
ENDBRANCH   9  15
BRANCH  10  17
ATOM     17  C   UNL     1      33.467 -14.346 -23.624  0.00  0.00    +0.169 C 
BRANCH  17  18
ATOM     18  O   UNL     1      33.032 -15.165 -22.545  0.00  0.00    -0.349 OA
BRANCH  18  19
ATOM     19  C   UNL     1      34.112 -15.893 -21.977  0.00  0.00    +0.143 C 
ATOM     20  C   UNL     1      34.453 -15.295 -20.629  0.00  0.00    +0.035 C 
ENDBRANCH  18  19
ENDBRANCH  17  18
ENDBRANCH  10  17
ENDBRANCH   2   7
BRANCH   1  21
ATOM     21  C   UNL     1      31.021  -4.816 -21.759  0.00  0.00    +0.057 C 
BRANCH  21  22
ATOM     22  CA  UNL     1      30.836  -3.984 -23.035  0.00  0.00    +0.176 C 
BRANCH  22  24
ATOM     23  O   UNL     1      30.775  -3.994 -25.905  0.00  0.00    -0.270 OA
ATOM     24  N   UNL     1      31.964  -4.129 -23.919  0.00  0.00    -0.293 N 
ATOM     25  C   UNL     1      31.837  -4.121 -25.301  0.00  0.00    +0.251 C 
ATOM     26  H   UNL     1      32.862  -4.237 -23.527  0.00  0.00    +0.150 HD
BRANCH  25  29
ATOM     27  F   UNL     1      32.767  -2.205 -27.125  0.00  0.00    -0.204 F 
ATOM     28  F   UNL     1      33.429  -6.414 -25.025  0.00  0.00    -0.204 F 
ATOM     29  C   UNL     1      33.093  -4.308 -26.072  0.00  0.00    +0.108 C 
ATOM     30  C   UNL     1      33.488  -3.323 -26.952  0.00  0.00    +0.147 C 
ATOM     31  C   UNL     1      33.824  -5.463 -25.883  0.00  0.00    +0.147 C 
ATOM     32  C   UNL     1      34.668  -3.498 -27.676  0.00  0.00    +0.030 C 
ATOM     33  C   UNL     1      35.004  -5.639 -26.607  0.00  0.00    +0.030 C 
ATOM     34  C   UNL     1      35.425  -4.656 -27.503  0.00  0.00    +0.005 C 
ENDBRANCH  25  29
ENDBRANCH  22  24
BRANCH  22  36
ATOM     35  OXT UNL     1      29.487  -2.046 -22.508  0.00  0.00    -0.248 OA
ATOM     36  C   UNL     1      30.605  -2.524 -22.674  0.00  0.00    +0.332 C 
BRANCH  36  37
ATOM     37  O   UNL     1      31.732  -1.786 -22.541  0.00  0.00    -0.479 OA
ATOM     38  H   UNL     1      31.958  -1.421 -21.708  0.00  0.00    +0.295 HD
ENDBRANCH  36  37
ENDBRANCH  22  36
ENDBRANCH  21  22
ENDBRANCH   1  21
TORSDOF 12
ENDMDL
