MODEL 1
REMARK VINA RESULT:      -9.7      0.000      0.000
REMARK  Name = 15991588
REMARK  4 active torsions:
REMARK  status: ('A' for Active; 'I' for Inactive)
REMARK    1  A    between atoms: C_4  and  O_20
REMARK    2  A    between atoms: C_14  and  O_16
REMARK    3  A    between atoms: C_15  and  O_18
REMARK    4  A    between atoms: O_20  and  C_21
REMARK                            x       y       z     vdW  Elec       q    Type
REMARK                         _______ _______ _______ _____ _____    ______ ____
ROOT
ATOM      1  N   UNL     1      34.529 -17.243 -24.068  0.00  0.00    -0.290 N 
ATOM      2  N   UNL     1      34.106 -15.981 -26.032  0.00  0.00    -0.230 NA
ATOM      3  N   UNL     1      33.033 -13.827 -25.913  0.00  0.00    -0.248 NA
ATOM      4  C   UNL     1      34.639 -19.287 -22.900  0.00  0.00    +0.187 C 
ATOM      5  C   UNL     1      36.044 -18.881 -23.317  0.00  0.00    +0.067 C 
ATOM      6  C   UNL     1      33.740 -18.448 -23.809  0.00  0.00    +0.136 C 
ATOM      7  C   UNL     1      35.907 -17.386 -23.605  0.00  0.00    +0.096 C 
ATOM      8  C   UNL     1      34.029 -16.105 -24.665  0.00  0.00    +0.130 C 
ATOM      9  C   UNL     1      33.438 -15.063 -23.899  0.00  0.00    +0.048 C 
ATOM     10  C   UNL     1      32.951 -13.933 -24.576  0.00  0.00    +0.066 C 
ATOM     11  C   UNL     1      33.347 -15.162 -22.500  0.00  0.00    +0.044 C 
ATOM     12  C   UNL     1      32.374 -12.918 -23.815  0.00  0.00    +0.112 C 
ATOM     13  C   UNL     1      33.607 -14.857 -26.569  0.00  0.00    +0.252 C 
ATOM     14  C   UNL     1      32.766 -14.134 -21.765  0.00  0.00    +0.169 C 
ATOM     15  C   UNL     1      32.280 -13.010 -22.424  0.00  0.00    +0.156 C 
ENDROOT
BRANCH  14  16
ATOM     16  O   UNL     1      32.681 -14.238 -20.410  0.00  0.00    -0.469 OA
ATOM     17  C   UNL     1      32.302 -15.506 -19.879  0.00  0.00    +0.253 C 
ENDBRANCH  14  16
BRANCH  15  18
ATOM     18  O   UNL     1      31.707 -11.991 -21.725  0.00  0.00    -0.472 OA
ATOM     19  C   UNL     1      31.838 -10.679 -22.270  0.00  0.00    +0.252 C 
ENDBRANCH  15  18
BRANCH   4  20
ATOM     20  O   UNL     1      34.405 -18.921 -21.544  0.00  0.00    -0.477 OA
BRANCH  20  21
ATOM     21  C   UNL     1      34.559 -19.896 -20.605  0.00  0.00    +0.138 C 
ATOM     22  C   UNL     1      33.437 -20.472 -20.010  0.00  0.00    +0.037 C 
ATOM     23  C   UNL     1      35.834 -20.314 -20.240  0.00  0.00    +0.037 C 
ATOM     24  C   UNL     1      33.578 -21.477 -19.039  0.00  0.00    +0.003 C 
ATOM     25  C   UNL     1      34.875 -21.902 -18.667  0.00  0.00    +0.000 C 
ATOM     26  C   UNL     1      35.993 -21.311 -19.276  0.00  0.00    +0.003 C 
ATOM     27  C   UNL     1      32.460 -22.069 -18.429  0.00  0.00    +0.000 C 
ATOM     28  C   UNL     1      35.017 -22.908 -17.695  0.00  0.00    +0.000 C 
ATOM     29  C   UNL     1      32.618 -23.066 -17.466  0.00  0.00    +0.000 C 
ATOM     30  C   UNL     1      33.894 -23.484 -17.099  0.00  0.00    +0.000 C 
ENDBRANCH  20  21
ENDBRANCH   4  20
TORSDOF 4
ENDMDL
MODEL 2
REMARK VINA RESULT:      -9.6      6.505     13.199
REMARK  Name = 15991588
REMARK  4 active torsions:
REMARK  status: ('A' for Active; 'I' for Inactive)
REMARK    1  A    between atoms: C_4  and  O_20
REMARK    2  A    between atoms: C_14  and  O_16
REMARK    3  A    between atoms: C_15  and  O_18
REMARK    4  A    between atoms: O_20  and  C_21
REMARK                            x       y       z     vdW  Elec       q    Type
REMARK                         _______ _______ _______ _____ _____    ______ ____
ROOT
ATOM      1  N   UNL     1      32.017  -8.526 -22.242  0.00  0.00    -0.290 N 
ATOM      2  N   UNL     1      31.205 -10.145 -20.710  0.00  0.00    -0.230 NA
ATOM      3  N   UNL     1      31.584 -12.496 -21.077  0.00  0.00    -0.248 NA
ATOM      4  C   UNL     1      31.791  -6.511 -23.444  0.00  0.00    +0.187 C 
ATOM      5  C   UNL     1      32.678  -6.266 -22.233  0.00  0.00    +0.067 C 
ATOM      6  C   UNL     1      31.068  -7.814 -23.100  0.00  0.00    +0.136 C 
ATOM      7  C   UNL     1      33.133  -7.672 -21.840  0.00  0.00    +0.096 C 
ATOM      8  C   UNL     1      31.882  -9.846 -21.869  0.00  0.00    +0.130 C 
ATOM      9  C   UNL     1      32.425 -10.899 -22.655  0.00  0.00    +0.048 C 
ATOM     10  C   UNL     1      32.249 -12.220 -22.212  0.00  0.00    +0.066 C 
ATOM     11  C   UNL     1      33.123 -10.623 -23.843  0.00  0.00    +0.044 C 
ATOM     12  C   UNL     1      32.786 -13.244 -22.990  0.00  0.00    +0.112 C 
ATOM     13  C   UNL     1      31.098 -11.443 -20.387  0.00  0.00    +0.252 C 
ATOM     14  C   UNL     1      33.648 -11.665 -24.600  0.00  0.00    +0.169 C 
ATOM     15  C   UNL     1      33.480 -12.976 -24.173  0.00  0.00    +0.156 C 
ENDROOT
BRANCH  14  16
ATOM     16  O   UNL     1      34.322 -11.389 -25.751  0.00  0.00    -0.469 OA
ATOM     17  C   UNL     1      35.345 -10.397 -25.683  0.00  0.00    +0.253 C 
ENDBRANCH  14  16
BRANCH  15  18
ATOM     18  O   UNL     1      33.986 -14.013 -24.898  0.00  0.00    -0.472 OA
ATOM     19  C   UNL     1      33.088 -14.688 -25.777  0.00  0.00    +0.252 C 
ENDBRANCH  15  18
BRANCH   4  20
ATOM     20  O   UNL     1      32.589  -6.712 -24.605  0.00  0.00    -0.477 OA
BRANCH  20  21
ATOM     21  C   UNL     1      32.857  -5.616 -25.369  0.00  0.00    +0.138 C 
ATOM     22  C   UNL     1      34.025  -5.567 -26.130  0.00  0.00    +0.037 C 
ATOM     23  C   UNL     1      31.968  -4.547 -25.388  0.00  0.00    +0.037 C 
ATOM     24  C   UNL     1      34.317  -4.445 -26.922  0.00  0.00    +0.003 C 
ATOM     25  C   UNL     1      33.413  -3.357 -26.941  0.00  0.00    +0.000 C 
ATOM     26  C   UNL     1      32.242  -3.423 -26.169  0.00  0.00    +0.003 C 
ATOM     27  C   UNL     1      35.489  -4.377 -27.695  0.00  0.00    +0.000 C 
ATOM     28  C   UNL     1      33.705  -2.234 -27.734  0.00  0.00    +0.000 C 
ATOM     29  C   UNL     1      35.763  -3.254 -28.475  0.00  0.00    +0.000 C 
ATOM     30  C   UNL     1      34.873  -2.184 -28.494  0.00  0.00    +0.000 C 
ENDBRANCH  20  21
ENDBRANCH   4  20
TORSDOF 4
ENDMDL
MODEL 3
REMARK VINA RESULT:      -8.3      5.407     10.597
REMARK  Name = 15991588
REMARK  4 active torsions:
REMARK  status: ('A' for Active; 'I' for Inactive)
REMARK    1  A    between atoms: C_4  and  O_20
REMARK    2  A    between atoms: C_14  and  O_16
REMARK    3  A    between atoms: C_15  and  O_18
REMARK    4  A    between atoms: O_20  and  C_21
REMARK                            x       y       z     vdW  Elec       q    Type
REMARK                         _______ _______ _______ _____ _____    ______ ____
ROOT
ATOM      1  N   UNL     1      33.063 -23.253 -17.028  0.00  0.00    -0.290 N 
ATOM      2  N   UNL     1      31.679 -24.253 -15.382  0.00  0.00    -0.230 NA
ATOM      3  N   UNL     1      32.520 -24.720 -13.173  0.00  0.00    -0.248 NA
ATOM      4  C   UNL     1      33.814 -23.032 -19.251  0.00  0.00    +0.187 C 
ATOM      5  C   UNL     1      32.832 -21.911 -18.949  0.00  0.00    +0.067 C 
ATOM      6  C   UNL     1      33.531 -24.060 -18.155  0.00  0.00    +0.136 C 
ATOM      7  C   UNL     1      32.806 -21.869 -17.421  0.00  0.00    +0.096 C 
ATOM      8  C   UNL     1      32.899 -23.735 -15.747  0.00  0.00    +0.130 C 
ATOM      9  C   UNL     1      33.960 -23.708 -14.801  0.00  0.00    +0.048 C 
ATOM     10  C   UNL     1      33.719 -24.217 -13.514  0.00  0.00    +0.066 C 
ATOM     11  C   UNL     1      35.218 -23.185 -15.147  0.00  0.00    +0.044 C 
ATOM     12  C   UNL     1      34.766 -24.186 -12.596  0.00  0.00    +0.112 C 
ATOM     13  C   UNL     1      31.565 -24.711 -14.125  0.00  0.00    +0.252 C 
ATOM     14  C   UNL     1      36.246 -23.166 -14.209  0.00  0.00    +0.169 C 
ATOM     15  C   UNL     1      36.019 -23.667 -12.933  0.00  0.00    +0.156 C 
ENDROOT
BRANCH  14  16
ATOM     16  O   UNL     1      37.462 -22.657 -14.552  0.00  0.00    -0.469 OA
ATOM     17  C   UNL     1      37.659 -22.312 -15.922  0.00  0.00    +0.253 C 
ENDBRANCH  14  16
BRANCH  15  18
ATOM     18  O   UNL     1      37.011 -23.658 -11.999  0.00  0.00    -0.472 OA
ATOM     19  C   UNL     1      37.920 -24.758 -12.010  0.00  0.00    +0.252 C 
ENDBRANCH  15  18
BRANCH   4  20
ATOM     20  O   UNL     1      35.151 -22.562 -19.118  0.00  0.00    -0.477 OA
BRANCH  20  21
ATOM     21  C   UNL     1      35.491 -21.454 -19.832  0.00  0.00    +0.138 C 
ATOM     22  C   UNL     1      34.608 -20.939 -20.782  0.00  0.00    +0.037 C 
ATOM     23  C   UNL     1      36.719 -20.836 -19.615  0.00  0.00    +0.037 C 
ATOM     24  C   UNL     1      34.943 -19.798 -21.528  0.00  0.00    +0.003 C 
ATOM     25  C   UNL     1      36.192 -19.170 -21.308  0.00  0.00    +0.000 C 
ATOM     26  C   UNL     1      37.069 -19.701 -20.348  0.00  0.00    +0.003 C 
ATOM     27  C   UNL     1      34.067 -19.266 -22.488  0.00  0.00    +0.000 C 
ATOM     28  C   UNL     1      36.528 -18.027 -22.054  0.00  0.00    +0.000 C 
ATOM     29  C   UNL     1      34.417 -18.132 -23.221  0.00  0.00    +0.000 C 
ATOM     30  C   UNL     1      35.645 -17.514 -23.005  0.00  0.00    +0.000 C 
ENDBRANCH  20  21
ENDBRANCH   4  20
TORSDOF 4
ENDMDL
MODEL 4
REMARK VINA RESULT:      -8.2      6.260     10.818
REMARK  Name = 15991588
REMARK  4 active torsions:
REMARK  status: ('A' for Active; 'I' for Inactive)
REMARK    1  A    between atoms: C_4  and  O_20
REMARK    2  A    between atoms: C_14  and  O_16
REMARK    3  A    between atoms: C_15  and  O_18
REMARK    4  A    between atoms: O_20  and  C_21
REMARK                            x       y       z     vdW  Elec       q    Type
REMARK                         _______ _______ _______ _____ _____    ______ ____
ROOT
ATOM      1  N   UNL     1      31.605  -6.925 -22.836  0.00  0.00    -0.290 N 
ATOM      2  N   UNL     1      30.519  -4.945 -22.110  0.00  0.00    -0.230 NA
ATOM      3  N   UNL     1      30.688  -2.903 -23.378  0.00  0.00    -0.248 NA
ATOM      4  C   UNL     1      32.809  -8.906 -22.409  0.00  0.00    +0.187 C 
ATOM      5  C   UNL     1      31.346  -9.256 -22.629  0.00  0.00    +0.067 C 
ATOM      6  C   UNL     1      32.776  -7.408 -22.103  0.00  0.00    +0.136 C 
ATOM      7  C   UNL     1      30.795  -8.026 -23.351  0.00  0.00    +0.096 C 
ATOM      8  C   UNL     1      31.310  -5.592 -23.029  0.00  0.00    +0.130 C 
ATOM      9  C   UNL     1      31.805  -4.878 -24.154  0.00  0.00    +0.048 C 
ATOM     10  C   UNL     1      31.462  -3.522 -24.286  0.00  0.00    +0.066 C 
ATOM     11  C   UNL     1      32.615  -5.514 -25.110  0.00  0.00    +0.044 C 
ATOM     12  C   UNL     1      31.953  -2.832 -25.392  0.00  0.00    +0.112 C 
ATOM     13  C   UNL     1      30.258  -3.648 -22.339  0.00  0.00    +0.252 C 
ATOM     14  C   UNL     1      33.091  -4.800 -26.206  0.00  0.00    +0.169 C 
ATOM     15  C   UNL     1      32.759  -3.458 -26.347  0.00  0.00    +0.156 C 
ENDROOT
BRANCH  14  16
ATOM     16  O   UNL     1      33.876  -5.423 -27.128  0.00  0.00    -0.469 OA
ATOM     17  C   UNL     1      35.279  -5.179 -27.057  0.00  0.00    +0.253 C 
ENDBRANCH  14  16
BRANCH  15  18
ATOM     18  O   UNL     1      33.214  -2.739 -27.411  0.00  0.00    -0.472 OA
ATOM     19  C   UNL     1      32.336  -2.611 -28.528  0.00  0.00    +0.252 C 
ENDBRANCH  15  18
BRANCH   4  20
ATOM     20  O   UNL     1      33.550  -9.122 -23.605  0.00  0.00    -0.477 OA
BRANCH  20  21
ATOM     21  C   UNL     1      33.592 -10.396 -24.085  0.00  0.00    +0.138 C 
ATOM     22  C   UNL     1      33.499 -11.475 -23.206  0.00  0.00    +0.037 C 
ATOM     23  C   UNL     1      33.729 -10.621 -25.451  0.00  0.00    +0.037 C 
ATOM     24  C   UNL     1      33.542 -12.795 -23.684  0.00  0.00    +0.003 C 
ATOM     25  C   UNL     1      33.681 -13.023 -25.073  0.00  0.00    +0.000 C 
ATOM     26  C   UNL     1      33.774 -11.926 -25.944  0.00  0.00    +0.003 C 
ATOM     27  C   UNL     1      33.450 -13.893 -22.813  0.00  0.00    +0.000 C 
ATOM     28  C   UNL     1      33.724 -14.344 -25.552  0.00  0.00    +0.000 C 
ATOM     29  C   UNL     1      33.494 -15.198 -23.305  0.00  0.00    +0.000 C 
ATOM     30  C   UNL     1      33.632 -15.423 -24.672  0.00  0.00    +0.000 C 
ENDBRANCH  20  21
ENDBRANCH   4  20
TORSDOF 4
ENDMDL
MODEL 5
REMARK VINA RESULT:      -8.1      6.408     11.923
REMARK  Name = 15991588
REMARK  4 active torsions:
REMARK  status: ('A' for Active; 'I' for Inactive)
REMARK    1  A    between atoms: C_4  and  O_20
REMARK    2  A    between atoms: C_14  and  O_16
REMARK    3  A    between atoms: C_15  and  O_18
REMARK    4  A    between atoms: O_20  and  C_21
REMARK                            x       y       z     vdW  Elec       q    Type
REMARK                         _______ _______ _______ _____ _____    ______ ____
ROOT
ATOM      1  N   UNL     1      34.240 -23.859 -14.482  0.00  0.00    -0.290 N 
ATOM      2  N   UNL     1      34.295 -24.553 -12.215  0.00  0.00    -0.230 NA
ATOM      3  N   UNL     1      36.373 -25.154 -11.153  0.00  0.00    -0.248 NA
ATOM      4  C   UNL     1      33.234 -23.812 -16.613  0.00  0.00    +0.187 C 
ATOM      5  C   UNL     1      32.906 -22.518 -15.884  0.00  0.00    +0.067 C 
ATOM      6  C   UNL     1      33.670 -24.754 -15.490  0.00  0.00    +0.136 C 
ATOM      7  C   UNL     1      33.967 -22.456 -14.784  0.00  0.00    +0.096 C 
ATOM      8  C   UNL     1      34.961 -24.287 -13.387  0.00  0.00    +0.130 C 
ATOM      9  C   UNL     1      36.371 -24.458 -13.448  0.00  0.00    +0.048 C 
ATOM     10  C   UNL     1      37.039 -24.897 -12.292  0.00  0.00    +0.066 C 
ATOM     11  C   UNL     1      37.078 -24.193 -14.633  0.00  0.00    +0.044 C 
ATOM     12  C   UNL     1      38.420 -25.061 -12.363  0.00  0.00    +0.112 C 
ATOM     13  C   UNL     1      35.037 -24.967 -11.176  0.00  0.00    +0.252 C 
ATOM     14  C   UNL     1      38.457 -24.365 -14.675  0.00  0.00    +0.169 C 
ATOM     15  C   UNL     1      39.129 -24.799 -13.538  0.00  0.00    +0.156 C 
ENDROOT
BRANCH  14  16
ATOM     16  O   UNL     1      39.135 -24.106 -15.828  0.00  0.00    -0.469 OA
ATOM     17  C   UNL     1      38.665 -23.023 -16.628  0.00  0.00    +0.253 C 
ENDBRANCH  14  16
BRANCH  15  18
ATOM     18  O   UNL     1      40.480 -24.975 -13.556  0.00  0.00    -0.472 OA
ATOM     19  C   UNL     1      40.966 -26.209 -14.082  0.00  0.00    +0.252 C 
ENDBRANCH  15  18
BRANCH   4  20
ATOM     20  O   UNL     1      34.325 -23.609 -17.505  0.00  0.00    -0.477 OA
BRANCH  20  21
ATOM     21  C   UNL     1      34.225 -22.570 -18.379  0.00  0.00    +0.138 C 
ATOM     22  C   UNL     1      35.378 -21.932 -18.836  0.00  0.00    +0.037 C 
ATOM     23  C   UNL     1      32.974 -22.146 -18.815  0.00  0.00    +0.037 C 
ATOM     24  C   UNL     1      35.293 -20.858 -19.737  0.00  0.00    +0.003 C 
ATOM     25  C   UNL     1      34.020 -20.426 -20.180  0.00  0.00    +0.000 C 
ATOM     26  C   UNL     1      32.871 -21.080 -19.711  0.00  0.00    +0.003 C 
ATOM     27  C   UNL     1      36.443 -20.203 -20.208  0.00  0.00    +0.000 C 
ATOM     28  C   UNL     1      33.935 -19.352 -21.082  0.00  0.00    +0.000 C 
ATOM     29  C   UNL     1      36.340 -19.137 -21.102  0.00  0.00    +0.000 C 
ATOM     30  C   UNL     1      35.088 -18.712 -21.538  0.00  0.00    +0.000 C 
ENDBRANCH  20  21
ENDBRANCH   4  20
TORSDOF 4
ENDMDL
MODEL 6
REMARK VINA RESULT:      -7.9      5.674     12.384
REMARK  Name = 15991588
REMARK  4 active torsions:
REMARK  status: ('A' for Active; 'I' for Inactive)
REMARK    1  A    between atoms: C_4  and  O_20
REMARK    2  A    between atoms: C_14  and  O_16
REMARK    3  A    between atoms: C_15  and  O_18
REMARK    4  A    between atoms: O_20  and  C_21
REMARK                            x       y       z     vdW  Elec       q    Type
REMARK                         _______ _______ _______ _____ _____    ______ ____
ROOT
ATOM      1  N   UNL     1      32.117 -10.078 -22.005  0.00  0.00    -0.290 N 
ATOM      2  N   UNL     1      31.878 -11.953 -20.572  0.00  0.00    -0.230 NA
ATOM      3  N   UNL     1      32.408 -14.175 -21.338  0.00  0.00    -0.248 NA
ATOM      4  C   UNL     1      31.392  -7.993 -22.832  0.00  0.00    +0.187 C 
ATOM      5  C   UNL     1      32.513  -7.764 -21.830  0.00  0.00    +0.067 C 
ATOM      6  C   UNL     1      30.919  -9.414 -22.519  0.00  0.00    +0.136 C 
ATOM      7  C   UNL     1      33.198  -9.129 -21.750  0.00  0.00    +0.096 C 
ATOM      8  C   UNL     1      32.219 -11.438 -21.799  0.00  0.00    +0.130 C 
ATOM      9  C   UNL     1      32.667 -12.313 -22.827  0.00  0.00    +0.048 C 
ATOM     10  C   UNL     1      32.746 -13.686 -22.544  0.00  0.00    +0.066 C 
ATOM     11  C   UNL     1      33.024 -11.814 -24.091  0.00  0.00    +0.044 C 
ATOM     12  C   UNL     1      33.187 -14.534 -23.558  0.00  0.00    +0.112 C 
ATOM     13  C   UNL     1      31.992 -13.281 -20.417  0.00  0.00    +0.252 C 
ATOM     14  C   UNL     1      33.460 -12.683 -25.085  0.00  0.00    +0.169 C 
ATOM     15  C   UNL     1      33.542 -14.045 -24.818  0.00  0.00    +0.156 C 
ENDROOT
BRANCH  14  16
ATOM     16  O   UNL     1      33.804 -12.192 -26.308  0.00  0.00    -0.469 OA
ATOM     17  C   UNL     1      34.724 -11.103 -26.335  0.00  0.00    +0.253 C 
ENDBRANCH  14  16
BRANCH  15  18
ATOM     18  O   UNL     1      33.968 -14.915 -25.776  0.00  0.00    -0.472 OA
ATOM     19  C   UNL     1      34.249 -16.250 -25.359  0.00  0.00    +0.252 C 
ENDBRANCH  15  18
BRANCH   4  20
ATOM     20  O   UNL     1      31.904  -7.953 -24.160  0.00  0.00    -0.477 OA
BRANCH  20  21
ATOM     21  C   UNL     1      32.062  -6.724 -24.725  0.00  0.00    +0.138 C 
ATOM     22  C   UNL     1      33.188  -6.454 -25.502  0.00  0.00    +0.037 C 
ATOM     23  C   UNL     1      31.100  -5.739 -24.526  0.00  0.00    +0.037 C 
ATOM     24  C   UNL     1      33.366  -5.192 -26.091  0.00  0.00    +0.003 C 
ATOM     25  C   UNL     1      32.388  -4.189 -25.889  0.00  0.00    +0.000 C 
ATOM     26  C   UNL     1      31.261  -4.478 -25.104  0.00  0.00    +0.003 C 
ATOM     27  C   UNL     1      34.494  -4.902 -26.877  0.00  0.00    +0.000 C 
ATOM     28  C   UNL     1      32.566  -2.926 -26.478  0.00  0.00    +0.000 C 
ATOM     29  C   UNL     1      34.655  -3.642 -27.454  0.00  0.00    +0.000 C 
ATOM     30  C   UNL     1      33.694  -2.656 -27.254  0.00  0.00    +0.000 C 
ENDBRANCH  20  21
ENDBRANCH   4  20
TORSDOF 4
ENDMDL
MODEL 7
REMARK VINA RESULT:      -7.8      4.174      7.434
REMARK  Name = 15991588
REMARK  4 active torsions:
REMARK  status: ('A' for Active; 'I' for Inactive)
REMARK    1  A    between atoms: C_4  and  O_20
REMARK    2  A    between atoms: C_14  and  O_16
REMARK    3  A    between atoms: C_15  and  O_18
REMARK    4  A    between atoms: O_20  and  C_21
REMARK                            x       y       z     vdW  Elec       q    Type
REMARK                         _______ _______ _______ _____ _____    ______ ____
ROOT
ATOM      1  N   UNL     1      31.818 -10.192 -21.169  0.00  0.00    -0.290 N 
ATOM      2  N   UNL     1      31.488  -7.963 -20.428  0.00  0.00    -0.230 NA
ATOM      3  N   UNL     1      32.460  -6.105 -21.616  0.00  0.00    -0.248 NA
ATOM      4  C   UNL     1      32.192 -12.482 -20.755  0.00  0.00    +0.187 C 
ATOM      5  C   UNL     1      30.716 -12.270 -21.055  0.00  0.00    +0.067 C 
ATOM      6  C   UNL     1      32.689 -11.080 -20.399  0.00  0.00    +0.136 C 
ATOM      7  C   UNL     1      30.692 -10.913 -21.759  0.00  0.00    +0.096 C 
ATOM      8  C   UNL     1      32.039  -8.841 -21.330  0.00  0.00    +0.130 C 
ATOM      9  C   UNL     1      32.823  -8.340 -22.406  0.00  0.00    +0.048 C 
ATOM     10  C   UNL     1      33.005  -6.951 -22.507  0.00  0.00    +0.066 C 
ATOM     11  C   UNL     1      33.397  -9.214 -23.345  0.00  0.00    +0.044 C 
ATOM     12  C   UNL     1      33.774  -6.471 -23.565  0.00  0.00    +0.112 C 
ATOM     13  C   UNL     1      31.730  -6.658 -20.624  0.00  0.00    +0.252 C 
ATOM     14  C   UNL     1      34.161  -8.707 -24.391  0.00  0.00    +0.169 C 
ATOM     15  C   UNL     1      34.349  -7.335 -24.502  0.00  0.00    +0.156 C 
ENDROOT
BRANCH  14  16
ATOM     16  O   UNL     1      34.715  -9.561 -25.297  0.00  0.00    -0.469 OA
ATOM     17  C   UNL     1      34.490 -10.955 -25.097  0.00  0.00    +0.253 C 
ENDBRANCH  14  16
BRANCH  15  18
ATOM     18  O   UNL     1      35.093  -6.816 -25.519  0.00  0.00    -0.472 OA
ATOM     19  C   UNL     1      34.554  -5.687 -26.205  0.00  0.00    +0.252 C 
ENDBRANCH  15  18
BRANCH   4  20
ATOM     20  O   UNL     1      32.869 -12.937 -21.922  0.00  0.00    -0.477 OA
BRANCH  20  21
ATOM     21  C   UNL     1      33.485 -14.149 -21.847  0.00  0.00    +0.138 C 
ATOM     22  C   UNL     1      33.706 -14.890 -23.007  0.00  0.00    +0.037 C 
ATOM     23  C   UNL     1      33.892 -14.647 -20.614  0.00  0.00    +0.037 C 
ATOM     24  C   UNL     1      34.338 -16.143 -22.948  0.00  0.00    +0.003 C 
ATOM     25  C   UNL     1      34.752 -16.650 -21.694  0.00  0.00    +0.000 C 
ATOM     26  C   UNL     1      34.522 -15.891 -20.536  0.00  0.00    +0.003 C 
ATOM     27  C   UNL     1      34.569 -16.904 -24.106  0.00  0.00    +0.000 C 
ATOM     28  C   UNL     1      35.385 -17.904 -21.634  0.00  0.00    +0.000 C 
ATOM     29  C   UNL     1      35.198 -18.146 -24.029  0.00  0.00    +0.000 C 
ATOM     30  C   UNL     1      35.604 -18.646 -22.795  0.00  0.00    +0.000 C 
ENDBRANCH  20  21
ENDBRANCH   4  20
TORSDOF 4
ENDMDL
MODEL 8
REMARK VINA RESULT:      -7.4      2.547      9.139
REMARK  Name = 15991588
REMARK  4 active torsions:
REMARK  status: ('A' for Active; 'I' for Inactive)
REMARK    1  A    between atoms: C_4  and  O_20
REMARK    2  A    between atoms: C_14  and  O_16
REMARK    3  A    between atoms: C_15  and  O_18
REMARK    4  A    between atoms: O_20  and  C_21
REMARK                            x       y       z     vdW  Elec       q    Type
REMARK                         _______ _______ _______ _____ _____    ______ ____
ROOT
ATOM      1  N   UNL     1      33.793 -15.673 -25.056  0.00  0.00    -0.290 N 
ATOM      2  N   UNL     1      34.084 -17.854 -25.943  0.00  0.00    -0.230 NA
ATOM      3  N   UNL     1      34.880 -19.658 -24.559  0.00  0.00    -0.248 NA
ATOM      4  C   UNL     1      33.921 -13.326 -25.237  0.00  0.00    +0.187 C 
ATOM      5  C   UNL     1      32.482 -13.761 -25.471  0.00  0.00    +0.067 C 
ATOM      6  C   UNL     1      34.722 -14.612 -25.448  0.00  0.00    +0.136 C 
ATOM      7  C   UNL     1      32.437 -15.165 -24.865  0.00  0.00    +0.096 C 
ATOM      8  C   UNL     1      34.157 -16.991 -24.876  0.00  0.00    +0.130 C 
ATOM      9  C   UNL     1      34.602 -17.472 -23.614  0.00  0.00    +0.048 C 
ATOM     10  C   UNL     1      34.956 -18.827 -23.505  0.00  0.00    +0.066 C 
ATOM     11  C   UNL     1      34.685 -16.612 -22.506  0.00  0.00    +0.044 C 
ATOM     12  C   UNL     1      35.391 -19.287 -22.265  0.00  0.00    +0.112 C 
ATOM     13  C   UNL     1      34.448 -19.126 -25.721  0.00  0.00    +0.252 C 
ATOM     14  C   UNL     1      35.124 -17.099 -21.278  0.00  0.00    +0.169 C 
ATOM     15  C   UNL     1      35.476 -18.438 -21.158  0.00  0.00    +0.156 C 
ENDROOT
BRANCH  14  16
ATOM     16  O   UNL     1      35.201 -16.260 -20.209  0.00  0.00    -0.469 OA
ATOM     17  C   UNL     1      34.600 -14.973 -20.347  0.00  0.00    +0.253 C 
ENDBRANCH  14  16
BRANCH  15  18
ATOM     18  O   UNL     1      35.908 -18.937 -19.966  0.00  0.00    -0.472 OA
ATOM     19  C   UNL     1      36.499 -20.235 -19.983  0.00  0.00    +0.252 C 
ENDBRANCH  15  18
BRANCH   4  20
ATOM     20  O   UNL     1      34.088 -12.886 -23.893  0.00  0.00    -0.477 OA
BRANCH  20  21
ATOM     21  C   UNL     1      33.626 -11.642 -23.588  0.00  0.00    +0.138 C 
ATOM     22  C   UNL     1      34.291 -10.515 -24.071  0.00  0.00    +0.037 C 
ATOM     23  C   UNL     1      32.494 -11.496 -22.793  0.00  0.00    +0.037 C 
ATOM     24  C   UNL     1      33.829  -9.225 -23.765  0.00  0.00    +0.003 C 
ATOM     25  C   UNL     1      32.678  -9.076 -22.956  0.00  0.00    +0.000 C 
ATOM     26  C   UNL     1      32.021 -10.221 -22.478  0.00  0.00    +0.003 C 
ATOM     27  C   UNL     1      34.486  -8.078 -24.243  0.00  0.00    +0.000 C 
ATOM     28  C   UNL     1      32.215  -7.785 -22.649  0.00  0.00    +0.000 C 
ATOM     29  C   UNL     1      34.013  -6.804 -23.928  0.00  0.00    +0.000 C 
ATOM     30  C   UNL     1      32.881  -6.657 -23.132  0.00  0.00    +0.000 C 
ENDBRANCH  20  21
ENDBRANCH   4  20
TORSDOF 4
ENDMDL
MODEL 9
REMARK VINA RESULT:      -7.3      5.935     11.059
REMARK  Name = 15991588
REMARK  4 active torsions:
REMARK  status: ('A' for Active; 'I' for Inactive)
REMARK    1  A    between atoms: C_4  and  O_20
REMARK    2  A    between atoms: C_14  and  O_16
REMARK    3  A    between atoms: C_15  and  O_18
REMARK    4  A    between atoms: O_20  and  C_21
REMARK                            x       y       z     vdW  Elec       q    Type
REMARK                         _______ _______ _______ _____ _____    ______ ____
ROOT
ATOM      1  N   UNL     1      37.059 -22.844 -15.076  0.00  0.00    -0.290 N 
ATOM      2  N   UNL     1      37.334 -22.825 -12.720  0.00  0.00    -0.230 NA
ATOM      3  N   UNL     1      35.579 -23.596 -11.261  0.00  0.00    -0.248 NA
ATOM      4  C   UNL     1      37.362 -21.885 -17.208  0.00  0.00    +0.187 C 
ATOM      5  C   UNL     1      38.399 -22.980 -17.007  0.00  0.00    +0.067 C 
ATOM      6  C   UNL     1      36.889 -21.576 -15.786  0.00  0.00    +0.136 C 
ATOM      7  C   UNL     1      37.814 -23.813 -15.866  0.00  0.00    +0.096 C 
ATOM      8  C   UNL     1      36.554 -23.099 -13.818  0.00  0.00    +0.130 C 
ATOM      9  C   UNL     1      35.251 -23.636 -13.636  0.00  0.00    +0.048 C 
ATOM     10  C   UNL     1      34.804 -23.871 -12.324  0.00  0.00    +0.066 C 
ATOM     11  C   UNL     1      34.432 -23.927 -14.740  0.00  0.00    +0.044 C 
ATOM     12  C   UNL     1      33.526 -24.397 -12.158  0.00  0.00    +0.112 C 
ATOM     13  C   UNL     1      36.802 -23.088 -11.516  0.00  0.00    +0.252 C 
ATOM     14  C   UNL     1      33.159 -24.453 -14.544  0.00  0.00    +0.169 C 
ATOM     15  C   UNL     1      32.706 -24.689 -13.251  0.00  0.00    +0.156 C 
ENDROOT
BRANCH  14  16
ATOM     16  O   UNL     1      32.371 -24.732 -15.619  0.00  0.00    -0.469 OA
ATOM     17  C   UNL     1      31.871 -23.622 -16.363  0.00  0.00    +0.253 C 
ENDBRANCH  14  16
BRANCH  15  18
ATOM     18  O   UNL     1      31.463 -25.203 -13.035  0.00  0.00    -0.472 OA
ATOM     19  C   UNL     1      30.373 -24.282 -13.031  0.00  0.00    +0.252 C 
ENDBRANCH  15  18
BRANCH   4  20
ATOM     20  O   UNL     1      36.265 -22.382 -17.967  0.00  0.00    -0.477 OA
BRANCH  20  21
ATOM     21  C   UNL     1      35.744 -21.555 -18.916  0.00  0.00    +0.138 C 
ATOM     22  C   UNL     1      36.585 -20.707 -19.637  0.00  0.00    +0.037 C 
ATOM     23  C   UNL     1      34.375 -21.556 -19.164  0.00  0.00    +0.037 C 
ATOM     24  C   UNL     1      36.064 -19.847 -20.618  0.00  0.00    +0.003 C 
ATOM     25  C   UNL     1      34.672 -19.847 -20.870  0.00  0.00    +0.000 C 
ATOM     26  C   UNL     1      33.841 -20.707 -20.135  0.00  0.00    +0.003 C 
ATOM     27  C   UNL     1      36.895 -18.986 -21.354  0.00  0.00    +0.000 C 
ATOM     28  C   UNL     1      34.150 -18.987 -21.851  0.00  0.00    +0.000 C 
ATOM     29  C   UNL     1      36.361 -18.138 -22.324  0.00  0.00    +0.000 C 
ATOM     30  C   UNL     1      34.991 -18.137 -22.571  0.00  0.00    +0.000 C 
ENDBRANCH  20  21
ENDBRANCH   4  20
TORSDOF 4
ENDMDL
