MODEL 1
REMARK VINA RESULT:      -9.3      0.000      0.000
REMARK  Name = 92787
REMARK  2 active torsions:
REMARK  status: ('A' for Active; 'I' for Inactive)
REMARK    1  A    between atoms: C_10  and  C_21
REMARK    2  A    between atoms: C_19  and  O_23
REMARK                            x       y       z     vdW  Elec       q    Type
REMARK                         _______ _______ _______ _____ _____    ______ ____
ROOT
ATOM      1  C   UNL     1      34.722 -24.500 -14.739  0.00  0.00    +0.000 C 
ATOM      2  C   UNL     1      34.254 -23.262 -15.572  0.00  0.00    +0.000 C 
ATOM      3  C   UNL     1      32.856 -23.550 -16.129  0.00  0.00    +0.000 C 
ATOM      4  C   UNL     1      31.810 -23.818 -15.024  0.00  0.00    +0.007 C 
ATOM      5  C   UNL     1      36.177 -24.311 -14.171  0.00  0.00    +0.000 C 
ATOM      6  C   UNL     1      37.116 -24.016 -15.386  0.00  0.00    +0.002 C 
ATOM      7  C   UNL     1      33.669 -24.918 -13.679  0.00  0.00    +0.000 C 
ATOM      8  C   UNL     1      32.249 -25.072 -14.256  0.00  0.00    +0.000 C 
ATOM      9  C   UNL     1      35.250 -22.937 -16.694  0.00  0.00    +0.000 C 
ATOM     10  C   UNL     1      30.557 -24.003 -15.908  0.00  0.00    +0.058 C 
ATOM     11  C   UNL     1      32.180 -22.503 -17.009  0.00  0.00    +0.000 C 
ATOM     12  C   UNL     1      36.678 -22.780 -16.178  0.00  0.00    +0.000 C 
ATOM     13  C   UNL     1      36.677 -25.619 -13.494  0.00  0.00    +0.002 C 
ATOM     14  C   UNL     1      30.696 -22.914 -16.994  0.00  0.00    +0.007 C 
ATOM     15  C   UNL     1      38.596 -23.933 -14.990  0.00  0.00    +0.029 C 
ATOM     16  C   UNL     1      31.621 -22.636 -14.037  0.00  0.00    +0.000 C 
ATOM     17  C   UNL     1      36.214 -23.172 -13.119  0.00  0.00    +0.000 C 
ATOM     18  C   UNL     1      38.160 -25.584 -13.117  0.00  0.00    +0.029 C 
ATOM     19  C   UNL     1      39.052 -25.216 -14.298  0.00  0.00    +0.111 C 
ENDROOT
BRANCH  10  21
ATOM     20  O   UNL     1      28.887 -24.789 -14.396  0.00  0.00    -0.296 OA
ATOM     21  C   UNL     1      29.251 -23.912 -15.179  0.00  0.00    +0.151 C 
ATOM     22  C   UNL     1      28.409 -22.695 -15.449  0.00  0.00    +0.072 C 
ENDBRANCH  10  21
BRANCH  19  23
ATOM     23  O   UNL     1      40.392 -25.039 -13.851  0.00  0.00    -0.384 OA
ATOM     24  H   UNL     1      40.463 -25.313 -12.923  0.00  0.00    +0.210 HD
ENDBRANCH  19  23
TORSDOF 2
ENDMDL
MODEL 2
REMARK VINA RESULT:      -8.6      1.386      6.969
REMARK  Name = 92787
REMARK  2 active torsions:
REMARK  status: ('A' for Active; 'I' for Inactive)
REMARK    1  A    between atoms: C_10  and  C_21
REMARK    2  A    between atoms: C_19  and  O_23
REMARK                            x       y       z     vdW  Elec       q    Type
REMARK                         _______ _______ _______ _____ _____    ______ ____
ROOT
ATOM      1  C   UNL     1      32.939 -23.476 -14.514  0.00  0.00    +0.000 C 
ATOM      2  C   UNL     1      34.020 -23.642 -15.631  0.00  0.00    +0.000 C 
ATOM      3  C   UNL     1      35.388 -23.280 -15.043  0.00  0.00    +0.000 C 
ATOM      4  C   UNL     1      35.784 -24.171 -13.845  0.00  0.00    +0.007 C 
ATOM      5  C   UNL     1      31.490 -23.778 -15.049  0.00  0.00    +0.000 C 
ATOM      6  C   UNL     1      31.238 -22.835 -16.271  0.00  0.00    +0.002 C 
ATOM      7  C   UNL     1      33.318 -24.245 -13.221  0.00  0.00    +0.000 C 
ATOM      8  C   UNL     1      34.749 -23.950 -12.733  0.00  0.00    +0.000 C 
ATOM      9  C   UNL     1      33.690 -22.780 -16.858  0.00  0.00    +0.000 C 
ATOM     10  C   UNL     1      37.185 -23.589 -13.554  0.00  0.00    +0.058 C 
ATOM     11  C   UNL     1      36.618 -23.332 -15.944  0.00  0.00    +0.000 C 
ATOM     12  C   UNL     1      32.277 -23.026 -17.381  0.00  0.00    +0.000 C 
ATOM     13  C   UNL     1      30.424 -23.442 -13.967  0.00  0.00    +0.002 C 
ATOM     14  C   UNL     1      37.796 -23.360 -14.953  0.00  0.00    +0.007 C 
ATOM     15  C   UNL     1      29.809 -22.934 -16.817  0.00  0.00    +0.029 C 
ATOM     16  C   UNL     1      35.872 -25.682 -14.187  0.00  0.00    +0.000 C 
ATOM     17  C   UNL     1      31.343 -25.273 -15.431  0.00  0.00    +0.000 C 
ATOM     18  C   UNL     1      28.986 -23.497 -14.487  0.00  0.00    +0.029 C 
ATOM     19  C   UNL     1      28.782 -22.633 -15.728  0.00  0.00    +0.111 C 
ENDROOT
BRANCH  10  21
ATOM     20  O   UNL     1      37.885 -24.516 -11.471  0.00  0.00    -0.296 OA
ATOM     21  C   UNL     1      38.056 -24.444 -12.687  0.00  0.00    +0.151 C 
ATOM     22  C   UNL     1      39.149 -25.214 -13.377  0.00  0.00    +0.072 C 
ENDBRANCH  10  21
BRANCH  19  23
ATOM     23  O   UNL     1      27.479 -22.853 -16.258  0.00  0.00    -0.384 OA
ATOM     24  H   UNL     1      26.814 -22.599 -15.599  0.00  0.00    +0.210 HD
ENDBRANCH  19  23
TORSDOF 2
ENDMDL
MODEL 3
REMARK VINA RESULT:      -7.9      3.501      6.560
REMARK  Name = 92787
REMARK  2 active torsions:
REMARK  status: ('A' for Active; 'I' for Inactive)
REMARK    1  A    between atoms: C_10  and  C_21
REMARK    2  A    between atoms: C_19  and  O_23
REMARK                            x       y       z     vdW  Elec       q    Type
REMARK                         _______ _______ _______ _____ _____    ______ ____
ROOT
ATOM      1  C   UNL     1      34.665 -22.058 -17.388  0.00  0.00    +0.000 C 
ATOM      2  C   UNL     1      36.133 -22.523 -17.120  0.00  0.00    +0.000 C 
ATOM      3  C   UNL     1      36.337 -22.647 -15.606  0.00  0.00    +0.000 C 
ATOM      4  C   UNL     1      35.376 -23.663 -14.950  0.00  0.00    +0.007 C 
ATOM      5  C   UNL     1      34.384 -21.853 -18.922  0.00  0.00    +0.000 C 
ATOM      6  C   UNL     1      35.442 -20.833 -19.458  0.00  0.00    +0.002 C 
ATOM      7  C   UNL     1      33.630 -22.956 -16.660  0.00  0.00    +0.000 C 
ATOM      8  C   UNL     1      33.942 -23.161 -15.166  0.00  0.00    +0.000 C 
ATOM      9  C   UNL     1      37.147 -21.555 -17.746  0.00  0.00    +0.000 C 
ATOM     10  C   UNL     1      35.882 -23.579 -13.493  0.00  0.00    +0.058 C 
ATOM     11  C   UNL     1      37.706 -23.061 -15.075  0.00  0.00    +0.000 C 
ATOM     12  C   UNL     1      36.880 -21.309 -19.229  0.00  0.00    +0.000 C 
ATOM     13  C   UNL     1      32.975 -21.231 -19.144  0.00  0.00    +0.002 C 
ATOM     14  C   UNL     1      37.418 -23.508 -13.630  0.00  0.00    +0.007 C 
ATOM     15  C   UNL     1      35.207 -20.443 -20.922  0.00  0.00    +0.029 C 
ATOM     16  C   UNL     1      35.516 -25.107 -15.502  0.00  0.00    +0.000 C 
ATOM     17  C   UNL     1      34.445 -23.204 -19.680  0.00  0.00    +0.000 C 
ATOM     18  C   UNL     1      32.719 -20.796 -20.589  0.00  0.00    +0.029 C 
ATOM     19  C   UNL     1      33.806 -19.866 -21.119  0.00  0.00    +0.111 C 
ENDROOT
BRANCH  10  21
ATOM     20  O   UNL     1      34.272 -24.826 -12.251  0.00  0.00    -0.296 OA
ATOM     21  C   UNL     1      35.443 -24.703 -12.606  0.00  0.00    +0.151 C 
ATOM     22  C   UNL     1      36.505 -25.677 -12.173  0.00  0.00    +0.072 C 
ENDBRANCH  10  21
BRANCH  19  23
ATOM     23  O   UNL     1      33.602 -19.631 -22.508  0.00  0.00    -0.384 OA
ATOM     24  H   UNL     1      33.350 -20.460 -22.943  0.00  0.00    +0.210 HD
ENDBRANCH  19  23
TORSDOF 2
ENDMDL
MODEL 4
REMARK VINA RESULT:      -7.8      1.355      2.712
REMARK  Name = 92787
REMARK  2 active torsions:
REMARK  status: ('A' for Active; 'I' for Inactive)
REMARK    1  A    between atoms: C_10  and  C_21
REMARK    2  A    between atoms: C_19  and  O_23
REMARK                            x       y       z     vdW  Elec       q    Type
REMARK                         _______ _______ _______ _____ _____    ______ ____
ROOT
ATOM      1  C   UNL     1      35.023 -23.788 -14.747  0.00  0.00    +0.000 C 
ATOM      2  C   UNL     1      33.982 -24.328 -13.713  0.00  0.00    +0.000 C 
ATOM      3  C   UNL     1      32.698 -23.501 -13.839  0.00  0.00    +0.000 C 
ATOM      4  C   UNL     1      32.069 -23.573 -15.247  0.00  0.00    +0.007 C 
ATOM      5  C   UNL     1      36.397 -24.550 -14.651  0.00  0.00    +0.000 C 
ATOM      6  C   UNL     1      36.897 -24.423 -13.175  0.00  0.00    +0.002 C 
ATOM      7  C   UNL     1      34.432 -23.711 -16.180  0.00  0.00    +0.000 C 
ATOM      8  C   UNL     1      33.077 -22.982 -16.243  0.00  0.00    +0.000 C 
ATOM      9  C   UNL     1      34.542 -24.284 -12.285  0.00  0.00    +0.000 C 
ATOM     10  C   UNL     1      30.813 -22.708 -15.003  0.00  0.00    +0.058 C 
ATOM     11  C   UNL     1      31.526 -23.809 -12.912  0.00  0.00    +0.000 C 
ATOM     12  C   UNL     1      35.892 -24.987 -12.165  0.00  0.00    +0.000 C 
ATOM     13  C   UNL     1      37.461 -23.883 -15.568  0.00  0.00    +0.002 C 
ATOM     14  C   UNL     1      30.326 -23.136 -13.602  0.00  0.00    +0.007 C 
ATOM     15  C   UNL     1      38.296 -25.017 -12.965  0.00  0.00    +0.029 C 
ATOM     16  C   UNL     1      31.676 -25.009 -15.687  0.00  0.00    +0.000 C 
ATOM     17  C   UNL     1      36.238 -26.030 -15.084  0.00  0.00    +0.000 C 
ATOM     18  C   UNL     1      38.876 -24.427 -15.360  0.00  0.00    +0.029 C 
ATOM     19  C   UNL     1      39.314 -24.368 -13.900  0.00  0.00    +0.111 C 
ENDROOT
BRANCH  10  21
ATOM     20  O   UNL     1      29.858 -22.342 -17.159  0.00  0.00    -0.296 OA
ATOM     21  C   UNL     1      29.742 -22.844 -16.042  0.00  0.00    +0.151 C 
ATOM     22  C   UNL     1      28.518 -23.628 -15.652  0.00  0.00    +0.072 C 
ENDBRANCH  10  21
BRANCH  19  23
ATOM     23  O   UNL     1      40.562 -25.035 -13.746  0.00  0.00    -0.384 OA
ATOM     24  H   UNL     1      40.458 -25.778 -13.130  0.00  0.00    +0.210 HD
ENDBRANCH  19  23
TORSDOF 2
ENDMDL
MODEL 5
REMARK VINA RESULT:      -7.6     14.091     16.277
REMARK  Name = 92787
REMARK  2 active torsions:
REMARK  status: ('A' for Active; 'I' for Inactive)
REMARK    1  A    between atoms: C_10  and  C_21
REMARK    2  A    between atoms: C_19  and  O_23
REMARK                            x       y       z     vdW  Elec       q    Type
REMARK                         _______ _______ _______ _____ _____    ______ ____
ROOT
ATOM      1  C   UNL     1      33.186 -11.131 -22.556  0.00  0.00    +0.000 C 
ATOM      2  C   UNL     1      32.116 -10.290 -21.786  0.00  0.00    +0.000 C 
ATOM      3  C   UNL     1      32.515  -8.812 -21.857  0.00  0.00    +0.000 C 
ATOM      4  C   UNL     1      32.605  -8.280 -23.305  0.00  0.00    +0.007 C 
ATOM      5  C   UNL     1      32.881 -12.673 -22.489  0.00  0.00    +0.000 C 
ATOM      6  C   UNL     1      32.786 -13.064 -20.978  0.00  0.00    +0.002 C 
ATOM      7  C   UNL     1      33.431 -10.588 -23.989  0.00  0.00    +0.000 C 
ATOM      8  C   UNL     1      33.703  -9.072 -24.029  0.00  0.00    +0.000 C 
ATOM      9  C   UNL     1      31.974 -10.765 -20.334  0.00  0.00    +0.000 C 
ATOM     10  C   UNL     1      32.957  -6.806 -23.006  0.00  0.00    +0.058 C 
ATOM     11  C   UNL     1      31.645  -7.776 -21.153  0.00  0.00    +0.000 C 
ATOM     12  C   UNL     1      31.710 -12.265 -20.234  0.00  0.00    +0.000 C 
ATOM     13  C   UNL     1      34.047 -13.492 -23.115  0.00  0.00    +0.002 C 
ATOM     14  C   UNL     1      32.068  -6.443 -21.797  0.00  0.00    +0.007 C 
ATOM     15  C   UNL     1      32.615 -14.573 -20.761  0.00  0.00    +0.029 C 
ATOM     16  C   UNL     1      31.274  -8.383 -24.096  0.00  0.00    +0.000 C 
ATOM     17  C   UNL     1      31.579 -13.012 -23.259  0.00  0.00    +0.000 C 
ATOM     18  C   UNL     1      33.927 -15.000 -22.886  0.00  0.00    +0.029 C 
ATOM     19  C   UNL     1      33.753 -15.354 -21.413  0.00  0.00    +0.111 C 
ENDROOT
BRANCH  10  21
ATOM     20  O   UNL     1      33.457  -5.930 -25.168  0.00  0.00    -0.296 OA
ATOM     21  C   UNL     1      32.761  -5.866 -24.156  0.00  0.00    +0.151 C 
ATOM     22  C   UNL     1      31.670  -4.840 -24.012  0.00  0.00    +0.072 C 
ENDBRANCH  10  21
BRANCH  19  23
ATOM     23  O   UNL     1      33.483 -16.745 -21.281  0.00  0.00    -0.384 OA
ATOM     24  H   UNL     1      32.603 -16.869 -20.894  0.00  0.00    +0.210 HD
ENDBRANCH  19  23
TORSDOF 2
ENDMDL
MODEL 6
REMARK VINA RESULT:      -7.5     14.531     17.085
REMARK  Name = 92787
REMARK  2 active torsions:
REMARK  status: ('A' for Active; 'I' for Inactive)
REMARK    1  A    between atoms: C_10  and  C_21
REMARK    2  A    between atoms: C_19  and  O_23
REMARK                            x       y       z     vdW  Elec       q    Type
REMARK                         _______ _______ _______ _____ _____    ______ ____
ROOT
ATOM      1  C   UNL     1      32.329  -9.516 -23.284  0.00  0.00    +0.000 C 
ATOM      2  C   UNL     1      32.525 -10.382 -21.998  0.00  0.00    +0.000 C 
ATOM      3  C   UNL     1      32.189 -11.838 -22.336  0.00  0.00    +0.000 C 
ATOM      4  C   UNL     1      33.080 -12.419 -23.456  0.00  0.00    +0.007 C 
ATOM      5  C   UNL     1      32.604  -7.990 -23.013  0.00  0.00    +0.000 C 
ATOM      6  C   UNL     1      31.664  -7.548 -21.844  0.00  0.00    +0.002 C 
ATOM      7  C   UNL     1      33.097 -10.099 -24.500  0.00  0.00    +0.000 C 
ATOM      8  C   UNL     1      32.829 -11.599 -24.728  0.00  0.00    +0.000 C 
ATOM      9  C   UNL     1      31.665  -9.861 -20.838  0.00  0.00    +0.000 C 
ATOM     10  C   UNL     1      32.526 -13.861 -23.491  0.00  0.00    +0.058 C 
ATOM     11  C   UNL     1      32.273 -12.891 -21.235  0.00  0.00    +0.000 C 
ATOM     12  C   UNL     1      31.885  -8.373 -20.572  0.00  0.00    +0.000 C 
ATOM     13  C   UNL     1      32.238  -7.136 -24.261  0.00  0.00    +0.002 C 
ATOM     14  C   UNL     1      32.320 -14.224 -22.005  0.00  0.00    +0.007 C 
ATOM     15  C   UNL     1      31.737  -6.043 -21.556  0.00  0.00    +0.029 C 
ATOM     16  C   UNL     1      34.595 -12.417 -23.119  0.00  0.00    +0.000 C 
ATOM     17  C   UNL     1      34.098  -7.750 -22.679  0.00  0.00    +0.000 C 
ATOM     18  C   UNL     1      32.266  -5.628 -24.000  0.00  0.00    +0.029 C 
ATOM     19  C   UNL     1      31.406  -5.228 -22.805  0.00  0.00    +0.111 C 
ENDROOT
BRANCH  10  21
ATOM     20  O   UNL     1      33.458 -14.890 -25.431  0.00  0.00    -0.296 OA
ATOM     21  C   UNL     1      33.394 -14.853 -24.203  0.00  0.00    +0.151 C 
ATOM     22  C   UNL     1      34.185 -15.799 -23.341  0.00  0.00    +0.072 C 
ENDBRANCH  10  21
BRANCH  19  23
ATOM     23  O   UNL     1      31.602  -3.849 -22.512  0.00  0.00    -0.384 OA
ATOM     24  H   UNL     1      32.379  -3.523 -22.992  0.00  0.00    +0.210 HD
ENDBRANCH  19  23
TORSDOF 2
ENDMDL
MODEL 7
REMARK VINA RESULT:      -7.5     13.668     15.896
REMARK  Name = 92787
REMARK  2 active torsions:
REMARK  status: ('A' for Active; 'I' for Inactive)
REMARK    1  A    between atoms: C_10  and  C_21
REMARK    2  A    between atoms: C_19  and  O_23
REMARK                            x       y       z     vdW  Elec       q    Type
REMARK                         _______ _______ _______ _____ _____    ______ ____
ROOT
ATOM      1  C   UNL     1      33.476 -11.707 -22.674  0.00  0.00    +0.000 C 
ATOM      2  C   UNL     1      32.296 -10.880 -22.067  0.00  0.00    +0.000 C 
ATOM      3  C   UNL     1      32.696  -9.401 -22.052  0.00  0.00    +0.000 C 
ATOM      4  C   UNL     1      33.008  -8.846 -23.459  0.00  0.00    +0.007 C 
ATOM      5  C   UNL     1      33.170 -13.251 -22.679  0.00  0.00    +0.000 C 
ATOM      6  C   UNL     1      32.842 -13.666 -21.207  0.00  0.00    +0.002 C 
ATOM      7  C   UNL     1      33.939 -11.141 -24.042  0.00  0.00    +0.000 C 
ATOM      8  C   UNL     1      34.208  -9.625 -24.016  0.00  0.00    +0.000 C 
ATOM      9  C   UNL     1      31.931 -11.378 -20.662  0.00  0.00    +0.000 C 
ATOM     10  C   UNL     1      33.303  -7.376 -23.087  0.00  0.00    +0.058 C 
ATOM     11  C   UNL     1      31.722  -8.377 -21.476  0.00  0.00    +0.000 C 
ATOM     12  C   UNL     1      31.660 -12.881 -20.628  0.00  0.00    +0.000 C 
ATOM     13  C   UNL     1      34.422 -14.057 -23.128  0.00  0.00    +0.002 C 
ATOM     14  C   UNL     1      32.236  -7.033 -22.025  0.00  0.00    +0.007 C 
ATOM     15  C   UNL     1      32.645 -15.178 -21.043  0.00  0.00    +0.029 C 
ATOM     16  C   UNL     1      31.816  -8.937 -24.450  0.00  0.00    +0.000 C 
ATOM     17  C   UNL     1      32.004 -13.579 -23.648  0.00  0.00    +0.000 C 
ATOM     18  C   UNL     1      34.273 -15.569 -22.945  0.00  0.00    +0.029 C 
ATOM     19  C   UNL     1      33.874 -15.947 -21.522  0.00  0.00    +0.111 C 
ENDROOT
BRANCH  10  21
ATOM     20  O   UNL     1      32.350  -5.639 -24.416  0.00  0.00    -0.296 OA
ATOM     21  C   UNL     1      33.285  -6.417 -24.238  0.00  0.00    +0.151 C 
ATOM     22  C   UNL     1      34.470  -6.452 -25.164  0.00  0.00    +0.072 C 
ENDBRANCH  10  21
BRANCH  19  23
ATOM     23  O   UNL     1      33.592 -17.341 -21.456  0.00  0.00    -0.384 OA
ATOM     24  H   UNL     1      34.405 -17.826 -21.246  0.00  0.00    +0.210 HD
ENDBRANCH  19  23
TORSDOF 2
ENDMDL
MODEL 8
REMARK VINA RESULT:      -7.0     17.214     19.348
REMARK  Name = 92787
REMARK  2 active torsions:
REMARK  status: ('A' for Active; 'I' for Inactive)
REMARK    1  A    between atoms: C_10  and  C_21
REMARK    2  A    between atoms: C_19  and  O_23
REMARK                            x       y       z     vdW  Elec       q    Type
REMARK                         _______ _______ _______ _____ _____    ______ ____
ROOT
ATOM      1  C   UNL     1      31.803  -8.166 -23.720  0.00  0.00    +0.000 C 
ATOM      2  C   UNL     1      33.102  -7.411 -24.153  0.00  0.00    +0.000 C 
ATOM      3  C   UNL     1      32.712  -6.275 -25.105  0.00  0.00    +0.000 C 
ATOM      4  C   UNL     1      31.746  -5.255 -24.464  0.00  0.00    +0.007 C 
ATOM      5  C   UNL     1      32.119  -9.386 -22.778  0.00  0.00    +0.000 C 
ATOM      6  C   UNL     1      33.125 -10.312 -23.537  0.00  0.00    +0.002 C 
ATOM      7  C   UNL     1      30.723  -7.195 -23.173  0.00  0.00    +0.000 C 
ATOM      8  C   UNL     1      30.452  -5.997 -24.102  0.00  0.00    +0.000 C 
ATOM      9  C   UNL     1      34.112  -8.367 -24.803  0.00  0.00    +0.000 C 
ATOM     10  C   UNL     1      31.618  -4.261 -25.638  0.00  0.00    +0.058 C 
ATOM     11  C   UNL     1      33.809  -5.398 -25.700  0.00  0.00    +0.000 C 
ATOM     12  C   UNL     1      34.414  -9.580 -23.926  0.00  0.00    +0.000 C 
ATOM     13  C   UNL     1      30.831 -10.214 -22.503  0.00  0.00    +0.002 C 
ATOM     14  C   UNL     1      33.052  -4.154 -26.200  0.00  0.00    +0.007 C 
ATOM     15  C   UNL     1      33.425 -11.613 -22.781  0.00  0.00    +0.029 C 
ATOM     16  C   UNL     1      32.319  -4.554 -23.204  0.00  0.00    +0.000 C 
ATOM     17  C   UNL     1      32.687  -8.902 -21.420  0.00  0.00    +0.000 C 
ATOM     18  C   UNL     1      31.098 -11.537 -21.781  0.00  0.00    +0.029 C 
ATOM     19  C   UNL     1      32.142 -12.390 -22.495  0.00  0.00    +0.111 C 
ENDROOT
BRANCH  10  21
ATOM     20  O   UNL     1      29.846  -2.763 -25.083  0.00  0.00    -0.296 OA
ATOM     21  C   UNL     1      31.051  -2.923 -25.274  0.00  0.00    +0.151 C 
ATOM     22  C   UNL     1      32.028  -1.786 -25.149  0.00  0.00    +0.072 C 
ENDBRANCH  10  21
BRANCH  19  23
ATOM     23  O   UNL     1      32.466 -13.522 -21.695  0.00  0.00    -0.384 OA
ATOM     24  H   UNL     1      32.036 -13.441 -20.829  0.00  0.00    +0.210 HD
ENDBRANCH  19  23
TORSDOF 2
ENDMDL
MODEL 9
REMARK VINA RESULT:      -6.8     10.001     12.613
REMARK  Name = 92787
REMARK  2 active torsions:
REMARK  status: ('A' for Active; 'I' for Inactive)
REMARK    1  A    between atoms: C_10  and  C_21
REMARK    2  A    between atoms: C_19  and  O_23
REMARK                            x       y       z     vdW  Elec       q    Type
REMARK                         _______ _______ _______ _____ _____    ______ ____
ROOT
ATOM      1  C   UNL     1      34.531 -15.417 -22.969  0.00  0.00    +0.000 C 
ATOM      2  C   UNL     1      34.097 -16.714 -23.726  0.00  0.00    +0.000 C 
ATOM      3  C   UNL     1      34.950 -17.883 -23.219  0.00  0.00    +0.000 C 
ATOM      4  C   UNL     1      34.795 -18.128 -21.702  0.00  0.00    +0.007 C 
ATOM      5  C   UNL     1      33.739 -14.152 -23.468  0.00  0.00    +0.000 C 
ATOM      6  C   UNL     1      33.957 -14.046 -25.013  0.00  0.00    +0.002 C 
ATOM      7  C   UNL     1      34.523 -15.613 -21.430  0.00  0.00    +0.000 C 
ATOM      8  C   UNL     1      35.284 -16.871 -20.971  0.00  0.00    +0.000 C 
ATOM      9  C   UNL     1      34.227 -16.542 -25.246  0.00  0.00    +0.000 C 
ATOM     10  C   UNL     1      35.710 -19.363 -21.556  0.00  0.00    +0.058 C 
ATOM     11  C   UNL     1      34.742 -19.267 -23.825  0.00  0.00    +0.000 C 
ATOM     12  C   UNL     1      33.496 -15.303 -25.757  0.00  0.00    +0.000 C 
ATOM     13  C   UNL     1      34.309 -12.857 -22.821  0.00  0.00    +0.002 C 
ATOM     14  C   UNL     1      35.399 -20.215 -22.804  0.00  0.00    +0.007 C 
ATOM     15  C   UNL     1      33.340 -12.778 -25.617  0.00  0.00    +0.029 C 
ATOM     16  C   UNL     1      33.343 -18.460 -21.264  0.00  0.00    +0.000 C 
ATOM     17  C   UNL     1      32.237 -14.262 -23.101  0.00  0.00    +0.000 C 
ATOM     18  C   UNL     1      33.740 -11.571 -23.425  0.00  0.00    +0.029 C 
ATOM     19  C   UNL     1      33.891 -11.524 -24.942  0.00  0.00    +0.111 C 
ENDROOT
BRANCH  10  21
ATOM     20  O   UNL     1      36.388 -20.132 -19.401  0.00  0.00    -0.296 OA
ATOM     21  C   UNL     1      35.531 -20.134 -20.284  0.00  0.00    +0.151 C 
ATOM     22  C   UNL     1      34.250 -20.910 -20.138  0.00  0.00    +0.072 C 
ENDBRANCH  10  21
BRANCH  19  23
ATOM     23  O   UNL     1      33.201 -10.390 -25.459  0.00  0.00    -0.384 OA
ATOM     24  H   UNL     1      33.820  -9.834 -25.956  0.00  0.00    +0.210 HD
ENDBRANCH  19  23
TORSDOF 2
ENDMDL
