MODEL 1
REMARK VINA RESULT:      -8.7      0.000      0.000
REMARK  Name = 45381907
REMARK  4 active torsions:
REMARK  status: ('A' for Active; 'I' for Inactive)
REMARK    1  A    between atoms: N_4  and  N_23
REMARK    2  A    between atoms: C_5  and  C_20
REMARK    3  A    between atoms: C_6  and  C_16
REMARK    4  A    between atoms: N_23  and  S_25
REMARK                            x       y       z     vdW  Elec       q    Type
REMARK                         _______ _______ _______ _____ _____    ______ ____
ROOT
ATOM      1  O   UNL     1      36.665 -21.725 -18.962  0.00  0.00    -0.265 OA
ATOM      2  O   UNL     1      32.431 -21.091 -20.791  0.00  0.00    -0.245 OA
ATOM      3  N   UNL     1      32.622 -22.055 -18.724  0.00  0.00    -0.305 N 
ATOM      4  N   UNL     1      34.551 -21.402 -19.888  0.00  0.00    -0.159 N 
ATOM      5  C   UNL     1      33.562 -23.538 -15.475  0.00  0.00    -0.020 C 
ATOM      6  C   UNL     1      34.953 -23.439 -15.525  0.00  0.00    +0.011 C 
ATOM      7  C   UNL     1      33.409 -22.516 -17.658  0.00  0.00    +0.064 A 
ATOM      8  C   UNL     1      34.801 -22.417 -17.708  0.00  0.00    +0.074 A 
ATOM      9  C   UNL     1      32.788 -23.077 -16.540  0.00  0.00    +0.013 C 
ATOM     10  C   UNL     1      35.576 -22.880 -16.641  0.00  0.00    +0.007 C 
ATOM     11  C   UNL     1      35.444 -21.820 -18.899  0.00  0.00    +0.283 A 
ATOM     12  C   UNL     1      33.152 -21.485 -19.873  0.00  0.00    +0.348 A 
ATOM     13  H   UNL     1      31.644 -22.142 -18.653  0.00  0.00    +0.170 HD
ENDROOT
BRANCH   6  16
ATOM     14  N   UNL     1      36.308 -25.163 -14.365  0.00  0.00    -0.210 N 
ATOM     15  N   UNL     1      37.034 -25.385 -13.256  0.00  0.00    -0.176 NA
ATOM     16  C   UNL     1      35.772 -23.910 -14.431  0.00  0.00    +0.070 C 
ATOM     17  C   UNL     1      36.175 -23.268 -13.286  0.00  0.00    +0.039 C 
ATOM     18  C   UNL     1      36.949 -24.224 -12.601  0.00  0.00    +0.119 C 
ATOM     19  C   UNL     1      36.173 -26.223 -15.338  0.00  0.00    +0.140 C 
ENDBRANCH   6  16
BRANCH   5  20
ATOM     20  C   UNL     1      32.864 -24.134 -14.293  0.00  0.00    +0.022 C 
ATOM     21  C   UNL     1      31.750 -25.113 -14.705  0.00  0.00    +0.005 C 
ATOM     22  C   UNL     1      32.298 -23.061 -13.347  0.00  0.00    +0.005 C 
ENDBRANCH   5  20
BRANCH   4  23
ATOM     23  N   UNL     1      35.150 -20.804 -21.088  0.00  0.00    -0.150 N 
ATOM     24  H   UNL     1      35.478 -21.333 -21.850  0.00  0.00    +0.195 HD
BRANCH  23  25
ATOM     25  S   UNL     1      35.221 -19.101 -21.025  0.00  0.00    +0.069 S 
ATOM     26  O   UNL     1      36.401 -18.684 -20.292  0.00  0.00    -0.153 OA
ATOM     27  O   UNL     1      33.909 -18.578 -20.701  0.00  0.00    -0.153 OA
ATOM     28  C   UNL     1      35.521 -18.785 -22.747  0.00  0.00    +0.201 C 
ENDBRANCH  23  25
ENDBRANCH   4  23
TORSDOF 4
ENDMDL
MODEL 2
REMARK VINA RESULT:      -8.7      9.750     12.335
REMARK  Name = 45381907
REMARK  4 active torsions:
REMARK  status: ('A' for Active; 'I' for Inactive)
REMARK    1  A    between atoms: N_4  and  N_23
REMARK    2  A    between atoms: C_5  and  C_20
REMARK    3  A    between atoms: C_6  and  C_16
REMARK    4  A    between atoms: N_23  and  S_25
REMARK                            x       y       z     vdW  Elec       q    Type
REMARK                         _______ _______ _______ _____ _____    ______ ____
ROOT
ATOM      1  O   UNL     1      32.541 -10.263 -23.820  0.00  0.00    -0.265 OA
ATOM      2  O   UNL     1      31.042  -9.666 -19.452  0.00  0.00    -0.245 OA
ATOM      3  N   UNL     1      31.756 -11.737 -20.115  0.00  0.00    -0.305 N 
ATOM      4  N   UNL     1      31.789  -9.952 -21.636  0.00  0.00    -0.159 N 
ATOM      5  C   UNL     1      33.015 -14.799 -21.752  0.00  0.00    -0.020 C 
ATOM      6  C   UNL     1      33.296 -14.325 -23.033  0.00  0.00    +0.011 C 
ATOM      7  C   UNL     1      32.271 -12.596 -21.097  0.00  0.00    +0.064 A 
ATOM      8  C   UNL     1      32.552 -12.121 -22.380  0.00  0.00    +0.074 A 
ATOM      9  C   UNL     1      32.503 -13.937 -20.782  0.00  0.00    +0.013 C 
ATOM     10  C   UNL     1      33.064 -12.986 -23.352  0.00  0.00    +0.007 C 
ATOM     11  C   UNL     1      32.301 -10.699 -22.698  0.00  0.00    +0.283 A 
ATOM     12  C   UNL     1      31.495 -10.393 -20.339  0.00  0.00    +0.348 A 
ATOM     13  H   UNL     1      31.570 -12.107 -19.222  0.00  0.00    +0.170 HD
ENDROOT
BRANCH   6  16
ATOM     14  N   UNL     1      33.452 -15.163 -25.362  0.00  0.00    -0.210 N 
ATOM     15  N   UNL     1      34.073 -16.074 -26.132  0.00  0.00    -0.176 NA
ATOM     16  C   UNL     1      33.826 -15.202 -24.052  0.00  0.00    +0.070 C 
ATOM     17  C   UNL     1      34.758 -16.207 -23.957  0.00  0.00    +0.039 C 
ATOM     18  C   UNL     1      34.869 -16.708 -25.267  0.00  0.00    +0.119 C 
ATOM     19  C   UNL     1      32.491 -14.271 -25.971  0.00  0.00    +0.140 C 
ENDBRANCH   6  16
BRANCH   5  20
ATOM     20  C   UNL     1      33.250 -16.229 -21.380  0.00  0.00    +0.022 C 
ATOM     21  C   UNL     1      32.049 -16.846 -20.642  0.00  0.00    +0.005 C 
ATOM     22  C   UNL     1      34.530 -16.413 -20.547  0.00  0.00    +0.005 C 
ENDBRANCH   5  20
BRANCH   4  23
ATOM     23  N   UNL     1      31.526  -8.534 -21.912  0.00  0.00    -0.150 N 
ATOM     24  H   UNL     1      30.685  -8.205 -22.303  0.00  0.00    +0.195 HD
BRANCH  23  25
ATOM     25  S   UNL     1      32.825  -7.514 -21.486  0.00  0.00    +0.069 S 
ATOM     26  O   UNL     1      33.944  -7.743 -22.380  0.00  0.00    -0.153 OA
ATOM     27  O   UNL     1      32.996  -7.531 -20.047  0.00  0.00    -0.153 OA
ATOM     28  C   UNL     1      32.096  -5.957 -21.928  0.00  0.00    +0.201 C 
ENDBRANCH  23  25
ENDBRANCH   4  23
TORSDOF 4
ENDMDL
MODEL 3
REMARK VINA RESULT:      -8.3     10.107     15.148
REMARK  Name = 45381907
REMARK  4 active torsions:
REMARK  status: ('A' for Active; 'I' for Inactive)
REMARK    1  A    between atoms: N_4  and  N_23
REMARK    2  A    between atoms: C_5  and  C_20
REMARK    3  A    between atoms: C_6  and  C_16
REMARK    4  A    between atoms: N_23  and  S_25
REMARK                            x       y       z     vdW  Elec       q    Type
REMARK                         _______ _______ _______ _____ _____    ______ ____
ROOT
ATOM      1  O   UNL     1      31.153 -12.145 -21.385  0.00  0.00    -0.265 OA
ATOM      2  O   UNL     1      34.381 -14.011 -24.174  0.00  0.00    -0.245 OA
ATOM      3  N   UNL     1      34.119 -11.738 -24.133  0.00  0.00    -0.305 N 
ATOM      4  N   UNL     1      32.765 -13.091 -22.777  0.00  0.00    -0.159 N 
ATOM      5  C   UNL     1      33.237  -8.186 -23.637  0.00  0.00    -0.020 C 
ATOM      6  C   UNL     1      32.216  -8.291 -22.692  0.00  0.00    +0.011 C 
ATOM      7  C   UNL     1      33.477 -10.590 -23.646  0.00  0.00    +0.064 A 
ATOM      8  C   UNL     1      32.454 -10.695 -22.701  0.00  0.00    +0.074 A 
ATOM      9  C   UNL     1      33.870  -9.334 -24.115  0.00  0.00    +0.013 C 
ATOM     10  C   UNL     1      31.821  -9.544 -22.223  0.00  0.00    +0.007 C 
ATOM     11  C   UNL     1      32.050 -12.032 -22.215  0.00  0.00    +0.283 A 
ATOM     12  C   UNL     1      33.795 -13.024 -23.725  0.00  0.00    +0.348 A 
ATOM     13  H   UNL     1      34.836 -11.625 -24.799  0.00  0.00    +0.170 HD
ENDROOT
BRANCH   6  16
ATOM     14  N   UNL     1      31.798  -6.564 -20.962  0.00  0.00    -0.210 N 
ATOM     15  N   UNL     1      31.058  -5.473 -20.697  0.00  0.00    -0.176 NA
ATOM     16  C   UNL     1      31.548  -7.114 -22.185  0.00  0.00    +0.070 C 
ATOM     17  C   UNL     1      30.579  -6.329 -22.759  0.00  0.00    +0.039 C 
ATOM     18  C   UNL     1      30.316  -5.335 -21.798  0.00  0.00    +0.119 C 
ATOM     19  C   UNL     1      32.744  -7.026 -19.972  0.00  0.00    +0.140 C 
ENDBRANCH   6  16
BRANCH   5  20
ATOM     20  C   UNL     1      33.683  -6.858 -24.161  0.00  0.00    +0.022 C 
ATOM     21  C   UNL     1      32.701  -6.278 -25.194  0.00  0.00    +0.005 C 
ATOM     22  C   UNL     1      35.101  -6.910 -24.754  0.00  0.00    +0.005 C 
ENDBRANCH   5  20
BRANCH   4  23
ATOM     23  N   UNL     1      32.394 -14.436 -22.320  0.00  0.00    -0.150 N 
ATOM     24  H   UNL     1      31.695 -14.980 -22.749  0.00  0.00    +0.195 HD
BRANCH  23  25
ATOM     25  S   UNL     1      33.295 -14.960 -20.970  0.00  0.00    +0.069 S 
ATOM     26  O   UNL     1      32.408 -15.203 -19.849  0.00  0.00    -0.153 OA
ATOM     27  O   UNL     1      34.475 -14.129 -20.830  0.00  0.00    -0.153 OA
ATOM     28  C   UNL     1      33.815 -16.539 -21.595  0.00  0.00    +0.201 C 
ENDBRANCH  23  25
ENDBRANCH   4  23
TORSDOF 4
ENDMDL
MODEL 4
REMARK VINA RESULT:      -8.2      1.954      3.572
REMARK  Name = 45381907
REMARK  4 active torsions:
REMARK  status: ('A' for Active; 'I' for Inactive)
REMARK    1  A    between atoms: N_4  and  N_23
REMARK    2  A    between atoms: C_5  and  C_20
REMARK    3  A    between atoms: C_6  and  C_16
REMARK    4  A    between atoms: N_23  and  S_25
REMARK                            x       y       z     vdW  Elec       q    Type
REMARK                         _______ _______ _______ _____ _____    ______ ____
ROOT
ATOM      1  O   UNL     1      32.800 -21.631 -19.771  0.00  0.00    -0.265 OA
ATOM      2  O   UNL     1      37.334 -20.706 -20.292  0.00  0.00    -0.245 OA
ATOM      3  N   UNL     1      36.623 -21.781 -18.401  0.00  0.00    -0.305 N 
ATOM      4  N   UNL     1      35.067 -21.162 -20.043  0.00  0.00    -0.159 N 
ATOM      5  C   UNL     1      34.892 -23.469 -15.609  0.00  0.00    -0.020 C 
ATOM      6  C   UNL     1      33.569 -23.434 -16.051  0.00  0.00    +0.011 C 
ATOM      7  C   UNL     1      35.596 -22.332 -17.621  0.00  0.00    +0.064 A 
ATOM      8  C   UNL     1      34.271 -22.297 -18.062  0.00  0.00    +0.074 A 
ATOM      9  C   UNL     1      35.907 -22.919 -16.392  0.00  0.00    +0.013 C 
ATOM     10  C   UNL     1      33.255 -22.848 -17.277  0.00  0.00    +0.007 C 
ATOM     11  C   UNL     1      33.958 -21.672 -19.366  0.00  0.00    +0.283 A 
ATOM     12  C   UNL     1      36.407 -21.179 -19.632  0.00  0.00    +0.348 A 
ATOM     13  H   UNL     1      37.545 -21.825 -18.057  0.00  0.00    +0.170 HD
ENDROOT
BRANCH   6  16
ATOM     14  N   UNL     1      31.182 -23.729 -15.448  0.00  0.00    -0.210 N 
ATOM     15  N   UNL     1      30.366 -24.362 -14.587  0.00  0.00    -0.176 NA
ATOM     16  C   UNL     1      32.504 -23.999 -15.254  0.00  0.00    +0.070 C 
ATOM     17  C   UNL     1      32.558 -24.869 -14.193  0.00  0.00    +0.039 C 
ATOM     18  C   UNL     1      31.213 -25.057 -13.823  0.00  0.00    +0.119 C 
ATOM     19  C   UNL     1      30.604 -22.863 -16.451  0.00  0.00    +0.140 C 
ENDBRANCH   6  16
BRANCH   5  20
ATOM     20  C   UNL     1      35.262 -24.089 -14.299  0.00  0.00    +0.022 C 
ATOM     21  C   UNL     1      36.047 -23.122 -13.395  0.00  0.00    +0.005 C 
ATOM     22  C   UNL     1      36.047 -25.400 -14.473  0.00  0.00    +0.005 C 
ENDBRANCH   5  20
BRANCH   4  23
ATOM     23  N   UNL     1      34.797 -20.533 -21.342  0.00  0.00    -0.150 N 
ATOM     24  H   UNL     1      34.781 -21.030 -22.192  0.00  0.00    +0.195 HD
BRANCH  23  25
ATOM     25  S   UNL     1      34.516 -18.854 -21.230  0.00  0.00    +0.069 S 
ATOM     26  O   UNL     1      35.616 -18.217 -20.532  0.00  0.00    -0.153 OA
ATOM     27  O   UNL     1      33.140 -18.624 -20.838  0.00  0.00    -0.153 OA
ATOM     28  C   UNL     1      34.665 -18.445 -22.952  0.00  0.00    +0.201 C 
ENDBRANCH  23  25
ENDBRANCH   4  23
TORSDOF 4
ENDMDL
MODEL 5
REMARK VINA RESULT:      -8.2      1.942      4.075
REMARK  Name = 45381907
REMARK  4 active torsions:
REMARK  status: ('A' for Active; 'I' for Inactive)
REMARK    1  A    between atoms: N_4  and  N_23
REMARK    2  A    between atoms: C_5  and  C_20
REMARK    3  A    between atoms: C_6  and  C_16
REMARK    4  A    between atoms: N_23  and  S_25
REMARK                            x       y       z     vdW  Elec       q    Type
REMARK                         _______ _______ _______ _____ _____    ______ ____
ROOT
ATOM      1  O   UNL     1      32.751 -22.187 -19.995  0.00  0.00    -0.265 OA
ATOM      2  O   UNL     1      37.181 -21.195 -18.961  0.00  0.00    -0.245 OA
ATOM      3  N   UNL     1      35.841 -22.127 -17.357  0.00  0.00    -0.305 N 
ATOM      4  N   UNL     1      34.970 -21.686 -19.489  0.00  0.00    -0.159 N 
ATOM      5  C   UNL     1      33.224 -23.619 -15.220  0.00  0.00    -0.020 C 
ATOM      6  C   UNL     1      32.143 -23.655 -16.101  0.00  0.00    +0.011 C 
ATOM      7  C   UNL     1      34.600 -22.637 -16.945  0.00  0.00    +0.064 A 
ATOM      8  C   UNL     1      33.518 -22.671 -17.827  0.00  0.00    +0.074 A 
ATOM      9  C   UNL     1      34.453 -23.111 -15.639  0.00  0.00    +0.013 C 
ATOM     10  C   UNL     1      32.286 -23.180 -17.406  0.00  0.00    +0.007 C 
ATOM     11  C   UNL     1      33.690 -22.165 -19.206  0.00  0.00    +0.283 A 
ATOM     12  C   UNL     1      36.077 -21.635 -18.632  0.00  0.00    +0.348 A 
ATOM     13  H   UNL     1      36.581 -22.118 -16.707  0.00  0.00    +0.170 HD
ENDROOT
BRANCH   6  16
ATOM     14  N   UNL     1      29.709 -23.448 -15.669  0.00  0.00    -0.210 N 
ATOM     15  N   UNL     1      28.636 -24.137 -15.244  0.00  0.00    -0.176 NA
ATOM     16  C   UNL     1      30.861 -24.177 -15.686  0.00  0.00    +0.070 C 
ATOM     17  C   UNL     1      30.518 -25.431 -15.241  0.00  0.00    +0.039 C 
ATOM     18  C   UNL     1      29.137 -25.347 -14.984  0.00  0.00    +0.119 C 
ATOM     19  C   UNL     1      29.546 -22.064 -16.052  0.00  0.00    +0.140 C 
ENDBRANCH   6  16
BRANCH   5  20
ATOM     20  C   UNL     1      33.102 -24.118 -13.815  0.00  0.00    +0.022 C 
ATOM     21  C   UNL     1      32.205 -23.216 -12.950  0.00  0.00    +0.005 C 
ATOM     22  C   UNL     1      34.472 -24.302 -13.140  0.00  0.00    +0.005 C 
ENDBRANCH   5  20
BRANCH   4  23
ATOM     23  N   UNL     1      35.181 -21.174 -20.849  0.00  0.00    -0.150 N 
ATOM     24  H   UNL     1      35.496 -21.733 -21.596  0.00  0.00    +0.195 HD
BRANCH  23  25
ATOM     25  S   UNL     1      34.826 -19.513 -21.005  0.00  0.00    +0.069 S 
ATOM     26  O   UNL     1      35.912 -18.724 -20.458  0.00  0.00    -0.153 OA
ATOM     27  O   UNL     1      33.451 -19.278 -20.610  0.00  0.00    -0.153 OA
ATOM     28  C   UNL     1      34.910 -19.388 -22.774  0.00  0.00    +0.201 C 
ENDBRANCH  23  25
ENDBRANCH   4  23
TORSDOF 4
ENDMDL
MODEL 6
REMARK VINA RESULT:      -8.1      4.314      6.147
REMARK  Name = 45381907
REMARK  4 active torsions:
REMARK  status: ('A' for Active; 'I' for Inactive)
REMARK    1  A    between atoms: N_4  and  N_23
REMARK    2  A    between atoms: C_5  and  C_20
REMARK    3  A    between atoms: C_6  and  C_16
REMARK    4  A    between atoms: N_23  and  S_25
REMARK                            x       y       z     vdW  Elec       q    Type
REMARK                         _______ _______ _______ _____ _____    ______ ____
ROOT
ATOM      1  O   UNL     1      30.439 -22.642 -17.274  0.00  0.00    -0.265 OA
ATOM      2  O   UNL     1      28.451 -25.480 -14.164  0.00  0.00    -0.245 OA
ATOM      3  N   UNL     1      30.713 -25.137 -14.079  0.00  0.00    -0.305 N 
ATOM      4  N   UNL     1      29.433 -24.060 -15.723  0.00  0.00    -0.159 N 
ATOM      5  C   UNL     1      34.266 -24.199 -14.445  0.00  0.00    -0.020 C 
ATOM      6  C   UNL     1      34.207 -23.337 -15.540  0.00  0.00    +0.011 C 
ATOM      7  C   UNL     1      31.877 -24.530 -14.574  0.00  0.00    +0.064 A 
ATOM      8  C   UNL     1      31.818 -23.668 -15.671  0.00  0.00    +0.074 A 
ATOM      9  C   UNL     1      33.103 -24.797 -13.959  0.00  0.00    +0.013 C 
ATOM     10  C   UNL     1      32.984 -23.070 -16.156  0.00  0.00    +0.007 C 
ATOM     11  C   UNL     1      30.512 -23.396 -16.309  0.00  0.00    +0.283 A 
ATOM     12  C   UNL     1      29.454 -24.930 -14.625  0.00  0.00    +0.348 A 
ATOM     13  H   UNL     1      30.793 -25.739 -13.304  0.00  0.00    +0.170 HD
ENDROOT
BRANCH   6  16
ATOM     14  N   UNL     1      35.569 -22.351 -17.363  0.00  0.00    -0.210 N 
ATOM     15  N   UNL     1      36.761 -21.783 -17.620  0.00  0.00    -0.176 NA
ATOM     16  C   UNL     1      35.401 -22.708 -16.058  0.00  0.00    +0.070 C 
ATOM     17  C   UNL     1      36.561 -22.349 -15.416  0.00  0.00    +0.039 C 
ATOM     18  C   UNL     1      37.361 -21.785 -16.427  0.00  0.00    +0.119 C 
ATOM     19  C   UNL     1      34.625 -22.518 -18.444  0.00  0.00    +0.140 C 
ENDBRANCH   6  16
BRANCH   5  20
ATOM     20  C   UNL     1      35.562 -24.507 -13.763  0.00  0.00    +0.022 C 
ATOM     21  C   UNL     1      36.226 -25.779 -14.319  0.00  0.00    +0.005 C 
ATOM     22  C   UNL     1      35.407 -24.618 -12.237  0.00  0.00    +0.005 C 
ENDBRANCH   5  20
BRANCH   4  23
ATOM     23  N   UNL     1      28.118 -23.816 -16.329  0.00  0.00    -0.150 N 
ATOM     24  H   UNL     1      27.688 -24.439 -16.958  0.00  0.00    +0.195 HD
BRANCH  23  25
ATOM     25  S   UNL     1      27.411 -22.345 -15.833  0.00  0.00    +0.069 S 
ATOM     26  O   UNL     1      28.401 -21.526 -15.161  0.00  0.00    -0.153 OA
ATOM     27  O   UNL     1      26.120 -22.612 -15.230  0.00  0.00    -0.153 OA
ATOM     28  C   UNL     1      27.126 -21.634 -17.435  0.00  0.00    +0.201 C 
ENDBRANCH  23  25
ENDBRANCH   4  23
TORSDOF 4
ENDMDL
MODEL 7
REMARK VINA RESULT:      -7.6      9.047     13.441
REMARK  Name = 45381907
REMARK  4 active torsions:
REMARK  status: ('A' for Active; 'I' for Inactive)
REMARK    1  A    between atoms: N_4  and  N_23
REMARK    2  A    between atoms: C_5  and  C_20
REMARK    3  A    between atoms: C_6  and  C_16
REMARK    4  A    between atoms: N_23  and  S_25
REMARK                            x       y       z     vdW  Elec       q    Type
REMARK                         _______ _______ _______ _____ _____    ______ ____
ROOT
ATOM      1  O   UNL     1      33.013 -13.613 -25.066  0.00  0.00    -0.265 OA
ATOM      2  O   UNL     1      32.845 -16.331 -21.289  0.00  0.00    -0.245 OA
ATOM      3  N   UNL     1      32.480 -14.083 -21.064  0.00  0.00    -0.305 N 
ATOM      4  N   UNL     1      32.931 -14.983 -23.183  0.00  0.00    -0.159 N 
ATOM      5  C   UNL     1      31.984 -10.433 -21.336  0.00  0.00    -0.020 C 
ATOM      6  C   UNL     1      32.161 -10.237 -22.706  0.00  0.00    +0.011 C 
ATOM      7  C   UNL     1      32.375 -12.800 -21.622  0.00  0.00    +0.064 A 
ATOM      8  C   UNL     1      32.553 -12.603 -22.993  0.00  0.00    +0.074 A 
ATOM      9  C   UNL     1      32.090 -11.713 -20.791  0.00  0.00    +0.013 C 
ATOM     10  C   UNL     1      32.446 -11.321 -23.537  0.00  0.00    +0.007 C 
ATOM     11  C   UNL     1      32.853 -13.765 -23.858  0.00  0.00    +0.283 A 
ATOM     12  C   UNL     1      32.760 -15.218 -21.812  0.00  0.00    +0.348 A 
ATOM     13  H   UNL     1      32.349 -14.182 -20.094  0.00  0.00    +0.170 HD
ENDROOT
BRANCH   6  16
ATOM     14  N   UNL     1      33.123  -8.185 -23.713  0.00  0.00    -0.210 N 
ATOM     15  N   UNL     1      32.789  -6.985 -24.219  0.00  0.00    -0.176 NA
ATOM     16  C   UNL     1      32.055  -8.919 -23.289  0.00  0.00    +0.070 C 
ATOM     17  C   UNL     1      30.946  -8.147 -23.535  0.00  0.00    +0.039 C 
ATOM     18  C   UNL     1      31.459  -6.968 -24.108  0.00  0.00    +0.119 C 
ATOM     19  C   UNL     1      34.517  -8.565 -23.670  0.00  0.00    +0.140 C 
ENDBRANCH   6  16
BRANCH   5  20
ATOM     20  C   UNL     1      31.679  -9.293 -20.417  0.00  0.00    +0.022 C 
ATOM     21  C   UNL     1      32.835  -8.280 -20.338  0.00  0.00    +0.005 C 
ATOM     22  C   UNL     1      31.297  -9.766 -19.004  0.00  0.00    +0.005 C 
ENDBRANCH   5  20
BRANCH   4  23
ATOM     23  N   UNL     1      33.229 -16.161 -24.008  0.00  0.00    -0.150 N 
ATOM     24  H   UNL     1      32.534 -16.742 -24.392  0.00  0.00    +0.195 HD
BRANCH  23  25
ATOM     25  S   UNL     1      34.899 -16.420 -24.232  0.00  0.00    +0.069 S 
ATOM     26  O   UNL     1      35.654 -15.582 -23.320  0.00  0.00    -0.153 OA
ATOM     27  O   UNL     1      35.195 -16.446 -25.650  0.00  0.00    -0.153 OA
ATOM     28  C   UNL     1      34.993 -18.088 -23.628  0.00  0.00    +0.201 C 
ENDBRANCH  23  25
ENDBRANCH   4  23
TORSDOF 4
ENDMDL
MODEL 8
REMARK VINA RESULT:      -7.5      4.082      5.953
REMARK  Name = 45381907
REMARK  4 active torsions:
REMARK  status: ('A' for Active; 'I' for Inactive)
REMARK    1  A    between atoms: N_4  and  N_23
REMARK    2  A    between atoms: C_5  and  C_20
REMARK    3  A    between atoms: C_6  and  C_16
REMARK    4  A    between atoms: N_23  and  S_25
REMARK                            x       y       z     vdW  Elec       q    Type
REMARK                         _______ _______ _______ _____ _____    ______ ____
ROOT
ATOM      1  O   UNL     1      31.737 -24.095 -12.975  0.00  0.00    -0.265 OA
ATOM      2  O   UNL     1      30.606 -22.667 -17.260  0.00  0.00    -0.245 OA
ATOM      3  N   UNL     1      32.812 -22.752 -16.656  0.00  0.00    -0.305 N 
ATOM      4  N   UNL     1      31.159 -23.382 -15.117  0.00  0.00    -0.159 N 
ATOM      5  C   UNL     1      36.152 -23.098 -15.118  0.00  0.00    -0.020 C 
ATOM      6  C   UNL     1      35.817 -23.561 -13.846  0.00  0.00    +0.011 C 
ATOM      7  C   UNL     1      33.811 -23.025 -15.710  0.00  0.00    +0.064 A 
ATOM      8  C   UNL     1      33.476 -23.488 -14.436  0.00  0.00    +0.074 A 
ATOM      9  C   UNL     1      35.151 -22.830 -16.052  0.00  0.00    +0.013 C 
ATOM     10  C   UNL     1      34.479 -23.757 -13.500  0.00  0.00    +0.007 C 
ATOM     11  C   UNL     1      32.052 -23.690 -14.090  0.00  0.00    +0.283 A 
ATOM     12  C   UNL     1      31.458 -22.916 -16.405  0.00  0.00    +0.348 A 
ATOM     13  H   UNL     1      33.087 -22.427 -17.544  0.00  0.00    +0.170 HD
ENDROOT
BRANCH   6  16
ATOM     14  N   UNL     1      37.320 -25.094 -12.604  0.00  0.00    -0.210 N 
ATOM     15  N   UNL     1      38.266 -25.124 -11.649  0.00  0.00    -0.176 NA
ATOM     16  C   UNL     1      36.839 -23.845 -12.864  0.00  0.00    +0.070 C 
ATOM     17  C   UNL     1      37.516 -22.998 -12.021  0.00  0.00    +0.039 C 
ATOM     18  C   UNL     1      38.381 -23.840 -11.297  0.00  0.00    +0.119 C 
ATOM     19  C   UNL     1      36.924 -26.333 -13.236  0.00  0.00    +0.140 C 
ENDBRANCH   6  16
BRANCH   5  20
ATOM     20  C   UNL     1      37.576 -22.877 -15.518  0.00  0.00    +0.022 C 
ATOM     21  C   UNL     1      37.699 -22.042 -16.805  0.00  0.00    +0.005 C 
ATOM     22  C   UNL     1      38.351 -24.197 -15.672  0.00  0.00    +0.005 C 
ENDBRANCH   5  20
BRANCH   4  23
ATOM     23  N   UNL     1      29.734 -23.569 -14.812  0.00  0.00    -0.150 N 
ATOM     24  H   UNL     1      29.173 -22.875 -14.398  0.00  0.00    +0.195 HD
BRANCH  23  25
ATOM     25  S   UNL     1      29.151 -25.112 -15.247  0.00  0.00    +0.069 S 
ATOM     26  O   UNL     1      28.203 -25.578 -14.253  0.00  0.00    -0.153 OA
ATOM     27  O   UNL     1      30.260 -25.941 -15.676  0.00  0.00    -0.153 OA
ATOM     28  C   UNL     1      28.229 -24.650 -16.692  0.00  0.00    +0.201 C 
ENDBRANCH  23  25
ENDBRANCH   4  23
TORSDOF 4
ENDMDL
MODEL 9
REMARK VINA RESULT:      -7.5      3.994      5.458
REMARK  Name = 45381907
REMARK  4 active torsions:
REMARK  status: ('A' for Active; 'I' for Inactive)
REMARK    1  A    between atoms: N_4  and  N_23
REMARK    2  A    between atoms: C_5  and  C_20
REMARK    3  A    between atoms: C_6  and  C_16
REMARK    4  A    between atoms: N_23  and  S_25
REMARK                            x       y       z     vdW  Elec       q    Type
REMARK                         _______ _______ _______ _____ _____    ______ ____
ROOT
ATOM      1  O   UNL     1      32.971 -23.482 -17.376  0.00  0.00    -0.265 OA
ATOM      2  O   UNL     1      29.911 -22.322 -14.063  0.00  0.00    -0.245 OA
ATOM      3  N   UNL     1      32.026 -22.956 -13.459  0.00  0.00    -0.305 N 
ATOM      4  N   UNL     1      31.431 -22.899 -15.727  0.00  0.00    -0.159 N 
ATOM      5  C   UNL     1      35.537 -24.046 -13.113  0.00  0.00    -0.020 C 
ATOM      6  C   UNL     1      35.894 -24.236 -14.448  0.00  0.00    +0.011 C 
ATOM      7  C   UNL     1      33.318 -23.384 -13.798  0.00  0.00    +0.064 A 
ATOM      8  C   UNL     1      33.675 -23.574 -15.135  0.00  0.00    +0.074 A 
ATOM      9  C   UNL     1      34.250 -23.620 -12.785  0.00  0.00    +0.013 C 
ATOM     10  C   UNL     1      34.965 -24.002 -15.462  0.00  0.00    +0.007 C 
ATOM     11  C   UNL     1      32.677 -23.319 -16.196  0.00  0.00    +0.283 A 
ATOM     12  C   UNL     1      31.037 -22.697 -14.397  0.00  0.00    +0.348 A 
ATOM     13  H   UNL     1      31.810 -22.832 -12.506  0.00  0.00    +0.170 HD
ENDROOT
BRANCH   6  16
ATOM     14  N   UNL     1      37.620 -25.981 -14.803  0.00  0.00    -0.210 N 
ATOM     15  N   UNL     1      38.901 -26.160 -15.170  0.00  0.00    -0.176 NA
ATOM     16  C   UNL     1      37.223 -24.677 -14.807  0.00  0.00    +0.070 C 
ATOM     17  C   UNL     1      38.319 -23.952 -15.206  0.00  0.00    +0.039 C 
ATOM     18  C   UNL     1      39.322 -24.916 -15.415  0.00  0.00    +0.119 C 
ATOM     19  C   UNL     1      36.824 -27.137 -14.456  0.00  0.00    +0.140 C 
ENDBRANCH   6  16
BRANCH   5  20
ATOM     20  C   UNL     1      36.510 -24.290 -12.002  0.00  0.00    +0.022 C 
ATOM     21  C   UNL     1      35.811 -24.673 -10.686  0.00  0.00    +0.005 C 
ATOM     22  C   UNL     1      37.446 -23.092 -11.772  0.00  0.00    +0.005 C 
ENDBRANCH   5  20
BRANCH   4  23
ATOM     23  N   UNL     1      30.411 -22.635 -16.750  0.00  0.00    -0.150 N 
ATOM     24  H   UNL     1      30.500 -21.935 -17.435  0.00  0.00    +0.195 HD
BRANCH  23  25
ATOM     25  S   UNL     1      29.057 -23.666 -16.630  0.00  0.00    +0.069 S 
ATOM     26  O   UNL     1      29.369 -24.790 -15.768  0.00  0.00    -0.153 OA
ATOM     27  O   UNL     1      28.487 -23.864 -17.948  0.00  0.00    -0.153 OA
ATOM     28  C   UNL     1      27.977 -22.582 -15.729  0.00  0.00    +0.201 C 
ENDBRANCH  23  25
ENDBRANCH   4  23
TORSDOF 4
ENDMDL
