MODEL 1
REMARK VINA RESULT:      -8.7      0.000      0.000
REMARK  Name = 736407
REMARK  2 active torsions:
REMARK  status: ('A' for Active; 'I' for Inactive)
REMARK    1  A    between atoms: C_4  and  C_11
REMARK    2  A    between atoms: C_12  and  C_14
REMARK                            x       y       z     vdW  Elec       q    Type
REMARK                         _______ _______ _______ _____ _____    ______ ____
ROOT
ATOM      1  N   UNL     1      34.586 -17.722 -23.993  0.00  0.00    -0.284 N 
ATOM      2  C   UNL     1      34.576 -16.715 -23.055  0.00  0.00    +0.052 C 
ATOM      3  C   UNL     1      34.600 -17.324 -21.798  0.00  0.00    +0.015 C 
ATOM      4  C   UNL     1      34.626 -18.730 -22.016  0.00  0.00    +0.016 C 
ATOM      5  C   UNL     1      34.617 -18.943 -23.375  0.00  0.00    +0.065 C 
ATOM      6  C   UNL     1      34.547 -15.326 -23.220  0.00  0.00    +0.015 C 
ATOM      7  C   UNL     1      34.596 -16.508 -20.649  0.00  0.00    +0.001 C 
ATOM      8  C   UNL     1      34.568 -17.536 -25.428  0.00  0.00    +0.117 C 
ATOM      9  C   UNL     1      34.543 -14.537 -22.066  0.00  0.00    +0.001 C 
ATOM     10  C   UNL     1      34.567 -15.118 -20.799  0.00  0.00    +0.000 C 
ENDROOT
BRANCH   4  11
ATOM     11  C   UNL     1      34.656 -19.759 -21.048  0.00  0.00    +0.004 C 
ATOM     12  C   UNL     1      33.555 -20.356 -20.536  0.00  0.00    +0.038 C 
BRANCH  12  14
ATOM     13  O   UNL     1      32.694 -21.928 -18.961  0.00  0.00    -0.291 OA
ATOM     14  C   UNL     1      33.676 -21.424 -19.502  0.00  0.00    +0.174 C 
ATOM     15  C   UNL     1      35.072 -21.849 -19.124  0.00  0.00    +0.077 C 
ENDBRANCH  12  14
ENDBRANCH   4  11
TORSDOF 2
ENDMDL
MODEL 2
REMARK VINA RESULT:      -8.5      0.950      2.703
REMARK  Name = 736407
REMARK  2 active torsions:
REMARK  status: ('A' for Active; 'I' for Inactive)
REMARK    1  A    between atoms: C_4  and  C_11
REMARK    2  A    between atoms: C_12  and  C_14
REMARK                            x       y       z     vdW  Elec       q    Type
REMARK                         _______ _______ _______ _____ _____    ______ ____
ROOT
ATOM      1  N   UNL     1      34.652 -16.077 -21.797  0.00  0.00    -0.284 N 
ATOM      2  C   UNL     1      34.626 -16.679 -23.034  0.00  0.00    +0.052 C 
ATOM      3  C   UNL     1      34.667 -18.059 -22.821  0.00  0.00    +0.015 C 
ATOM      4  C   UNL     1      34.718 -18.262 -21.413  0.00  0.00    +0.016 C 
ATOM      5  C   UNL     1      34.708 -17.025 -20.811  0.00  0.00    +0.065 C 
ATOM      6  C   UNL     1      34.570 -16.114 -24.313  0.00  0.00    +0.015 C 
ATOM      7  C   UNL     1      34.650 -18.918 -23.937  0.00  0.00    +0.001 C 
ATOM      8  C   UNL     1      34.625 -14.651 -21.554  0.00  0.00    +0.117 C 
ATOM      9  C   UNL     1      34.554 -16.987 -25.405  0.00  0.00    +0.001 C 
ATOM     10  C   UNL     1      34.594 -18.368 -25.222  0.00  0.00    +0.000 C 
ENDROOT
BRANCH   4  11
ATOM     11  C   UNL     1      34.771 -19.488 -20.714  0.00  0.00    +0.004 C 
ATOM     12  C   UNL     1      33.686 -20.229 -20.389  0.00  0.00    +0.038 C 
BRANCH  12  14
ATOM     13  O   UNL     1      32.859 -22.149 -19.240  0.00  0.00    -0.291 OA
ATOM     14  C   UNL     1      33.830 -21.506 -19.632  0.00  0.00    +0.174 C 
ATOM     15  C   UNL     1      35.234 -21.970 -19.344  0.00  0.00    +0.077 C 
ENDBRANCH  12  14
ENDBRANCH   4  11
TORSDOF 2
ENDMDL
MODEL 3
REMARK VINA RESULT:      -8.0      1.988      2.426
REMARK  Name = 736407
REMARK  2 active torsions:
REMARK  status: ('A' for Active; 'I' for Inactive)
REMARK    1  A    between atoms: C_4  and  C_11
REMARK    2  A    between atoms: C_12  and  C_14
REMARK                            x       y       z     vdW  Elec       q    Type
REMARK                         _______ _______ _______ _____ _____    ______ ____
ROOT
ATOM      1  N   UNL     1      33.856 -15.705 -24.204  0.00  0.00    -0.284 N 
ATOM      2  C   UNL     1      33.391 -15.003 -23.115  0.00  0.00    +0.052 C 
ATOM      3  C   UNL     1      33.870 -15.650 -21.974  0.00  0.00    +0.015 C 
ATOM      4  C   UNL     1      34.639 -16.763 -22.418  0.00  0.00    +0.016 C 
ATOM      5  C   UNL     1      34.611 -16.769 -23.794  0.00  0.00    +0.065 C 
ATOM      6  C   UNL     1      32.590 -13.857 -23.053  0.00  0.00    +0.015 C 
ATOM      7  C   UNL     1      33.537 -15.129 -20.708  0.00  0.00    +0.001 C 
ATOM      8  C   UNL     1      33.595 -15.378 -25.590  0.00  0.00    +0.117 C 
ATOM      9  C   UNL     1      32.272 -13.359 -21.786  0.00  0.00    +0.001 C 
ATOM     10  C   UNL     1      32.737 -13.984 -20.631  0.00  0.00    +0.000 C 
ENDROOT
BRANCH   4  11
ATOM     11  C   UNL     1      35.323 -17.715 -21.630  0.00  0.00    +0.004 C 
ATOM     12  C   UNL     1      34.837 -18.938 -21.317  0.00  0.00    +0.038 C 
BRANCH  12  14
ATOM     13  O   UNL     1      36.809 -19.701 -20.211  0.00  0.00    -0.291 OA
ATOM     14  C   UNL     1      35.619 -19.878 -20.463  0.00  0.00    +0.174 C 
ATOM     15  C   UNL     1      34.886 -21.083 -19.933  0.00  0.00    +0.077 C 
ENDBRANCH  12  14
ENDBRANCH   4  11
TORSDOF 2
ENDMDL
MODEL 4
REMARK VINA RESULT:      -7.7      5.144      7.339
REMARK  Name = 736407
REMARK  2 active torsions:
REMARK  status: ('A' for Active; 'I' for Inactive)
REMARK    1  A    between atoms: C_4  and  C_11
REMARK    2  A    between atoms: C_12  and  C_14
REMARK                            x       y       z     vdW  Elec       q    Type
REMARK                         _______ _______ _______ _____ _____    ______ ____
ROOT
ATOM      1  N   UNL     1      35.667 -22.925 -16.212  0.00  0.00    -0.284 N 
ATOM      2  C   UNL     1      35.652 -22.330 -17.453  0.00  0.00    +0.052 C 
ATOM      3  C   UNL     1      34.345 -22.423 -17.936  0.00  0.00    +0.015 C 
ATOM      4  C   UNL     1      33.579 -23.093 -16.941  0.00  0.00    +0.016 C 
ATOM      5  C   UNL     1      34.419 -23.388 -15.894  0.00  0.00    +0.065 C 
ATOM      6  C   UNL     1      36.684 -21.724 -18.178  0.00  0.00    +0.015 C 
ATOM      7  C   UNL     1      34.051 -21.883 -19.204  0.00  0.00    +0.001 C 
ATOM      8  C   UNL     1      36.825 -23.050 -15.353  0.00  0.00    +0.117 C 
ATOM      9  C   UNL     1      36.369 -21.197 -19.434  0.00  0.00    +0.001 C 
ATOM     10  C   UNL     1      35.073 -21.274 -19.941  0.00  0.00    +0.000 C 
ENDROOT
BRANCH   4  11
ATOM     11  C   UNL     1      32.204 -23.418 -16.977  0.00  0.00    +0.004 C 
ATOM     12  C   UNL     1      31.235 -22.703 -16.359  0.00  0.00    +0.038 C 
BRANCH  12  14
ATOM     13  O   UNL     1      28.970 -22.505 -17.083  0.00  0.00    -0.291 OA
ATOM     14  C   UNL     1      29.807 -23.126 -16.432  0.00  0.00    +0.174 C 
ATOM     15  C   UNL     1      29.421 -24.351 -15.643  0.00  0.00    +0.077 C 
ENDBRANCH  12  14
ENDBRANCH   4  11
TORSDOF 2
ENDMDL
MODEL 5
REMARK VINA RESULT:      -7.6      3.759      6.320
REMARK  Name = 736407
REMARK  2 active torsions:
REMARK  status: ('A' for Active; 'I' for Inactive)
REMARK    1  A    between atoms: C_4  and  C_11
REMARK    2  A    between atoms: C_12  and  C_14
REMARK                            x       y       z     vdW  Elec       q    Type
REMARK                         _______ _______ _______ _____ _____    ______ ____
ROOT
ATOM      1  N   UNL     1      34.468 -16.359 -21.619  0.00  0.00    -0.284 N 
ATOM      2  C   UNL     1      34.343 -16.284 -22.987  0.00  0.00    +0.052 C 
ATOM      3  C   UNL     1      33.578 -15.150 -23.268  0.00  0.00    +0.015 C 
ATOM      4  C   UNL     1      33.250 -14.549 -22.020  0.00  0.00    +0.016 C 
ATOM      5  C   UNL     1      33.812 -15.315 -21.026  0.00  0.00    +0.065 C 
ATOM      6  C   UNL     1      34.842 -17.125 -23.988  0.00  0.00    +0.015 C 
ATOM      7  C   UNL     1      33.297 -14.837 -24.613  0.00  0.00    +0.001 C 
ATOM      8  C   UNL     1      35.187 -17.385 -20.895  0.00  0.00    +0.117 C 
ATOM      9  C   UNL     1      34.551 -16.795 -25.315  0.00  0.00    +0.001 C 
ATOM     10  C   UNL     1      33.790 -15.669 -25.624  0.00  0.00    +0.000 C 
ENDROOT
BRANCH   4  11
ATOM     11  C   UNL     1      32.491 -13.379 -21.793  0.00  0.00    +0.004 C 
ATOM     12  C   UNL     1      32.141 -12.923 -20.568  0.00  0.00    +0.038 C 
BRANCH  12  14
ATOM     13  O   UNL     1      30.534 -11.311 -21.283  0.00  0.00    -0.291 OA
ATOM     14  C   UNL     1      31.321 -11.687 -20.417  0.00  0.00    +0.174 C 
ATOM     15  C   UNL     1      31.516 -10.894 -19.150  0.00  0.00    +0.077 C 
ENDBRANCH  12  14
ENDBRANCH   4  11
TORSDOF 2
ENDMDL
MODEL 6
REMARK VINA RESULT:      -7.5      4.250      7.062
REMARK  Name = 736407
REMARK  2 active torsions:
REMARK  status: ('A' for Active; 'I' for Inactive)
REMARK    1  A    between atoms: C_4  and  C_11
REMARK    2  A    between atoms: C_12  and  C_14
REMARK                            x       y       z     vdW  Elec       q    Type
REMARK                         _______ _______ _______ _____ _____    ______ ____
ROOT
ATOM      1  N   UNL     1      33.966 -15.779 -24.460  0.00  0.00    -0.284 N 
ATOM      2  C   UNL     1      34.244 -15.918 -23.120  0.00  0.00    +0.052 C 
ATOM      3  C   UNL     1      34.039 -14.670 -22.526  0.00  0.00    +0.015 C 
ATOM      4  C   UNL     1      33.628 -13.780 -23.558  0.00  0.00    +0.016 C 
ATOM      5  C   UNL     1      33.593 -14.491 -24.735  0.00  0.00    +0.065 C 
ATOM      6  C   UNL     1      34.657 -17.041 -22.394  0.00  0.00    +0.015 C 
ATOM      7  C   UNL     1      34.256 -14.535 -21.141  0.00  0.00    +0.001 C 
ATOM      8  C   UNL     1      34.049 -16.831 -25.450  0.00  0.00    +0.117 C 
ATOM      9  C   UNL     1      34.866 -16.882 -21.021  0.00  0.00    +0.001 C 
ATOM     10  C   UNL     1      34.669 -15.648 -20.402  0.00  0.00    +0.000 C 
ENDROOT
BRANCH   4  11
ATOM     11  C   UNL     1      33.305 -12.409 -23.445  0.00  0.00    +0.004 C 
ATOM     12  C   UNL     1      33.923 -11.421 -24.132  0.00  0.00    +0.038 C 
BRANCH  12  14
ATOM     13  O   UNL     1      32.371  -9.657 -23.714  0.00  0.00    -0.291 OA
ATOM     14  C   UNL     1      33.531  -9.995 -23.939  0.00  0.00    +0.174 C 
ATOM     15  C   UNL     1      34.628  -8.968 -24.057  0.00  0.00    +0.077 C 
ENDBRANCH  12  14
ENDBRANCH   4  11
TORSDOF 2
ENDMDL
MODEL 7
REMARK VINA RESULT:      -7.5      6.990      9.558
REMARK  Name = 736407
REMARK  2 active torsions:
REMARK  status: ('A' for Active; 'I' for Inactive)
REMARK    1  A    between atoms: C_4  and  C_11
REMARK    2  A    between atoms: C_12  and  C_14
REMARK                            x       y       z     vdW  Elec       q    Type
REMARK                         _______ _______ _______ _____ _____    ______ ____
ROOT
ATOM      1  N   UNL     1      33.506 -23.174 -16.890  0.00  0.00    -0.284 N 
ATOM      2  C   UNL     1      32.347 -23.219 -16.149  0.00  0.00    +0.052 C 
ATOM      3  C   UNL     1      32.688 -23.700 -14.882  0.00  0.00    +0.015 C 
ATOM      4  C   UNL     1      34.091 -23.940 -14.892  0.00  0.00    +0.016 C 
ATOM      5  C   UNL     1      34.565 -23.607 -16.139  0.00  0.00    +0.065 C 
ATOM      6  C   UNL     1      31.037 -22.875 -16.498  0.00  0.00    +0.015 C 
ATOM      7  C   UNL     1      31.673 -23.844 -13.916  0.00  0.00    +0.001 C 
ATOM      8  C   UNL     1      33.609 -22.734 -18.265  0.00  0.00    +0.117 C 
ATOM      9  C   UNL     1      30.046 -23.026 -15.523  0.00  0.00    +0.001 C 
ATOM     10  C   UNL     1      30.358 -23.504 -14.251  0.00  0.00    +0.000 C 
ENDROOT
BRANCH   4  11
ATOM     11  C   UNL     1      34.895 -24.431 -13.838  0.00  0.00    +0.004 C 
ATOM     12  C   UNL     1      34.908 -23.917 -12.587  0.00  0.00    +0.038 C 
BRANCH  12  14
ATOM     13  O   UNL     1      35.364 -25.072 -10.549  0.00  0.00    -0.291 OA
ATOM     14  C   UNL     1      35.802 -24.484 -11.536  0.00  0.00    +0.174 C 
ATOM     15  C   UNL     1      37.283 -24.282 -11.724  0.00  0.00    +0.077 C 
ENDBRANCH  12  14
ENDBRANCH   4  11
TORSDOF 2
ENDMDL
MODEL 8
REMARK VINA RESULT:      -7.5      4.563      6.713
REMARK  Name = 736407
REMARK  2 active torsions:
REMARK  status: ('A' for Active; 'I' for Inactive)
REMARK    1  A    between atoms: C_4  and  C_11
REMARK    2  A    between atoms: C_12  and  C_14
REMARK                            x       y       z     vdW  Elec       q    Type
REMARK                         _______ _______ _______ _____ _____    ______ ____
ROOT
ATOM      1  N   UNL     1      32.089 -11.734 -22.447  0.00  0.00    -0.284 N 
ATOM      2  C   UNL     1      32.948 -10.918 -23.147  0.00  0.00    +0.052 C 
ATOM      3  C   UNL     1      33.661 -11.733 -24.029  0.00  0.00    +0.015 C 
ATOM      4  C   UNL     1      33.199 -13.065 -23.833  0.00  0.00    +0.016 C 
ATOM      5  C   UNL     1      32.232 -13.033 -22.854  0.00  0.00    +0.065 C 
ATOM      6  C   UNL     1      33.147  -9.535 -23.068  0.00  0.00    +0.015 C 
ATOM      7  C   UNL     1      34.620 -11.141 -24.875  0.00  0.00    +0.001 C 
ATOM      8  C   UNL     1      31.160 -11.300 -21.426  0.00  0.00    +0.117 C 
ATOM      9  C   UNL     1      34.103  -8.970 -23.916  0.00  0.00    +0.001 C 
ATOM     10  C   UNL     1      34.830  -9.759 -24.807  0.00  0.00    +0.000 C 
ENDROOT
BRANCH   4  11
ATOM     11  C   UNL     1      33.623 -14.238 -24.497  0.00  0.00    +0.004 C 
ATOM     12  C   UNL     1      34.133 -15.325 -23.873  0.00  0.00    +0.038 C 
BRANCH  12  14
ATOM     13  O   UNL     1      34.606 -16.524 -25.881  0.00  0.00    -0.291 OA
ATOM     14  C   UNL     1      34.574 -16.518 -24.653  0.00  0.00    +0.174 C 
ATOM     15  C   UNL     1      34.961 -17.740 -23.861  0.00  0.00    +0.077 C 
ENDBRANCH  12  14
ENDBRANCH   4  11
TORSDOF 2
ENDMDL
MODEL 9
REMARK VINA RESULT:      -7.4      4.308      6.702
REMARK  Name = 736407
REMARK  2 active torsions:
REMARK  status: ('A' for Active; 'I' for Inactive)
REMARK    1  A    between atoms: C_4  and  C_11
REMARK    2  A    between atoms: C_12  and  C_14
REMARK                            x       y       z     vdW  Elec       q    Type
REMARK                         _______ _______ _______ _____ _____    ______ ____
ROOT
ATOM      1  N   UNL     1      33.377 -14.981 -24.519  0.00  0.00    -0.284 N 
ATOM      2  C   UNL     1      33.948 -15.606 -23.434  0.00  0.00    +0.052 C 
ATOM      3  C   UNL     1      33.603 -14.862 -22.303  0.00  0.00    +0.015 C 
ATOM      4  C   UNL     1      32.806 -13.770 -22.749  0.00  0.00    +0.016 C 
ATOM      5  C   UNL     1      32.685 -13.871 -24.116  0.00  0.00    +0.065 C 
ATOM      6  C   UNL     1      34.735 -16.761 -23.366  0.00  0.00    +0.015 C 
ATOM      7  C   UNL     1      34.065 -15.290 -21.043  0.00  0.00    +0.001 C 
ATOM      8  C   UNL     1      33.481 -15.420 -25.894  0.00  0.00    +0.117 C 
ATOM      9  C   UNL     1      35.182 -17.166 -22.105  0.00  0.00    +0.001 C 
ATOM     10  C   UNL     1      34.854 -16.443 -20.960  0.00  0.00    +0.000 C 
ENDROOT
BRANCH   4  11
ATOM     11  C   UNL     1      32.224 -12.745 -21.971  0.00  0.00    +0.004 C 
ATOM     12  C   UNL     1      32.162 -11.446 -22.343  0.00  0.00    +0.038 C 
BRANCH  12  14
ATOM     13  O   UNL     1      31.533  -9.226 -21.734  0.00  0.00    -0.291 OA
ATOM     14  C   UNL     1      31.544 -10.422 -21.452  0.00  0.00    +0.174 C 
ATOM     15  C   UNL     1      30.945 -10.920 -20.161  0.00  0.00    +0.077 C 
ENDBRANCH  12  14
ENDBRANCH   4  11
TORSDOF 2
ENDMDL
