MODEL 1
REMARK VINA RESULT:     -11.0      0.000      0.000
REMARK  Name = 22609888
REMARK  5 active torsions:
REMARK  status: ('A' for Active; 'I' for Inactive)
REMARK    1  A    between atoms: C_5  and  C_18
REMARK    2  A    between atoms: C_6  and  O_22
REMARK    3  A    between atoms: C_9  and  C_12
REMARK    4  A    between atoms: O_22  and  C_23
REMARK    5  A    between atoms: C_23  and  C_27
REMARK                            x       y       z     vdW  Elec       q    Type
REMARK                         _______ _______ _______ _____ _____    ______ ____
ROOT
ATOM      1  N   UNL     1      33.900 -23.787 -14.827  0.00  0.00    -0.188 N 
ATOM      2  N   UNL     1      33.896 -23.509 -16.157  0.00  0.00    -0.125 NA
ATOM      3  N   UNL     1      33.227 -24.122 -12.763  0.00  0.00    -0.127 NA
ATOM      4  N   UNL     1      34.593 -24.313 -12.815  0.00  0.00    -0.127 NA
ATOM      5  C   UNL     1      31.440 -23.214 -15.825  0.00  0.00    +0.035 C 
ATOM      6  C   UNL     1      32.708 -23.242 -16.595  0.00  0.00    +0.239 C 
ATOM      7  C   UNL     1      31.549 -23.504 -14.518  0.00  0.00    +0.041 C 
ATOM      8  C   UNL     1      32.818 -23.807 -13.975  0.00  0.00    +0.187 A 
ATOM      9  C   UNL     1      34.978 -24.108 -14.056  0.00  0.00    +0.191 A 
ENDROOT
BRANCH   9  12
ATOM     10  F   UNL     1      36.215 -21.985 -15.406  0.00  0.00    -0.204 F 
ATOM     11  F   UNL     1      36.521 -26.427 -13.731  0.00  0.00    -0.204 F 
ATOM     12  C   UNL     1      36.328 -24.203 -14.554  0.00  0.00    +0.092 C 
ATOM     13  C   UNL     1      36.904 -23.121 -15.219  0.00  0.00    +0.145 C 
ATOM     14  C   UNL     1      37.059 -25.376 -14.370  0.00  0.00    +0.145 C 
ATOM     15  C   UNL     1      38.210 -23.212 -15.700  0.00  0.00    +0.030 C 
ATOM     16  C   UNL     1      38.365 -25.468 -14.851  0.00  0.00    +0.030 C 
ATOM     17  C   UNL     1      38.941 -24.385 -15.516  0.00  0.00    +0.005 C 
ENDBRANCH   9  12
BRANCH   5  18
ATOM     18  C   UNL     1      30.130 -22.893 -16.428  0.00  0.00    +0.027 C 
ATOM     19  C   UNL     1      29.099 -22.254 -15.474  0.00  0.00    +0.005 C 
ATOM     20  C   UNL     1      29.152 -24.080 -16.565  0.00  0.00    +0.005 C 
ATOM     21  C   UNL     1      28.024 -23.093 -16.195  0.00  0.00    +0.001 C 
ENDBRANCH   5  18
BRANCH   6  22
ATOM     22  O   UNL     1      32.509 -22.939 -17.895  0.00  0.00    -0.451 OA
BRANCH  22  23
ATOM     23  C   UNL     1      33.700 -22.910 -18.665  0.00  0.00    +0.269 C 
BRANCH  23  27
ATOM     24  N   UNL     1      34.807 -21.008 -19.880  0.00  0.00    -0.192 N 
ATOM     25  N   UNL     1      32.623 -20.968 -19.853  0.00  0.00    -0.207 NA
ATOM     26  N   UNL     1      34.512 -19.895 -20.568  0.00  0.00    -0.154 NA
ATOM     27  C   UNL     1      33.679 -21.640 -19.458  0.00  0.00    +0.174 C 
ATOM     28  C   UNL     1      36.180 -21.394 -19.672  0.00  0.00    +0.141 C 
ATOM     29  C   UNL     1      33.177 -19.916 -20.522  0.00  0.00    +0.218 C 
ENDBRANCH  23  27
ENDBRANCH  22  23
ENDBRANCH   6  22
TORSDOF 5
ENDMDL
MODEL 2
REMARK VINA RESULT:     -11.0      0.066      1.539
REMARK  Name = 22609888
REMARK  5 active torsions:
REMARK  status: ('A' for Active; 'I' for Inactive)
REMARK    1  A    between atoms: C_5  and  C_18
REMARK    2  A    between atoms: C_6  and  O_22
REMARK    3  A    between atoms: C_9  and  C_12
REMARK    4  A    between atoms: O_22  and  C_23
REMARK    5  A    between atoms: C_23  and  C_27
REMARK                            x       y       z     vdW  Elec       q    Type
REMARK                         _______ _______ _______ _____ _____    ______ ____
ROOT
ATOM      1  N   UNL     1      33.855 -23.758 -14.855  0.00  0.00    -0.188 N 
ATOM      2  N   UNL     1      33.858 -23.467 -16.182  0.00  0.00    -0.125 NA
ATOM      3  N   UNL     1      33.170 -24.112 -12.798  0.00  0.00    -0.127 NA
ATOM      4  N   UNL     1      34.536 -24.298 -12.843  0.00  0.00    -0.127 NA
ATOM      5  C   UNL     1      31.399 -23.184 -15.864  0.00  0.00    +0.035 C 
ATOM      6  C   UNL     1      32.673 -23.201 -16.626  0.00  0.00    +0.239 C 
ATOM      7  C   UNL     1      31.501 -23.485 -14.559  0.00  0.00    +0.041 C 
ATOM      8  C   UNL     1      32.767 -23.788 -14.010  0.00  0.00    +0.187 A 
ATOM      9  C   UNL     1      34.929 -24.081 -14.080  0.00  0.00    +0.191 A 
ENDROOT
BRANCH   9  12
ATOM     10  F   UNL     1      36.463 -26.411 -13.802  0.00  0.00    -0.204 F 
ATOM     11  F   UNL     1      36.181 -21.928 -15.366  0.00  0.00    -0.204 F 
ATOM     12  C   UNL     1      36.283 -24.167 -14.570  0.00  0.00    +0.092 C 
ATOM     13  C   UNL     1      37.009 -25.347 -14.411  0.00  0.00    +0.145 C 
ATOM     14  C   UNL     1      36.866 -23.070 -15.204  0.00  0.00    +0.145 C 
ATOM     15  C   UNL     1      38.318 -25.430 -14.885  0.00  0.00    +0.030 C 
ATOM     16  C   UNL     1      38.174 -23.153 -15.679  0.00  0.00    +0.030 C 
ATOM     17  C   UNL     1      38.901 -24.333 -15.520  0.00  0.00    +0.005 C 
ENDBRANCH   9  12
BRANCH   5  18
ATOM     18  C   UNL     1      30.092 -22.862 -16.472  0.00  0.00    +0.027 C 
ATOM     19  C   UNL     1      29.041 -22.269 -15.512  0.00  0.00    +0.005 C 
ATOM     20  C   UNL     1      29.134 -24.058 -16.660  0.00  0.00    +0.005 C 
ATOM     21  C   UNL     1      27.987 -23.100 -16.273  0.00  0.00    +0.001 C 
ENDBRANCH   5  18
BRANCH   6  22
ATOM     22  O   UNL     1      32.481 -22.888 -17.925  0.00  0.00    -0.451 OA
BRANCH  22  23
ATOM     23  C   UNL     1      33.674 -22.873 -18.692  0.00  0.00    +0.269 C 
BRANCH  23  27
ATOM     24  N   UNL     1      34.802 -20.991 -19.917  0.00  0.00    -0.192 N 
ATOM     25  N   UNL     1      32.618 -20.922 -19.884  0.00  0.00    -0.207 NA
ATOM     26  N   UNL     1      34.519 -19.876 -20.609  0.00  0.00    -0.154 NA
ATOM     27  C   UNL     1      33.667 -21.606 -19.490  0.00  0.00    +0.174 C 
ATOM     28  C   UNL     1      36.170 -21.394 -19.712  0.00  0.00    +0.141 C 
ATOM     29  C   UNL     1      33.184 -19.880 -20.559  0.00  0.00    +0.218 C 
ENDBRANCH  23  27
ENDBRANCH  22  23
ENDBRANCH   6  22
TORSDOF 5
ENDMDL
MODEL 3
REMARK VINA RESULT:     -10.7      2.164      5.945
REMARK  Name = 22609888
REMARK  5 active torsions:
REMARK  status: ('A' for Active; 'I' for Inactive)
REMARK    1  A    between atoms: C_5  and  C_18
REMARK    2  A    between atoms: C_6  and  O_22
REMARK    3  A    between atoms: C_9  and  C_12
REMARK    4  A    between atoms: O_22  and  C_23
REMARK    5  A    between atoms: C_23  and  C_27
REMARK                            x       y       z     vdW  Elec       q    Type
REMARK                         _______ _______ _______ _____ _____    ______ ____
ROOT
ATOM      1  N   UNL     1      32.142 -23.947 -15.030  0.00  0.00    -0.188 N 
ATOM      2  N   UNL     1      32.596 -23.370 -16.173  0.00  0.00    -0.125 NA
ATOM      3  N   UNL     1      32.089 -24.941 -13.072  0.00  0.00    -0.127 NA
ATOM      4  N   UNL     1      30.791 -24.716 -13.484  0.00  0.00    -0.127 NA
ATOM      5  C   UNL     1      34.849 -23.878 -15.226  0.00  0.00    +0.035 C 
ATOM      6  C   UNL     1      33.889 -23.355 -16.230  0.00  0.00    +0.239 C 
ATOM      7  C   UNL     1      34.301 -24.429 -14.131  0.00  0.00    +0.041 C 
ATOM      8  C   UNL     1      32.894 -24.476 -14.004  0.00  0.00    +0.187 A 
ATOM      9  C   UNL     1      30.842 -24.122 -14.656  0.00  0.00    +0.191 A 
ENDROOT
BRANCH   9  12
ATOM     10  F   UNL     1      29.745 -25.759 -16.651  0.00  0.00    -0.204 F 
ATOM     11  F   UNL     1      29.609 -21.630 -14.293  0.00  0.00    -0.204 F 
ATOM     12  C   UNL     1      29.710 -23.707 -15.449  0.00  0.00    +0.092 C 
ATOM     13  C   UNL     1      29.197 -24.554 -16.430  0.00  0.00    +0.145 C 
ATOM     14  C   UNL     1      29.128 -22.457 -15.233  0.00  0.00    +0.145 C 
ATOM     15  C   UNL     1      28.102 -24.153 -17.196  0.00  0.00    +0.030 C 
ATOM     16  C   UNL     1      28.034 -22.056 -15.999  0.00  0.00    +0.030 C 
ATOM     17  C   UNL     1      27.520 -22.904 -16.981  0.00  0.00    +0.005 C 
ENDBRANCH   9  12
BRANCH   5  18
ATOM     18  C   UNL     1      36.316 -23.811 -15.393  0.00  0.00    +0.027 C 
ATOM     19  C   UNL     1      37.079 -25.117 -15.090  0.00  0.00    +0.005 C 
ATOM     20  C   UNL     1      37.090 -23.176 -14.218  0.00  0.00    +0.005 C 
ATOM     21  C   UNL     1      38.182 -24.238 -14.466  0.00  0.00    +0.001 C 
ENDBRANCH   5  18
BRANCH   6  22
ATOM     22  O   UNL     1      34.522 -22.821 -17.296  0.00  0.00    -0.451 OA
BRANCH  22  23
ATOM     23  C   UNL     1      33.918 -23.139 -18.538  0.00  0.00    +0.269 C 
BRANCH  23  27
ATOM     24  N   UNL     1      34.876 -21.204 -19.825  0.00  0.00    -0.192 N 
ATOM     25  N   UNL     1      32.703 -21.206 -19.600  0.00  0.00    -0.207 NA
ATOM     26  N   UNL     1      34.500 -20.090 -20.471  0.00  0.00    -0.154 NA
ATOM     27  C   UNL     1      33.803 -21.862 -19.311  0.00  0.00    +0.174 C 
ATOM     28  C   UNL     1      36.269 -21.567 -19.747  0.00  0.00    +0.141 C 
ATOM     29  C   UNL     1      33.176 -20.136 -20.304  0.00  0.00    +0.218 C 
ENDBRANCH  23  27
ENDBRANCH  22  23
ENDBRANCH   6  22
TORSDOF 5
ENDMDL
MODEL 4
REMARK VINA RESULT:     -10.1      2.318      4.950
REMARK  Name = 22609888
REMARK  5 active torsions:
REMARK  status: ('A' for Active; 'I' for Inactive)
REMARK    1  A    between atoms: C_5  and  C_18
REMARK    2  A    between atoms: C_6  and  O_22
REMARK    3  A    between atoms: C_9  and  C_12
REMARK    4  A    between atoms: O_22  and  C_23
REMARK    5  A    between atoms: C_23  and  C_27
REMARK                            x       y       z     vdW  Elec       q    Type
REMARK                         _______ _______ _______ _____ _____    ______ ____
ROOT
ATOM      1  N   UNL     1      36.079 -23.044 -16.364  0.00  0.00    -0.188 N 
ATOM      2  N   UNL     1      34.801 -23.499 -16.319  0.00  0.00    -0.125 NA
ATOM      3  N   UNL     1      37.905 -22.011 -17.018  0.00  0.00    -0.127 NA
ATOM      4  N   UNL     1      38.176 -22.679 -15.841  0.00  0.00    -0.127 NA
ATOM      5  C   UNL     1      34.541 -22.217 -18.444  0.00  0.00    +0.035 C 
ATOM      6  C   UNL     1      34.099 -23.085 -17.324  0.00  0.00    +0.239 C 
ATOM      7  C   UNL     1      35.823 -21.819 -18.398  0.00  0.00    +0.041 C 
ATOM      8  C   UNL     1      36.644 -22.234 -17.326  0.00  0.00    +0.187 A 
ATOM      9  C   UNL     1      37.075 -23.291 -15.465  0.00  0.00    +0.191 A 
ENDROOT
BRANCH   9  12
ATOM     10  F   UNL     1      38.526 -25.660 -15.089  0.00  0.00    -0.204 F 
ATOM     11  F   UNL     1      35.293 -22.598 -13.414  0.00  0.00    -0.204 F 
ATOM     12  C   UNL     1      36.914 -24.106 -14.286  0.00  0.00    +0.092 C 
ATOM     13  C   UNL     1      37.658 -25.277 -14.140  0.00  0.00    +0.145 C 
ATOM     14  C   UNL     1      36.016 -23.722 -13.290  0.00  0.00    +0.145 C 
ATOM     15  C   UNL     1      37.503 -26.064 -12.999  0.00  0.00    +0.030 C 
ATOM     16  C   UNL     1      35.861 -24.509 -12.149  0.00  0.00    +0.030 C 
ATOM     17  C   UNL     1      36.605 -25.680 -12.003  0.00  0.00    +0.005 C 
ENDBRANCH   9  12
BRANCH   5  18
ATOM     18  C   UNL     1      33.653 -21.802 -19.550  0.00  0.00    +0.027 C 
ATOM     19  C   UNL     1      34.202 -20.683 -20.458  0.00  0.00    +0.005 C 
ATOM     20  C   UNL     1      32.520 -20.827 -19.163  0.00  0.00    +0.005 C 
ATOM     21  C   UNL     1      32.764 -20.130 -20.518  0.00  0.00    +0.001 C 
ENDBRANCH   5  18
BRANCH   6  22
ATOM     22  O   UNL     1      32.803 -23.439 -17.448  0.00  0.00    -0.451 OA
BRANCH  22  23
ATOM     23  C   UNL     1      32.190 -23.804 -16.222  0.00  0.00    +0.269 C 
BRANCH  23  27
ATOM     24  N   UNL     1      29.754 -24.224 -15.765  0.00  0.00    -0.192 N 
ATOM     25  N   UNL     1      30.196 -22.477 -17.002  0.00  0.00    -0.207 NA
ATOM     26  N   UNL     1      28.539 -23.719 -16.030  0.00  0.00    -0.154 NA
ATOM     27  C   UNL     1      30.733 -23.480 -16.346  0.00  0.00    +0.174 C 
ATOM     28  C   UNL     1      29.891 -25.408 -14.956  0.00  0.00    +0.141 C 
ATOM     29  C   UNL     1      28.862 -22.664 -16.782  0.00  0.00    +0.218 C 
ENDBRANCH  23  27
ENDBRANCH  22  23
ENDBRANCH   6  22
TORSDOF 5
ENDMDL
MODEL 5
REMARK VINA RESULT:      -9.9     11.006     15.120
REMARK  Name = 22609888
REMARK  5 active torsions:
REMARK  status: ('A' for Active; 'I' for Inactive)
REMARK    1  A    between atoms: C_5  and  C_18
REMARK    2  A    between atoms: C_6  and  O_22
REMARK    3  A    between atoms: C_9  and  C_12
REMARK    4  A    between atoms: O_22  and  C_23
REMARK    5  A    between atoms: C_23  and  C_27
REMARK                            x       y       z     vdW  Elec       q    Type
REMARK                         _______ _______ _______ _____ _____    ______ ____
ROOT
ATOM      1  N   UNL     1      32.308  -9.600 -21.793  0.00  0.00    -0.188 N 
ATOM      2  N   UNL     1      32.360 -10.362 -22.916  0.00  0.00    -0.125 NA
ATOM      3  N   UNL     1      32.168  -8.997 -19.685  0.00  0.00    -0.127 NA
ATOM      4  N   UNL     1      32.289  -7.861 -20.459  0.00  0.00    -0.127 NA
ATOM      5  C   UNL     1      32.133 -12.269 -21.323  0.00  0.00    +0.035 C 
ATOM      6  C   UNL     1      32.275 -11.626 -22.653  0.00  0.00    +0.239 C 
ATOM      7  C   UNL     1      32.090 -11.431 -20.275  0.00  0.00    +0.041 C 
ATOM      8  C   UNL     1      32.180 -10.037 -20.493  0.00  0.00    +0.187 A 
ATOM      9  C   UNL     1      32.371  -8.240 -21.716  0.00  0.00    +0.191 A 
ENDROOT
BRANCH   9  12
ATOM     10  F   UNL     1      34.799  -7.965 -23.090  0.00  0.00    -0.204 F 
ATOM     11  F   UNL     1      30.223  -6.727 -22.696  0.00  0.00    -0.204 F 
ATOM     12  C   UNL     1      32.507  -7.372 -22.859  0.00  0.00    +0.092 C 
ATOM     13  C   UNL     1      33.735  -7.266 -23.513  0.00  0.00    +0.145 C 
ATOM     14  C   UNL     1      31.411  -6.637 -23.312  0.00  0.00    +0.145 C 
ATOM     15  C   UNL     1      33.866  -6.427 -24.619  0.00  0.00    +0.030 C 
ATOM     16  C   UNL     1      31.543  -5.798 -24.419  0.00  0.00    +0.030 C 
ATOM     17  C   UNL     1      32.770  -5.693 -25.073  0.00  0.00    +0.005 C 
ENDBRANCH   9  12
BRANCH   5  18
ATOM     18  C   UNL     1      32.042 -13.732 -21.133  0.00  0.00    +0.027 C 
ATOM     19  C   UNL     1      32.114 -14.218 -19.671  0.00  0.00    +0.005 C 
ATOM     20  C   UNL     1      33.348 -14.517 -21.378  0.00  0.00    +0.005 C 
ATOM     21  C   UNL     1      32.942 -15.412 -20.188  0.00  0.00    +0.001 C 
ENDBRANCH   5  18
BRANCH   6  22
ATOM     22  O   UNL     1      32.309 -12.537 -23.648  0.00  0.00    -0.451 OA
BRANCH  22  23
ATOM     23  C   UNL     1      33.571 -12.642 -24.286  0.00  0.00    +0.269 C 
BRANCH  23  27
ATOM     24  N   UNL     1      33.368 -14.114 -26.312  0.00  0.00    -0.192 N 
ATOM     25  N   UNL     1      33.851 -15.139 -24.444  0.00  0.00    -0.207 NA
ATOM     26  N   UNL     1      33.457 -15.401 -26.682  0.00  0.00    -0.154 NA
ATOM     27  C   UNL     1      33.603 -13.967 -24.981  0.00  0.00    +0.174 C 
ATOM     28  C   UNL     1      33.057 -13.097 -27.284  0.00  0.00    +0.141 C 
ATOM     29  C   UNL     1      33.751 -15.980 -25.514  0.00  0.00    +0.218 C 
ENDBRANCH  23  27
ENDBRANCH  22  23
ENDBRANCH   6  22
TORSDOF 5
ENDMDL
MODEL 6
REMARK VINA RESULT:      -9.9     11.010     15.105
REMARK  Name = 22609888
REMARK  5 active torsions:
REMARK  status: ('A' for Active; 'I' for Inactive)
REMARK    1  A    between atoms: C_5  and  C_18
REMARK    2  A    between atoms: C_6  and  O_22
REMARK    3  A    between atoms: C_9  and  C_12
REMARK    4  A    between atoms: O_22  and  C_23
REMARK    5  A    between atoms: C_23  and  C_27
REMARK                            x       y       z     vdW  Elec       q    Type
REMARK                         _______ _______ _______ _____ _____    ______ ____
ROOT
ATOM      1  N   UNL     1      32.300  -9.596 -21.794  0.00  0.00    -0.188 N 
ATOM      2  N   UNL     1      32.354 -10.355 -22.919  0.00  0.00    -0.125 NA
ATOM      3  N   UNL     1      32.162  -8.997 -19.685  0.00  0.00    -0.127 NA
ATOM      4  N   UNL     1      32.278  -7.859 -20.458  0.00  0.00    -0.127 NA
ATOM      5  C   UNL     1      32.136 -12.267 -21.329  0.00  0.00    +0.035 C 
ATOM      6  C   UNL     1      32.274 -11.620 -22.658  0.00  0.00    +0.239 C 
ATOM      7  C   UNL     1      32.092 -11.430 -20.279  0.00  0.00    +0.041 C 
ATOM      8  C   UNL     1      32.177 -10.036 -20.494  0.00  0.00    +0.187 A 
ATOM      9  C   UNL     1      32.359  -8.236 -21.715  0.00  0.00    +0.191 A 
ENDROOT
BRANCH   9  12
ATOM     10  F   UNL     1      30.206  -6.726 -22.687  0.00  0.00    -0.204 F 
ATOM     11  F   UNL     1      34.784  -7.953 -23.093  0.00  0.00    -0.204 F 
ATOM     12  C   UNL     1      32.491  -7.365 -22.857  0.00  0.00    +0.092 C 
ATOM     13  C   UNL     1      31.393  -6.631 -23.306  0.00  0.00    +0.145 C 
ATOM     14  C   UNL     1      33.717  -7.255 -23.512  0.00  0.00    +0.145 C 
ATOM     15  C   UNL     1      31.520  -5.788 -24.410  0.00  0.00    +0.030 C 
ATOM     16  C   UNL     1      33.845  -6.412 -24.616  0.00  0.00    +0.030 C 
ATOM     17  C   UNL     1      32.747  -5.678 -25.065  0.00  0.00    +0.005 C 
ENDBRANCH   9  12
BRANCH   5  18
ATOM     18  C   UNL     1      32.050 -13.730 -21.142  0.00  0.00    +0.027 C 
ATOM     19  C   UNL     1      32.107 -14.216 -19.679  0.00  0.00    +0.005 C 
ATOM     20  C   UNL     1      33.364 -14.507 -21.371  0.00  0.00    +0.005 C 
ATOM     21  C   UNL     1      32.947 -15.406 -20.187  0.00  0.00    +0.001 C 
ENDBRANCH   5  18
BRANCH   6  22
ATOM     22  O   UNL     1      32.309 -12.530 -23.654  0.00  0.00    -0.451 OA
BRANCH  22  23
ATOM     23  C   UNL     1      33.576 -12.641 -24.282  0.00  0.00    +0.269 C 
BRANCH  23  27
ATOM     24  N   UNL     1      33.376 -14.112 -26.311  0.00  0.00    -0.192 N 
ATOM     25  N   UNL     1      33.846 -15.140 -24.441  0.00  0.00    -0.207 NA
ATOM     26  N   UNL     1      33.462 -15.399 -26.681  0.00  0.00    -0.154 NA
ATOM     27  C   UNL     1      33.606 -13.967 -24.978  0.00  0.00    +0.174 C 
ATOM     28  C   UNL     1      33.074 -13.092 -27.283  0.00  0.00    +0.141 C 
ATOM     29  C   UNL     1      33.747 -15.979 -25.512  0.00  0.00    +0.218 C 
ENDBRANCH  23  27
ENDBRANCH  22  23
ENDBRANCH   6  22
TORSDOF 5
ENDMDL
MODEL 7
REMARK VINA RESULT:      -9.8     11.313     15.148
REMARK  Name = 22609888
REMARK  5 active torsions:
REMARK  status: ('A' for Active; 'I' for Inactive)
REMARK    1  A    between atoms: C_5  and  C_18
REMARK    2  A    between atoms: C_6  and  O_22
REMARK    3  A    between atoms: C_9  and  C_12
REMARK    4  A    between atoms: O_22  and  C_23
REMARK    5  A    between atoms: C_23  and  C_27
REMARK                            x       y       z     vdW  Elec       q    Type
REMARK                         _______ _______ _______ _____ _____    ______ ____
ROOT
ATOM      1  N   UNL     1      32.241  -9.623 -21.707  0.00  0.00    -0.188 N 
ATOM      2  N   UNL     1      32.398 -10.382 -22.823  0.00  0.00    -0.125 NA
ATOM      3  N   UNL     1      31.930  -9.025 -19.617  0.00  0.00    -0.127 NA
ATOM      4  N   UNL     1      32.073  -7.885 -20.382  0.00  0.00    -0.127 NA
ATOM      5  C   UNL     1      32.113 -12.296 -21.247  0.00  0.00    +0.035 C 
ATOM      6  C   UNL     1      32.332 -11.648 -22.564  0.00  0.00    +0.239 C 
ATOM      7  C   UNL     1      31.969 -11.460 -20.206  0.00  0.00    +0.041 C 
ATOM      8  C   UNL     1      32.033 -10.064 -20.419  0.00  0.00    +0.187 A 
ATOM      9  C   UNL     1      32.257  -8.261 -21.628  0.00  0.00    +0.191 A 
ENDROOT
BRANCH   9  12
ATOM     10  F   UNL     1      34.714  -8.088 -22.967  0.00  0.00    -0.204 F 
ATOM     11  F   UNL     1      30.197  -6.638 -22.619  0.00  0.00    -0.204 F 
ATOM     12  C   UNL     1      32.450  -7.388 -22.760  0.00  0.00    +0.092 C 
ATOM     13  C   UNL     1      33.690  -7.335 -23.397  0.00  0.00    +0.145 C 
ATOM     14  C   UNL     1      31.396  -6.598 -23.220  0.00  0.00    +0.145 C 
ATOM     15  C   UNL     1      33.876  -6.491 -24.492  0.00  0.00    +0.030 C 
ATOM     16  C   UNL     1      31.582  -5.755 -24.315  0.00  0.00    +0.030 C 
ATOM     17  C   UNL     1      32.822  -5.701 -24.951  0.00  0.00    +0.005 C 
ENDBRANCH   9  12
BRANCH   5  18
ATOM     18  C   UNL     1      32.053 -13.761 -21.062  0.00  0.00    +0.027 C 
ATOM     19  C   UNL     1      32.254 -14.256 -19.616  0.00  0.00    +0.005 C 
ATOM     20  C   UNL     1      33.341 -14.530 -21.424  0.00  0.00    +0.005 C 
ATOM     21  C   UNL     1      33.046 -15.438 -20.211  0.00  0.00    +0.001 C 
ENDBRANCH   5  18
BRANCH   6  22
ATOM     22  O   UNL     1      32.466 -12.557 -23.553  0.00  0.00    -0.451 OA
BRANCH  22  23
ATOM     23  C   UNL     1      33.749 -12.563 -24.156  0.00  0.00    +0.269 C 
BRANCH  23  27
ATOM     24  N   UNL     1      33.588 -14.515 -25.731  0.00  0.00    -0.192 N 
ATOM     25  N   UNL     1      33.444 -12.540 -26.655  0.00  0.00    -0.207 NA
ATOM     26  N   UNL     1      33.434 -14.796 -27.034  0.00  0.00    -0.154 NA
ATOM     27  C   UNL     1      33.593 -13.172 -25.514  0.00  0.00    +0.174 C 
ATOM     28  C   UNL     1      33.721 -15.577 -24.766  0.00  0.00    +0.141 C 
ATOM     29  C   UNL     1      33.353 -13.567 -27.550  0.00  0.00    +0.218 C 
ENDBRANCH  23  27
ENDBRANCH  22  23
ENDBRANCH   6  22
TORSDOF 5
ENDMDL
MODEL 8
REMARK VINA RESULT:      -9.5      7.373     11.046
REMARK  Name = 22609888
REMARK  5 active torsions:
REMARK  status: ('A' for Active; 'I' for Inactive)
REMARK    1  A    between atoms: C_5  and  C_18
REMARK    2  A    between atoms: C_6  and  O_22
REMARK    3  A    between atoms: C_9  and  C_12
REMARK    4  A    between atoms: O_22  and  C_23
REMARK    5  A    between atoms: C_23  and  C_27
REMARK                            x       y       z     vdW  Elec       q    Type
REMARK                         _______ _______ _______ _____ _____    ______ ____
ROOT
ATOM      1  N   UNL     1      34.435 -17.107 -23.495  0.00  0.00    -0.188 N 
ATOM      2  N   UNL     1      34.181 -16.240 -22.480  0.00  0.00    -0.125 NA
ATOM      3  N   UNL     1      34.657 -17.955 -25.508  0.00  0.00    -0.127 NA
ATOM      4  N   UNL     1      34.995 -18.924 -24.585  0.00  0.00    -0.127 NA
ATOM      5  C   UNL     1      33.618 -14.653 -24.323  0.00  0.00    +0.035 C 
ATOM      6  C   UNL     1      33.796 -15.083 -22.913  0.00  0.00    +0.239 C 
ATOM      7  C   UNL     1      33.895 -15.583 -25.252  0.00  0.00    +0.041 C 
ATOM      8  C   UNL     1      34.322 -16.867 -24.847  0.00  0.00    +0.187 A 
ATOM      9  C   UNL     1      34.856 -18.400 -23.387  0.00  0.00    +0.191 A 
ENDROOT
BRANCH   9  12
ATOM     10  F   UNL     1      32.822 -19.719 -21.979  0.00  0.00    -0.204 F 
ATOM     11  F   UNL     1      37.401 -18.454 -22.213  0.00  0.00    -0.204 F 
ATOM     12  C   UNL     1      35.104 -19.067 -22.133  0.00  0.00    +0.092 C 
ATOM     13  C   UNL     1      34.062 -19.712 -21.467  0.00  0.00    +0.145 C 
ATOM     14  C   UNL     1      36.387 -19.068 -21.585  0.00  0.00    +0.145 C 
ATOM     15  C   UNL     1      34.302 -20.358 -20.254  0.00  0.00    +0.030 C 
ATOM     16  C   UNL     1      36.628 -19.714 -20.373  0.00  0.00    +0.030 C 
ATOM     17  C   UNL     1      35.586 -20.359 -19.707  0.00  0.00    +0.005 C 
ENDBRANCH   9  12
BRANCH   5  18
ATOM     18  C   UNL     1      33.169 -13.299 -24.709  0.00  0.00    +0.027 C 
ATOM     19  C   UNL     1      33.354 -12.938 -26.197  0.00  0.00    +0.005 C 
ATOM     20  C   UNL     1      34.154 -12.155 -24.388  0.00  0.00    +0.005 C 
ATOM     21  C   UNL     1      33.728 -11.517 -25.728  0.00  0.00    +0.001 C 
ENDBRANCH   5  18
BRANCH   6  22
ATOM     22  O   UNL     1      33.498 -14.091 -22.047  0.00  0.00    -0.451 OA
BRANCH  22  23
ATOM     23  C   UNL     1      32.106 -13.875 -21.883  0.00  0.00    +0.269 C 
BRANCH  23  27
ATOM     24  N   UNL     1      31.566 -11.468 -21.400  0.00  0.00    -0.192 N 
ATOM     25  N   UNL     1      32.148 -12.671 -19.671  0.00  0.00    -0.207 NA
ATOM     26  N   UNL     1      31.503 -10.595 -20.383  0.00  0.00    -0.154 NA
ATOM     27  C   UNL     1      31.950 -12.699 -20.969  0.00  0.00    +0.174 C 
ATOM     28  C   UNL     1      31.246 -11.050 -22.742  0.00  0.00    +0.141 C 
ATOM     29  C   UNL     1      31.866 -11.372 -19.360  0.00  0.00    +0.218 C 
ENDBRANCH  23  27
ENDBRANCH  22  23
ENDBRANCH   6  22
TORSDOF 5
ENDMDL
MODEL 9
REMARK VINA RESULT:      -9.2     10.994     14.626
REMARK  Name = 22609888
REMARK  5 active torsions:
REMARK  status: ('A' for Active; 'I' for Inactive)
REMARK    1  A    between atoms: C_5  and  C_18
REMARK    2  A    between atoms: C_6  and  O_22
REMARK    3  A    between atoms: C_9  and  C_12
REMARK    4  A    between atoms: O_22  and  C_23
REMARK    5  A    between atoms: C_23  and  C_27
REMARK                            x       y       z     vdW  Elec       q    Type
REMARK                         _______ _______ _______ _____ _____    ______ ____
ROOT
ATOM      1  N   UNL     1      31.960 -10.274 -21.099  0.00  0.00    -0.188 N 
ATOM      2  N   UNL     1      32.088 -10.775 -22.355  0.00  0.00    -0.125 NA
ATOM      3  N   UNL     1      31.826 -10.136 -18.911  0.00  0.00    -0.127 NA
ATOM      4  N   UNL     1      31.704  -8.866 -19.438  0.00  0.00    -0.127 NA
ATOM      5  C   UNL     1      32.283 -12.969 -21.181  0.00  0.00    +0.035 C 
ATOM      6  C   UNL     1      32.240 -12.060 -22.353  0.00  0.00    +0.239 C 
ATOM      7  C   UNL     1      32.148 -12.377 -19.983  0.00  0.00    +0.041 C 
ATOM      8  C   UNL     1      31.979 -10.976 -19.913  0.00  0.00    +0.187 A 
ATOM      9  C   UNL     1      31.786  -8.968 -20.746  0.00  0.00    +0.191 A 
ENDROOT
BRANCH   9  12
ATOM     10  F   UNL     1      32.908  -6.455 -20.211  0.00  0.00    -0.204 F 
ATOM     11  F   UNL     1      30.504  -9.242 -23.224  0.00  0.00    -0.204 F 
ATOM     12  C   UNL     1      31.708  -7.880 -21.690  0.00  0.00    +0.092 C 
ATOM     13  C   UNL     1      32.282  -6.646 -21.382  0.00  0.00    +0.145 C 
ATOM     14  C   UNL     1      31.060  -8.062 -22.912  0.00  0.00    +0.145 C 
ATOM     15  C   UNL     1      32.207  -5.595 -22.296  0.00  0.00    +0.030 C 
ATOM     16  C   UNL     1      30.985  -7.010 -23.825  0.00  0.00    +0.030 C 
ATOM     17  C   UNL     1      31.559  -5.776 -23.517  0.00  0.00    +0.005 C 
ENDBRANCH   9  12
BRANCH   5  18
ATOM     18  C   UNL     1      32.461 -14.431 -21.293  0.00  0.00    +0.027 C 
ATOM     19  C   UNL     1      32.332 -15.219 -19.973  0.00  0.00    +0.005 C 
ATOM     20  C   UNL     1      33.924 -14.921 -21.353  0.00  0.00    +0.005 C 
ATOM     21  C   UNL     1      33.478 -16.116 -20.484  0.00  0.00    +0.001 C 
ENDBRANCH   5  18
BRANCH   6  22
ATOM     22  O   UNL     1      32.383 -12.734 -23.514  0.00  0.00    -0.451 OA
BRANCH  22  23
ATOM     23  C   UNL     1      33.672 -12.614 -24.091  0.00  0.00    +0.269 C 
BRANCH  23  27
ATOM     24  N   UNL     1      33.600 -14.496 -25.755  0.00  0.00    -0.192 N 
ATOM     25  N   UNL     1      33.483 -12.484 -26.599  0.00  0.00    -0.207 NA
ATOM     26  N   UNL     1      33.509 -14.721 -27.075  0.00  0.00    -0.154 NA
ATOM     27  C   UNL     1      33.584 -13.165 -25.481  0.00  0.00    +0.174 C 
ATOM     28  C   UNL     1      33.697 -15.599 -24.832  0.00  0.00    +0.141 C 
ATOM     29  C   UNL     1      33.442 -13.471 -27.541  0.00  0.00    +0.218 C 
ENDBRANCH  23  27
ENDBRANCH  22  23
ENDBRANCH   6  22
TORSDOF 5
ENDMDL
