MODEL 1
REMARK VINA RESULT:      -8.6      0.000      0.000
REMARK  Name = 449486
REMARK  5 active torsions:
REMARK  status: ('A' for Active; 'I' for Inactive)
REMARK    1  A    between atoms: N_3  and  C_14
REMARK    2  A    between atoms: C_9  and  S_12
REMARK    3  A    between atoms: C_14  and  C_17
REMARK    4  A    between atoms: C_14  and  C_20
REMARK    5  A    between atoms: C_20  and  C_21
REMARK                            x       y       z     vdW  Elec       q    Type
REMARK                         _______ _______ _______ _____ _____    ______ ____
ROOT
ATOM      1  S   UNL     1      37.972 -26.277 -14.503  0.00  0.00    -0.024 S 
ATOM      2  O   UNL     1      36.084 -22.462 -16.358  0.00  0.00    -0.252 OA
ATOM      3  N   UNL     1      34.186 -23.764 -16.201  0.00  0.00    -0.282 N 
ATOM      4  N   UNL     1      36.158 -24.646 -15.487  0.00  0.00    -0.247 N 
ATOM      5  N   UNL     1      38.455 -23.907 -15.346  0.00  0.00    -0.125 NA
ATOM      6  N   UNL     1      39.672 -24.406 -14.920  0.00  0.00    -0.133 NA
ATOM      7  C   UNL     1      35.545 -23.520 -16.044  0.00  0.00    +0.306 C 
ATOM      8  C   UNL     1      37.512 -24.784 -15.179  0.00  0.00    +0.190 A 
ATOM      9  C   UNL     1      39.561 -25.634 -14.456  0.00  0.00    +0.157 A 
ATOM     10  H   UNL     1      33.825 -24.638 -15.924  0.00  0.00    +0.151 HD
ATOM     11  H   UNL     1      35.577 -25.417 -15.293  0.00  0.00    +0.158 HD
ENDROOT
BRANCH   9  12
ATOM     12  S   UNL     1      40.934 -26.521 -13.848  0.00  0.00    -0.114 S 
ATOM     13  H   UNL     1      41.630 -25.741 -12.979  0.00  0.00    +0.109 HD
ENDBRANCH   9  12
BRANCH   3  14
ATOM     14  C   UNL     1      33.271 -22.769 -16.761  0.00  0.00    +0.154 C 
BRANCH  14  17
ATOM     15  O   UNL     1      31.884 -23.202 -14.824  0.00  0.00    -0.273 OA
ATOM     16  N   UNL     1      30.849 -22.728 -16.844  0.00  0.00    -0.301 N 
ATOM     17  C   UNL     1      31.947 -22.920 -16.019  0.00  0.00    +0.241 C 
ATOM     18  C   UNL     1      29.495 -22.847 -16.359  0.00  0.00    +0.111 C 
ATOM     19  H   UNL     1      30.997 -22.505 -17.791  0.00  0.00    +0.150 HD
ENDBRANCH  14  17
BRANCH  14  20
ATOM     20  C   UNL     1      33.084 -23.020 -18.265  0.00  0.00    +0.055 C 
BRANCH  20  21
ATOM     21  C   UNL     1      33.690 -21.933 -19.121  0.00  0.00    -0.020 C 
ATOM     22  C   UNL     1      35.058 -21.927 -19.342  0.00  0.00    -0.004 C 
ATOM     23  C   UNL     1      32.866 -20.964 -19.671  0.00  0.00    -0.004 C 
ATOM     24  C   UNL     1      35.616 -20.924 -20.134  0.00  0.00    -0.000 C 
ATOM     25  C   UNL     1      33.425 -19.961 -20.463  0.00  0.00    -0.000 C 
ATOM     26  C   UNL     1      34.801 -19.941 -20.694  0.00  0.00    -0.000 C 
ENDBRANCH  20  21
ENDBRANCH  14  20
ENDBRANCH   3  14
TORSDOF 5
ENDMDL
MODEL 2
REMARK VINA RESULT:      -8.4     11.159     13.637
REMARK  Name = 449486
REMARK  5 active torsions:
REMARK  status: ('A' for Active; 'I' for Inactive)
REMARK    1  A    between atoms: N_3  and  C_14
REMARK    2  A    between atoms: C_9  and  S_12
REMARK    3  A    between atoms: C_14  and  C_17
REMARK    4  A    between atoms: C_14  and  C_20
REMARK    5  A    between atoms: C_20  and  C_21
REMARK                            x       y       z     vdW  Elec       q    Type
REMARK                         _______ _______ _______ _____ _____    ______ ____
ROOT
ATOM      1  S   UNL     1      34.576 -15.965 -21.924  0.00  0.00    -0.024 S 
ATOM      2  O   UNL     1      33.410 -12.833 -25.147  0.00  0.00    -0.252 OA
ATOM      3  N   UNL     1      33.325 -11.479 -23.280  0.00  0.00    -0.282 N 
ATOM      4  N   UNL     1      33.884 -13.666 -22.999  0.00  0.00    -0.247 N 
ATOM      5  N   UNL     1      34.165 -15.597 -24.426  0.00  0.00    -0.125 NA
ATOM      6  N   UNL     1      34.504 -16.932 -24.295  0.00  0.00    -0.133 NA
ATOM      7  C   UNL     1      33.530 -12.689 -23.932  0.00  0.00    +0.306 C 
ATOM      8  C   UNL     1      34.170 -15.005 -23.269  0.00  0.00    +0.190 A 
ATOM      9  C   UNL     1      34.744 -17.255 -23.042  0.00  0.00    +0.157 A 
ATOM     10  H   UNL     1      33.442 -11.441 -22.303  0.00  0.00    +0.151 HD
ATOM     11  H   UNL     1      33.937 -13.382 -22.057  0.00  0.00    +0.158 HD
ENDROOT
BRANCH   9  12
ATOM     12  S   UNL     1      35.195 -18.874 -22.574  0.00  0.00    -0.114 S 
ATOM     13  H   UNL     1      35.937 -18.827 -21.435  0.00  0.00    +0.109 HD
ENDBRANCH   9  12
BRANCH   3  14
ATOM     14  C   UNL     1      32.943 -10.260 -23.993  0.00  0.00    +0.154 C 
BRANCH  14  17
ATOM     15  O   UNL     1      35.318  -9.784 -24.010  0.00  0.00    -0.273 OA
ATOM     16  N   UNL     1      33.831  -8.005 -23.965  0.00  0.00    -0.301 N 
ATOM     17  C   UNL     1      34.167  -9.350 -23.999  0.00  0.00    +0.241 C 
ATOM     18  C   UNL     1      34.832  -6.965 -23.940  0.00  0.00    +0.111 C 
ATOM     19  H   UNL     1      32.880  -7.751 -23.959  0.00  0.00    +0.150 HD
ENDBRANCH  14  17
BRANCH  14  20
ATOM     20  C   UNL     1      31.764  -9.584 -23.277  0.00  0.00    +0.055 C 
BRANCH  20  21
ATOM     21  C   UNL     1      31.716  -9.897 -21.800  0.00  0.00    -0.020 C 
ATOM     22  C   UNL     1      32.228  -8.981 -20.895  0.00  0.00    -0.004 C 
ATOM     23  C   UNL     1      31.160 -11.094 -21.378  0.00  0.00    -0.004 C 
ATOM     24  C   UNL     1      32.182  -9.271 -19.532  0.00  0.00    -0.000 C 
ATOM     25  C   UNL     1      31.114 -11.383 -20.015  0.00  0.00    -0.000 C 
ATOM     26  C   UNL     1      31.626 -10.471 -19.091  0.00  0.00    -0.000 C 
ENDBRANCH  20  21
ENDBRANCH  14  20
ENDBRANCH   3  14
TORSDOF 5
ENDMDL
MODEL 3
REMARK VINA RESULT:      -8.2      4.481      6.662
REMARK  Name = 449486
REMARK  5 active torsions:
REMARK  status: ('A' for Active; 'I' for Inactive)
REMARK    1  A    between atoms: N_3  and  C_14
REMARK    2  A    between atoms: C_9  and  S_12
REMARK    3  A    between atoms: C_14  and  C_17
REMARK    4  A    between atoms: C_14  and  C_20
REMARK    5  A    between atoms: C_20  and  C_21
REMARK                            x       y       z     vdW  Elec       q    Type
REMARK                         _______ _______ _______ _____ _____    ______ ____
ROOT
ATOM      1  S   UNL     1      32.924 -19.852 -20.892  0.00  0.00    -0.024 S 
ATOM      2  O   UNL     1      34.309 -22.959 -17.732  0.00  0.00    -0.252 OA
ATOM      3  N   UNL     1      32.073 -22.850 -17.175  0.00  0.00    -0.282 N 
ATOM      4  N   UNL     1      32.818 -21.556 -18.892  0.00  0.00    -0.247 N 
ATOM      5  N   UNL     1      34.934 -21.162 -19.993  0.00  0.00    -0.125 NA
ATOM      6  N   UNL     1      35.425 -20.392 -21.032  0.00  0.00    -0.133 NA
ATOM      7  C   UNL     1      33.188 -22.494 -17.924  0.00  0.00    +0.306 C 
ATOM      8  C   UNL     1      33.660 -20.962 -19.833  0.00  0.00    +0.190 A 
ATOM      9  C   UNL     1      34.480 -19.662 -21.588  0.00  0.00    +0.157 A 
ATOM     10  H   UNL     1      31.205 -22.436 -17.389  0.00  0.00    +0.151 HD
ATOM     11  H   UNL     1      31.871 -21.288 -18.911  0.00  0.00    +0.158 HD
ENDROOT
BRANCH   9  12
ATOM     12  S   UNL     1      34.806 -18.591 -22.926  0.00  0.00    -0.114 S 
ATOM     13  H   UNL     1      36.140 -18.585 -23.188  0.00  0.00    +0.109 HD
ENDBRANCH   9  12
BRANCH   3  14
ATOM     14  C   UNL     1      32.140 -23.819 -16.081  0.00  0.00    +0.154 C 
BRANCH  14  17
ATOM     15  O   UNL     1      30.441 -25.263 -15.134  0.00  0.00    -0.273 OA
ATOM     16  N   UNL     1      29.766 -23.428 -16.380  0.00  0.00    -0.301 N 
ATOM     17  C   UNL     1      30.708 -24.261 -15.796  0.00  0.00    +0.241 C 
ATOM     18  C   UNL     1      28.349 -23.670 -16.261  0.00  0.00    +0.111 C 
ATOM     19  H   UNL     1      30.074 -22.646 -16.893  0.00  0.00    +0.150 HD
ENDBRANCH  14  17
BRANCH  14  20
ATOM     20  C   UNL     1      32.766 -23.165 -14.841  0.00  0.00    +0.055 C 
BRANCH  20  21
ATOM     21  C   UNL     1      33.994 -23.893 -14.350  0.00  0.00    -0.020 C 
ATOM     22  C   UNL     1      34.270 -23.918 -12.991  0.00  0.00    -0.004 C 
ATOM     23  C   UNL     1      34.821 -24.523 -15.265  0.00  0.00    -0.004 C 
ATOM     24  C   UNL     1      35.403 -24.591 -12.538  0.00  0.00    -0.000 C 
ATOM     25  C   UNL     1      35.955 -25.197 -14.811  0.00  0.00    -0.000 C 
ATOM     26  C   UNL     1      36.246 -25.230 -13.447  0.00  0.00    -0.000 C 
ENDBRANCH  20  21
ENDBRANCH  14  20
ENDBRANCH   3  14
TORSDOF 5
ENDMDL
MODEL 4
REMARK VINA RESULT:      -8.1      9.254     11.883
REMARK  Name = 449486
REMARK  5 active torsions:
REMARK  status: ('A' for Active; 'I' for Inactive)
REMARK    1  A    between atoms: N_3  and  C_14
REMARK    2  A    between atoms: C_9  and  S_12
REMARK    3  A    between atoms: C_14  and  C_17
REMARK    4  A    between atoms: C_14  and  C_20
REMARK    5  A    between atoms: C_20  and  C_21
REMARK                            x       y       z     vdW  Elec       q    Type
REMARK                         _______ _______ _______ _____ _____    ______ ____
ROOT
ATOM      1  S   UNL     1      33.812 -10.997 -24.000  0.00  0.00    -0.024 S 
ATOM      2  O   UNL     1      33.214 -15.261 -22.263  0.00  0.00    -0.252 OA
ATOM      3  N   UNL     1      35.086 -15.656 -23.552  0.00  0.00    -0.282 N 
ATOM      4  N   UNL     1      34.216 -13.554 -23.534  0.00  0.00    -0.247 N 
ATOM      5  N   UNL     1      32.353 -12.441 -22.468  0.00  0.00    -0.125 NA
ATOM      6  N   UNL     1      31.796 -11.176 -22.429  0.00  0.00    -0.133 NA
ATOM      7  C   UNL     1      34.076 -14.852 -23.036  0.00  0.00    +0.306 C 
ATOM      8  C   UNL     1      33.394 -12.464 -23.245  0.00  0.00    +0.190 A 
ATOM      9  C   UNL     1      32.461 -10.326 -23.184  0.00  0.00    +0.157 A 
ATOM     10  H   UNL     1      35.744 -15.256 -24.166  0.00  0.00    +0.151 HD
ATOM     11  H   UNL     1      34.968 -13.393 -24.149  0.00  0.00    +0.158 HD
ENDROOT
BRANCH   9  12
ATOM     12  S   UNL     1      31.988  -8.654 -23.331  0.00  0.00    -0.114 S 
ATOM     13  H   UNL     1      32.410  -8.167 -24.529  0.00  0.00    +0.109 HD
ENDBRANCH   9  12
BRANCH   3  14
ATOM     14  C   UNL     1      35.209 -17.074 -23.213  0.00  0.00    +0.154 C 
BRANCH  14  17
ATOM     15  O   UNL     1      34.179 -17.327 -25.391  0.00  0.00    -0.273 OA
ATOM     16  N   UNL     1      34.955 -19.223 -24.306  0.00  0.00    -0.301 N 
ATOM     17  C   UNL     1      34.727 -17.860 -24.428  0.00  0.00    +0.241 C 
ATOM     18  C   UNL     1      34.558 -20.162 -25.327  0.00  0.00    +0.111 C 
ATOM     19  H   UNL     1      35.402 -19.561 -23.496  0.00  0.00    +0.150 HD
ENDBRANCH  14  17
BRANCH  14  20
ATOM     20  C   UNL     1      34.349 -17.394 -21.982  0.00  0.00    +0.055 C 
BRANCH  20  21
ATOM     21  C   UNL     1      34.807 -18.634 -21.251  0.00  0.00    -0.020 C 
ATOM     22  C   UNL     1      33.865 -19.561 -20.832  0.00  0.00    -0.004 C 
ATOM     23  C   UNL     1      36.159 -18.823 -21.016  0.00  0.00    -0.004 C 
ATOM     24  C   UNL     1      34.289 -20.706 -20.159  0.00  0.00    -0.000 C 
ATOM     25  C   UNL     1      36.582 -19.969 -20.343  0.00  0.00    -0.000 C 
ATOM     26  C   UNL     1      35.646 -20.910 -19.914  0.00  0.00    -0.000 C 
ENDBRANCH  20  21
ENDBRANCH  14  20
ENDBRANCH   3  14
TORSDOF 5
ENDMDL
MODEL 5
REMARK VINA RESULT:      -8.1     11.863     14.325
REMARK  Name = 449486
REMARK  5 active torsions:
REMARK  status: ('A' for Active; 'I' for Inactive)
REMARK    1  A    between atoms: N_3  and  C_14
REMARK    2  A    between atoms: C_9  and  S_12
REMARK    3  A    between atoms: C_14  and  C_17
REMARK    4  A    between atoms: C_14  and  C_20
REMARK    5  A    between atoms: C_20  and  C_21
REMARK                            x       y       z     vdW  Elec       q    Type
REMARK                         _______ _______ _______ _____ _____    ______ ____
ROOT
ATOM      1  S   UNL     1      34.750 -16.795 -23.088  0.00  0.00    -0.024 S 
ATOM      2  O   UNL     1      33.266 -13.045 -25.388  0.00  0.00    -0.252 OA
ATOM      3  N   UNL     1      33.709 -12.065 -23.347  0.00  0.00    -0.282 N 
ATOM      4  N   UNL     1      34.088 -14.296 -23.574  0.00  0.00    -0.247 N 
ATOM      5  N   UNL     1      33.868 -15.937 -25.335  0.00  0.00    -0.125 NA
ATOM      6  N   UNL     1      34.089 -17.291 -25.513  0.00  0.00    -0.133 NA
ATOM      7  C   UNL     1      33.650 -13.140 -24.225  0.00  0.00    +0.306 C 
ATOM      8  C   UNL     1      34.174 -15.575 -24.126  0.00  0.00    +0.190 A 
ATOM      9  C   UNL     1      34.550 -17.859 -24.418  0.00  0.00    +0.157 A 
ATOM     10  H   UNL     1      34.029 -12.218 -22.428  0.00  0.00    +0.151 HD
ATOM     11  H   UNL     1      34.363 -14.199 -22.633  0.00  0.00    +0.158 HD
ENDROOT
BRANCH   9  12
ATOM     12  S   UNL     1      34.920 -19.562 -24.345  0.00  0.00    -0.114 S 
ATOM     13  H   UNL     1      35.820 -19.788 -23.352  0.00  0.00    +0.109 HD
ENDBRANCH   9  12
BRANCH   3  14
ATOM     14  C   UNL     1      33.313 -10.712 -23.738  0.00  0.00    +0.154 C 
BRANCH  14  17
ATOM     15  O   UNL     1      35.156  -9.143 -23.838  0.00  0.00    -0.273 OA
ATOM     16  N   UNL     1      34.845 -10.602 -25.613  0.00  0.00    -0.301 N 
ATOM     17  C   UNL     1      34.537 -10.061 -24.374  0.00  0.00    +0.241 C 
ATOM     18  C   UNL     1      35.950 -10.121 -26.407  0.00  0.00    +0.111 C 
ATOM     19  H   UNL     1      34.291 -11.337 -25.964  0.00  0.00    +0.150 HD
ENDBRANCH  14  17
BRANCH  14  20
ATOM     20  C   UNL     1      32.857  -9.923 -22.502  0.00  0.00    +0.055 C 
BRANCH  20  21
ATOM     21  C   UNL     1      32.321  -8.553 -22.844  0.00  0.00    -0.020 C 
ATOM     22  C   UNL     1      32.737  -7.457 -22.104  0.00  0.00    -0.004 C 
ATOM     23  C   UNL     1      31.425  -8.416 -23.892  0.00  0.00    -0.004 C 
ATOM     24  C   UNL     1      32.243  -6.192 -22.421  0.00  0.00    -0.000 C 
ATOM     25  C   UNL     1      30.932  -7.151 -24.210  0.00  0.00    -0.000 C 
ATOM     26  C   UNL     1      31.340  -6.039 -23.473  0.00  0.00    -0.000 C 
ENDBRANCH  20  21
ENDBRANCH  14  20
ENDBRANCH   3  14
TORSDOF 5
ENDMDL
MODEL 6
REMARK VINA RESULT:      -7.9     10.961     13.559
REMARK  Name = 449486
REMARK  5 active torsions:
REMARK  status: ('A' for Active; 'I' for Inactive)
REMARK    1  A    between atoms: N_3  and  C_14
REMARK    2  A    between atoms: C_9  and  S_12
REMARK    3  A    between atoms: C_14  and  C_17
REMARK    4  A    between atoms: C_14  and  C_20
REMARK    5  A    between atoms: C_20  and  C_21
REMARK                            x       y       z     vdW  Elec       q    Type
REMARK                         _______ _______ _______ _____ _____    ______ ____
ROOT
ATOM      1  S   UNL     1      33.604  -8.278 -23.727  0.00  0.00    -0.024 S 
ATOM      2  O   UNL     1      31.954 -12.527 -22.841  0.00  0.00    -0.252 OA
ATOM      3  N   UNL     1      34.082 -13.101 -23.522  0.00  0.00    -0.282 N 
ATOM      4  N   UNL     1      33.517 -10.898 -23.500  0.00  0.00    -0.247 N 
ATOM      5  N   UNL     1      31.558  -9.600 -22.931  0.00  0.00    -0.125 NA
ATOM      6  N   UNL     1      31.178  -8.271 -22.902  0.00  0.00    -0.133 NA
ATOM      7  C   UNL     1      33.065 -12.195 -23.246  0.00  0.00    +0.306 C 
ATOM      8  C   UNL     1      32.785  -9.720 -23.341  0.00  0.00    +0.190 A 
ATOM      9  C   UNL     1      32.152  -7.475 -23.292  0.00  0.00    +0.157 A 
ATOM     10  H   UNL     1      34.949 -12.760 -23.842  0.00  0.00    +0.151 HD
ATOM     11  H   UNL     1      34.443 -10.805 -23.822  0.00  0.00    +0.158 HD
ENDROOT
BRANCH   9  12
ATOM     12  S   UNL     1      31.962  -5.742 -23.358  0.00  0.00    -0.114 S 
ATOM     13  H   UNL     1      33.170  -5.146 -23.178  0.00  0.00    +0.109 HD
ENDBRANCH   9  12
BRANCH   3  14
ATOM     14  C   UNL     1      33.913 -14.545 -23.352  0.00  0.00    +0.154 C 
BRANCH  14  17
ATOM     15  O   UNL     1      34.658 -14.598 -21.048  0.00  0.00    -0.273 OA
ATOM     16  N   UNL     1      32.498 -15.290 -21.530  0.00  0.00    -0.301 N 
ATOM     17  C   UNL     1      33.753 -14.797 -21.857  0.00  0.00    +0.241 C 
ATOM     18  C   UNL     1      32.133 -15.623 -20.175  0.00  0.00    +0.111 C 
ATOM     19  H   UNL     1      31.835 -15.418 -22.247  0.00  0.00    +0.150 HD
ENDBRANCH  14  17
BRANCH  14  20
ATOM     20  C   UNL     1      35.142 -15.283 -23.901  0.00  0.00    +0.055 C 
BRANCH  20  21
ATOM     21  C   UNL     1      34.963 -16.782 -23.928  0.00  0.00    -0.020 C 
ATOM     22  C   UNL     1      35.388 -17.536 -22.844  0.00  0.00    -0.004 C 
ATOM     23  C   UNL     1      34.377 -17.376 -25.034  0.00  0.00    -0.004 C 
ATOM     24  C   UNL     1      35.221 -18.920 -22.870  0.00  0.00    -0.000 C 
ATOM     25  C   UNL     1      34.210 -18.761 -25.058  0.00  0.00    -0.000 C 
ATOM     26  C   UNL     1      34.633 -19.533 -23.976  0.00  0.00    -0.000 C 
ENDBRANCH  20  21
ENDBRANCH  14  20
ENDBRANCH   3  14
TORSDOF 5
ENDMDL
MODEL 7
REMARK VINA RESULT:      -7.8      4.115      6.714
REMARK  Name = 449486
REMARK  5 active torsions:
REMARK  status: ('A' for Active; 'I' for Inactive)
REMARK    1  A    between atoms: N_3  and  C_14
REMARK    2  A    between atoms: C_9  and  S_12
REMARK    3  A    between atoms: C_14  and  C_17
REMARK    4  A    between atoms: C_14  and  C_20
REMARK    5  A    between atoms: C_20  and  C_21
REMARK                            x       y       z     vdW  Elec       q    Type
REMARK                         _______ _______ _______ _____ _____    ______ ____
ROOT
ATOM      1  S   UNL     1      33.106 -20.447 -20.423  0.00  0.00    -0.024 S 
ATOM      2  O   UNL     1      35.185 -23.110 -17.238  0.00  0.00    -0.252 OA
ATOM      3  N   UNL     1      33.002 -23.328 -16.522  0.00  0.00    -0.282 N 
ATOM      4  N   UNL     1      33.412 -22.031 -18.346  0.00  0.00    -0.247 N 
ATOM      5  N   UNL     1      35.358 -21.367 -19.618  0.00  0.00    -0.125 NA
ATOM      6  N   UNL     1      35.647 -20.589 -20.724  0.00  0.00    -0.133 NA
ATOM      7  C   UNL     1      33.993 -22.842 -17.367  0.00  0.00    +0.306 C 
ATOM      8  C   UNL     1      34.082 -21.365 -19.372  0.00  0.00    +0.190 A 
ATOM      9  C   UNL     1      34.561 -20.052 -21.241  0.00  0.00    +0.157 A 
ATOM     10  H   UNL     1      32.067 -23.070 -16.689  0.00  0.00    +0.151 HD
ATOM     11  H   UNL     1      32.435 -21.919 -18.306  0.00  0.00    +0.158 HD
ENDROOT
BRANCH   9  12
ATOM     12  S   UNL     1      34.619 -19.019 -22.645  0.00  0.00    -0.114 S 
ATOM     13  H   UNL     1      33.785 -17.961 -22.465  0.00  0.00    +0.109 HD
ENDBRANCH   9  12
BRANCH   3  14
ATOM     14  C   UNL     1      33.299 -24.211 -15.394  0.00  0.00    +0.154 C 
BRANCH  14  17
ATOM     15  O   UNL     1      31.945 -24.682 -13.441  0.00  0.00    -0.273 OA
ATOM     16  N   UNL     1      30.878 -24.307 -15.465  0.00  0.00    -0.301 N 
ATOM     17  C   UNL     1      31.988 -24.421 -14.642  0.00  0.00    +0.241 C 
ATOM     18  C   UNL     1      29.534 -24.492 -14.971  0.00  0.00    +0.111 C 
ATOM     19  H   UNL     1      31.010 -24.095 -16.417  0.00  0.00    +0.150 HD
ENDBRANCH  14  17
BRANCH  14  20
ATOM     20  C   UNL     1      34.351 -23.561 -14.484  0.00  0.00    +0.055 C 
BRANCH  20  21
ATOM     21  C   UNL     1      35.407 -24.534 -14.018  0.00  0.00    -0.020 C 
ATOM     22  C   UNL     1      35.787 -24.536 -12.685  0.00  0.00    -0.004 C 
ATOM     23  C   UNL     1      35.975 -25.408 -14.931  0.00  0.00    -0.004 C 
ATOM     24  C   UNL     1      36.762 -25.436 -12.255  0.00  0.00    -0.000 C 
ATOM     25  C   UNL     1      36.949 -26.308 -14.500  0.00  0.00    -0.000 C 
ATOM     26  C   UNL     1      37.343 -26.322 -13.162  0.00  0.00    -0.000 C 
ENDBRANCH  20  21
ENDBRANCH  14  20
ENDBRANCH   3  14
TORSDOF 5
ENDMDL
MODEL 8
REMARK VINA RESULT:      -7.8      8.575     10.588
REMARK  Name = 449486
REMARK  5 active torsions:
REMARK  status: ('A' for Active; 'I' for Inactive)
REMARK    1  A    between atoms: N_3  and  C_14
REMARK    2  A    between atoms: C_9  and  S_12
REMARK    3  A    between atoms: C_14  and  C_17
REMARK    4  A    between atoms: C_14  and  C_20
REMARK    5  A    between atoms: C_20  and  C_21
REMARK                            x       y       z     vdW  Elec       q    Type
REMARK                         _______ _______ _______ _____ _____    ______ ____
ROOT
ATOM      1  S   UNL     1      33.819 -19.607 -21.232  0.00  0.00    -0.024 S 
ATOM      2  O   UNL     1      35.160 -15.164 -21.372  0.00  0.00    -0.252 OA
ATOM      3  N   UNL     1      33.069 -14.940 -22.321  0.00  0.00    -0.282 N 
ATOM      4  N   UNL     1      33.746 -17.018 -21.688  0.00  0.00    -0.247 N 
ATOM      5  N   UNL     1      35.717 -17.981 -20.671  0.00  0.00    -0.125 NA
ATOM      6  N   UNL     1      36.163 -19.227 -20.271  0.00  0.00    -0.133 NA
ATOM      7  C   UNL     1      34.106 -15.669 -21.751  0.00  0.00    +0.306 C 
ATOM      8  C   UNL     1      34.524 -18.059 -21.180  0.00  0.00    +0.190 A 
ATOM      9  C   UNL     1      35.269 -20.165 -20.506  0.00  0.00    +0.157 A 
ATOM     10  H   UNL     1      32.252 -15.415 -22.599  0.00  0.00    +0.151 HD
ATOM     11  H   UNL     1      32.857 -17.257 -22.038  0.00  0.00    +0.158 HD
ENDROOT
BRANCH   9  12
ATOM     12  S   UNL     1      35.556 -21.838 -20.106  0.00  0.00    -0.114 S 
ATOM     13  H   UNL     1      36.708 -22.255 -20.696  0.00  0.00    +0.109 HD
ENDBRANCH   9  12
BRANCH   3  14
ATOM     14  C   UNL     1      33.146 -13.493 -22.521  0.00  0.00    +0.154 C 
BRANCH  14  17
ATOM     15  O   UNL     1      32.288 -13.161 -20.281  0.00  0.00    -0.273 OA
ATOM     16  N   UNL     1      31.371 -11.922 -22.013  0.00  0.00    -0.301 N 
ATOM     17  C   UNL     1      32.244 -12.854 -21.471  0.00  0.00    +0.241 C 
ATOM     18  C   UNL     1      30.409 -11.211 -21.206  0.00  0.00    +0.111 C 
ATOM     19  H   UNL     1      31.409 -11.741 -22.980  0.00  0.00    +0.150 HD
ENDBRANCH  14  17
BRANCH  14  20
ATOM     20  C   UNL     1      32.672 -13.135 -23.937  0.00  0.00    +0.055 C 
BRANCH  20  21
ATOM     21  C   UNL     1      33.591 -12.162 -24.636  0.00  0.00    -0.020 C 
ATOM     22  C   UNL     1      34.102 -11.084 -23.930  0.00  0.00    -0.004 C 
ATOM     23  C   UNL     1      33.908 -12.366 -25.969  0.00  0.00    -0.004 C 
ATOM     24  C   UNL     1      34.952 -10.187 -24.576  0.00  0.00    -0.000 C 
ATOM     25  C   UNL     1      34.759 -11.468 -26.615  0.00  0.00    -0.000 C 
ATOM     26  C   UNL     1      35.280 -10.378 -25.917  0.00  0.00    -0.000 C 
ENDBRANCH  20  21
ENDBRANCH  14  20
ENDBRANCH   3  14
TORSDOF 5
ENDMDL
MODEL 9
REMARK VINA RESULT:      -7.7      3.730      6.634
REMARK  Name = 449486
REMARK  5 active torsions:
REMARK  status: ('A' for Active; 'I' for Inactive)
REMARK    1  A    between atoms: N_3  and  C_14
REMARK    2  A    between atoms: C_9  and  S_12
REMARK    3  A    between atoms: C_14  and  C_17
REMARK    4  A    between atoms: C_14  and  C_20
REMARK    5  A    between atoms: C_20  and  C_21
REMARK                            x       y       z     vdW  Elec       q    Type
REMARK                         _______ _______ _______ _____ _____    ______ ____
ROOT
ATOM      1  S   UNL     1      33.912 -21.302 -19.852  0.00  0.00    -0.024 S 
ATOM      2  O   UNL     1      36.667 -22.504 -16.313  0.00  0.00    -0.252 OA
ATOM      3  N   UNL     1      34.750 -23.616 -15.671  0.00  0.00    -0.282 N 
ATOM      4  N   UNL     1      34.703 -22.418 -17.605  0.00  0.00    -0.247 N 
ATOM      5  N   UNL     1      36.260 -21.057 -18.857  0.00  0.00    -0.125 NA
ATOM      6  N   UNL     1      36.271 -20.320 -20.028  0.00  0.00    -0.133 NA
ATOM      7  C   UNL     1      35.494 -22.806 -16.521  0.00  0.00    +0.306 C 
ATOM      8  C   UNL     1      35.097 -21.604 -18.668  0.00  0.00    +0.190 A 
ATOM      9  C   UNL     1      35.109 -20.364 -20.645  0.00  0.00    +0.157 A 
ATOM     10  H   UNL     1      33.814 -23.815 -15.905  0.00  0.00    +0.151 HD
ATOM     11  H   UNL     1      33.776 -22.750 -17.619  0.00  0.00    +0.158 HD
ENDROOT
BRANCH   9  12
ATOM     12  S   UNL     1      34.827 -19.527 -22.149  0.00  0.00    -0.114 S 
ATOM     13  H   UNL     1      35.698 -18.490 -22.260  0.00  0.00    +0.109 HD
ENDBRANCH   9  12
BRANCH   3  14
ATOM     14  C   UNL     1      35.306 -24.183 -14.443  0.00  0.00    +0.154 C 
BRANCH  14  17
ATOM     15  O   UNL     1      35.847 -26.299 -15.491  0.00  0.00    -0.273 OA
ATOM     16  N   UNL     1      37.543 -25.119 -14.438  0.00  0.00    -0.301 N 
ATOM     17  C   UNL     1      36.237 -25.316 -14.863  0.00  0.00    +0.241 C 
ATOM     18  C   UNL     1      38.589 -26.077 -14.703  0.00  0.00    +0.111 C 
ATOM     19  H   UNL     1      37.763 -24.299 -13.939  0.00  0.00    +0.150 HD
ENDBRANCH  14  17
BRANCH  14  20
ATOM     20  C   UNL     1      34.173 -24.711 -13.551  0.00  0.00    +0.055 C 
BRANCH  20  21
ATOM     21  C   UNL     1      32.804 -24.287 -14.028  0.00  0.00    -0.020 C 
ATOM     22  C   UNL     1      31.839 -25.253 -14.266  0.00  0.00    -0.004 C 
ATOM     23  C   UNL     1      32.538 -22.941 -14.217  0.00  0.00    -0.004 C 
ATOM     24  C   UNL     1      30.575 -24.861 -14.705  0.00  0.00    -0.000 C 
ATOM     25  C   UNL     1      31.273 -22.549 -14.656  0.00  0.00    -0.000 C 
ATOM     26  C   UNL     1      30.292 -23.510 -14.901  0.00  0.00    -0.000 C 
ENDBRANCH  20  21
ENDBRANCH  14  20
ENDBRANCH   3  14
TORSDOF 5
ENDMDL
