MODEL 1
REMARK VINA RESULT:     -12.3      0.000      0.000
REMARK  Name = 24988948
REMARK  5 active torsions:
REMARK  status: ('A' for Active; 'I' for Inactive)
REMARK    1  A    between atoms: N_2  and  C_21
REMARK    2  A    between atoms: C_6  and  O_11
REMARK    3  A    between atoms: O_11  and  C_13
REMARK    4  A    between atoms: C_16  and  C_20
REMARK    5  A    between atoms: C_21  and  C_25
REMARK                            x       y       z     vdW  Elec       q    Type
REMARK                         _______ _______ _______ _____ _____    ______ ____
ROOT
ATOM      1 CL   UNL     1      31.946 -12.563 -20.459  0.00  0.00    -0.079 Cl
ATOM      2  N   UNL     1      34.941 -16.931 -22.882  0.00  0.00    -0.205 N 
ATOM      3  N   UNL     1      34.769 -16.754 -24.203  0.00  0.00    -0.176 NA
ATOM      4  C   UNL     1      34.309 -15.998 -22.104  0.00  0.00    +0.074 C 
ATOM      5  C   UNL     1      33.675 -15.144 -22.999  0.00  0.00    +0.071 C 
ATOM      6  C   UNL     1      32.928 -14.061 -22.506  0.00  0.00    +0.158 C 
ATOM      7  C   UNL     1      33.999 -15.665 -24.270  0.00  0.00    +0.122 C 
ATOM      8  C   UNL     1      34.243 -15.835 -20.718  0.00  0.00    +0.017 C 
ATOM      9  C   UNL     1      32.849 -13.880 -21.119  0.00  0.00    +0.092 C 
ATOM     10  C   UNL     1      33.495 -14.752 -20.242  0.00  0.00    +0.016 C 
ENDROOT
BRANCH   6  11
ATOM     11  O   UNL     1      32.294 -13.205 -23.365  0.00  0.00    -0.453 OA
BRANCH  11  13
ATOM     12 CL   UNL     1      35.706 -10.448 -25.976  0.00  0.00    -0.082 Cl
ATOM     13  C   UNL     1      32.883 -11.977 -23.589  0.00  0.00    +0.147 C 
ATOM     14  C   UNL     1      32.482 -10.865 -22.848  0.00  0.00    +0.048 C 
ATOM     15  C   UNL     1      33.881 -11.847 -24.555  0.00  0.00    +0.049 C 
ATOM     16  C   UNL     1      33.078  -9.624 -23.074  0.00  0.00    +0.072 C 
ATOM     17  C   UNL     1      34.476 -10.607 -24.783  0.00  0.00    +0.061 C 
ATOM     18  C   UNL     1      34.075  -9.495 -24.042  0.00  0.00    +0.022 C 
BRANCH  16  20
ATOM     19  N   UNL     1      32.331  -7.561 -21.701  0.00  0.00    -0.191 NA
ATOM     20  C   UNL     1      32.665  -8.485 -22.316  0.00  0.00    +0.101 C 
ENDBRANCH  16  20
ENDBRANCH  11  13
ENDBRANCH   6  11
BRANCH   2  21
ATOM     21  C   UNL     1      35.741 -18.042 -22.420  0.00  0.00    +0.159 C 
BRANCH  21  25
ATOM     22  N   UNL     1      33.599 -19.184 -21.758  0.00  0.00    -0.230 N 
ATOM     23  N   UNL     1      33.047 -20.136 -20.977  0.00  0.00    -0.128 NA
ATOM     24  N   UNL     1      34.089 -21.642 -19.386  0.00  0.00    -0.192 NA
ATOM     25  C   UNL     1      34.954 -19.055 -21.625  0.00  0.00    +0.071 C 
ATOM     26  C   UNL     1      35.304 -19.991 -20.692  0.00  0.00    +0.058 C 
ATOM     27  C   UNL     1      34.092 -20.643 -20.313  0.00  0.00    +0.049 C 
ATOM     28  C   UNL     1      36.587 -20.237 -20.225  0.00  0.00    +0.065 C 
ATOM     29  C   UNL     1      36.561 -21.265 -19.276  0.00  0.00    +0.001 C 
ATOM     30  C   UNL     1      35.350 -21.900 -18.913  0.00  0.00    +0.105 C 
ATOM     31  H   UNL     1      33.069 -18.627 -22.372  0.00  0.00    +0.175 HD
ENDBRANCH  21  25
ENDBRANCH   2  21
TORSDOF 5
ENDMDL
MODEL 2
REMARK VINA RESULT:     -12.2      1.412      2.102
REMARK  Name = 24988948
REMARK  5 active torsions:
REMARK  status: ('A' for Active; 'I' for Inactive)
REMARK    1  A    between atoms: N_2  and  C_21
REMARK    2  A    between atoms: C_6  and  O_11
REMARK    3  A    between atoms: O_11  and  C_13
REMARK    4  A    between atoms: C_16  and  C_20
REMARK    5  A    between atoms: C_21  and  C_25
REMARK                            x       y       z     vdW  Elec       q    Type
REMARK                         _______ _______ _______ _____ _____    ______ ____
ROOT
ATOM      1 CL   UNL     1      32.356 -13.797 -26.665  0.00  0.00    -0.079 Cl
ATOM      2  N   UNL     1      34.884 -16.456 -22.142  0.00  0.00    -0.205 N 
ATOM      3  N   UNL     1      34.600 -15.664 -21.094  0.00  0.00    -0.176 NA
ATOM      4  C   UNL     1      34.377 -16.012 -23.334  0.00  0.00    +0.074 C 
ATOM      5  C   UNL     1      33.709 -14.832 -23.031  0.00  0.00    +0.071 C 
ATOM      6  C   UNL     1      33.068 -14.120 -24.060  0.00  0.00    +0.158 C 
ATOM      7  C   UNL     1      33.884 -14.676 -21.640  0.00  0.00    +0.122 C 
ATOM      8  C   UNL     1      34.449 -16.538 -24.626  0.00  0.00    +0.017 C 
ATOM      9  C   UNL     1      33.128 -14.630 -25.363  0.00  0.00    +0.092 C 
ATOM     10  C   UNL     1      33.807 -15.818 -25.639  0.00  0.00    +0.016 C 
ENDROOT
BRANCH   6  11
ATOM     11  O   UNL     1      32.403 -12.955 -23.789  0.00  0.00    -0.453 OA
BRANCH  11  13
ATOM     12 CL   UNL     1      36.040 -10.352 -26.251  0.00  0.00    -0.082 Cl
ATOM     13  C   UNL     1      33.104 -11.774 -23.937  0.00  0.00    +0.147 C 
ATOM     14  C   UNL     1      32.815 -10.685 -23.114  0.00  0.00    +0.048 C 
ATOM     15  C   UNL     1      34.102 -11.671 -24.905  0.00  0.00    +0.049 C 
ATOM     16  C   UNL     1      33.523  -9.493 -23.262  0.00  0.00    +0.072 C 
ATOM     17  C   UNL     1      34.810 -10.479 -25.054  0.00  0.00    +0.061 C 
ATOM     18  C   UNL     1      34.521  -9.389 -24.232  0.00  0.00    +0.022 C 
BRANCH  16  20
ATOM     19  N   UNL     1      32.986  -7.471 -21.737  0.00  0.00    -0.191 NA
ATOM     20  C   UNL     1      33.226  -8.376 -22.421  0.00  0.00    +0.101 C 
ENDBRANCH  16  20
ENDBRANCH  11  13
ENDBRANCH   6  11
BRANCH   2  21
ATOM     21  C   UNL     1      35.664 -17.653 -21.927  0.00  0.00    +0.159 C 
BRANCH  21  25
ATOM     22  N   UNL     1      33.522 -18.820 -21.313  0.00  0.00    -0.230 N 
ATOM     23  N   UNL     1      32.980 -19.874 -20.666  0.00  0.00    -0.128 NA
ATOM     24  N   UNL     1      34.056 -21.665 -19.435  0.00  0.00    -0.192 NA
ATOM     25  C   UNL     1      34.887 -18.761 -21.260  0.00  0.00    +0.071 C 
ATOM     26  C   UNL     1      35.256 -19.855 -20.527  0.00  0.00    +0.058 C 
ATOM     27  C   UNL     1      34.043 -20.522 -20.176  0.00  0.00    +0.049 C 
ATOM     28  C   UNL     1      36.555 -20.220 -20.204  0.00  0.00    +0.065 C 
ATOM     29  C   UNL     1      36.546 -21.394 -19.444  0.00  0.00    +0.001 C 
ATOM     30  C   UNL     1      35.334 -22.042 -19.105  0.00  0.00    +0.105 C 
ATOM     31  H   UNL     1      32.978 -18.148 -21.783  0.00  0.00    +0.175 HD
ENDBRANCH  21  25
ENDBRANCH   2  21
TORSDOF 5
ENDMDL
MODEL 3
REMARK VINA RESULT:     -12.0      2.084      3.224
REMARK  Name = 24988948
REMARK  5 active torsions:
REMARK  status: ('A' for Active; 'I' for Inactive)
REMARK    1  A    between atoms: N_2  and  C_21
REMARK    2  A    between atoms: C_6  and  O_11
REMARK    3  A    between atoms: O_11  and  C_13
REMARK    4  A    between atoms: C_16  and  C_20
REMARK    5  A    between atoms: C_21  and  C_25
REMARK                            x       y       z     vdW  Elec       q    Type
REMARK                         _______ _______ _______ _____ _____    ______ ____
ROOT
ATOM      1 CL   UNL     1      32.363 -14.336 -26.096  0.00  0.00    -0.079 Cl
ATOM      2  N   UNL     1      35.466 -17.089 -22.009  0.00  0.00    -0.205 N 
ATOM      3  N   UNL     1      35.080 -16.511 -20.858  0.00  0.00    -0.176 NA
ATOM      4  C   UNL     1      34.851 -16.585 -23.123  0.00  0.00    +0.074 C 
ATOM      5  C   UNL     1      33.994 -15.597 -22.653  0.00  0.00    +0.071 C 
ATOM      6  C   UNL     1      33.205 -14.879 -23.567  0.00  0.00    +0.158 C 
ATOM      7  C   UNL     1      34.184 -15.604 -21.255  0.00  0.00    +0.122 C 
ATOM      8  C   UNL     1      34.973 -16.908 -24.477  0.00  0.00    +0.017 C 
ATOM      9  C   UNL     1      33.312 -15.187 -24.930  0.00  0.00    +0.092 C 
ATOM     10  C   UNL     1      34.181 -16.184 -25.375  0.00  0.00    +0.016 C 
ENDROOT
BRANCH   6  11
ATOM     11  O   UNL     1      32.353 -13.901 -23.132  0.00  0.00    -0.453 OA
BRANCH  11  13
ATOM     12 CL   UNL     1      31.957  -9.031 -21.649  0.00  0.00    -0.082 Cl
ATOM     13  C   UNL     1      32.755 -12.589 -23.294  0.00  0.00    +0.147 C 
ATOM     14  C   UNL     1      33.698 -12.265 -24.269  0.00  0.00    +0.048 C 
ATOM     15  C   UNL     1      32.216 -11.589 -22.485  0.00  0.00    +0.049 C 
ATOM     16  C   UNL     1      34.104 -10.941 -24.433  0.00  0.00    +0.072 C 
ATOM     17  C   UNL     1      32.621 -10.265 -22.649  0.00  0.00    +0.061 C 
ATOM     18  C   UNL     1      33.565  -9.940 -23.623  0.00  0.00    +0.022 C 
BRANCH  16  20
ATOM     19  N   UNL     1      35.856 -10.340 -26.241  0.00  0.00    -0.191 NA
ATOM     20  C   UNL     1      35.071 -10.609 -25.431  0.00  0.00    +0.101 C 
ENDBRANCH  16  20
ENDBRANCH  11  13
ENDBRANCH   6  11
BRANCH   2  21
ATOM     21  C   UNL     1      36.453 -18.144 -21.969  0.00  0.00    +0.159 C 
BRANCH  21  25
ATOM     22  N   UNL     1      37.063 -19.815 -20.190  0.00  0.00    -0.230 N 
ATOM     23  N   UNL     1      36.597 -20.782 -19.372  0.00  0.00    -0.128 NA
ATOM     24  N   UNL     1      34.347 -21.650 -19.111  0.00  0.00    -0.192 NA
ATOM     25  C   UNL     1      36.115 -19.242 -20.992  0.00  0.00    +0.071 C 
ATOM     26  C   UNL     1      34.951 -19.884 -20.669  0.00  0.00    +0.058 C 
ATOM     27  C   UNL     1      35.292 -20.834 -19.658  0.00  0.00    +0.049 C 
ATOM     28  C   UNL     1      33.704 -19.641 -21.226  0.00  0.00    +0.065 C 
ATOM     29  C   UNL     1      32.751 -20.488 -20.651  0.00  0.00    +0.001 C 
ATOM     30  C   UNL     1      33.106 -21.424 -19.650  0.00  0.00    +0.105 C 
ATOM     31  H   UNL     1      38.010 -19.544 -20.209  0.00  0.00    +0.175 HD
ENDBRANCH  21  25
ENDBRANCH   2  21
TORSDOF 5
ENDMDL
MODEL 4
REMARK VINA RESULT:     -11.9      1.620      2.024
REMARK  Name = 24988948
REMARK  5 active torsions:
REMARK  status: ('A' for Active; 'I' for Inactive)
REMARK    1  A    between atoms: N_2  and  C_21
REMARK    2  A    between atoms: C_6  and  O_11
REMARK    3  A    between atoms: O_11  and  C_13
REMARK    4  A    between atoms: C_16  and  C_20
REMARK    5  A    between atoms: C_21  and  C_25
REMARK                            x       y       z     vdW  Elec       q    Type
REMARK                         _______ _______ _______ _____ _____    ______ ____
ROOT
ATOM      1 CL   UNL     1      31.915 -12.607 -20.301  0.00  0.00    -0.079 Cl
ATOM      2  N   UNL     1      34.876 -16.926 -22.851  0.00  0.00    -0.205 N 
ATOM      3  N   UNL     1      34.662 -16.740 -24.165  0.00  0.00    -0.176 NA
ATOM      4  C   UNL     1      34.260 -16.005 -22.047  0.00  0.00    +0.074 C 
ATOM      5  C   UNL     1      33.590 -15.151 -22.915  0.00  0.00    +0.071 C 
ATOM      6  C   UNL     1      32.848 -14.079 -22.390  0.00  0.00    +0.158 C 
ATOM      7  C   UNL     1      33.879 -15.659 -24.199  0.00  0.00    +0.122 C 
ATOM      8  C   UNL     1      34.235 -15.854 -20.658  0.00  0.00    +0.017 C 
ATOM      9  C   UNL     1      32.810 -13.910 -21.000  0.00  0.00    +0.092 C 
ATOM     10  C   UNL     1      33.492 -14.783 -20.151  0.00  0.00    +0.016 C 
ENDROOT
BRANCH   6  11
ATOM     11  O   UNL     1      32.178 -13.224 -23.222  0.00  0.00    -0.453 OA
BRANCH  11  13
ATOM     12 CL   UNL     1      32.523  -8.274 -22.018  0.00  0.00    -0.082 Cl
ATOM     13  C   UNL     1      32.757 -11.994 -23.469  0.00  0.00    +0.147 C 
ATOM     14  C   UNL     1      33.708 -11.863 -24.481  0.00  0.00    +0.048 C 
ATOM     15  C   UNL     1      32.391 -10.885 -22.709  0.00  0.00    +0.049 C 
ATOM     16  C   UNL     1      34.293 -10.621 -24.732  0.00  0.00    +0.072 C 
ATOM     17  C   UNL     1      32.975  -9.643 -22.958  0.00  0.00    +0.061 C 
ATOM     18  C   UNL     1      33.926  -9.511 -23.970  0.00  0.00    +0.022 C 
BRANCH  16  20
ATOM     19  N   UNL     1      36.059 -10.377 -26.609  0.00  0.00    -0.191 NA
ATOM     20  C   UNL     1      35.268 -10.487 -25.768  0.00  0.00    +0.101 C 
ENDBRANCH  16  20
ENDBRANCH  11  13
ENDBRANCH   6  11
BRANCH   2  21
ATOM     21  C   UNL     1      35.701 -18.032 -22.423  0.00  0.00    +0.159 C 
BRANCH  21  25
ATOM     22  N   UNL     1      33.595 -19.212 -21.717  0.00  0.00    -0.230 N 
ATOM     23  N   UNL     1      33.076 -20.175 -20.925  0.00  0.00    -0.128 NA
ATOM     24  N   UNL     1      34.178 -21.663 -19.358  0.00  0.00    -0.192 NA
ATOM     25  C   UNL     1      34.950 -19.059 -21.613  0.00  0.00    +0.071 C 
ATOM     26  C   UNL     1      35.336 -19.989 -20.688  0.00  0.00    +0.058 C 
ATOM     27  C   UNL     1      34.144 -20.663 -20.284  0.00  0.00    +0.049 C 
ATOM     28  C   UNL     1      36.633 -20.213 -20.249  0.00  0.00    +0.065 C 
ATOM     29  C   UNL     1      36.645 -21.241 -19.301  0.00  0.00    +0.001 C 
ATOM     30  C   UNL     1      35.454 -21.899 -18.912  0.00  0.00    +0.105 C 
ATOM     31  H   UNL     1      33.042 -18.664 -22.319  0.00  0.00    +0.175 HD
ENDBRANCH  21  25
ENDBRANCH   2  21
TORSDOF 5
ENDMDL
MODEL 5
REMARK VINA RESULT:     -11.3      1.125      1.615
REMARK  Name = 24988948
REMARK  5 active torsions:
REMARK  status: ('A' for Active; 'I' for Inactive)
REMARK    1  A    between atoms: N_2  and  C_21
REMARK    2  A    between atoms: C_6  and  O_11
REMARK    3  A    between atoms: O_11  and  C_13
REMARK    4  A    between atoms: C_16  and  C_20
REMARK    5  A    between atoms: C_21  and  C_25
REMARK                            x       y       z     vdW  Elec       q    Type
REMARK                         _______ _______ _______ _____ _____    ______ ____
ROOT
ATOM      1 CL   UNL     1      32.331 -13.180 -20.178  0.00  0.00    -0.079 Cl
ATOM      2  N   UNL     1      35.462 -17.197 -23.001  0.00  0.00    -0.205 N 
ATOM      3  N   UNL     1      35.094 -17.059 -24.285  0.00  0.00    -0.176 NA
ATOM      4  C   UNL     1      34.837 -16.335 -22.141  0.00  0.00    +0.074 C 
ATOM      5  C   UNL     1      33.991 -15.573 -22.939  0.00  0.00    +0.071 C 
ATOM      6  C   UNL     1      33.196 -14.579 -22.345  0.00  0.00    +0.158 C 
ATOM      7  C   UNL     1      34.198 -16.069 -24.244  0.00  0.00    +0.122 C 
ATOM      8  C   UNL     1      34.940 -16.164 -20.759  0.00  0.00    +0.017 C 
ATOM      9  C   UNL     1      33.284 -14.390 -20.960  0.00  0.00    +0.092 C 
ATOM     10  C   UNL     1      34.142 -15.170 -20.182  0.00  0.00    +0.016 C 
ENDROOT
BRANCH   6  11
ATOM     11  O   UNL     1      32.354 -13.814 -23.107  0.00  0.00    -0.453 OA
BRANCH  11  13
ATOM     12 CL   UNL     1      35.293 -10.793 -25.987  0.00  0.00    -0.082 Cl
ATOM     13  C   UNL     1      32.767 -12.534 -23.421  0.00  0.00    +0.147 C 
ATOM     14  C   UNL     1      32.240 -11.443 -22.730  0.00  0.00    +0.048 C 
ATOM     15  C   UNL     1      33.711 -12.333 -24.427  0.00  0.00    +0.049 C 
ATOM     16  C   UNL     1      32.657 -10.150 -23.047  0.00  0.00    +0.072 C 
ATOM     17  C   UNL     1      34.129 -11.040 -24.744  0.00  0.00    +0.061 C 
ATOM     18  C   UNL     1      33.602  -9.949 -24.054  0.00  0.00    +0.022 C 
BRANCH  16  20
ATOM     19  N   UNL     1      31.678  -8.124 -21.767  0.00  0.00    -0.191 NA
ATOM     20  C   UNL     1      32.117  -9.032 -22.340  0.00  0.00    +0.101 C 
ENDBRANCH  16  20
ENDBRANCH  11  13
ENDBRANCH   6  11
BRANCH   2  21
ATOM     21  C   UNL     1      36.443 -18.201 -22.656  0.00  0.00    +0.159 C 
BRANCH  21  25
ATOM     22  N   UNL     1      36.892 -19.531 -20.568  0.00  0.00    -0.230 N 
ATOM     23  N   UNL     1      36.347 -20.319 -19.617  0.00  0.00    -0.128 NA
ATOM     24  N   UNL     1      34.056 -21.065 -19.340  0.00  0.00    -0.192 NA
ATOM     25  C   UNL     1      36.011 -19.091 -21.517  0.00  0.00    +0.071 C 
ATOM     26  C   UNL     1      34.809 -19.633 -21.154  0.00  0.00    +0.058 C 
ATOM     27  C   UNL     1      35.058 -20.389 -19.968  0.00  0.00    +0.049 C 
ATOM     28  C   UNL     1      33.604 -19.465 -21.821  0.00  0.00    +0.065 C 
ATOM     29  C   UNL     1      32.590 -20.167 -21.160  0.00  0.00    +0.001 C 
ATOM     30  C   UNL     1      32.856 -20.911 -19.986  0.00  0.00    +0.105 C 
ATOM     31  H   UNL     1      37.848 -19.293 -20.578  0.00  0.00    +0.175 HD
ENDBRANCH  21  25
ENDBRANCH   2  21
TORSDOF 5
ENDMDL
MODEL 6
REMARK VINA RESULT:     -11.3      3.562      5.779
REMARK  Name = 24988948
REMARK  5 active torsions:
REMARK  status: ('A' for Active; 'I' for Inactive)
REMARK    1  A    between atoms: N_2  and  C_21
REMARK    2  A    between atoms: C_6  and  O_11
REMARK    3  A    between atoms: O_11  and  C_13
REMARK    4  A    between atoms: C_16  and  C_20
REMARK    5  A    between atoms: C_21  and  C_25
REMARK                            x       y       z     vdW  Elec       q    Type
REMARK                         _______ _______ _______ _____ _____    ______ ____
ROOT
ATOM      1 CL   UNL     1      32.039  -7.663 -20.829  0.00  0.00    -0.079 Cl
ATOM      2  N   UNL     1      33.582 -11.930 -24.480  0.00  0.00    -0.205 N 
ATOM      3  N   UNL     1      34.577 -11.396 -25.208  0.00  0.00    -0.176 NA
ATOM      4  C   UNL     1      33.058 -11.084 -23.540  0.00  0.00    +0.074 C 
ATOM      5  C   UNL     1      33.776  -9.901 -23.671  0.00  0.00    +0.071 C 
ATOM      6  C   UNL     1      33.473  -8.815 -22.832  0.00  0.00    +0.158 C 
ATOM      7  C   UNL     1      34.692 -10.161 -24.713  0.00  0.00    +0.122 C 
ATOM      8  C   UNL     1      32.035 -11.254 -22.605  0.00  0.00    +0.017 C 
ATOM      9  C   UNL     1      32.451  -8.965 -21.887  0.00  0.00    +0.092 C 
ATOM     10  C   UNL     1      31.745 -10.164 -21.777  0.00  0.00    +0.016 C 
ENDROOT
BRANCH   6  11
ATOM     11  O   UNL     1      34.164  -7.639 -22.941  0.00  0.00    -0.453 OA
BRANCH  11  13
ATOM     12 CL   UNL     1      30.560  -4.636 -24.954  0.00  0.00    -0.082 Cl
ATOM     13  C   UNL     1      33.789  -6.772 -23.948  0.00  0.00    +0.147 C 
ATOM     14  C   UNL     1      34.685  -6.460 -24.971  0.00  0.00    +0.048 C 
ATOM     15  C   UNL     1      32.513  -6.208 -23.944  0.00  0.00    +0.049 C 
ATOM     16  C   UNL     1      34.306  -5.585 -25.988  0.00  0.00    +0.072 C 
ATOM     17  C   UNL     1      32.134  -5.332 -24.961  0.00  0.00    +0.061 C 
ATOM     18  C   UNL     1      33.030  -5.021 -25.983  0.00  0.00    +0.022 C 
BRANCH  16  20
ATOM     19  N   UNL     1      35.971  -5.006 -27.885  0.00  0.00    -0.191 NA
ATOM     20  C   UNL     1      35.225  -5.266 -27.035  0.00  0.00    +0.101 C 
ENDBRANCH  16  20
ENDBRANCH  11  13
ENDBRANCH   6  11
BRANCH   2  21
ATOM     21  C   UNL     1      33.171 -13.290 -24.743  0.00  0.00    +0.159 C 
BRANCH  21  25
ATOM     22  N   UNL     1      34.398 -14.011 -22.669  0.00  0.00    -0.230 N 
ATOM     23  N   UNL     1      35.033 -15.032 -22.056  0.00  0.00    -0.128 NA
ATOM     24  N   UNL     1      35.434 -17.299 -22.820  0.00  0.00    -0.192 NA
ATOM     25  C   UNL     1      33.910 -14.309 -23.911  0.00  0.00    +0.071 C 
ATOM     26  C   UNL     1      34.253 -15.616 -24.117  0.00  0.00    +0.058 C 
ATOM     27  C   UNL     1      34.949 -16.032 -22.942  0.00  0.00    +0.049 C 
ATOM     28  C   UNL     1      33.968 -16.365 -25.249  0.00  0.00    +0.065 C 
ATOM     29  C   UNL     1      34.474 -17.662 -25.104  0.00  0.00    +0.001 C 
ATOM     30  C   UNL     1      35.162 -18.056 -23.932  0.00  0.00    +0.105 C 
ATOM     31  H   UNL     1      34.296 -13.124 -22.255  0.00  0.00    +0.175 HD
ENDBRANCH  21  25
ENDBRANCH   2  21
TORSDOF 5
ENDMDL
MODEL 7
REMARK VINA RESULT:     -11.2      1.943      2.566
REMARK  Name = 24988948
REMARK  5 active torsions:
REMARK  status: ('A' for Active; 'I' for Inactive)
REMARK    1  A    between atoms: N_2  and  C_21
REMARK    2  A    between atoms: C_6  and  O_11
REMARK    3  A    between atoms: O_11  and  C_13
REMARK    4  A    between atoms: C_16  and  C_20
REMARK    5  A    between atoms: C_21  and  C_25
REMARK                            x       y       z     vdW  Elec       q    Type
REMARK                         _______ _______ _______ _____ _____    ______ ____
ROOT
ATOM      1 CL   UNL     1      32.315 -13.244 -20.060  0.00  0.00    -0.079 Cl
ATOM      2  N   UNL     1      35.456 -17.213 -22.941  0.00  0.00    -0.205 N 
ATOM      3  N   UNL     1      35.062 -17.079 -24.219  0.00  0.00    -0.176 NA
ATOM      4  C   UNL     1      34.833 -16.360 -22.070  0.00  0.00    +0.074 C 
ATOM      5  C   UNL     1      33.961 -15.611 -22.851  0.00  0.00    +0.071 C 
ATOM      6  C   UNL     1      33.162 -14.629 -22.242  0.00  0.00    +0.158 C 
ATOM      7  C   UNL     1      34.152 -16.103 -24.160  0.00  0.00    +0.122 C 
ATOM      8  C   UNL     1      34.959 -16.188 -20.690  0.00  0.00    +0.017 C 
ATOM      9  C   UNL     1      33.273 -14.440 -20.859  0.00  0.00    +0.092 C 
ATOM     10  C   UNL     1      34.156 -15.206 -20.098  0.00  0.00    +0.016 C 
ENDROOT
BRANCH   6  11
ATOM     11  O   UNL     1      32.295 -13.877 -22.988  0.00  0.00    -0.453 OA
BRANCH  11  13
ATOM     12 CL   UNL     1      31.709  -8.920 -21.919  0.00  0.00    -0.082 Cl
ATOM     13  C   UNL     1      32.653 -12.570 -23.254  0.00  0.00    +0.147 C 
ATOM     14  C   UNL     1      33.599 -12.294 -24.242  0.00  0.00    +0.048 C 
ATOM     15  C   UNL     1      32.069 -11.527 -22.537  0.00  0.00    +0.049 C 
ATOM     16  C   UNL     1      33.960 -10.974 -24.511  0.00  0.00    +0.072 C 
ATOM     17  C   UNL     1      32.430 -10.207 -22.805  0.00  0.00    +0.061 C 
ATOM     18  C   UNL     1      33.376  -9.930 -23.793  0.00  0.00    +0.022 C 
BRANCH  16  20
ATOM     19  N   UNL     1      35.716 -10.461 -26.343  0.00  0.00    -0.191 NA
ATOM     20  C   UNL     1      34.930 -10.691 -25.522  0.00  0.00    +0.101 C 
ENDBRANCH  16  20
ENDBRANCH  11  13
ENDBRANCH   6  11
BRANCH   2  21
ATOM     21  C   UNL     1      36.458 -18.201 -22.615  0.00  0.00    +0.159 C 
BRANCH  21  25
ATOM     22  N   UNL     1      36.952 -19.569 -20.562  0.00  0.00    -0.230 N 
ATOM     23  N   UNL     1      36.428 -20.376 -19.615  0.00  0.00    -0.128 NA
ATOM     24  N   UNL     1      34.144 -21.130 -19.304  0.00  0.00    -0.192 NA
ATOM     25  C   UNL     1      36.051 -19.113 -21.484  0.00  0.00    +0.071 C 
ATOM     26  C   UNL     1      34.857 -19.663 -21.106  0.00  0.00    +0.058 C 
ATOM     27  C   UNL     1      35.132 -20.441 -19.940  0.00  0.00    +0.049 C 
ATOM     28  C   UNL     1      33.639 -19.484 -21.744  0.00  0.00    +0.065 C 
ATOM     29  C   UNL     1      32.640 -20.199 -21.076  0.00  0.00    +0.001 C 
ATOM     30  C   UNL     1      32.930 -20.965 -19.921  0.00  0.00    +0.105 C 
ATOM     31  H   UNL     1      37.907 -19.331 -20.588  0.00  0.00    +0.175 HD
ENDBRANCH  21  25
ENDBRANCH   2  21
TORSDOF 5
ENDMDL
MODEL 8
REMARK VINA RESULT:     -11.2      3.408     10.547
REMARK  Name = 24988948
REMARK  5 active torsions:
REMARK  status: ('A' for Active; 'I' for Inactive)
REMARK    1  A    between atoms: N_2  and  C_21
REMARK    2  A    between atoms: C_6  and  O_11
REMARK    3  A    between atoms: O_11  and  C_13
REMARK    4  A    between atoms: C_16  and  C_20
REMARK    5  A    between atoms: C_21  and  C_25
REMARK                            x       y       z     vdW  Elec       q    Type
REMARK                         _______ _______ _______ _____ _____    ______ ____
ROOT
ATOM      1 CL   UNL     1      34.955 -11.913 -26.486  0.00  0.00    -0.079 Cl
ATOM      2  N   UNL     1      32.783  -8.696 -22.143  0.00  0.00    -0.205 N 
ATOM      3  N   UNL     1      31.793  -9.451 -21.638  0.00  0.00    -0.176 NA
ATOM      4  C   UNL     1      33.444  -9.269 -23.196  0.00  0.00    +0.074 C 
ATOM      5  C   UNL     1      32.828 -10.500 -23.389  0.00  0.00    +0.071 C 
ATOM      6  C   UNL     1      33.285 -11.345 -24.415  0.00  0.00    +0.158 C 
ATOM      7  C   UNL     1      31.824 -10.549 -22.399  0.00  0.00    +0.122 C 
ATOM      8  C   UNL     1      34.509  -8.818 -23.980  0.00  0.00    +0.017 C 
ATOM      9  C   UNL     1      34.352 -10.912 -25.212  0.00  0.00    +0.092 C 
ATOM     10  C   UNL     1      34.952  -9.671 -24.997  0.00  0.00    +0.016 C 
ENDROOT
BRANCH   6  11
ATOM     11  O   UNL     1      32.696 -12.562 -24.626  0.00  0.00    -0.453 OA
BRANCH  11  13
ATOM     12 CL   UNL     1      34.707 -14.725 -20.462  0.00  0.00    -0.082 Cl
ATOM     13  C   UNL     1      33.295 -13.666 -24.051  0.00  0.00    +0.147 C 
ATOM     14  C   UNL     1      33.538 -14.806 -24.818  0.00  0.00    +0.048 C 
ATOM     15  C   UNL     1      33.657 -13.642 -22.705  0.00  0.00    +0.049 C 
ATOM     16  C   UNL     1      34.142 -15.921 -24.238  0.00  0.00    +0.072 C 
ATOM     17  C   UNL     1      34.261 -14.756 -22.124  0.00  0.00    +0.061 C 
ATOM     18  C   UNL     1      34.505 -15.896 -22.890  0.00  0.00    +0.022 C 
BRANCH  16  20
ATOM     19  N   UNL     1      34.592 -18.037 -25.660  0.00  0.00    -0.191 NA
ATOM     20  C   UNL     1      34.391 -17.089 -25.023  0.00  0.00    +0.101 C 
ENDBRANCH  16  20
ENDBRANCH  11  13
ENDBRANCH   6  11
BRANCH   2  21
ATOM     21  C   UNL     1      33.050  -7.404 -21.556  0.00  0.00    +0.159 C 
BRANCH  21  25
ATOM     22  N   UNL     1      31.170  -5.757 -21.269  0.00  0.00    -0.230 N 
ATOM     23  N   UNL     1      30.435  -4.798 -21.871  0.00  0.00    -0.128 NA
ATOM     24  N   UNL     1      30.568  -3.924 -24.130  0.00  0.00    -0.192 NA
ATOM     25  C   UNL     1      32.134  -6.317 -22.061  0.00  0.00    +0.071 C 
ATOM     26  C   UNL     1      32.016  -5.674 -23.262  0.00  0.00    +0.058 C 
ATOM     27  C   UNL     1      30.950  -4.737 -23.105  0.00  0.00    +0.049 C 
ATOM     28  C   UNL     1      32.790  -5.904 -24.390  0.00  0.00    +0.065 C 
ATOM     29  C   UNL     1      32.382  -5.060 -25.429  0.00  0.00    +0.001 C 
ATOM     30  C   UNL     1      31.323  -4.137 -25.255  0.00  0.00    +0.105 C 
ATOM     31  H   UNL     1      31.023  -6.032 -20.335  0.00  0.00    +0.175 HD
ENDBRANCH  21  25
ENDBRANCH   2  21
TORSDOF 5
ENDMDL
MODEL 9
REMARK VINA RESULT:     -11.1      1.764      3.262
REMARK  Name = 24988948
REMARK  5 active torsions:
REMARK  status: ('A' for Active; 'I' for Inactive)
REMARK    1  A    between atoms: N_2  and  C_21
REMARK    2  A    between atoms: C_6  and  O_11
REMARK    3  A    between atoms: O_11  and  C_13
REMARK    4  A    between atoms: C_16  and  C_20
REMARK    5  A    between atoms: C_21  and  C_25
REMARK                            x       y       z     vdW  Elec       q    Type
REMARK                         _______ _______ _______ _____ _____    ______ ____
ROOT
ATOM      1 CL   UNL     1      33.266 -12.008 -26.803  0.00  0.00    -0.079 Cl
ATOM      2  N   UNL     1      34.128 -16.416 -23.096  0.00  0.00    -0.205 N 
ATOM      3  N   UNL     1      34.601 -15.824 -21.985  0.00  0.00    -0.176 NA
ATOM      4  C   UNL     1      33.852 -15.549 -24.119  0.00  0.00    +0.074 C 
ATOM      5  C   UNL     1      34.173 -14.289 -23.628  0.00  0.00    +0.071 C 
ATOM      6  C   UNL     1      33.998 -13.165 -24.452  0.00  0.00    +0.158 C 
ATOM      7  C   UNL     1      34.626 -14.530 -22.313  0.00  0.00    +0.122 C 
ATOM      8  C   UNL     1      33.358 -15.762 -25.408  0.00  0.00    +0.017 C 
ATOM      9  C   UNL     1      33.503 -13.356 -25.749  0.00  0.00    +0.092 C 
ATOM     10  C   UNL     1      33.189 -14.633 -26.216  0.00  0.00    +0.016 C 
ENDROOT
BRANCH   6  11
ATOM     11  O   UNL     1      34.307 -11.913 -23.995  0.00  0.00    -0.453 OA
BRANCH  11  13
ATOM     12 CL   UNL     1      30.295 -11.514 -20.862  0.00  0.00    -0.082 Cl
ATOM     13  C   UNL     1      33.270 -11.140 -23.510  0.00  0.00    +0.147 C 
ATOM     14  C   UNL     1      33.085  -9.842 -23.987  0.00  0.00    +0.048 C 
ATOM     15  C   UNL     1      32.406 -11.656 -22.544  0.00  0.00    +0.049 C 
ATOM     16  C   UNL     1      32.037  -9.062 -23.499  0.00  0.00    +0.072 C 
ATOM     17  C   UNL     1      31.359 -10.876 -22.054  0.00  0.00    +0.061 C 
ATOM     18  C   UNL     1      31.174  -9.579 -22.532  0.00  0.00    +0.022 C 
BRANCH  16  20
ATOM     19  N   UNL     1      31.697  -6.653 -24.384  0.00  0.00    -0.191 NA
ATOM     20  C   UNL     1      31.849  -7.732 -23.987  0.00  0.00    +0.101 C 
ENDBRANCH  16  20
ENDBRANCH  11  13
ENDBRANCH   6  11
BRANCH   2  21
ATOM     21  C   UNL     1      33.962 -17.851 -23.110  0.00  0.00    +0.159 C 
BRANCH  21  25
ATOM     22  N   UNL     1      36.207 -18.305 -22.070  0.00  0.00    -0.230 N 
ATOM     23  N   UNL     1      36.875 -19.030 -21.147  0.00  0.00    -0.128 NA
ATOM     24  N   UNL     1      36.060 -20.714 -19.603  0.00  0.00    -0.192 NA
ATOM     25  C   UNL     1      34.867 -18.567 -22.138  0.00  0.00    +0.071 C 
ATOM     26  C   UNL     1      34.650 -19.530 -21.191  0.00  0.00    +0.058 C 
ATOM     27  C   UNL     1      35.922 -19.791 -20.596  0.00  0.00    +0.049 C 
ATOM     28  C   UNL     1      33.431 -20.117 -20.889  0.00  0.00    +0.065 C 
ATOM     29  C   UNL     1      33.594 -21.059 -19.868  0.00  0.00    +0.001 C 
ATOM     30  C   UNL     1      34.862 -21.305 -19.290  0.00  0.00    +0.105 C 
ATOM     31  H   UNL     1      36.650 -17.643 -22.648  0.00  0.00    +0.175 HD
ENDBRANCH  21  25
ENDBRANCH   2  21
TORSDOF 5
ENDMDL
