MODEL 1
REMARK VINA RESULT:      -8.6      0.000      0.000
REMARK  Name = 16122635
REMARK  4 active torsions:
REMARK  status: ('A' for Active; 'I' for Inactive)
REMARK    1  A    between atoms: C_1  and  C_3
REMARK    2  A    between atoms: C_1  and  C_9
REMARK    3  A    between atoms: C_1  and  C_15
REMARK    4  A    between atoms: C_15  and  N_16
REMARK                            x       y       z     vdW  Elec       q    Type
REMARK                         _______ _______ _______ _____ _____    ______ ____
ROOT
ATOM      1  C   UNL     1      35.435 -17.964 -22.056  0.00  0.00    +0.023 C 
ENDROOT
BRANCH   1   3
ATOM      2 CL   UNL     1      32.172 -12.909 -21.432  0.00  0.00    -0.082 Cl
ATOM      3  C   UNL     1      34.604 -16.679 -21.897  0.00  0.00    -0.020 C 
ATOM      4  C   UNL     1      34.453 -16.098 -20.639  0.00  0.00    -0.003 C 
ATOM      5  C   UNL     1      34.004 -16.095 -23.012  0.00  0.00    -0.003 C 
ATOM      6  C   UNL     1      33.701 -14.932 -20.495  0.00  0.00    +0.011 C 
ATOM      7  C   UNL     1      33.251 -14.929 -22.869  0.00  0.00    +0.011 C 
ATOM      8  C   UNL     1      33.100 -14.347 -21.610  0.00  0.00    +0.058 C 
ENDBRANCH   1   3
BRANCH   1   9
ATOM      9  C   UNL     1      34.896 -19.094 -21.246  0.00  0.00    -0.021 C 
ATOM     10  C   UNL     1      35.769 -19.993 -20.634  0.00  0.00    -0.004 C 
ATOM     11  C   UNL     1      33.517 -19.251 -21.100  0.00  0.00    -0.004 C 
ATOM     12  C   UNL     1      35.264 -21.050 -19.877  0.00  0.00    -0.000 C 
ATOM     13  C   UNL     1      33.013 -20.308 -20.342  0.00  0.00    -0.000 C 
ATOM     14  C   UNL     1      33.886 -21.207 -19.730  0.00  0.00    -0.000 C 
ENDBRANCH   1   9
BRANCH   1  15
ATOM     15  C   UNL     1      35.691 -18.300 -23.560  0.00  0.00    -0.077 C 
BRANCH  15  16
ATOM     16  N   UNL     1      34.861 -19.423 -23.994  0.00  0.00    +0.381 N 
ATOM     17  H   UNL     1      34.296 -19.139 -24.793  0.00  0.00    -0.089 HD
ATOM     18  H   UNL     1      34.250 -19.709 -23.229  0.00  0.00    -0.089 HD
ATOM     19  H   UNL     1      35.460 -20.205 -24.261  0.00  0.00    -0.089 HD
ENDBRANCH  15  16
ENDBRANCH   1  15
TORSDOF 4
ENDMDL
MODEL 2
REMARK VINA RESULT:      -8.6      0.022      1.208
REMARK  Name = 16122635
REMARK  4 active torsions:
REMARK  status: ('A' for Active; 'I' for Inactive)
REMARK    1  A    between atoms: C_1  and  C_3
REMARK    2  A    between atoms: C_1  and  C_9
REMARK    3  A    between atoms: C_1  and  C_15
REMARK    4  A    between atoms: C_15  and  N_16
REMARK                            x       y       z     vdW  Elec       q    Type
REMARK                         _______ _______ _______ _____ _____    ______ ____
ROOT
ATOM      1  C   UNL     1      35.441 -17.962 -22.055  0.00  0.00    +0.023 C 
ENDROOT
BRANCH   1   3
ATOM      2 CL   UNL     1      32.172 -12.905 -21.475  0.00  0.00    -0.082 Cl
ATOM      3  C   UNL     1      34.609 -16.676 -21.907  0.00  0.00    -0.020 C 
ATOM      4  C   UNL     1      34.462 -16.081 -20.655  0.00  0.00    -0.003 C 
ATOM      5  C   UNL     1      34.003 -16.106 -23.027  0.00  0.00    -0.003 C 
ATOM      6  C   UNL     1      33.708 -14.915 -20.521  0.00  0.00    +0.011 C 
ATOM      7  C   UNL     1      33.249 -14.940 -22.893  0.00  0.00    +0.011 C 
ATOM      8  C   UNL     1      33.102 -14.343 -21.640  0.00  0.00    +0.058 C 
ENDBRANCH   1   3
BRANCH   1   9
ATOM      9  C   UNL     1      34.897 -19.088 -21.243  0.00  0.00    -0.021 C 
ATOM     10  C   UNL     1      33.518 -19.247 -21.105  0.00  0.00    -0.004 C 
ATOM     11  C   UNL     1      35.769 -19.983 -20.621  0.00  0.00    -0.004 C 
ATOM     12  C   UNL     1      33.010 -20.301 -20.345  0.00  0.00    -0.000 C 
ATOM     13  C   UNL     1      35.259 -21.036 -19.860  0.00  0.00    -0.000 C 
ATOM     14  C   UNL     1      33.881 -21.195 -19.723  0.00  0.00    -0.000 C 
ENDBRANCH   1   9
BRANCH   1  15
ATOM     15  C   UNL     1      35.705 -18.305 -23.556  0.00  0.00    -0.077 C 
BRANCH  15  16
ATOM     16  N   UNL     1      34.887 -19.440 -23.985  0.00  0.00    +0.381 N 
ATOM     17  H   UNL     1      34.113 -19.566 -23.335  0.00  0.00    -0.089 HD
ATOM     18  H   UNL     1      35.460 -20.284 -24.000  0.00  0.00    -0.089 HD
ATOM     19  H   UNL     1      34.521 -19.260 -24.921  0.00  0.00    -0.089 HD
ENDBRANCH  15  16
ENDBRANCH   1  15
TORSDOF 4
ENDMDL
MODEL 3
REMARK VINA RESULT:      -8.3      2.742      5.287
REMARK  Name = 16122635
REMARK  4 active torsions:
REMARK  status: ('A' for Active; 'I' for Inactive)
REMARK    1  A    between atoms: C_1  and  C_3
REMARK    2  A    between atoms: C_1  and  C_9
REMARK    3  A    between atoms: C_1  and  C_15
REMARK    4  A    between atoms: C_15  and  N_16
REMARK                            x       y       z     vdW  Elec       q    Type
REMARK                         _______ _______ _______ _____ _____    ______ ____
ROOT
ATOM      1  C   UNL     1      34.273 -18.502 -22.658  0.00  0.00    +0.023 C 
ENDROOT
BRANCH   1   3
ATOM      2 CL   UNL     1      34.505 -22.492 -18.117  0.00  0.00    -0.082 Cl
ATOM      3  C   UNL     1      34.333 -19.518 -21.504  0.00  0.00    -0.020 C 
ATOM      4  C   UNL     1      35.564 -20.003 -21.064  0.00  0.00    -0.003 C 
ATOM      5  C   UNL     1      33.154 -19.952 -20.897  0.00  0.00    -0.003 C 
ATOM      6  C   UNL     1      35.617 -20.922 -20.017  0.00  0.00    +0.011 C 
ATOM      7  C   UNL     1      33.208 -20.872 -19.850  0.00  0.00    +0.011 C 
ATOM      8  C   UNL     1      34.439 -21.357 -19.409  0.00  0.00    +0.058 C 
ENDBRANCH   1   3
BRANCH   1   9
ATOM      9  C   UNL     1      34.372 -17.093 -22.180  0.00  0.00    -0.021 C 
ATOM     10  C   UNL     1      34.516 -16.826 -20.818  0.00  0.00    -0.004 C 
ATOM     11  C   UNL     1      34.322 -16.041 -23.096  0.00  0.00    -0.004 C 
ATOM     12  C   UNL     1      34.609 -15.508 -20.372  0.00  0.00    -0.000 C 
ATOM     13  C   UNL     1      34.415 -14.723 -22.648  0.00  0.00    -0.000 C 
ATOM     14  C   UNL     1      34.558 -14.456 -21.287  0.00  0.00    -0.000 C 
ENDBRANCH   1   9
BRANCH   1  15
ATOM     15  C   UNL     1      35.266 -18.876 -23.804  0.00  0.00    -0.077 C 
BRANCH  15  16
ATOM     16  N   UNL     1      34.555 -19.094 -25.063  0.00  0.00    +0.381 N 
ATOM     17  H   UNL     1      34.599 -18.247 -25.629  0.00  0.00    -0.089 HD
ATOM     18  H   UNL     1      33.580 -19.322 -24.867  0.00  0.00    -0.089 HD
ATOM     19  H   UNL     1      34.989 -19.866 -25.570  0.00  0.00    -0.089 HD
ENDBRANCH  15  16
ENDBRANCH   1  15
TORSDOF 4
ENDMDL
MODEL 4
REMARK VINA RESULT:      -8.1      2.140      2.849
REMARK  Name = 16122635
REMARK  4 active torsions:
REMARK  status: ('A' for Active; 'I' for Inactive)
REMARK    1  A    between atoms: C_1  and  C_3
REMARK    2  A    between atoms: C_1  and  C_9
REMARK    3  A    between atoms: C_1  and  C_15
REMARK    4  A    between atoms: C_15  and  N_16
REMARK                            x       y       z     vdW  Elec       q    Type
REMARK                         _______ _______ _______ _____ _____    ______ ____
ROOT
ATOM      1  C   UNL     1      36.030 -18.840 -21.077  0.00  0.00    +0.023 C 
ENDROOT
BRANCH   1   3
ATOM      2 CL   UNL     1      33.748 -15.876 -25.831  0.00  0.00    -0.082 Cl
ATOM      3  C   UNL     1      35.451 -18.087 -22.286  0.00  0.00    -0.020 C 
ATOM      4  C   UNL     1      35.202 -18.767 -23.478  0.00  0.00    -0.003 C 
ATOM      5  C   UNL     1      35.174 -16.723 -22.190  0.00  0.00    -0.003 C 
ATOM      6  C   UNL     1      34.675 -18.083 -24.574  0.00  0.00    +0.011 C 
ATOM      7  C   UNL     1      34.647 -16.040 -23.286  0.00  0.00    +0.011 C 
ATOM      8  C   UNL     1      34.397 -16.720 -24.478  0.00  0.00    +0.058 C 
ENDBRANCH   1   3
BRANCH   1   9
ATOM      9  C   UNL     1      35.083 -19.856 -20.533  0.00  0.00    -0.021 C 
ATOM     10  C   UNL     1      35.572 -20.991 -19.888  0.00  0.00    -0.004 C 
ATOM     11  C   UNL     1      33.707 -19.669 -20.670  0.00  0.00    -0.004 C 
ATOM     12  C   UNL     1      34.686 -21.942 -19.380  0.00  0.00    -0.000 C 
ATOM     13  C   UNL     1      32.821 -20.620 -20.161  0.00  0.00    -0.000 C 
ATOM     14  C   UNL     1      33.311 -21.756 -19.516  0.00  0.00    -0.000 C 
ENDBRANCH   1   9
BRANCH   1  15
ATOM     15  C   UNL     1      37.468 -19.375 -21.368  0.00  0.00    -0.077 C 
BRANCH  15  16
ATOM     16  N   UNL     1      38.206 -18.452 -22.230  0.00  0.00    +0.381 N 
ATOM     17  H   UNL     1      39.178 -18.752 -22.296  0.00  0.00    -0.089 HD
ATOM     18  H   UNL     1      38.166 -17.513 -21.834  0.00  0.00    -0.089 HD
ATOM     19  H   UNL     1      37.787 -18.447 -23.160  0.00  0.00    -0.089 HD
ENDBRANCH  15  16
ENDBRANCH   1  15
TORSDOF 4
ENDMDL
MODEL 5
REMARK VINA RESULT:      -8.0      3.143      5.525
REMARK  Name = 16122635
REMARK  4 active torsions:
REMARK  status: ('A' for Active; 'I' for Inactive)
REMARK    1  A    between atoms: C_1  and  C_3
REMARK    2  A    between atoms: C_1  and  C_9
REMARK    3  A    between atoms: C_1  and  C_15
REMARK    4  A    between atoms: C_15  and  N_16
REMARK                            x       y       z     vdW  Elec       q    Type
REMARK                         _______ _______ _______ _____ _____    ______ ____
ROOT
ATOM      1  C   UNL     1      35.391 -17.820 -21.527  0.00  0.00    +0.023 C 
ENDROOT
BRANCH   1   3
ATOM      2 CL   UNL     1      33.808 -23.016 -18.864  0.00  0.00    -0.082 Cl
ATOM      3  C   UNL     1      34.988 -19.141 -20.848  0.00  0.00    -0.020 C 
ATOM      4  C   UNL     1      33.640 -19.471 -20.710  0.00  0.00    -0.003 C 
ATOM      5  C   UNL     1      35.971 -20.008 -20.374  0.00  0.00    -0.003 C 
ATOM      6  C   UNL     1      33.275 -20.670 -20.097  0.00  0.00    +0.011 C 
ATOM      7  C   UNL     1      35.607 -21.207 -19.760  0.00  0.00    +0.011 C 
ATOM      8  C   UNL     1      34.258 -21.538 -19.622  0.00  0.00    +0.058 C 
ENDBRANCH   1   3
BRANCH   1   9
ATOM      9  C   UNL     1      35.028 -17.790 -22.973  0.00  0.00    -0.021 C 
ATOM     10  C   UNL     1      35.021 -16.580 -23.666  0.00  0.00    -0.004 C 
ATOM     11  C   UNL     1      34.699 -18.974 -23.633  0.00  0.00    -0.004 C 
ATOM     12  C   UNL     1      34.682 -16.553 -25.019  0.00  0.00    -0.000 C 
ATOM     13  C   UNL     1      34.360 -18.946 -24.987  0.00  0.00    -0.000 C 
ATOM     14  C   UNL     1      34.352 -17.736 -25.679  0.00  0.00    -0.000 C 
ENDBRANCH   1   9
BRANCH   1  15
ATOM     15  C   UNL     1      34.908 -16.583 -20.705  0.00  0.00    -0.077 C 
BRANCH  15  16
ATOM     16  N   UNL     1      33.520 -16.251 -21.024  0.00  0.00    +0.381 N 
ATOM     17  H   UNL     1      33.418 -15.239 -21.090  0.00  0.00    -0.089 HD
ATOM     18  H   UNL     1      32.909 -16.607 -20.289  0.00  0.00    -0.089 HD
ATOM     19  H   UNL     1      33.264 -16.678 -21.915  0.00  0.00    -0.089 HD
ENDBRANCH  15  16
ENDBRANCH   1  15
TORSDOF 4
ENDMDL
MODEL 6
REMARK VINA RESULT:      -8.0      3.175      5.532
REMARK  Name = 16122635
REMARK  4 active torsions:
REMARK  status: ('A' for Active; 'I' for Inactive)
REMARK    1  A    between atoms: C_1  and  C_3
REMARK    2  A    between atoms: C_1  and  C_9
REMARK    3  A    between atoms: C_1  and  C_15
REMARK    4  A    between atoms: C_15  and  N_16
REMARK                            x       y       z     vdW  Elec       q    Type
REMARK                         _______ _______ _______ _____ _____    ______ ____
ROOT
ATOM      1  C   UNL     1      34.940 -16.720 -21.645  0.00  0.00    +0.023 C 
ENDROOT
BRANCH   1   3
ATOM      2 CL   UNL     1      34.912 -22.436 -19.665  0.00  0.00    -0.082 Cl
ATOM      3  C   UNL     1      34.934 -18.174 -21.143  0.00  0.00    -0.020 C 
ATOM      4  C   UNL     1      36.137 -18.822 -20.867  0.00  0.00    -0.003 C 
ATOM      5  C   UNL     1      33.723 -18.843 -20.962  0.00  0.00    -0.003 C 
ATOM      6  C   UNL     1      36.130 -20.140 -20.410  0.00  0.00    +0.011 C 
ATOM      7  C   UNL     1      33.716 -20.161 -20.505  0.00  0.00    +0.011 C 
ATOM      8  C   UNL     1      34.920 -20.810 -20.228  0.00  0.00    +0.058 C 
ENDBRANCH   1   3
BRANCH   1   9
ATOM      9  C   UNL     1      34.580 -16.615 -23.088  0.00  0.00    -0.021 C 
ATOM     10  C   UNL     1      34.913 -17.645 -23.967  0.00  0.00    -0.004 C 
ATOM     11  C   UNL     1      33.907 -15.487 -23.558  0.00  0.00    -0.004 C 
ATOM     12  C   UNL     1      34.576 -17.547 -25.317  0.00  0.00    -0.000 C 
ATOM     13  C   UNL     1      33.569 -15.390 -24.909  0.00  0.00    -0.000 C 
ATOM     14  C   UNL     1      33.904 -16.419 -25.788  0.00  0.00    -0.000 C 
ENDBRANCH   1   9
BRANCH   1  15
ATOM     15  C   UNL     1      34.128 -15.781 -20.697  0.00  0.00    -0.077 C 
BRANCH  15  16
ATOM     16  N   UNL     1      34.818 -14.506 -20.506  0.00  0.00    +0.381 N 
ATOM     17  H   UNL     1      35.769 -14.577 -20.864  0.00  0.00    -0.089 HD
ATOM     18  H   UNL     1      34.845 -14.281 -19.511  0.00  0.00    -0.089 HD
ATOM     19  H   UNL     1      34.319 -13.770 -21.007  0.00  0.00    -0.089 HD
ENDBRANCH  15  16
ENDBRANCH   1  15
TORSDOF 4
ENDMDL
MODEL 7
REMARK VINA RESULT:      -7.9      8.808     11.818
REMARK  Name = 16122635
REMARK  4 active torsions:
REMARK  status: ('A' for Active; 'I' for Inactive)
REMARK    1  A    between atoms: C_1  and  C_3
REMARK    2  A    between atoms: C_1  and  C_9
REMARK    3  A    between atoms: C_1  and  C_15
REMARK    4  A    between atoms: C_15  and  N_16
REMARK                            x       y       z     vdW  Elec       q    Type
REMARK                         _______ _______ _______ _____ _____    ______ ____
ROOT
ATOM      1  C   UNL     1      31.901  -6.343 -22.311  0.00  0.00    +0.023 C 
ENDROOT
BRANCH   1   3
ATOM      2 CL   UNL     1      31.709 -11.974 -20.112  0.00  0.00    -0.082 Cl
ATOM      3  C   UNL     1      31.850  -7.775 -21.752  0.00  0.00    -0.020 C 
ATOM      4  C   UNL     1      31.484  -8.835 -22.581  0.00  0.00    -0.003 C 
ATOM      5  C   UNL     1      32.173  -8.012 -20.416  0.00  0.00    -0.003 C 
ATOM      6  C   UNL     1      31.440 -10.134 -22.074  0.00  0.00    +0.011 C 
ATOM      7  C   UNL     1      32.129  -9.311 -19.909  0.00  0.00    +0.011 C 
ATOM      8  C   UNL     1      31.763 -10.372 -20.738  0.00  0.00    +0.058 C 
ENDBRANCH   1   3
BRANCH   1   9
ATOM      9  C   UNL     1      32.738  -6.242 -23.541  0.00  0.00    -0.021 C 
ATOM     10  C   UNL     1      32.315  -5.453 -24.611  0.00  0.00    -0.004 C 
ATOM     11  C   UNL     1      33.946  -6.936 -23.621  0.00  0.00    -0.004 C 
ATOM     12  C   UNL     1      33.099  -5.360 -25.761  0.00  0.00    -0.000 C 
ATOM     13  C   UNL     1      34.730  -6.841 -24.772  0.00  0.00    -0.000 C 
ATOM     14  C   UNL     1      34.306  -6.053 -25.841  0.00  0.00    -0.000 C 
ENDBRANCH   1   9
BRANCH   1  15
ATOM     15  C   UNL     1      30.472  -5.726 -22.440  0.00  0.00    -0.077 C 
BRANCH  15  16
ATOM     16  N   UNL     1      30.422  -4.391 -21.844  0.00  0.00    +0.381 N 
ATOM     17  H   UNL     1      31.366  -4.092 -21.601  0.00  0.00    -0.089 HD
ATOM     18  H   UNL     1      29.846  -4.416 -21.003  0.00  0.00    -0.089 HD
ATOM     19  H   UNL     1      30.018  -3.735 -22.513  0.00  0.00    -0.089 HD
ENDBRANCH  15  16
ENDBRANCH   1  15
TORSDOF 4
ENDMDL
MODEL 8
REMARK VINA RESULT:      -7.8      2.697      5.308
REMARK  Name = 16122635
REMARK  4 active torsions:
REMARK  status: ('A' for Active; 'I' for Inactive)
REMARK    1  A    between atoms: C_1  and  C_3
REMARK    2  A    between atoms: C_1  and  C_9
REMARK    3  A    between atoms: C_1  and  C_15
REMARK    4  A    between atoms: C_15  and  N_16
REMARK                            x       y       z     vdW  Elec       q    Type
REMARK                         _______ _______ _______ _____ _____    ______ ____
ROOT
ATOM      1  C   UNL     1      34.298 -17.028 -22.968  0.00  0.00    +0.023 C 
ENDROOT
BRANCH   1   3
ATOM      2 CL   UNL     1      36.029 -21.483 -19.260  0.00  0.00    -0.082 Cl
ATOM      3  C   UNL     1      34.737 -18.161 -22.024  0.00  0.00    -0.020 C 
ATOM      4  C   UNL     1      33.790 -19.041 -21.502  0.00  0.00    -0.003 C 
ATOM      5  C   UNL     1      36.084 -18.307 -21.691  0.00  0.00    -0.003 C 
ATOM      6  C   UNL     1      34.190 -20.069 -20.647  0.00  0.00    +0.011 C 
ATOM      7  C   UNL     1      36.483 -19.334 -20.836  0.00  0.00    +0.011 C 
ATOM      8  C   UNL     1      35.536 -20.216 -20.314  0.00  0.00    +0.058 C 
ENDBRANCH   1   3
BRANCH   1   9
ATOM      9  C   UNL     1      33.663 -15.894 -22.237  0.00  0.00    -0.021 C 
ATOM     10  C   UNL     1      33.174 -14.795 -22.944  0.00  0.00    -0.004 C 
ATOM     11  C   UNL     1      33.557 -15.932 -20.846  0.00  0.00    -0.004 C 
ATOM     12  C   UNL     1      32.580 -13.734 -22.260  0.00  0.00    -0.000 C 
ATOM     13  C   UNL     1      32.962 -14.870 -20.164  0.00  0.00    -0.000 C 
ATOM     14  C   UNL     1      32.474 -13.772 -20.870  0.00  0.00    -0.000 C 
ENDBRANCH   1   9
BRANCH   1  15
ATOM     15  C   UNL     1      35.444 -16.618 -23.945  0.00  0.00    -0.077 C 
BRANCH  15  16
ATOM     16  N   UNL     1      35.058 -16.857 -25.336  0.00  0.00    +0.381 N 
ATOM     17  H   UNL     1      35.396 -16.092 -25.918  0.00  0.00    -0.089 HD
ATOM     18  H   UNL     1      34.041 -16.910 -25.401  0.00  0.00    -0.089 HD
ATOM     19  H   UNL     1      35.466 -17.735 -25.656  0.00  0.00    -0.089 HD
ENDBRANCH  15  16
ENDBRANCH   1  15
TORSDOF 4
ENDMDL
MODEL 9
REMARK VINA RESULT:      -7.7      3.563      6.600
REMARK  Name = 16122635
REMARK  4 active torsions:
REMARK  status: ('A' for Active; 'I' for Inactive)
REMARK    1  A    between atoms: C_1  and  C_3
REMARK    2  A    between atoms: C_1  and  C_9
REMARK    3  A    between atoms: C_1  and  C_15
REMARK    4  A    between atoms: C_15  and  N_16
REMARK                            x       y       z     vdW  Elec       q    Type
REMARK                         _______ _______ _______ _____ _____    ______ ____
ROOT
ATOM      1  C   UNL     1      33.484 -13.635 -22.803  0.00  0.00    +0.023 C 
ENDROOT
BRANCH   1   3
ATOM      2 CL   UNL     1      36.185 -18.832 -21.291  0.00  0.00    -0.082 Cl
ATOM      3  C   UNL     1      34.172 -14.956 -22.418  0.00  0.00    -0.020 C 
ATOM      4  C   UNL     1      34.189 -15.371 -21.087  0.00  0.00    -0.003 C 
ATOM      5  C   UNL     1      34.777 -15.738 -23.401  0.00  0.00    -0.003 C 
ATOM      6  C   UNL     1      34.811 -16.570 -20.738  0.00  0.00    +0.011 C 
ATOM      7  C   UNL     1      35.399 -16.937 -23.053  0.00  0.00    +0.011 C 
ATOM      8  C   UNL     1      35.416 -17.354 -21.721  0.00  0.00    +0.058 C 
ENDBRANCH   1   3
BRANCH   1   9
ATOM      9  C   UNL     1      33.417 -13.438 -24.279  0.00  0.00    -0.021 C 
ATOM     10  C   UNL     1      32.853 -14.424 -25.090  0.00  0.00    -0.004 C 
ATOM     11  C   UNL     1      33.917 -12.268 -24.851  0.00  0.00    -0.004 C 
ATOM     12  C   UNL     1      32.790 -14.239 -26.471  0.00  0.00    -0.000 C 
ATOM     13  C   UNL     1      33.854 -12.084 -26.233  0.00  0.00    -0.000 C 
ATOM     14  C   UNL     1      33.290 -13.070 -27.042  0.00  0.00    -0.000 C 
ENDBRANCH   1   9
BRANCH   1  15
ATOM     15  C   UNL     1      32.124 -13.456 -22.056  0.00  0.00    -0.077 C 
BRANCH  15  16
ATOM     16  N   UNL     1      31.603 -12.101 -22.234  0.00  0.00    +0.381 N 
ATOM     17  H   UNL     1      30.859 -11.932 -21.557  0.00  0.00    -0.089 HD
ATOM     18  H   UNL     1      31.233 -12.001 -23.179  0.00  0.00    -0.089 HD
ATOM     19  H   UNL     1      32.354 -11.426 -22.089  0.00  0.00    -0.089 HD
ENDBRANCH  15  16
ENDBRANCH   1  15
TORSDOF 4
ENDMDL
