MODEL 1
REMARK VINA RESULT:     -10.7      0.000      0.000
REMARK  Name = 9547919
REMARK  12 active torsions:
REMARK  status: ('A' for Active; 'I' for Inactive)
REMARK    1  A    between atoms: C_1  and  C_4
REMARK    2  A    between atoms: C_1  and  N_8
REMARK    3  A    between atoms: C_1  and  C_24
REMARK    4  A    between atoms: C_9  and  C_11
REMARK    5  A    between atoms: C_11  and  N_13
REMARK    6  A    between atoms: C_11  and  C_17
REMARK    7  A    between atoms: C_17  and  C_18
REMARK    8  A    between atoms: C_24  and  C_25
REMARK    9  A    between atoms: C_28  and  C_33
REMARK   10  A    between atoms: C_33  and  P_34
REMARK   11  A    between atoms: P_34  and  O_36
REMARK   12  A    between atoms: P_34  and  O_38
REMARK                            x       y       z     vdW  Elec       q    Type
REMARK                         _______ _______ _______ _____ _____    ______ ____
ROOT
ATOM      1  C   UNL     1      34.827 -18.139 -21.397  0.00  0.00    +0.153 C 
ENDROOT
BRANCH   1   4
ATOM      2  O   UNL     1      37.196 -18.667 -21.534  0.00  0.00    -0.274 OA
ATOM      3  N   UNL     1      36.122 -17.935 -23.428  0.00  0.00    -0.327 N 
ATOM      4  C   UNL     1      36.176 -18.267 -22.091  0.00  0.00    +0.238 C 
ATOM      5  H   UNL     1      36.937 -17.980 -23.980  0.00  0.00    +0.145 HD
ATOM      6  H   UNL     1      35.269 -17.651 -23.831  0.00  0.00    +0.145 HD
ENDBRANCH   1   4
BRANCH   1   8
ATOM      7  O   UNL     1      34.946 -15.545 -20.123  0.00  0.00    -0.273 OA
ATOM      8  N   UNL     1      34.227 -16.909 -21.860  0.00  0.00    -0.297 N 
ATOM      9  C   UNL     1      34.337 -15.704 -21.179  0.00  0.00    +0.241 C 
ATOM     10  H   UNL     1      33.714 -16.926 -22.700  0.00  0.00    +0.150 HD
BRANCH   9  11
ATOM     11  C   UNL     1      33.559 -14.587 -21.864  0.00  0.00    +0.153 C 
BRANCH  11  13
ATOM     12  O   UNL     1      34.054 -13.107 -24.312  0.00  0.00    -0.275 OA
ATOM     13  N   UNL     1      33.296 -15.015 -23.215  0.00  0.00    -0.298 N 
ATOM     14  C   UNL     1      33.568 -14.235 -24.327  0.00  0.00    +0.223 C 
ATOM     15  C   UNL     1      33.222 -14.933 -25.615  0.00  0.00    +0.095 C 
ATOM     16  H   UNL     1      32.904 -15.908 -23.354  0.00  0.00    +0.150 HD
ENDBRANCH  11  13
BRANCH  11  17
ATOM     17  C   UNL     1      32.269 -14.284 -21.091  0.00  0.00    +0.055 C 
BRANCH  17  18
ATOM     18  C   UNL     1      31.996 -12.806 -20.968  0.00  0.00    -0.020 C 
ATOM     19  C   UNL     1      31.794 -12.053 -22.115  0.00  0.00    -0.004 C 
ATOM     20  C   UNL     1      31.951 -12.226 -19.709  0.00  0.00    -0.004 C 
ATOM     21  C   UNL     1      31.542 -10.686 -22.000  0.00  0.00    -0.000 C 
ATOM     22  C   UNL     1      31.697 -10.858 -19.595  0.00  0.00    -0.000 C 
ATOM     23  C   UNL     1      31.494 -10.089 -20.741  0.00  0.00    -0.000 C 
ENDBRANCH  17  18
ENDBRANCH  11  17
ENDBRANCH   9  11
ENDBRANCH   1   8
BRANCH   1  24
ATOM     24  C   UNL     1      33.953 -19.361 -21.701  0.00  0.00    +0.055 C 
BRANCH  24  25
ATOM     25  C   UNL     1      33.916 -20.349 -20.560  0.00  0.00    -0.020 C 
ATOM     26  C   UNL     1      32.711 -20.614 -19.929  0.00  0.00    -0.004 C 
ATOM     27  C   UNL     1      35.089 -20.974 -20.166  0.00  0.00    -0.004 C 
ATOM     28  C   UNL     1      33.850 -22.165 -18.468  0.00  0.00    +0.049 C 
ATOM     29  C   UNL     1      32.678 -21.528 -18.875  0.00  0.00    +0.001 C 
ATOM     30  C   UNL     1      35.055 -21.888 -19.113  0.00  0.00    +0.001 C 
BRANCH  28  33
ATOM     31  F   UNL     1      32.797 -22.949 -16.461  0.00  0.00    -0.187 F 
ATOM     32  F   UNL     1      33.751 -24.445 -17.720  0.00  0.00    -0.187 F 
ATOM     33  C   UNL     1      33.813 -23.142 -17.341  0.00  0.00    +0.372 C 
BRANCH  33  34
ATOM     34  P   UNL     1      35.182 -23.195 -16.219  0.00  0.00    +0.401 P 
ATOM     35  O   UNL     1      36.450 -22.590 -16.746  0.00  0.00    -0.252 OA
BRANCH  34  36
ATOM     36  O   UNL     1      35.293 -24.757 -15.815  0.00  0.00    -0.320 OA
ATOM     37  H   UNL     1      35.278 -25.300 -16.618  0.00  0.00    +0.220 HD
ENDBRANCH  34  36
BRANCH  34  38
ATOM     38  O   UNL     1      34.615 -22.507 -14.870  0.00  0.00    -0.320 OA
ATOM     39  H   UNL     1      35.255 -21.853 -14.548  0.00  0.00    +0.220 HD
ENDBRANCH  34  38
ENDBRANCH  33  34
ENDBRANCH  28  33
ENDBRANCH  24  25
ENDBRANCH   1  24
TORSDOF 12
ENDMDL
MODEL 2
REMARK VINA RESULT:     -10.5      5.526      8.447
REMARK  Name = 9547919
REMARK  12 active torsions:
REMARK  status: ('A' for Active; 'I' for Inactive)
REMARK    1  A    between atoms: C_1  and  C_4
REMARK    2  A    between atoms: C_1  and  N_8
REMARK    3  A    between atoms: C_1  and  C_24
REMARK    4  A    between atoms: C_9  and  C_11
REMARK    5  A    between atoms: C_11  and  N_13
REMARK    6  A    between atoms: C_11  and  C_17
REMARK    7  A    between atoms: C_17  and  C_18
REMARK    8  A    between atoms: C_24  and  C_25
REMARK    9  A    between atoms: C_28  and  C_33
REMARK   10  A    between atoms: C_33  and  P_34
REMARK   11  A    between atoms: P_34  and  O_36
REMARK   12  A    between atoms: P_34  and  O_38
REMARK                            x       y       z     vdW  Elec       q    Type
REMARK                         _______ _______ _______ _____ _____    ______ ____
ROOT
ATOM      1  C   UNL     1      32.143 -23.778 -15.770  0.00  0.00    +0.153 C 
ENDROOT
BRANCH   1   4
ATOM      2  O   UNL     1      30.355 -22.685 -17.000  0.00  0.00    -0.274 OA
ATOM      3  N   UNL     1      30.218 -22.772 -14.709  0.00  0.00    -0.327 N 
ATOM      4  C   UNL     1      30.836 -23.014 -15.918  0.00  0.00    +0.238 C 
ATOM      5  H   UNL     1      29.363 -22.283 -14.682  0.00  0.00    +0.145 HD
ATOM      6  H   UNL     1      30.633 -23.087 -13.873  0.00  0.00    +0.145 HD
ENDBRANCH   1   4
BRANCH   1   8
ATOM      7  O   UNL     1      33.285 -23.951 -18.422  0.00  0.00    -0.273 OA
ATOM      8  N   UNL     1      33.186 -22.949 -16.329  0.00  0.00    -0.297 N 
ATOM      9  C   UNL     1      33.674 -23.106 -17.619  0.00  0.00    +0.241 C 
ATOM     10  H   UNL     1      33.570 -22.238 -15.767  0.00  0.00    +0.150 HD
BRANCH   9  11
ATOM     11  C   UNL     1      34.808 -22.134 -17.923  0.00  0.00    +0.153 C 
BRANCH  11  13
ATOM     12  O   UNL     1      37.195 -20.576 -17.373  0.00  0.00    -0.275 OA
ATOM     13  N   UNL     1      35.924 -22.505 -17.091  0.00  0.00    -0.298 N 
ATOM     14  C   UNL     1      37.026 -21.691 -16.886  0.00  0.00    +0.223 C 
ATOM     15  C   UNL     1      38.032 -22.310 -15.953  0.00  0.00    +0.095 C 
ATOM     16  H   UNL     1      35.902 -23.383 -16.644  0.00  0.00    +0.150 HD
ENDBRANCH  11  13
BRANCH  11  17
ATOM     17  C   UNL     1      35.159 -22.174 -19.415  0.00  0.00    +0.055 C 
BRANCH  17  18
ATOM     18  C   UNL     1      34.837 -20.883 -20.126  0.00  0.00    -0.020 C 
ATOM     19  C   UNL     1      33.513 -20.502 -20.277  0.00  0.00    -0.004 C 
ATOM     20  C   UNL     1      35.872 -20.100 -20.614  0.00  0.00    -0.004 C 
ATOM     21  C   UNL     1      33.215 -19.308 -20.934  0.00  0.00    -0.000 C 
ATOM     22  C   UNL     1      35.574 -18.904 -21.270  0.00  0.00    -0.000 C 
ATOM     23  C   UNL     1      34.246 -18.509 -21.431  0.00  0.00    -0.000 C 
ENDBRANCH  17  18
ENDBRANCH  11  17
ENDBRANCH   9  11
ENDBRANCH   1   8
BRANCH   1  24
ATOM     24  C   UNL     1      32.399 -24.117 -14.297  0.00  0.00    +0.055 C 
BRANCH  24  25
ATOM     25  C   UNL     1      33.853 -24.398 -14.006  0.00  0.00    -0.020 C 
ATOM     26  C   UNL     1      34.621 -25.056 -14.954  0.00  0.00    -0.004 C 
ATOM     27  C   UNL     1      34.393 -23.992 -12.796  0.00  0.00    -0.004 C 
ATOM     28  C   UNL     1      36.523 -24.911 -13.471  0.00  0.00    +0.049 C 
ATOM     29  C   UNL     1      35.965 -25.315 -14.684  0.00  0.00    +0.001 C 
ATOM     30  C   UNL     1      35.737 -24.251 -12.527  0.00  0.00    +0.001 C 
BRANCH  28  33
ATOM     31  F   UNL     1      38.737 -24.081 -13.075  0.00  0.00    -0.187 F 
ATOM     32  F   UNL     1      38.185 -25.928 -12.067  0.00  0.00    -0.187 F 
ATOM     33  C   UNL     1      37.960 -25.189 -13.184  0.00  0.00    +0.372 C 
BRANCH  33  34
ATOM     34  P   UNL     1      38.902 -26.103 -14.373  0.00  0.00    +0.401 P 
ATOM     35  O   UNL     1      38.243 -27.360 -14.864  0.00  0.00    -0.252 OA
BRANCH  34  36
ATOM     36  O   UNL     1      40.330 -26.326 -13.650  0.00  0.00    -0.320 OA
ATOM     37  H   UNL     1      40.516 -27.276 -13.585  0.00  0.00    +0.220 HD
ENDBRANCH  34  36
BRANCH  34  38
ATOM     38  O   UNL     1      39.239 -25.022 -15.528  0.00  0.00    -0.320 OA
ATOM     39  H   UNL     1      38.797 -24.183 -15.323  0.00  0.00    +0.220 HD
ENDBRANCH  34  38
ENDBRANCH  33  34
ENDBRANCH  28  33
ENDBRANCH  24  25
ENDBRANCH   1  24
TORSDOF 12
ENDMDL
MODEL 3
REMARK VINA RESULT:     -10.4      2.429      3.498
REMARK  Name = 9547919
REMARK  12 active torsions:
REMARK  status: ('A' for Active; 'I' for Inactive)
REMARK    1  A    between atoms: C_1  and  C_4
REMARK    2  A    between atoms: C_1  and  N_8
REMARK    3  A    between atoms: C_1  and  C_24
REMARK    4  A    between atoms: C_9  and  C_11
REMARK    5  A    between atoms: C_11  and  N_13
REMARK    6  A    between atoms: C_11  and  C_17
REMARK    7  A    between atoms: C_17  and  C_18
REMARK    8  A    between atoms: C_24  and  C_25
REMARK    9  A    between atoms: C_28  and  C_33
REMARK   10  A    between atoms: C_33  and  P_34
REMARK   11  A    between atoms: P_34  and  O_36
REMARK   12  A    between atoms: P_34  and  O_38
REMARK                            x       y       z     vdW  Elec       q    Type
REMARK                         _______ _______ _______ _____ _____    ______ ____
ROOT
ATOM      1  C   UNL     1      34.657 -15.652 -22.951  0.00  0.00    +0.153 C 
ENDROOT
BRANCH   1   4
ATOM      2  O   UNL     1      33.641 -15.706 -25.158  0.00  0.00    -0.274 OA
ATOM      3  N   UNL     1      35.291 -17.227 -24.671  0.00  0.00    -0.327 N 
ATOM      4  C   UNL     1      34.446 -16.183 -24.362  0.00  0.00    +0.238 C 
ATOM      5  H   UNL     1      35.245 -17.652 -25.559  0.00  0.00    +0.145 HD
ATOM      6  H   UNL     1      35.941 -17.549 -24.005  0.00  0.00    +0.145 HD
ENDBRANCH   1   4
BRANCH   1   8
ATOM      7  O   UNL     1      32.219 -14.103 -22.789  0.00  0.00    -0.273 OA
ATOM      8  N   UNL     1      34.528 -14.214 -23.014  0.00  0.00    -0.297 N 
ATOM      9  C   UNL     1      33.310 -13.554 -22.927  0.00  0.00    +0.241 C 
ATOM     10  H   UNL     1      35.345 -13.676 -23.125  0.00  0.00    +0.150 HD
BRANCH   9  11
ATOM     11  C   UNL     1      33.466 -12.046 -23.081  0.00  0.00    +0.153 C 
BRANCH  11  13
ATOM     12  O   UNL     1      34.937  -9.691 -23.930  0.00  0.00    -0.275 OA
ATOM     13  N   UNL     1      34.071 -11.807 -24.367  0.00  0.00    -0.298 N 
ATOM     14  C   UNL     1      34.758 -10.646 -24.682  0.00  0.00    +0.223 C 
ATOM     15  C   UNL     1      35.309 -10.668 -26.082  0.00  0.00    +0.095 C 
ATOM     16  H   UNL     1      33.992 -12.506 -25.057  0.00  0.00    +0.150 HD
ENDBRANCH  11  13
BRANCH  11  17
ATOM     17  C   UNL     1      32.105 -11.352 -22.943  0.00  0.00    +0.055 C 
BRANCH  17  18
ATOM     18  C   UNL     1      31.925 -10.681 -21.603  0.00  0.00    -0.020 C 
ATOM     19  C   UNL     1      32.257  -9.343 -21.463  0.00  0.00    -0.004 C 
ATOM     20  C   UNL     1      31.430 -11.416 -20.537  0.00  0.00    -0.004 C 
ATOM     21  C   UNL     1      32.090  -8.723 -20.226  0.00  0.00    -0.000 C 
ATOM     22  C   UNL     1      31.263 -10.795 -19.298  0.00  0.00    -0.000 C 
ATOM     23  C   UNL     1      31.593  -9.449 -19.143  0.00  0.00    -0.000 C 
ENDBRANCH  17  18
ENDBRANCH  11  17
ENDBRANCH   9  11
ENDBRANCH   1   8
BRANCH   1  24
ATOM     24  C   UNL     1      33.646 -16.283 -21.987  0.00  0.00    +0.055 C 
BRANCH  24  25
ATOM     25  C   UNL     1      34.113 -17.609 -21.438  0.00  0.00    -0.020 C 
ATOM     26  C   UNL     1      35.461 -17.803 -21.184  0.00  0.00    -0.004 C 
ATOM     27  C   UNL     1      33.183 -18.608 -21.196  0.00  0.00    -0.004 C 
ATOM     28  C   UNL     1      34.968 -20.044 -20.427  0.00  0.00    +0.049 C 
ATOM     29  C   UNL     1      35.892 -19.029 -20.676  0.00  0.00    +0.001 C 
ATOM     30  C   UNL     1      33.614 -19.834 -20.688  0.00  0.00    +0.001 C 
BRANCH  28  33
ATOM     31  F   UNL     1      35.857 -22.235 -20.825  0.00  0.00    -0.187 F 
ATOM     32  F   UNL     1      36.420 -21.269 -18.959  0.00  0.00    -0.187 F 
ATOM     33  C   UNL     1      35.429 -21.354 -19.884  0.00  0.00    +0.372 C 
BRANCH  33  34
ATOM     34  P   UNL     1      34.266 -22.373 -19.021  0.00  0.00    +0.401 P 
ATOM     35  O   UNL     1      32.909 -21.758 -18.837  0.00  0.00    -0.252 OA
BRANCH  34  36
ATOM     36  O   UNL     1      35.028 -22.757 -17.648  0.00  0.00    -0.320 OA
ATOM     37  H   UNL     1      34.826 -22.094 -16.969  0.00  0.00    +0.220 HD
ENDBRANCH  34  36
BRANCH  34  38
ATOM     38  O   UNL     1      34.270 -23.765 -19.845  0.00  0.00    -0.320 OA
ATOM     39  H   UNL     1      34.701 -24.453 -19.313  0.00  0.00    +0.220 HD
ENDBRANCH  34  38
ENDBRANCH  33  34
ENDBRANCH  28  33
ENDBRANCH  24  25
ENDBRANCH   1  24
TORSDOF 12
ENDMDL
MODEL 4
REMARK VINA RESULT:     -10.4      4.311      6.714
REMARK  Name = 9547919
REMARK  12 active torsions:
REMARK  status: ('A' for Active; 'I' for Inactive)
REMARK    1  A    between atoms: C_1  and  C_4
REMARK    2  A    between atoms: C_1  and  N_8
REMARK    3  A    between atoms: C_1  and  C_24
REMARK    4  A    between atoms: C_9  and  C_11
REMARK    5  A    between atoms: C_11  and  N_13
REMARK    6  A    between atoms: C_11  and  C_17
REMARK    7  A    between atoms: C_17  and  C_18
REMARK    8  A    between atoms: C_24  and  C_25
REMARK    9  A    between atoms: C_28  and  C_33
REMARK   10  A    between atoms: C_33  and  P_34
REMARK   11  A    between atoms: P_34  and  O_36
REMARK   12  A    between atoms: P_34  and  O_38
REMARK                            x       y       z     vdW  Elec       q    Type
REMARK                         _______ _______ _______ _____ _____    ______ ____
ROOT
ATOM      1  C   UNL     1      33.913 -12.052 -24.743  0.00  0.00    +0.153 C 
ENDROOT
BRANCH   1   4
ATOM      2  O   UNL     1      35.101 -11.068 -26.621  0.00  0.00    -0.274 OA
ATOM      3  N   UNL     1      33.473 -12.630 -27.048  0.00  0.00    -0.327 N 
ATOM      4  C   UNL     1      34.231 -11.835 -26.215  0.00  0.00    +0.238 C 
ATOM      5  H   UNL     1      33.592 -12.576 -28.024  0.00  0.00    +0.145 HD
ATOM      6  H   UNL     1      32.811 -13.253 -26.666  0.00  0.00    +0.145 HD
ENDBRANCH   1   4
BRANCH   1   8
ATOM      7  O   UNL     1      35.291  -9.666 -23.862  0.00  0.00    -0.273 OA
ATOM      8  N   UNL     1      33.319 -10.829 -24.251  0.00  0.00    -0.297 N 
ATOM      9  C   UNL     1      34.063  -9.729 -23.849  0.00  0.00    +0.241 C 
ATOM     10  H   UNL     1      32.337 -10.774 -24.200  0.00  0.00    +0.150 HD
BRANCH   9  11
ATOM     11  C   UNL     1      33.180  -8.603 -23.324  0.00  0.00    +0.153 C 
BRANCH  11  13
ATOM     12  O   UNL     1      32.229  -5.875 -23.041  0.00  0.00    -0.275 OA
ATOM     13  N   UNL     1      33.150  -7.577 -24.335  0.00  0.00    -0.298 N 
ATOM     14  C   UNL     1      32.675  -6.295 -24.105  0.00  0.00    +0.223 C 
ATOM     15  C   UNL     1      32.782  -5.417 -25.323  0.00  0.00    +0.095 C 
ATOM     16  H   UNL     1      33.484  -7.797 -25.235  0.00  0.00    +0.150 HD
ENDBRANCH  11  13
BRANCH  11  17
ATOM     17  C   UNL     1      31.780  -9.134 -22.995  0.00  0.00    +0.055 C 
BRANCH  17  18
ATOM     18  C   UNL     1      31.703  -9.772 -21.630  0.00  0.00    -0.020 C 
ATOM     19  C   UNL     1      32.042  -9.028 -20.511  0.00  0.00    -0.004 C 
ATOM     20  C   UNL     1      31.294 -11.092 -21.520  0.00  0.00    -0.004 C 
ATOM     21  C   UNL     1      31.971  -9.618 -19.250  0.00  0.00    -0.000 C 
ATOM     22  C   UNL     1      31.222 -11.682 -20.257  0.00  0.00    -0.000 C 
ATOM     23  C   UNL     1      31.561 -10.945 -19.122  0.00  0.00    -0.000 C 
ENDBRANCH  17  18
ENDBRANCH  11  17
ENDBRANCH   9  11
ENDBRANCH   1   8
BRANCH   1  24
ATOM     24  C   UNL     1      32.984 -13.259 -24.570  0.00  0.00    +0.055 C 
BRANCH  24  25
ATOM     25  C   UNL     1      33.619 -14.376 -23.778  0.00  0.00    -0.020 C 
ATOM     26  C   UNL     1      33.980 -15.547 -24.425  0.00  0.00    -0.004 C 
ATOM     27  C   UNL     1      33.830 -14.209 -22.419  0.00  0.00    -0.004 C 
ATOM     28  C   UNL     1      34.787 -16.425 -22.323  0.00  0.00    +0.049 C 
ATOM     29  C   UNL     1      34.568 -16.579 -23.693  0.00  0.00    +0.001 C 
ATOM     30  C   UNL     1      34.417 -15.240 -21.687  0.00  0.00    +0.001 C 
BRANCH  28  33
ATOM     31  F   UNL     1      36.577 -18.000 -22.064  0.00  0.00    -0.187 F 
ATOM     32  F   UNL     1      35.671 -17.231 -20.241  0.00  0.00    -0.187 F 
ATOM     33  C   UNL     1      35.415 -17.529 -21.542  0.00  0.00    +0.372 C 
BRANCH  33  34
ATOM     34  P   UNL     1      34.527 -19.050 -21.357  0.00  0.00    +0.401 P 
ATOM     35  O   UNL     1      33.085 -18.892 -20.972  0.00  0.00    -0.252 OA
BRANCH  34  36
ATOM     36  O   UNL     1      35.420 -19.897 -20.309  0.00  0.00    -0.320 OA
ATOM     37  H   UNL     1      34.839 -20.322 -19.659  0.00  0.00    +0.220 HD
ENDBRANCH  34  36
BRANCH  34  38
ATOM     38  O   UNL     1      34.772 -19.824 -22.756  0.00  0.00    -0.320 OA
ATOM     39  H   UNL     1      34.846 -19.176 -23.475  0.00  0.00    +0.220 HD
ENDBRANCH  34  38
ENDBRANCH  33  34
ENDBRANCH  28  33
ENDBRANCH  24  25
ENDBRANCH   1  24
TORSDOF 12
ENDMDL
MODEL 5
REMARK VINA RESULT:     -10.4      4.517      7.277
REMARK  Name = 9547919
REMARK  12 active torsions:
REMARK  status: ('A' for Active; 'I' for Inactive)
REMARK    1  A    between atoms: C_1  and  C_4
REMARK    2  A    between atoms: C_1  and  N_8
REMARK    3  A    between atoms: C_1  and  C_24
REMARK    4  A    between atoms: C_9  and  C_11
REMARK    5  A    between atoms: C_11  and  N_13
REMARK    6  A    between atoms: C_11  and  C_17
REMARK    7  A    between atoms: C_17  and  C_18
REMARK    8  A    between atoms: C_24  and  C_25
REMARK    9  A    between atoms: C_28  and  C_33
REMARK   10  A    between atoms: C_33  and  P_34
REMARK   11  A    between atoms: P_34  and  O_36
REMARK   12  A    between atoms: P_34  and  O_38
REMARK                            x       y       z     vdW  Elec       q    Type
REMARK                         _______ _______ _______ _____ _____    ______ ____
ROOT
ATOM      1  C   UNL     1      33.825 -12.163 -24.740  0.00  0.00    +0.153 C 
ENDROOT
BRANCH   1   4
ATOM      2  O   UNL     1      34.769 -11.530 -26.888  0.00  0.00    -0.274 OA
ATOM      3  N   UNL     1      33.058 -13.061 -26.849  0.00  0.00    -0.327 N 
ATOM      4  C   UNL     1      33.943 -12.186 -26.257  0.00  0.00    +0.238 C 
ATOM      5  H   UNL     1      33.044 -13.160 -27.829  0.00  0.00    +0.145 HD
ATOM      6  H   UNL     1      32.439 -13.588 -26.292  0.00  0.00    +0.145 HD
ENDBRANCH   1   4
BRANCH   1   8
ATOM      7  O   UNL     1      35.507  -9.910 -24.063  0.00  0.00    -0.273 OA
ATOM      8  N   UNL     1      33.398 -10.834 -24.367  0.00  0.00    -0.297 N 
ATOM      9  C   UNL     1      34.283  -9.809 -24.057  0.00  0.00    +0.241 C 
ATOM     10  H   UNL     1      32.433 -10.645 -24.331  0.00  0.00    +0.150 HD
BRANCH   9  11
ATOM     11  C   UNL     1      33.557  -8.534 -23.645  0.00  0.00    +0.153 C 
BRANCH  11  13
ATOM     12  O   UNL     1      31.196  -9.788 -22.514  0.00  0.00    -0.275 OA
ATOM     13  N   UNL     1      33.218  -8.666 -22.250  0.00  0.00    -0.298 N 
ATOM     14  C   UNL     1      32.062  -9.285 -21.803  0.00  0.00    +0.223 C 
ATOM     15  C   UNL     1      31.968  -9.309 -20.301  0.00  0.00    +0.095 C 
ATOM     16  H   UNL     1      33.841  -8.299 -21.581  0.00  0.00    +0.150 HD
ENDBRANCH  11  13
BRANCH  11  17
ATOM     17  C   UNL     1      34.439  -7.309 -23.913  0.00  0.00    +0.055 C 
BRANCH  17  18
ATOM     18  C   UNL     1      33.760  -6.279 -24.782  0.00  0.00    -0.020 C 
ATOM     19  C   UNL     1      32.514  -5.794 -24.415  0.00  0.00    -0.004 C 
ATOM     20  C   UNL     1      34.394  -5.836 -25.932  0.00  0.00    -0.004 C 
ATOM     21  C   UNL     1      31.886  -4.843 -25.218  0.00  0.00    -0.000 C 
ATOM     22  C   UNL     1      33.766  -4.883 -26.736  0.00  0.00    -0.000 C 
ATOM     23  C   UNL     1      32.512  -4.387 -26.379  0.00  0.00    -0.000 C 
ENDBRANCH  17  18
ENDBRANCH  11  17
ENDBRANCH   9  11
ENDBRANCH   1   8
BRANCH   1  24
ATOM     24  C   UNL     1      32.844 -13.241 -24.266  0.00  0.00    +0.055 C 
BRANCH  24  25
ATOM     25  C   UNL     1      33.533 -14.397 -23.583  0.00  0.00    -0.020 C 
ATOM     26  C   UNL     1      34.061 -15.424 -24.350  0.00  0.00    -0.004 C 
ATOM     27  C   UNL     1      33.625 -14.411 -22.200  0.00  0.00    -0.004 C 
ATOM     28  C   UNL     1      34.800 -16.518 -22.327  0.00  0.00    +0.049 C 
ATOM     29  C   UNL     1      34.698 -16.492 -23.718  0.00  0.00    +0.001 C 
ATOM     30  C   UNL     1      34.262 -15.478 -21.568  0.00  0.00    +0.001 C 
BRANCH  28  33
ATOM     31  F   UNL     1      36.638 -18.055 -22.243  0.00  0.00    -0.187 F 
ATOM     32  F   UNL     1      35.769 -17.456 -20.340  0.00  0.00    -0.187 F 
ATOM     33  C   UNL     1      35.481 -17.661 -21.652  0.00  0.00    +0.372 C 
BRANCH  33  34
ATOM     34  P   UNL     1      34.640 -19.217 -21.561  0.00  0.00    +0.401 P 
ATOM     35  O   UNL     1      33.284 -19.161 -20.919  0.00  0.00    -0.252 OA
BRANCH  34  36
ATOM     36  O   UNL     1      35.700 -20.189 -20.824  0.00  0.00    -0.320 OA
ATOM     37  H   UNL     1      35.228 -20.784 -20.220  0.00  0.00    +0.220 HD
ENDBRANCH  34  36
BRANCH  34  38
ATOM     38  O   UNL     1      34.644 -19.758 -23.085  0.00  0.00    -0.320 OA
ATOM     39  H   UNL     1      34.212 -19.107 -23.660  0.00  0.00    +0.220 HD
ENDBRANCH  34  38
ENDBRANCH  33  34
ENDBRANCH  28  33
ENDBRANCH  24  25
ENDBRANCH   1  24
TORSDOF 12
ENDMDL
MODEL 6
REMARK VINA RESULT:     -10.1      5.151     10.755
REMARK  Name = 9547919
REMARK  12 active torsions:
REMARK  status: ('A' for Active; 'I' for Inactive)
REMARK    1  A    between atoms: C_1  and  C_4
REMARK    2  A    between atoms: C_1  and  N_8
REMARK    3  A    between atoms: C_1  and  C_24
REMARK    4  A    between atoms: C_9  and  C_11
REMARK    5  A    between atoms: C_11  and  N_13
REMARK    6  A    between atoms: C_11  and  C_17
REMARK    7  A    between atoms: C_17  and  C_18
REMARK    8  A    between atoms: C_24  and  C_25
REMARK    9  A    between atoms: C_28  and  C_33
REMARK   10  A    between atoms: C_33  and  P_34
REMARK   11  A    between atoms: P_34  and  O_36
REMARK   12  A    between atoms: P_34  and  O_38
REMARK                            x       y       z     vdW  Elec       q    Type
REMARK                         _______ _______ _______ _____ _____    ______ ____
ROOT
ATOM      1  C   UNL     1      34.899 -22.016 -18.238  0.00  0.00    +0.153 C 
ENDROOT
BRANCH   1   4
ATOM      2  O   UNL     1      33.907 -23.899 -19.413  0.00  0.00    -0.274 OA
ATOM      3  N   UNL     1      32.523 -22.461 -18.278  0.00  0.00    -0.327 N 
ATOM      4  C   UNL     1      33.753 -22.891 -18.728  0.00  0.00    +0.238 C 
ATOM      5  H   UNL     1      31.707 -22.951 -18.531  0.00  0.00    +0.145 HD
ATOM      6  H   UNL     1      32.460 -21.664 -17.703  0.00  0.00    +0.145 HD
ENDBRANCH   1   4
BRANCH   1   8
ATOM      7  O   UNL     1      37.366 -21.340 -16.889  0.00  0.00    -0.273 OA
ATOM      8  N   UNL     1      35.479 -22.678 -17.092  0.00  0.00    -0.297 N 
ATOM      9  C   UNL     1      36.674 -22.281 -16.508  0.00  0.00    +0.241 C 
ATOM     10  H   UNL     1      35.002 -23.448 -16.706  0.00  0.00    +0.150 HD
BRANCH   9  11
ATOM     11  C   UNL     1      37.075 -23.191 -15.353  0.00  0.00    +0.153 C 
BRANCH  11  13
ATOM     12  O   UNL     1      38.338 -25.505 -14.138  0.00  0.00    -0.275 OA
ATOM     13  N   UNL     1      38.353 -23.766 -15.685  0.00  0.00    -0.298 N 
ATOM     14  C   UNL     1      38.877 -24.879 -15.046  0.00  0.00    +0.223 C 
ATOM     15  C   UNL     1      40.214 -25.284 -15.606  0.00  0.00    +0.095 C 
ATOM     16  H   UNL     1      38.882 -23.347 -16.403  0.00  0.00    +0.150 HD
ENDBRANCH  11  13
BRANCH  11  17
ATOM     17  C   UNL     1      37.119 -22.399 -14.041  0.00  0.00    +0.055 C 
BRANCH  17  18
ATOM     18  C   UNL     1      36.505 -23.149 -12.884  0.00  0.00    -0.020 C 
ATOM     19  C   UNL     1      35.362 -23.905 -13.095  0.00  0.00    -0.004 C 
ATOM     20  C   UNL     1      37.095 -23.069 -11.633  0.00  0.00    -0.004 C 
ATOM     21  C   UNL     1      34.795 -24.599 -12.026  0.00  0.00    -0.000 C 
ATOM     22  C   UNL     1      36.527 -23.764 -10.563  0.00  0.00    -0.000 C 
ATOM     23  C   UNL     1      35.377 -24.528 -10.760  0.00  0.00    -0.000 C 
ENDBRANCH  17  18
ENDBRANCH  11  17
ENDBRANCH   9  11
ENDBRANCH   1   8
BRANCH   1  24
ATOM     24  C   UNL     1      35.920 -21.798 -19.361  0.00  0.00    +0.055 C 
BRANCH  24  25
ATOM     25  C   UNL     1      35.637 -20.559 -20.174  0.00  0.00    -0.020 C 
ATOM     26  C   UNL     1      36.693 -19.767 -20.597  0.00  0.00    -0.004 C 
ATOM     27  C   UNL     1      34.325 -20.236 -20.484  0.00  0.00    -0.004 C 
ATOM     28  C   UNL     1      35.115 -18.285 -21.670  0.00  0.00    +0.049 C 
ATOM     29  C   UNL     1      36.430 -18.622 -21.350  0.00  0.00    +0.001 C 
ATOM     30  C   UNL     1      34.062 -19.091 -21.236  0.00  0.00    +0.001 C 
BRANCH  28  33
ATOM     31  F   UNL     1      35.928 -16.513 -23.066  0.00  0.00    -0.187 F 
ATOM     32  F   UNL     1      33.908 -17.223 -23.454  0.00  0.00    -0.187 F 
ATOM     33  C   UNL     1      34.835 -17.060 -22.474  0.00  0.00    +0.372 C 
BRANCH  33  34
ATOM     34  P   UNL     1      34.189 -15.632 -21.650  0.00  0.00    +0.401 P 
ATOM     35  O   UNL     1      32.692 -15.591 -21.546  0.00  0.00    -0.252 OA
BRANCH  34  36
ATOM     36  O   UNL     1      34.847 -14.391 -22.449  0.00  0.00    -0.320 OA
ATOM     37  H   UNL     1      35.794 -14.555 -22.578  0.00  0.00    +0.220 HD
ENDBRANCH  34  36
BRANCH  34  38
ATOM     38  O   UNL     1      34.966 -15.609 -20.232  0.00  0.00    -0.320 OA
ATOM     39  H   UNL     1      35.370 -16.476 -20.070  0.00  0.00    +0.220 HD
ENDBRANCH  34  38
ENDBRANCH  33  34
ENDBRANCH  28  33
ENDBRANCH  24  25
ENDBRANCH   1  24
TORSDOF 12
ENDMDL
MODEL 7
REMARK VINA RESULT:     -10.0      8.245     11.379
REMARK  Name = 9547919
REMARK  12 active torsions:
REMARK  status: ('A' for Active; 'I' for Inactive)
REMARK    1  A    between atoms: C_1  and  C_4
REMARK    2  A    between atoms: C_1  and  N_8
REMARK    3  A    between atoms: C_1  and  C_24
REMARK    4  A    between atoms: C_9  and  C_11
REMARK    5  A    between atoms: C_11  and  N_13
REMARK    6  A    between atoms: C_11  and  C_17
REMARK    7  A    between atoms: C_17  and  C_18
REMARK    8  A    between atoms: C_24  and  C_25
REMARK    9  A    between atoms: C_28  and  C_33
REMARK   10  A    between atoms: C_33  and  P_34
REMARK   11  A    between atoms: P_34  and  O_36
REMARK   12  A    between atoms: P_34  and  O_38
REMARK                            x       y       z     vdW  Elec       q    Type
REMARK                         _______ _______ _______ _____ _____    ______ ____
ROOT
ATOM      1  C   UNL     1      35.719 -23.433 -16.087  0.00  0.00    +0.153 C 
ENDROOT
BRANCH   1   4
ATOM      2  O   UNL     1      36.215 -22.082 -18.046  0.00  0.00    -0.274 OA
ATOM      3  N   UNL     1      37.375 -21.671 -16.107  0.00  0.00    -0.327 N 
ATOM      4  C   UNL     1      36.451 -22.352 -16.871  0.00  0.00    +0.238 C 
ATOM      5  H   UNL     1      37.910 -20.948 -16.508  0.00  0.00    +0.145 HD
ATOM      6  H   UNL     1      37.500 -21.908 -15.159  0.00  0.00    +0.145 HD
ENDBRANCH   1   4
BRANCH   1   8
ATOM      7  O   UNL     1      35.580 -26.294 -15.687  0.00  0.00    -0.273 OA
ATOM      8  N   UNL     1      36.726 -24.284 -15.494  0.00  0.00    -0.297 N 
ATOM      9  C   UNL     1      36.571 -25.655 -15.343  0.00  0.00    +0.241 C 
ATOM     10  H   UNL     1      37.563 -23.870 -15.183  0.00  0.00    +0.150 HD
BRANCH   9  11
ATOM     11  C   UNL     1      37.764 -26.289 -14.637  0.00  0.00    +0.153 C 
BRANCH  11  13
ATOM     12  O   UNL     1      40.583 -26.975 -14.525  0.00  0.00    -0.275 OA
ATOM     13  N   UNL     1      38.888 -25.406 -14.819  0.00  0.00    -0.298 N 
ATOM     14  C   UNL     1      40.207 -25.827 -14.747  0.00  0.00    +0.223 C 
ATOM     15  C   UNL     1      41.180 -24.708 -15.001  0.00  0.00    +0.095 C 
ATOM     16  H   UNL     1      38.710 -24.455 -15.005  0.00  0.00    +0.150 HD
ENDBRANCH  11  13
BRANCH  11  17
ATOM     17  C   UNL     1      37.444 -26.522 -13.156  0.00  0.00    +0.055 C 
BRANCH  17  18
ATOM     18  C   UNL     1      37.119 -25.245 -12.421  0.00  0.00    -0.020 C 
ATOM     19  C   UNL     1      35.811 -24.996 -12.037  0.00  0.00    -0.004 C 
ATOM     20  C   UNL     1      38.135 -24.345 -12.142  0.00  0.00    -0.004 C 
ATOM     21  C   UNL     1      35.510 -23.815 -11.358  0.00  0.00    -0.000 C 
ATOM     22  C   UNL     1      37.835 -23.164 -11.461  0.00  0.00    -0.000 C 
ATOM     23  C   UNL     1      36.522 -22.899 -11.070  0.00  0.00    -0.000 C 
ENDBRANCH  17  18
ENDBRANCH  11  17
ENDBRANCH   9  11
ENDBRANCH   1   8
BRANCH   1  24
ATOM     24  C   UNL     1      34.802 -22.800 -15.035  0.00  0.00    +0.055 C 
BRANCH  24  25
ATOM     25  C   UNL     1      33.353 -23.178 -15.221  0.00  0.00    -0.020 C 
ATOM     26  C   UNL     1      32.596 -23.535 -14.116  0.00  0.00    -0.004 C 
ATOM     27  C   UNL     1      32.806 -23.160 -16.494  0.00  0.00    -0.004 C 
ATOM     28  C   UNL     1      30.691 -23.870 -15.564  0.00  0.00    +0.049 C 
ATOM     29  C   UNL     1      31.257 -23.884 -14.288  0.00  0.00    +0.001 C 
ATOM     30  C   UNL     1      31.466 -23.509 -16.666  0.00  0.00    +0.001 C 
BRANCH  28  33
ATOM     31  F   UNL     1      29.058 -25.351 -16.507  0.00  0.00    -0.187 F 
ATOM     32  F   UNL     1      28.570 -24.440 -14.592  0.00  0.00    -0.187 F 
ATOM     33  C   UNL     1      29.259 -24.244 -15.747  0.00  0.00    +0.372 C 
BRANCH  33  34
ATOM     34  P   UNL     1      28.185 -23.106 -16.576  0.00  0.00    +0.401 P 
ATOM     35  O   UNL     1      28.849 -21.845 -17.047  0.00  0.00    -0.252 OA
BRANCH  34  36
ATOM     36  O   UNL     1      26.972 -22.884 -15.531  0.00  0.00    -0.320 OA
ATOM     37  H   UNL     1      27.280 -22.342 -14.788  0.00  0.00    +0.220 HD
ENDBRANCH  34  36
BRANCH  34  38
ATOM     38  O   UNL     1      27.503 -23.988 -17.748  0.00  0.00    -0.320 OA
ATOM     39  H   UNL     1      27.673 -24.930 -17.584  0.00  0.00    +0.220 HD
ENDBRANCH  34  38
ENDBRANCH  33  34
ENDBRANCH  28  33
ENDBRANCH  24  25
ENDBRANCH   1  24
TORSDOF 12
ENDMDL
MODEL 8
REMARK VINA RESULT:     -10.0      2.634      3.386
REMARK  Name = 9547919
REMARK  12 active torsions:
REMARK  status: ('A' for Active; 'I' for Inactive)
REMARK    1  A    between atoms: C_1  and  C_4
REMARK    2  A    between atoms: C_1  and  N_8
REMARK    3  A    between atoms: C_1  and  C_24
REMARK    4  A    between atoms: C_9  and  C_11
REMARK    5  A    between atoms: C_11  and  N_13
REMARK    6  A    between atoms: C_11  and  C_17
REMARK    7  A    between atoms: C_17  and  C_18
REMARK    8  A    between atoms: C_24  and  C_25
REMARK    9  A    between atoms: C_28  and  C_33
REMARK   10  A    between atoms: C_33  and  P_34
REMARK   11  A    between atoms: P_34  and  O_36
REMARK   12  A    between atoms: P_34  and  O_38
REMARK                            x       y       z     vdW  Elec       q    Type
REMARK                         _______ _______ _______ _____ _____    ______ ____
ROOT
ATOM      1  C   UNL     1      34.794 -16.204 -23.248  0.00  0.00    +0.153 C 
ENDROOT
BRANCH   1   4
ATOM      2  O   UNL     1      35.185 -18.318 -24.383  0.00  0.00    -0.274 OA
ATOM      3  N   UNL     1      33.951 -16.707 -25.458  0.00  0.00    -0.327 N 
ATOM      4  C   UNL     1      34.695 -17.191 -24.403  0.00  0.00    +0.238 C 
ATOM      5  H   UNL     1      33.819 -17.259 -26.262  0.00  0.00    +0.145 HD
ATOM      6  H   UNL     1      33.553 -15.807 -25.407  0.00  0.00    +0.145 HD
ENDBRANCH   1   4
BRANCH   1   8
ATOM      7  O   UNL     1      33.964 -13.860 -21.770  0.00  0.00    -0.273 OA
ATOM      8  N   UNL     1      34.492 -14.895 -23.781  0.00  0.00    -0.297 N 
ATOM      9  C   UNL     1      34.099 -13.824 -22.991  0.00  0.00    +0.241 C 
ATOM     10  H   UNL     1      34.568 -14.757 -24.753  0.00  0.00    +0.150 HD
BRANCH   9  11
ATOM     11  C   UNL     1      33.791 -12.584 -23.823  0.00  0.00    +0.153 C 
BRANCH  11  13
ATOM     12  O   UNL     1      34.465 -11.573 -26.459  0.00  0.00    -0.275 OA
ATOM     13  N   UNL     1      33.279 -13.036 -25.091  0.00  0.00    -0.298 N 
ATOM     14  C   UNL     1      33.662 -12.490 -26.306  0.00  0.00    +0.223 C 
ATOM     15  C   UNL     1      32.995 -13.165 -27.473  0.00  0.00    +0.095 C 
ATOM     16  H   UNL     1      32.624 -13.772 -25.095  0.00  0.00    +0.150 HD
ENDBRANCH  11  13
BRANCH  11  17
ATOM     17  C   UNL     1      32.796 -11.681 -23.084  0.00  0.00    +0.055 C 
BRANCH  17  18
ATOM     18  C   UNL     1      33.041 -10.213 -23.337  0.00  0.00    -0.020 C 
ATOM     19  C   UNL     1      34.303  -9.791 -23.723  0.00  0.00    -0.004 C 
ATOM     20  C   UNL     1      31.998  -9.314 -23.179  0.00  0.00    -0.004 C 
ATOM     21  C   UNL     1      34.529  -8.435 -23.956  0.00  0.00    -0.000 C 
ATOM     22  C   UNL     1      32.224  -7.957 -23.413  0.00  0.00    -0.000 C 
ATOM     23  C   UNL     1      33.490  -7.517 -23.801  0.00  0.00    -0.000 C 
ENDBRANCH  17  18
ENDBRANCH  11  17
ENDBRANCH   9  11
ENDBRANCH   1   8
BRANCH   1  24
ATOM     24  C   UNL     1      33.837 -16.606 -22.120  0.00  0.00    +0.055 C 
BRANCH  24  25
ATOM     25  C   UNL     1      34.225 -17.909 -21.463  0.00  0.00    -0.020 C 
ATOM     26  C   UNL     1      33.242 -18.842 -21.171  0.00  0.00    -0.004 C 
ATOM     27  C   UNL     1      35.557 -18.148 -21.164  0.00  0.00    -0.004 C 
ATOM     28  C   UNL     1      34.938 -20.301 -20.259  0.00  0.00    +0.049 C 
ATOM     29  C   UNL     1      33.601 -20.046 -20.565  0.00  0.00    +0.001 C 
ATOM     30  C   UNL     1      35.916 -19.352 -20.557  0.00  0.00    +0.001 C 
BRANCH  28  33
ATOM     31  F   UNL     1      35.879 -22.498 -20.449  0.00  0.00    -0.187 F 
ATOM     32  F   UNL     1      36.170 -21.464 -18.557  0.00  0.00    -0.187 F 
ATOM     33  C   UNL     1      35.321 -21.588 -19.610  0.00  0.00    +0.372 C 
BRANCH  33  34
ATOM     34  P   UNL     1      34.048 -22.584 -18.885  0.00  0.00    +0.401 P 
ATOM     35  O   UNL     1      32.703 -21.923 -18.805  0.00  0.00    -0.252 OA
BRANCH  34  36
ATOM     36  O   UNL     1      34.669 -23.034 -17.463  0.00  0.00    -0.320 OA
ATOM     37  H   UNL     1      33.954 -23.141 -16.816  0.00  0.00    +0.220 HD
ENDBRANCH  34  36
BRANCH  34  38
ATOM     38  O   UNL     1      34.078 -23.952 -19.747  0.00  0.00    -0.320 OA
ATOM     39  H   UNL     1      34.015 -24.713 -19.148  0.00  0.00    +0.220 HD
ENDBRANCH  34  38
ENDBRANCH  33  34
ENDBRANCH  28  33
ENDBRANCH  24  25
ENDBRANCH   1  24
TORSDOF 12
ENDMDL
MODEL 9
REMARK VINA RESULT:     -10.0      5.459     11.036
REMARK  Name = 9547919
REMARK  12 active torsions:
REMARK  status: ('A' for Active; 'I' for Inactive)
REMARK    1  A    between atoms: C_1  and  C_4
REMARK    2  A    between atoms: C_1  and  N_8
REMARK    3  A    between atoms: C_1  and  C_24
REMARK    4  A    between atoms: C_9  and  C_11
REMARK    5  A    between atoms: C_11  and  N_13
REMARK    6  A    between atoms: C_11  and  C_17
REMARK    7  A    between atoms: C_17  and  C_18
REMARK    8  A    between atoms: C_24  and  C_25
REMARK    9  A    between atoms: C_28  and  C_33
REMARK   10  A    between atoms: C_33  and  P_34
REMARK   11  A    between atoms: P_34  and  O_36
REMARK   12  A    between atoms: P_34  and  O_38
REMARK                            x       y       z     vdW  Elec       q    Type
REMARK                         _______ _______ _______ _____ _____    ______ ____
ROOT
ATOM      1  C   UNL     1      33.569 -22.911 -17.103  0.00  0.00    +0.153 C 
ENDROOT
BRANCH   1   4
ATOM      2  O   UNL     1      31.192 -22.448 -17.309  0.00  0.00    -0.274 OA
ATOM      3  N   UNL     1      31.906 -23.780 -15.580  0.00  0.00    -0.327 N 
ATOM      4  C   UNL     1      32.106 -22.990 -16.692  0.00  0.00    +0.238 C 
ATOM      5  H   UNL     1      30.997 -23.906 -15.221  0.00  0.00    +0.145 HD
ATOM      6  H   UNL     1      32.672 -24.219 -15.143  0.00  0.00    +0.145 HD
ENDBRANCH   1   4
BRANCH   1   8
ATOM      7  O   UNL     1      36.392 -22.960 -16.476  0.00  0.00    -0.273 OA
ATOM      8  N   UNL     1      34.279 -23.914 -16.343  0.00  0.00    -0.297 N 
ATOM      9  C   UNL     1      35.643 -23.854 -16.091  0.00  0.00    +0.241 C 
ATOM     10  H   UNL     1      33.771 -24.678 -15.986  0.00  0.00    +0.150 HD
BRANCH   9  11
ATOM     11  C   UNL     1      36.134 -25.071 -15.315  0.00  0.00    +0.153 C 
BRANCH  11  13
ATOM     12  O   UNL     1      38.158 -27.094 -14.827  0.00  0.00    -0.275 OA
ATOM     13  N   UNL     1      37.531 -24.861 -15.030  0.00  0.00    -0.298 N 
ATOM     14  C   UNL     1      38.427 -25.895 -14.810  0.00  0.00    +0.223 C 
ATOM     15  C   UNL     1      39.825 -25.398 -14.560  0.00  0.00    +0.095 C 
ATOM     16  H   UNL     1      37.866 -23.936 -14.990  0.00  0.00    +0.150 HD
ENDBRANCH  11  13
BRANCH  11  17
ATOM     17  C   UNL     1      35.304 -25.261 -14.040  0.00  0.00    +0.055 C 
BRANCH  17  18
ATOM     18  C   UNL     1      35.855 -24.490 -12.865  0.00  0.00    -0.020 C 
ATOM     19  C   UNL     1      35.467 -24.840 -11.581  0.00  0.00    -0.004 C 
ATOM     20  C   UNL     1      36.739 -23.447 -13.091  0.00  0.00    -0.004 C 
ATOM     21  C   UNL     1      35.976 -24.128 -10.495  0.00  0.00    -0.000 C 
ATOM     22  C   UNL     1      37.249 -22.735 -12.005  0.00  0.00    -0.000 C 
ATOM     23  C   UNL     1      36.867 -23.075 -10.707  0.00  0.00    -0.000 C 
ENDBRANCH  17  18
ENDBRANCH  11  17
ENDBRANCH   9  11
ENDBRANCH   1   8
BRANCH   1  24
ATOM     24  C   UNL     1      33.710 -23.122 -18.615  0.00  0.00    +0.055 C 
BRANCH  24  25
ATOM     25  C   UNL     1      33.992 -21.839 -19.359  0.00  0.00    -0.020 C 
ATOM     26  C   UNL     1      35.305 -21.435 -19.543  0.00  0.00    -0.004 C 
ATOM     27  C   UNL     1      32.932 -21.089 -19.844  0.00  0.00    -0.004 C 
ATOM     28  C   UNL     1      34.508 -19.484 -20.727  0.00  0.00    +0.049 C 
ATOM     29  C   UNL     1      35.565 -20.249 -20.231  0.00  0.00    +0.001 C 
ATOM     30  C   UNL     1      33.192 -19.904 -20.532  0.00  0.00    +0.001 C 
BRANCH  28  33
ATOM     31  F   UNL     1      33.688 -17.467 -21.730  0.00  0.00    -0.187 F 
ATOM     32  F   UNL     1      35.678 -17.391 -20.853  0.00  0.00    -0.187 F 
ATOM     33  C   UNL     1      34.788 -18.217 -21.462  0.00  0.00    +0.372 C 
BRANCH  33  34
ATOM     34  P   UNL     1      35.492 -18.315 -23.084  0.00  0.00    +0.401 P 
ATOM     35  O   UNL     1      34.929 -19.405 -23.948  0.00  0.00    -0.252 OA
BRANCH  34  36
ATOM     36  O   UNL     1      37.082 -18.417 -22.812  0.00  0.00    -0.320 OA
ATOM     37  H   UNL     1      37.351 -19.350 -22.812  0.00  0.00    +0.220 HD
ENDBRANCH  34  36
BRANCH  34  38
ATOM     38  O   UNL     1      35.318 -16.822 -23.681  0.00  0.00    -0.320 OA
ATOM     39  H   UNL     1      34.424 -16.722 -24.047  0.00  0.00    +0.220 HD
ENDBRANCH  34  38
ENDBRANCH  33  34
ENDBRANCH  28  33
ENDBRANCH  24  25
ENDBRANCH   1  24
TORSDOF 12
ENDMDL
