MODEL 1
REMARK VINA RESULT:      -5.6      0.000      0.000
REMARK  Name = 443231
REMARK  5 active torsions:
REMARK  status: ('A' for Active; 'I' for Inactive)
REMARK    1  A    between atoms: C_1  and  S_2
REMARK    2  A    between atoms: C_1  and  C_7
REMARK    3  A    between atoms: S_2  and  C_3
REMARK    4  A    between atoms: C_3  and  C_5
REMARK    5  A    between atoms: C_7  and  S_8
REMARK                            x       y       z     vdW  Elec       q    Type
REMARK                         _______ _______ _______ _____ _____    ______ ____
ROOT
ATOM      1  C   UNL     1      35.878 -23.500 -13.621  0.00  0.00    +0.084 C 
ENDROOT
BRANCH   1   2
ATOM      2  S   UNL     1      36.324 -24.692 -14.914  0.00  0.00    -0.130 S 
BRANCH   2   3
ATOM      3  C   UNL     1      38.120 -24.512 -14.831  0.00  0.00    +0.122 C 
BRANCH   3   5
ATOM      4  O   UNL     1      38.256 -26.929 -14.672  0.00  0.00    -0.295 OA
ATOM      5  C   UNL     1      38.812 -25.836 -14.581  0.00  0.00    +0.162 C 
ATOM      6  C   UNL     1      40.269 -25.750 -14.198  0.00  0.00    +0.073 C 
ENDBRANCH   3   5
ENDBRANCH   2   3
ENDBRANCH   1   2
BRANCH   1   7
ATOM      7  C   UNL     1      35.085 -24.180 -12.521  0.00  0.00    +0.170 C 
BRANCH   7   8
ATOM      8  S   UNL     1      36.100 -24.498 -11.111  0.00  0.00    +0.023 S 
ATOM      9  O   UNL     1      36.782 -25.879 -11.649  0.00  0.00    -0.069 OA
ATOM     10  O   UNL     1      35.247 -24.808  -9.979  0.00  0.00    -0.069 OA
ATOM     11  O   UNL     1      37.123 -23.472 -11.034  0.00  0.00    -0.069 OA
ENDBRANCH   7   8
ENDBRANCH   1   7
TORSDOF 5
ENDMDL
MODEL 2
REMARK VINA RESULT:      -5.6      2.108      2.691
REMARK  Name = 443231
REMARK  5 active torsions:
REMARK  status: ('A' for Active; 'I' for Inactive)
REMARK    1  A    between atoms: C_1  and  S_2
REMARK    2  A    between atoms: C_1  and  C_7
REMARK    3  A    between atoms: S_2  and  C_3
REMARK    4  A    between atoms: C_3  and  C_5
REMARK    5  A    between atoms: C_7  and  S_8
REMARK                            x       y       z     vdW  Elec       q    Type
REMARK                         _______ _______ _______ _____ _____    ______ ____
ROOT
ATOM      1  C   UNL     1      38.393 -24.425 -12.914  0.00  0.00    +0.084 C 
ENDROOT
BRANCH   1   2
ATOM      2  S   UNL     1      38.953 -25.648 -14.130  0.00  0.00    -0.130 S 
BRANCH   2   3
ATOM      3  C   UNL     1      37.522 -26.751 -14.072  0.00  0.00    +0.122 C 
BRANCH   3   5
ATOM      4  O   UNL     1      36.622 -27.299 -16.258  0.00  0.00    -0.295 OA
ATOM      5  C   UNL     1      36.615 -26.566 -15.271  0.00  0.00    +0.162 C 
ATOM      6  C   UNL     1      35.666 -25.395 -15.196  0.00  0.00    +0.073 C 
ENDBRANCH   3   5
ENDBRANCH   2   3
ENDBRANCH   1   2
BRANCH   1   7
ATOM      7  C   UNL     1      37.455 -25.065 -11.908  0.00  0.00    +0.170 C 
BRANCH   7   8
ATOM      8  S   UNL     1      36.365 -23.865 -11.205  0.00  0.00    +0.023 S 
ATOM      9  O   UNL     1      37.412 -22.615 -11.188  0.00  0.00    -0.069 OA
ATOM     10  O   UNL     1      36.068 -24.245  -9.837  0.00  0.00    -0.069 OA
ATOM     11  O   UNL     1      35.311 -23.579 -12.160  0.00  0.00    -0.069 OA
ENDBRANCH   7   8
ENDBRANCH   1   7
TORSDOF 5
ENDMDL
MODEL 3
REMARK VINA RESULT:      -5.4      1.896      4.197
REMARK  Name = 443231
REMARK  5 active torsions:
REMARK  status: ('A' for Active; 'I' for Inactive)
REMARK    1  A    between atoms: C_1  and  S_2
REMARK    2  A    between atoms: C_1  and  C_7
REMARK    3  A    between atoms: S_2  and  C_3
REMARK    4  A    between atoms: C_3  and  C_5
REMARK    5  A    between atoms: C_7  and  S_8
REMARK                            x       y       z     vdW  Elec       q    Type
REMARK                         _______ _______ _______ _____ _____    ______ ____
ROOT
ATOM      1  C   UNL     1      36.823 -24.979 -14.678  0.00  0.00    +0.084 C 
ENDROOT
BRANCH   1   2
ATOM      2  S   UNL     1      35.853 -23.555 -14.112  0.00  0.00    -0.130 S 
BRANCH   2   3
ATOM      3  C   UNL     1      34.934 -24.371 -12.787  0.00  0.00    +0.122 C 
BRANCH   3   5
ATOM      4  O   UNL     1      35.396 -25.002 -10.490  0.00  0.00    -0.295 OA
ATOM      5  C   UNL     1      35.663 -24.297 -11.462  0.00  0.00    +0.162 C 
ATOM      6  C   UNL     1      36.774 -23.278 -11.384  0.00  0.00    +0.073 C 
ENDBRANCH   3   5
ENDBRANCH   2   3
ENDBRANCH   1   2
BRANCH   1   7
ATOM      7  C   UNL     1      38.265 -24.578 -14.922  0.00  0.00    +0.170 C 
BRANCH   7   8
ATOM      8  S   UNL     1      39.360 -25.478 -13.868  0.00  0.00    +0.023 S 
ATOM      9  O   UNL     1      39.616 -26.746 -14.862  0.00  0.00    -0.069 OA
ATOM     10  O   UNL     1      38.622 -25.936 -12.705  0.00  0.00    -0.069 OA
ATOM     11  O   UNL     1      40.597 -24.731 -13.736  0.00  0.00    -0.069 OA
ENDBRANCH   7   8
ENDBRANCH   1   7
TORSDOF 5
ENDMDL
MODEL 4
REMARK VINA RESULT:      -5.4      3.004      4.243
REMARK  Name = 443231
REMARK  5 active torsions:
REMARK  status: ('A' for Active; 'I' for Inactive)
REMARK    1  A    between atoms: C_1  and  S_2
REMARK    2  A    between atoms: C_1  and  C_7
REMARK    3  A    between atoms: S_2  and  C_3
REMARK    4  A    between atoms: C_3  and  C_5
REMARK    5  A    between atoms: C_7  and  S_8
REMARK                            x       y       z     vdW  Elec       q    Type
REMARK                         _______ _______ _______ _____ _____    ______ ____
ROOT
ATOM      1  C   UNL     1      37.458 -25.935 -12.954  0.00  0.00    +0.084 C 
ENDROOT
BRANCH   1   2
ATOM      2  S   UNL     1      36.133 -24.703 -12.831  0.00  0.00    -0.130 S 
BRANCH   2   3
ATOM      3  C   UNL     1      36.901 -23.391 -13.808  0.00  0.00    +0.122 C 
BRANCH   3   5
ATOM      4  O   UNL     1      35.898 -24.425 -15.760  0.00  0.00    -0.295 OA
ATOM      5  C   UNL     1      36.595 -23.530 -15.285  0.00  0.00    +0.162 C 
ATOM      6  C   UNL     1      37.206 -22.481 -16.180  0.00  0.00    +0.073 C 
ENDBRANCH   3   5
ENDBRANCH   2   3
ENDBRANCH   1   2
BRANCH   1   7
ATOM      7  C   UNL     1      38.817 -25.260 -12.927  0.00  0.00    +0.170 C 
BRANCH   7   8
ATOM      8  S   UNL     1      39.793 -25.745 -14.318  0.00  0.00    +0.023 S 
ATOM      9  O   UNL     1      38.731 -26.804 -14.961  0.00  0.00    -0.069 OA
ATOM     10  O   UNL     1      40.954 -26.476 -13.845  0.00  0.00    -0.069 OA
ATOM     11  O   UNL     1      39.922 -24.611 -15.214  0.00  0.00    -0.069 OA
ENDBRANCH   7   8
ENDBRANCH   1   7
TORSDOF 5
ENDMDL
MODEL 5
REMARK VINA RESULT:      -5.3      6.897      7.871
REMARK  Name = 443231
REMARK  5 active torsions:
REMARK  status: ('A' for Active; 'I' for Inactive)
REMARK    1  A    between atoms: C_1  and  S_2
REMARK    2  A    between atoms: C_1  and  C_7
REMARK    3  A    between atoms: S_2  and  C_3
REMARK    4  A    between atoms: C_3  and  C_5
REMARK    5  A    between atoms: C_7  and  S_8
REMARK                            x       y       z     vdW  Elec       q    Type
REMARK                         _______ _______ _______ _____ _____    ______ ____
ROOT
ATOM      1  C   UNL     1      30.070 -23.006 -14.821  0.00  0.00    +0.084 C 
ENDROOT
BRANCH   1   2
ATOM      2  S   UNL     1      31.707 -23.540 -15.392  0.00  0.00    -0.130 S 
BRANCH   2   3
ATOM      3  C   UNL     1      32.219 -24.447 -13.915  0.00  0.00    +0.122 C 
BRANCH   3   5
ATOM      4  O   UNL     1      34.180 -24.381 -12.488  0.00  0.00    -0.295 OA
ATOM      5  C   UNL     1      33.688 -24.246 -13.607  0.00  0.00    +0.162 C 
ATOM      6  C   UNL     1      34.554 -23.857 -14.780  0.00  0.00    +0.073 C 
ENDBRANCH   3   5
ENDBRANCH   2   3
ENDBRANCH   1   2
BRANCH   1   7
ATOM      7  C   UNL     1      28.992 -23.929 -15.357  0.00  0.00    +0.170 C 
BRANCH   7   8
ATOM      8  S   UNL     1      28.069 -23.146 -16.643  0.00  0.00    +0.023 S 
ATOM      9  O   UNL     1      26.807 -22.660 -15.731  0.00  0.00    -0.069 OA
ATOM     10  O   UNL     1      27.610 -24.159 -17.575  0.00  0.00    -0.069 OA
ATOM     11  O   UNL     1      28.798 -21.975 -17.092  0.00  0.00    -0.069 OA
ENDBRANCH   7   8
ENDBRANCH   1   7
TORSDOF 5
ENDMDL
MODEL 6
REMARK VINA RESULT:      -5.3      2.053      3.038
REMARK  Name = 443231
REMARK  5 active torsions:
REMARK  status: ('A' for Active; 'I' for Inactive)
REMARK    1  A    between atoms: C_1  and  S_2
REMARK    2  A    between atoms: C_1  and  C_7
REMARK    3  A    between atoms: S_2  and  C_3
REMARK    4  A    between atoms: C_3  and  C_5
REMARK    5  A    between atoms: C_7  and  S_8
REMARK                            x       y       z     vdW  Elec       q    Type
REMARK                         _______ _______ _______ _____ _____    ______ ____
ROOT
ATOM      1  C   UNL     1      38.434 -24.647 -12.752  0.00  0.00    +0.084 C 
ENDROOT
BRANCH   1   2
ATOM      2  S   UNL     1      38.434 -25.056 -14.519  0.00  0.00    -0.130 S 
BRANCH   2   3
ATOM      3  C   UNL     1      37.459 -23.656 -15.115  0.00  0.00    +0.122 C 
BRANCH   3   5
ATOM      4  O   UNL     1      35.641 -25.197 -15.572  0.00  0.00    -0.295 OA
ATOM      5  C   UNL     1      36.019 -24.042 -15.384  0.00  0.00    +0.162 C 
ATOM      6  C   UNL     1      35.032 -22.901 -15.414  0.00  0.00    +0.073 C 
ENDBRANCH   3   5
ENDBRANCH   2   3
ENDBRANCH   1   2
BRANCH   1   7
ATOM      7  C   UNL     1      37.132 -25.083 -12.106  0.00  0.00    +0.170 C 
BRANCH   7   8
ATOM      8  S   UNL     1      36.407 -23.759 -11.187  0.00  0.00    +0.023 S 
ATOM      9  O   UNL     1      34.967 -23.736 -11.952  0.00  0.00    -0.069 OA
ATOM     10  O   UNL     1      37.118 -22.532 -11.491  0.00  0.00    -0.069 OA
ATOM     11  O   UNL     1      36.202 -24.199  -9.820  0.00  0.00    -0.069 OA
ENDBRANCH   7   8
ENDBRANCH   1   7
TORSDOF 5
ENDMDL
MODEL 7
REMARK VINA RESULT:      -5.3      8.644      9.747
REMARK  Name = 443231
REMARK  5 active torsions:
REMARK  status: ('A' for Active; 'I' for Inactive)
REMARK    1  A    between atoms: C_1  and  S_2
REMARK    2  A    between atoms: C_1  and  C_7
REMARK    3  A    between atoms: S_2  and  C_3
REMARK    4  A    between atoms: C_3  and  C_5
REMARK    5  A    between atoms: C_7  and  S_8
REMARK                            x       y       z     vdW  Elec       q    Type
REMARK                         _______ _______ _______ _____ _____    ______ ____
ROOT
ATOM      1  C   UNL     1      33.676 -20.383 -20.444  0.00  0.00    +0.084 C 
ENDROOT
BRANCH   1   2
ATOM      2  S   UNL     1      34.373 -19.548 -21.895  0.00  0.00    -0.130 S 
BRANCH   2   3
ATOM      3  C   UNL     1      35.493 -18.418 -21.037  0.00  0.00    +0.122 C 
BRANCH   3   5
ATOM      4  O   UNL     1      35.054 -16.195 -20.168  0.00  0.00    -0.295 OA
ATOM      5  C   UNL     1      35.017 -16.982 -21.113  0.00  0.00    +0.162 C 
ATOM      6  C   UNL     1      34.474 -16.544 -22.451  0.00  0.00    +0.073 C 
ENDBRANCH   3   5
ENDBRANCH   2   3
ENDBRANCH   1   2
BRANCH   1   7
ATOM      7  C   UNL     1      34.714 -21.278 -19.795  0.00  0.00    +0.170 C 
BRANCH   7   8
ATOM      8  S   UNL     1      33.949 -22.490 -18.762  0.00  0.00    +0.023 S 
ATOM      9  O   UNL     1      34.076 -23.752 -19.788  0.00  0.00    -0.069 OA
ATOM     10  O   UNL     1      32.547 -22.155 -18.604  0.00  0.00    -0.069 OA
ATOM     11  O   UNL     1      34.806 -22.733 -17.616  0.00  0.00    -0.069 OA
ENDBRANCH   7   8
ENDBRANCH   1   7
TORSDOF 5
ENDMDL
MODEL 8
REMARK VINA RESULT:      -5.2      2.017      4.362
REMARK  Name = 443231
REMARK  5 active torsions:
REMARK  status: ('A' for Active; 'I' for Inactive)
REMARK    1  A    between atoms: C_1  and  S_2
REMARK    2  A    between atoms: C_1  and  C_7
REMARK    3  A    between atoms: S_2  and  C_3
REMARK    4  A    between atoms: C_3  and  C_5
REMARK    5  A    between atoms: C_7  and  S_8
REMARK                            x       y       z     vdW  Elec       q    Type
REMARK                         _______ _______ _______ _____ _____    ______ ____
ROOT
ATOM      1  C   UNL     1      36.535 -25.422 -14.942  0.00  0.00    +0.084 C 
ENDROOT
BRANCH   1   2
ATOM      2  S   UNL     1      35.405 -24.347 -14.017  0.00  0.00    -0.130 S 
BRANCH   2   3
ATOM      3  C   UNL     1      36.629 -23.214 -13.321  0.00  0.00    +0.122 C 
BRANCH   3   5
ATOM      4  O   UNL     1      37.527 -22.715 -11.123  0.00  0.00    -0.295 OA
ATOM      5  C   UNL     1      36.721 -23.334 -11.814  0.00  0.00    +0.162 C 
ATOM      6  C   UNL     1      35.741 -24.287 -11.174  0.00  0.00    +0.073 C 
ENDBRANCH   3   5
ENDBRANCH   2   3
ENDBRANCH   1   2
BRANCH   1   7
ATOM      7  C   UNL     1      37.882 -24.748 -15.123  0.00  0.00    +0.170 C 
BRANCH   7   8
ATOM      8  S   UNL     1      39.192 -25.783 -14.545  0.00  0.00    +0.023 S 
ATOM      9  O   UNL     1      38.421 -27.211 -14.711  0.00  0.00    -0.069 OA
ATOM     10  O   UNL     1      39.403 -25.527 -13.132  0.00  0.00    -0.069 OA
ATOM     11  O   UNL     1      40.284 -25.728 -15.498  0.00  0.00    -0.069 OA
ENDBRANCH   7   8
ENDBRANCH   1   7
TORSDOF 5
ENDMDL
MODEL 9
REMARK VINA RESULT:      -5.2      9.019     10.012
REMARK  Name = 443231
REMARK  5 active torsions:
REMARK  status: ('A' for Active; 'I' for Inactive)
REMARK    1  A    between atoms: C_1  and  S_2
REMARK    2  A    between atoms: C_1  and  C_7
REMARK    3  A    between atoms: S_2  and  C_3
REMARK    4  A    between atoms: C_3  and  C_5
REMARK    5  A    between atoms: C_7  and  S_8
REMARK                            x       y       z     vdW  Elec       q    Type
REMARK                         _______ _______ _______ _____ _____    ______ ____
ROOT
ATOM      1  C   UNL     1      34.817 -20.336 -20.480  0.00  0.00    +0.084 C 
ENDROOT
BRANCH   1   2
ATOM      2  S   UNL     1      36.169 -19.217 -20.937  0.00  0.00    -0.130 S 
BRANCH   2   3
ATOM      3  C   UNL     1      35.191 -17.727 -21.234  0.00  0.00    +0.122 C 
BRANCH   3   5
ATOM      4  O   UNL     1      35.405 -16.086 -23.008  0.00  0.00    -0.295 OA
ATOM      5  C   UNL     1      35.285 -17.263 -22.672  0.00  0.00    +0.162 C 
ATOM      6  C   UNL     1      35.222 -18.352 -23.715  0.00  0.00    +0.073 C 
ENDBRANCH   3   5
ENDBRANCH   2   3
ENDBRANCH   1   2
BRANCH   1   7
ATOM      7  C   UNL     1      35.335 -21.470 -19.615  0.00  0.00    +0.170 C 
BRANCH   7   8
ATOM      8  S   UNL     1      34.015 -22.526 -19.099  0.00  0.00    +0.023 S 
ATOM      9  O   UNL     1      34.517 -22.756 -17.564  0.00  0.00    -0.069 OA
ATOM     10  O   UNL     1      34.113 -23.783 -19.817  0.00  0.00    -0.069 OA
ATOM     11  O   UNL     1      32.786 -21.757 -19.077  0.00  0.00    -0.069 OA
ENDBRANCH   7   8
ENDBRANCH   1   7
TORSDOF 5
ENDMDL
