MODEL 1
REMARK VINA RESULT:      -9.7      0.000      0.000
REMARK  Name = 11949652
REMARK  4 active torsions:
REMARK  status: ('A' for Active; 'I' for Inactive)
REMARK    1  A    between atoms: N_1  and  C_9
REMARK    2  A    between atoms: N_2  and  C_24
REMARK    3  A    between atoms: C_11  and  C_18
REMARK    4  A    between atoms: N_22  and  C_28
REMARK                            x       y       z     vdW  Elec       q    Type
REMARK                         _______ _______ _______ _____ _____    ______ ____
ROOT
ATOM      1  N   UNL     1      34.468 -21.286 -20.648  0.00  0.00    +0.389 N 
ATOM      2  N   UNL     1      33.325 -22.399 -18.280  0.00  0.00    -0.299 N 
ATOM      3  C   UNL     1      33.561 -20.490 -19.810  0.00  0.00    -0.055 C 
ATOM      4  C   UNL     1      35.235 -22.222 -19.817  0.00  0.00    -0.055 C 
ATOM      5  C   UNL     1      32.587 -21.387 -19.040  0.00  0.00    +0.069 C 
ATOM      6  C   UNL     1      34.300 -23.168 -19.062  0.00  0.00    +0.069 C 
ATOM      7  H   UNL     1      33.909 -21.823 -21.312  0.00  0.00    -0.080 HD
ENDROOT
BRANCH   1   9
ATOM      8  N   UNL     1      36.817 -18.622 -21.418  0.00  0.00    +0.389 N 
ATOM      9  C   UNL     1      35.361 -20.421 -21.400  0.00  0.00    -0.081 C 
ATOM     10  C   UNL     1      34.640 -19.299 -22.146  0.00  0.00    -0.035 C 
ATOM     11  C   UNL     1      35.650 -18.152 -22.169  0.00  0.00    +0.015 C 
ATOM     12  C   UNL     1      36.346 -19.673 -20.519  0.00  0.00    -0.102 C 
ATOM     13  H   UNL     1      37.221 -17.854 -20.880  0.00  0.00    -0.084 HD
ATOM     14  H   UNL     1      37.539 -18.974 -22.047  0.00  0.00    -0.084 HD
BRANCH  11  18
ATOM     15  S   UNL     1      33.515 -14.647 -24.351  0.00  0.00    -0.117 S 
ATOM     16  O   UNL     1      35.218 -16.814 -20.261  0.00  0.00    -0.277 OA
ATOM     17  N   UNL     1      34.516 -15.991 -22.311  0.00  0.00    -0.271 N 
ATOM     18  C   UNL     1      35.116 -16.932 -21.484  0.00  0.00    +0.206 C 
ATOM     19  C   UNL     1      33.950 -14.762 -21.767  0.00  0.00    +0.106 C 
ATOM     20  C   UNL     1      34.499 -16.049 -23.767  0.00  0.00    +0.152 C 
ATOM     21  C   UNL     1      32.864 -14.272 -22.708  0.00  0.00    +0.081 C 
ENDBRANCH  11  18
ENDBRANCH   1   9
BRANCH   2  24
ATOM     22  N   UNL     1      33.659 -23.203 -16.039  0.00  0.00    -0.177 N 
ATOM     23  N   UNL     1      33.006 -23.673 -14.963  0.00  0.00    -0.177 NA
ATOM     24  C   UNL     1      32.843 -22.895 -17.088  0.00  0.00    +0.125 C 
ATOM     25  C   UNL     1      31.568 -23.183 -16.669  0.00  0.00    +0.048 C 
ATOM     26  C   UNL     1      31.728 -23.659 -15.353  0.00  0.00    +0.080 C 
ATOM     27  C   UNL     1      30.675 -24.114 -14.429  0.00  0.00    +0.054 C 
BRANCH  22  28
ATOM     28  C   UNL     1      35.049 -23.077 -15.998  0.00  0.00    +0.075 C 
ATOM     29  C   UNL     1      35.646 -21.921 -16.481  0.00  0.00    +0.017 C 
ATOM     30  C   UNL     1      35.813 -24.111 -15.474  0.00  0.00    +0.017 C 
ATOM     31  C   UNL     1      37.034 -21.796 -16.439  0.00  0.00    +0.001 C 
ATOM     32  C   UNL     1      37.203 -23.985 -15.432  0.00  0.00    +0.001 C 
ATOM     33  C   UNL     1      37.813 -22.827 -15.915  0.00  0.00    +0.000 C 
ENDBRANCH  22  28
ENDBRANCH   2  24
TORSDOF 4
ENDMDL
MODEL 2
REMARK VINA RESULT:      -9.3      1.393      3.317
REMARK  Name = 11949652
REMARK  4 active torsions:
REMARK  status: ('A' for Active; 'I' for Inactive)
REMARK    1  A    between atoms: N_1  and  C_9
REMARK    2  A    between atoms: N_2  and  C_24
REMARK    3  A    between atoms: C_11  and  C_18
REMARK    4  A    between atoms: N_22  and  C_28
REMARK                            x       y       z     vdW  Elec       q    Type
REMARK                         _______ _______ _______ _____ _____    ______ ____
ROOT
ATOM      1  N   UNL     1      35.547 -20.958 -19.004  0.00  0.00    +0.389 N 
ATOM      2  N   UNL     1      35.718 -22.753 -16.790  0.00  0.00    -0.299 N 
ATOM      3  C   UNL     1      36.806 -21.115 -18.265  0.00  0.00    -0.055 C 
ATOM      4  C   UNL     1      34.801 -22.224 -19.008  0.00  0.00    -0.055 C 
ATOM      5  C   UNL     1      36.550 -21.547 -16.818  0.00  0.00    +0.069 C 
ATOM      6  C   UNL     1      34.484 -22.670 -17.579  0.00  0.00    +0.069 C 
ATOM      7  H   UNL     1      34.982 -20.248 -18.537  0.00  0.00    -0.080 HD
ENDROOT
BRANCH   1   9
ATOM      8  N   UNL     1      36.795 -18.980 -21.786  0.00  0.00    +0.389 N 
ATOM      9  C   UNL     1      35.804 -20.514 -20.364  0.00  0.00    -0.081 C 
ATOM     10  C   UNL     1      34.664 -19.694 -20.964  0.00  0.00    -0.035 C 
ATOM     11  C   UNL     1      35.358 -18.727 -21.923  0.00  0.00    +0.015 C 
ATOM     12  C   UNL     1      36.996 -19.577 -20.467  0.00  0.00    -0.102 C 
ATOM     13  H   UNL     1      37.314 -18.104 -21.857  0.00  0.00    -0.084 HD
ATOM     14  H   UNL     1      37.129 -19.600 -22.523  0.00  0.00    -0.084 HD
BRANCH  11  18
ATOM     15  S   UNL     1      33.829 -15.488 -24.884  0.00  0.00    -0.117 S 
ATOM     16  O   UNL     1      35.280 -16.919 -20.393  0.00  0.00    -0.277 OA
ATOM     17  N   UNL     1      34.651 -16.482 -22.581  0.00  0.00    -0.271 N 
ATOM     18  C   UNL     1      35.099 -17.300 -21.552  0.00  0.00    +0.206 C 
ATOM     19  C   UNL     1      34.356 -15.072 -22.349  0.00  0.00    +0.106 C 
ATOM     20  C   UNL     1      34.554 -16.877 -23.981  0.00  0.00    +0.152 C 
ATOM     21  C   UNL     1      33.340 -14.616 -23.380  0.00  0.00    +0.081 C 
ENDBRANCH  11  18
ENDBRANCH   1   9
BRANCH   2  24
ATOM     22  N   UNL     1      34.770 -24.096 -15.036  0.00  0.00    -0.177 N 
ATOM     23  N   UNL     1      35.081 -25.008 -14.099  0.00  0.00    -0.177 NA
ATOM     24  C   UNL     1      35.836 -23.683 -15.780  0.00  0.00    +0.125 C 
ATOM     25  C   UNL     1      36.921 -24.372 -15.296  0.00  0.00    +0.048 C 
ATOM     26  C   UNL     1      36.397 -25.173 -14.263  0.00  0.00    +0.080 C 
ATOM     27  C   UNL     1      37.128 -26.116 -13.400  0.00  0.00    +0.054 C 
BRANCH  22  28
ATOM     28  C   UNL     1      33.447 -23.667 -15.164  0.00  0.00    +0.075 C 
ATOM     29  C   UNL     1      32.725 -24.004 -16.301  0.00  0.00    +0.017 C 
ATOM     30  C   UNL     1      32.873 -22.911 -14.151  0.00  0.00    +0.017 C 
ATOM     31  C   UNL     1      31.404 -23.575 -16.428  0.00  0.00    +0.001 C 
ATOM     32  C   UNL     1      31.550 -22.483 -14.279  0.00  0.00    +0.001 C 
ATOM     33  C   UNL     1      30.817 -22.815 -15.417  0.00  0.00    +0.000 C 
ENDBRANCH  22  28
ENDBRANCH   2  24
TORSDOF 4
ENDMDL
MODEL 3
REMARK VINA RESULT:      -9.1      1.488      2.149
REMARK  Name = 11949652
REMARK  4 active torsions:
REMARK  status: ('A' for Active; 'I' for Inactive)
REMARK    1  A    between atoms: N_1  and  C_9
REMARK    2  A    between atoms: N_2  and  C_24
REMARK    3  A    between atoms: C_11  and  C_18
REMARK    4  A    between atoms: N_22  and  C_28
REMARK                            x       y       z     vdW  Elec       q    Type
REMARK                         _______ _______ _______ _____ _____    ______ ____
ROOT
ATOM      1  N   UNL     1      35.643 -22.194 -19.135  0.00  0.00    +0.389 N 
ATOM      2  N   UNL     1      34.246 -23.042 -16.793  0.00  0.00    -0.299 N 
ATOM      3  C   UNL     1      34.205 -22.489 -19.188  0.00  0.00    -0.055 C 
ATOM      4  C   UNL     1      36.002 -21.658 -17.815  0.00  0.00    -0.055 C 
ATOM      5  C   UNL     1      33.807 -23.505 -18.112  0.00  0.00    +0.069 C 
ATOM      6  C   UNL     1      35.661 -22.663 -16.713  0.00  0.00    +0.069 C 
ATOM      7  H   UNL     1      36.158 -23.061 -19.286  0.00  0.00    -0.080 HD
ENDROOT
BRANCH   1   9
ATOM      8  N   UNL     1      36.379 -19.067 -20.837  0.00  0.00    +0.389 N 
ATOM      9  C   UNL     1      36.011 -21.257 -20.184  0.00  0.00    -0.081 C 
ATOM     10  C   UNL     1      34.853 -20.891 -21.109  0.00  0.00    -0.035 C 
ATOM     11  C   UNL     1      35.158 -19.458 -21.546  0.00  0.00    +0.015 C 
ATOM     12  C   UNL     1      36.465 -19.911 -19.646  0.00  0.00    -0.102 C 
ATOM     13  H   UNL     1      36.330 -18.084 -20.567  0.00  0.00    -0.084 HD
ATOM     14  H   UNL     1      37.200 -19.187 -21.429  0.00  0.00    -0.084 HD
BRANCH  11  18
ATOM     15  S   UNL     1      34.796 -15.081 -23.066  0.00  0.00    -0.117 S 
ATOM     16  O   UNL     1      33.178 -18.885 -20.376  0.00  0.00    -0.277 OA
ATOM     17  N   UNL     1      34.135 -17.244 -21.704  0.00  0.00    -0.271 N 
ATOM     18  C   UNL     1      34.066 -18.514 -21.147  0.00  0.00    +0.206 C 
ATOM     19  C   UNL     1      33.128 -16.232 -21.402  0.00  0.00    +0.106 C 
ATOM     20  C   UNL     1      35.241 -16.745 -22.513  0.00  0.00    +0.152 C 
ATOM     21  C   UNL     1      33.072 -15.247 -22.555  0.00  0.00    +0.081 C 
ENDBRANCH  11  18
ENDBRANCH   1   9
BRANCH   2  24
ATOM     22  N   UNL     1      34.105 -24.062 -14.621  0.00  0.00    -0.177 N 
ATOM     23  N   UNL     1      33.267 -24.277 -13.592  0.00  0.00    -0.177 NA
ATOM     24  C   UNL     1      33.546 -23.363 -15.650  0.00  0.00    +0.125 C 
ATOM     25  C   UNL     1      32.253 -23.102 -15.269  0.00  0.00    +0.048 C 
ATOM     26  C   UNL     1      32.137 -23.689 -13.994  0.00  0.00    +0.080 C 
ATOM     27  C   UNL     1      30.951 -23.709 -13.120  0.00  0.00    +0.054 C 
BRANCH  22  28
ATOM     28  C   UNL     1      35.413 -24.549 -14.555  0.00  0.00    +0.075 C 
ATOM     29  C   UNL     1      35.735 -25.733 -15.203  0.00  0.00    +0.017 C 
ATOM     30  C   UNL     1      36.370 -23.840 -13.843  0.00  0.00    +0.017 C 
ATOM     31  C   UNL     1      37.041 -26.218 -15.137  0.00  0.00    +0.001 C 
ATOM     32  C   UNL     1      37.677 -24.326 -13.777  0.00  0.00    +0.001 C 
ATOM     33  C   UNL     1      38.012 -25.515 -14.425  0.00  0.00    +0.000 C 
ENDBRANCH  22  28
ENDBRANCH   2  24
TORSDOF 4
ENDMDL
MODEL 4
REMARK VINA RESULT:      -9.0      3.959     11.141
REMARK  Name = 11949652
REMARK  4 active torsions:
REMARK  status: ('A' for Active; 'I' for Inactive)
REMARK    1  A    between atoms: N_1  and  C_9
REMARK    2  A    between atoms: N_2  and  C_24
REMARK    3  A    between atoms: C_11  and  C_18
REMARK    4  A    between atoms: N_22  and  C_28
REMARK                            x       y       z     vdW  Elec       q    Type
REMARK                         _______ _______ _______ _____ _____    ______ ____
ROOT
ATOM      1  N   UNL     1      33.985 -15.399 -22.742  0.00  0.00    +0.389 N 
ATOM      2  N   UNL     1      33.006 -12.720 -22.849  0.00  0.00    -0.299 N 
ATOM      3  C   UNL     1      33.890 -14.689 -24.024  0.00  0.00    -0.055 C 
ATOM      4  C   UNL     1      34.279 -14.452 -21.659  0.00  0.00    -0.055 C 
ATOM      5  C   UNL     1      32.794 -13.619 -23.986  0.00  0.00    +0.069 C 
ATOM      6  C   UNL     1      33.183 -13.390 -21.556  0.00  0.00    +0.069 C 
ATOM      7  H   UNL     1      33.088 -15.846 -22.551  0.00  0.00    -0.080 HD
ENDROOT
BRANCH   1   9
ATOM      8  N   UNL     1      35.587 -18.600 -23.379  0.00  0.00    +0.389 N 
ATOM      9  C   UNL     1      35.004 -16.434 -22.806  0.00  0.00    -0.081 C 
ATOM     10  C   UNL     1      35.196 -17.184 -21.490  0.00  0.00    -0.035 C 
ATOM     11  C   UNL     1      35.617 -18.591 -21.914  0.00  0.00    +0.015 C 
ATOM     12  C   UNL     1      34.666 -17.541 -23.789  0.00  0.00    -0.102 C 
ATOM     13  H   UNL     1      35.256 -19.504 -23.718  0.00  0.00    -0.084 HD
ATOM     14  H   UNL     1      36.517 -18.445 -23.765  0.00  0.00    -0.084 HD
BRANCH  11  18
ATOM     15  S   UNL     1      36.592 -21.700 -18.600  0.00  0.00    -0.117 S 
ATOM     16  O   UNL     1      33.518 -19.690 -21.892  0.00  0.00    -0.277 OA
ATOM     17  N   UNL     1      35.138 -20.472 -20.429  0.00  0.00    -0.271 N 
ATOM     18  C   UNL     1      34.656 -19.628 -21.422  0.00  0.00    +0.206 C 
ATOM     19  C   UNL     1      34.299 -21.521 -19.860  0.00  0.00    +0.106 C 
ATOM     20  C   UNL     1      36.515 -20.501 -19.953  0.00  0.00    +0.152 C 
ATOM     21  C   UNL     1      34.795 -21.830 -18.460  0.00  0.00    +0.081 C 
ENDBRANCH  11  18
ENDBRANCH   1   9
BRANCH   2  24
ATOM     22  N   UNL     1      33.015 -10.557 -23.901  0.00  0.00    -0.177 N 
ATOM     23  N   UNL     1      32.540  -9.306 -23.779  0.00  0.00    -0.177 NA
ATOM     24  C   UNL     1      32.622 -11.397 -22.900  0.00  0.00    +0.125 C 
ATOM     25  C   UNL     1      31.835 -10.643 -22.065  0.00  0.00    +0.048 C 
ATOM     26  C   UNL     1      31.820  -9.364 -22.655  0.00  0.00    +0.080 C 
ATOM     27  C   UNL     1      31.123  -8.161 -22.171  0.00  0.00    +0.054 C 
BRANCH  22  28
ATOM     28  C   UNL     1      33.833 -10.879 -24.987  0.00  0.00    +0.075 C 
ATOM     29  C   UNL     1      33.404 -11.823 -25.910  0.00  0.00    +0.017 C 
ATOM     30  C   UNL     1      35.062 -10.249 -25.127  0.00  0.00    +0.017 C 
ATOM     31  C   UNL     1      34.221 -12.143 -26.994  0.00  0.00    +0.001 C 
ATOM     32  C   UNL     1      35.878 -10.569 -26.212  0.00  0.00    +0.001 C 
ATOM     33  C   UNL     1      35.457 -11.516 -27.146  0.00  0.00    +0.000 C 
ENDBRANCH  22  28
ENDBRANCH   2  24
TORSDOF 4
ENDMDL
MODEL 5
REMARK VINA RESULT:      -8.7      1.585      3.682
REMARK  Name = 11949652
REMARK  4 active torsions:
REMARK  status: ('A' for Active; 'I' for Inactive)
REMARK    1  A    between atoms: N_1  and  C_9
REMARK    2  A    between atoms: N_2  and  C_24
REMARK    3  A    between atoms: C_11  and  C_18
REMARK    4  A    between atoms: N_22  and  C_28
REMARK                            x       y       z     vdW  Elec       q    Type
REMARK                         _______ _______ _______ _____ _____    ______ ____
ROOT
ATOM      1  N   UNL     1      34.699 -21.649 -18.669  0.00  0.00    +0.389 N 
ATOM      2  N   UNL     1      35.255 -23.124 -16.289  0.00  0.00    -0.299 N 
ATOM      3  C   UNL     1      36.055 -21.676 -18.106  0.00  0.00    -0.055 C 
ATOM      4  C   UNL     1      34.013 -22.919 -18.400  0.00  0.00    -0.055 C 
ATOM      5  C   UNL     1      36.024 -21.915 -16.594  0.00  0.00    +0.069 C 
ATOM      6  C   UNL     1      33.920 -23.176 -16.895  0.00  0.00    +0.069 C 
ATOM      7  H   UNL     1      34.177 -20.895 -18.222  0.00  0.00    -0.080 HD
ENDROOT
BRANCH   1   9
ATOM      8  N   UNL     1      35.760 -20.309 -21.878  0.00  0.00    +0.389 N 
ATOM      9  C   UNL     1      34.744 -21.385 -20.098  0.00  0.00    -0.081 C 
ATOM     10  C   UNL     1      33.768 -20.301 -20.550  0.00  0.00    -0.035 C 
ATOM     11  C   UNL     1      34.459 -19.646 -21.746  0.00  0.00    +0.015 C 
ATOM     12  C   UNL     1      36.090 -20.857 -20.563  0.00  0.00    -0.102 C 
ATOM     13  H   UNL     1      36.469 -19.635 -22.165  0.00  0.00    -0.084 HD
ATOM     14  H   UNL     1      35.725 -21.044 -22.583  0.00  0.00    -0.084 HD
BRANCH  11  18
ATOM     15  S   UNL     1      34.391 -16.417 -25.088  0.00  0.00    -0.117 S 
ATOM     16  O   UNL     1      34.927 -17.770 -20.375  0.00  0.00    -0.277 OA
ATOM     17  N   UNL     1      34.645 -17.380 -22.644  0.00  0.00    -0.271 N 
ATOM     18  C   UNL     1      34.701 -18.187 -21.514  0.00  0.00    +0.206 C 
ATOM     19  C   UNL     1      34.857 -15.940 -22.552  0.00  0.00    +0.106 C 
ATOM     20  C   UNL     1      34.509 -17.866 -24.011  0.00  0.00    +0.152 C 
ATOM     21  C   UNL     1      34.144 -15.272 -23.713  0.00  0.00    +0.081 C 
ENDBRANCH  11  18
ENDBRANCH   1   9
BRANCH   2  24
ATOM     22  N   UNL     1      34.601 -24.318 -14.308  0.00  0.00    -0.177 N 
ATOM     23  N   UNL     1      35.082 -25.075 -13.306  0.00  0.00    -0.177 NA
ATOM     24  C   UNL     1      35.553 -23.907 -15.194  0.00  0.00    +0.125 C 
ATOM     25  C   UNL     1      36.738 -24.431 -14.742  0.00  0.00    +0.048 C 
ATOM     26  C   UNL     1      36.389 -25.140 -13.577  0.00  0.00    +0.080 C 
ATOM     27  C   UNL     1      37.283 -25.899 -12.686  0.00  0.00    +0.054 C 
BRANCH  22  28
ATOM     28  C   UNL     1      33.235 -24.029 -14.355  0.00  0.00    +0.075 C 
ATOM     29  C   UNL     1      32.323 -25.060 -14.529  0.00  0.00    +0.017 C 
ATOM     30  C   UNL     1      32.811 -22.713 -14.226  0.00  0.00    +0.017 C 
ATOM     31  C   UNL     1      30.960 -24.771 -14.575  0.00  0.00    +0.001 C 
ATOM     32  C   UNL     1      31.447 -22.424 -14.272  0.00  0.00    +0.001 C 
ATOM     33  C   UNL     1      30.521 -23.453 -14.447  0.00  0.00    +0.000 C 
ENDBRANCH  22  28
ENDBRANCH   2  24
TORSDOF 4
ENDMDL
MODEL 6
REMARK VINA RESULT:      -8.4      9.027     14.131
REMARK  Name = 11949652
REMARK  4 active torsions:
REMARK  status: ('A' for Active; 'I' for Inactive)
REMARK    1  A    between atoms: N_1  and  C_9
REMARK    2  A    between atoms: N_2  and  C_24
REMARK    3  A    between atoms: C_11  and  C_18
REMARK    4  A    between atoms: N_22  and  C_28
REMARK                            x       y       z     vdW  Elec       q    Type
REMARK                         _______ _______ _______ _____ _____    ______ ____
ROOT
ATOM      1  N   UNL     1      31.355  -7.183 -21.857  0.00  0.00    +0.389 N 
ATOM      2  N   UNL     1      31.872  -9.988 -21.994  0.00  0.00    -0.299 N 
ATOM      3  C   UNL     1      32.298  -7.816 -20.925  0.00  0.00    -0.055 C 
ATOM      4  C   UNL     1      31.380  -7.876 -23.151  0.00  0.00    -0.055 C 
ATOM      5  C   UNL     1      31.956  -9.293 -20.707  0.00  0.00    +0.069 C 
ATOM      6  C   UNL     1      31.000  -9.348 -22.985  0.00  0.00    +0.069 C 
ATOM      7  H   UNL     1      30.415  -7.255 -21.466  0.00  0.00    -0.080 HD
ENDROOT
BRANCH   1   9
ATOM      8  N   UNL     1      30.973  -3.652 -22.632  0.00  0.00    +0.389 N 
ATOM      9  C   UNL     1      31.671  -5.774 -22.025  0.00  0.00    -0.081 C 
ATOM     10  C   UNL     1      32.371  -5.459 -23.345  0.00  0.00    -0.035 C 
ATOM     11  C   UNL     1      31.916  -4.040 -23.685  0.00  0.00    +0.015 C 
ATOM     12  C   UNL     1      30.437  -4.890 -22.068  0.00  0.00    -0.102 C 
ATOM     13  H   UNL     1      30.219  -3.090 -23.027  0.00  0.00    -0.084 HD
ATOM     14  H   UNL     1      31.436  -3.093 -21.915  0.00  0.00    -0.084 HD
BRANCH  11  18
ATOM     15  S   UNL     1      33.468  -1.786 -27.441  0.00  0.00    -0.117 S 
ATOM     16  O   UNL     1      30.122  -4.582 -25.136  0.00  0.00    -0.277 OA
ATOM     17  N   UNL     1      31.819  -3.258 -25.999  0.00  0.00    -0.271 N 
ATOM     18  C   UNL     1      31.195  -3.991 -24.997  0.00  0.00    +0.206 C 
ATOM     19  C   UNL     1      31.223  -3.137 -27.325  0.00  0.00    +0.106 C 
ATOM     20  C   UNL     1      33.017  -2.448 -25.819  0.00  0.00    +0.152 C 
ATOM     21  C   UNL     1      32.330  -2.872 -28.329  0.00  0.00    +0.081 C 
ENDBRANCH  11  18
ENDBRANCH   1   9
BRANCH   2  24
ATOM     22  N   UNL     1      33.127 -11.773 -23.002  0.00  0.00    -0.177 N 
ATOM     23  N   UNL     1      33.309 -13.104 -22.971  0.00  0.00    -0.177 NA
ATOM     24  C   UNL     1      32.198 -11.322 -22.112  0.00  0.00    +0.125 C 
ATOM     25  C   UNL     1      31.739 -12.434 -21.452  0.00  0.00    +0.048 C 
ATOM     26  C   UNL     1      32.458 -13.503 -22.021  0.00  0.00    +0.080 C 
ATOM     27  C   UNL     1      32.358 -14.933 -21.683  0.00  0.00    +0.054 C 
BRANCH  22  28
ATOM     28  C   UNL     1      33.867 -11.000 -23.900  0.00  0.00    +0.075 C 
ATOM     29  C   UNL     1      34.227  -9.705 -23.554  0.00  0.00    +0.017 C 
ATOM     30  C   UNL     1      34.233 -11.539 -25.126  0.00  0.00    +0.017 C 
ATOM     31  C   UNL     1      34.966  -8.934 -24.451  0.00  0.00    +0.001 C 
ATOM     32  C   UNL     1      34.972 -10.768 -26.023  0.00  0.00    +0.001 C 
ATOM     33  C   UNL     1      35.339  -9.465 -25.685  0.00  0.00    +0.000 C 
ENDBRANCH  22  28
ENDBRANCH   2  24
TORSDOF 4
ENDMDL
MODEL 7
REMARK VINA RESULT:      -7.8      3.394      9.796
REMARK  Name = 11949652
REMARK  4 active torsions:
REMARK  status: ('A' for Active; 'I' for Inactive)
REMARK    1  A    between atoms: N_1  and  C_9
REMARK    2  A    between atoms: N_2  and  C_24
REMARK    3  A    between atoms: C_11  and  C_18
REMARK    4  A    between atoms: N_22  and  C_28
REMARK                            x       y       z     vdW  Elec       q    Type
REMARK                         _______ _______ _______ _____ _____    ______ ____
ROOT
ATOM      1  N   UNL     1      34.482 -16.682 -20.814  0.00  0.00    +0.389 N 
ATOM      2  N   UNL     1      33.118 -14.175 -20.736  0.00  0.00    -0.299 N 
ATOM      3  C   UNL     1      33.016 -16.626 -20.882  0.00  0.00    -0.055 C 
ATOM      4  C   UNL     1      35.064 -15.494 -21.453  0.00  0.00    -0.055 C 
ATOM      5  C   UNL     1      32.475 -15.372 -20.188  0.00  0.00    +0.069 C 
ATOM      6  C   UNL     1      34.584 -14.217 -20.760  0.00  0.00    +0.069 C 
ATOM      7  H   UNL     1      34.762 -16.695 -19.833  0.00  0.00    -0.080 HD
ENDROOT
BRANCH   1   9
ATOM      8  N   UNL     1      34.543 -20.020 -22.252  0.00  0.00    +0.389 N 
ATOM      9  C   UNL     1      34.977 -17.895 -21.444  0.00  0.00    -0.081 C 
ATOM     10  C   UNL     1      35.641 -18.863 -20.468  0.00  0.00    -0.035 C 
ATOM     11  C   UNL     1      35.365 -20.245 -21.060  0.00  0.00    +0.015 C 
ATOM     12  C   UNL     1      33.875 -18.733 -22.068  0.00  0.00    -0.102 C 
ATOM     13  H   UNL     1      33.852 -20.764 -22.348  0.00  0.00    -0.084 HD
ATOM     14  H   UNL     1      35.116 -20.017 -23.096  0.00  0.00    -0.084 HD
BRANCH  11  18
ATOM     15  S   UNL     1      37.121 -22.140 -17.197  0.00  0.00    -0.117 S 
ATOM     16  O   UNL     1      33.396 -21.345 -20.331  0.00  0.00    -0.277 OA
ATOM     17  N   UNL     1      35.292 -21.585 -19.018  0.00  0.00    -0.271 N 
ATOM     18  C   UNL     1      34.587 -21.106 -20.114  0.00  0.00    +0.206 C 
ATOM     19  C   UNL     1      34.647 -22.430 -18.018  0.00  0.00    +0.106 C 
ATOM     20  C   UNL     1      36.725 -21.424 -18.810  0.00  0.00    +0.152 C 
ATOM     21  C   UNL     1      35.389 -22.274 -16.704  0.00  0.00    +0.081 C 
ENDBRANCH  11  18
ENDBRANCH   1   9
BRANCH   2  24
ATOM     22  N   UNL     1      32.284 -12.279 -21.958  0.00  0.00    -0.177 N 
ATOM     23  N   UNL     1      31.615 -11.123 -21.814  0.00  0.00    -0.177 NA
ATOM     24  C   UNL     1      32.457 -12.967 -20.793  0.00  0.00    +0.125 C 
ATOM     25  C   UNL     1      31.858 -12.208 -19.817  0.00  0.00    +0.048 C 
ATOM     26  C   UNL     1      31.357 -11.085 -20.503  0.00  0.00    +0.080 C 
ATOM     27  C   UNL     1      30.620  -9.943 -19.936  0.00  0.00    +0.054 C 
BRANCH  22  28
ATOM     28  C   UNL     1      32.728 -12.662 -23.226  0.00  0.00    +0.075 C 
ATOM     29  C   UNL     1      33.456 -11.765 -23.996  0.00  0.00    +0.017 C 
ATOM     30  C   UNL     1      32.434 -13.934 -23.698  0.00  0.00    +0.017 C 
ATOM     31  C   UNL     1      33.899 -12.148 -25.261  0.00  0.00    +0.001 C 
ATOM     32  C   UNL     1      32.878 -14.317 -24.964  0.00  0.00    +0.001 C 
ATOM     33  C   UNL     1      33.611 -13.424 -25.746  0.00  0.00    +0.000 C 
ENDBRANCH  22  28
ENDBRANCH   2  24
TORSDOF 4
ENDMDL
MODEL 8
REMARK VINA RESULT:      -7.8      1.582      2.406
REMARK  Name = 11949652
REMARK  4 active torsions:
REMARK  status: ('A' for Active; 'I' for Inactive)
REMARK    1  A    between atoms: N_1  and  C_9
REMARK    2  A    between atoms: N_2  and  C_24
REMARK    3  A    between atoms: C_11  and  C_18
REMARK    4  A    between atoms: N_22  and  C_28
REMARK                            x       y       z     vdW  Elec       q    Type
REMARK                         _______ _______ _______ _____ _____    ______ ____
ROOT
ATOM      1  N   UNL     1      34.473 -21.617 -18.545  0.00  0.00    +0.389 N 
ATOM      2  N   UNL     1      32.930 -23.109 -16.662  0.00  0.00    -0.299 N 
ATOM      3  C   UNL     1      35.123 -22.561 -17.627  0.00  0.00    -0.055 C 
ATOM      4  C   UNL     1      33.127 -22.093 -18.891  0.00  0.00    -0.055 C 
ATOM      5  C   UNL     1      34.310 -22.734 -16.341  0.00  0.00    +0.069 C 
ATOM      6  C   UNL     1      32.264 -22.237 -17.636  0.00  0.00    +0.069 C 
ATOM      7  H   UNL     1      34.389 -20.714 -18.078  0.00  0.00    -0.080 HD
ENDROOT
BRANCH   1   9
ATOM      8  N   UNL     1      36.945 -20.275 -20.848  0.00  0.00    +0.389 N 
ATOM      9  C   UNL     1      35.274 -21.436 -19.745  0.00  0.00    -0.081 C 
ATOM     10  C   UNL     1      34.576 -20.616 -20.827  0.00  0.00    -0.035 C 
ATOM     11  C   UNL     1      35.716 -19.901 -21.553  0.00  0.00    +0.015 C 
ATOM     12  C   UNL     1      36.554 -20.660 -19.492  0.00  0.00    -0.102 C 
ATOM     13  H   UNL     1      37.587 -19.482 -20.816  0.00  0.00    -0.084 HD
ATOM     14  H   UNL     1      37.420 -21.042 -21.323  0.00  0.00    -0.084 HD
BRANCH  11  18
ATOM     15  S   UNL     1      34.583 -17.197 -25.159  0.00  0.00    -0.117 S 
ATOM     16  O   UNL     1      35.744 -17.827 -20.407  0.00  0.00    -0.277 OA
ATOM     17  N   UNL     1      35.233 -17.781 -22.668  0.00  0.00    -0.271 N 
ATOM     18  C   UNL     1      35.571 -18.412 -21.478  0.00  0.00    +0.206 C 
ATOM     19  C   UNL     1      35.055 -16.334 -22.728  0.00  0.00    +0.106 C 
ATOM     20  C   UNL     1      35.151 -18.435 -23.968  0.00  0.00    +0.152 C 
ATOM     21  C   UNL     1      34.121 -16.010 -23.879  0.00  0.00    +0.081 C 
ENDBRANCH  11  18
ENDBRANCH   1   9
BRANCH   2  24
ATOM     22  N   UNL     1      32.738 -24.566 -14.759  0.00  0.00    -0.177 N 
ATOM     23  N   UNL     1      31.854 -25.285 -14.047  0.00  0.00    -0.177 NA
ATOM     24  C   UNL     1      32.186 -23.900 -15.814  0.00  0.00    +0.125 C 
ATOM     25  C   UNL     1      30.847 -24.203 -15.790  0.00  0.00    +0.048 C 
ATOM     26  C   UNL     1      30.699 -25.059 -14.681  0.00  0.00    +0.080 C 
ATOM     27  C   UNL     1      29.461 -25.689 -14.192  0.00  0.00    +0.054 C 
BRANCH  22  28
ATOM     28  C   UNL     1      34.083 -24.563 -14.382  0.00  0.00    +0.075 C 
ATOM     29  C   UNL     1      35.001 -25.305 -15.112  0.00  0.00    +0.017 C 
ATOM     30  C   UNL     1      34.481 -23.815 -13.282  0.00  0.00    +0.017 C 
ATOM     31  C   UNL     1      36.343 -25.301 -14.734  0.00  0.00    +0.001 C 
ATOM     32  C   UNL     1      35.825 -23.810 -12.905  0.00  0.00    +0.001 C 
ATOM     33  C   UNL     1      36.755 -24.553 -13.631  0.00  0.00    +0.000 C 
ENDBRANCH  22  28
ENDBRANCH   2  24
TORSDOF 4
ENDMDL
MODEL 9
REMARK VINA RESULT:      -7.8      4.669     11.599
REMARK  Name = 11949652
REMARK  4 active torsions:
REMARK  status: ('A' for Active; 'I' for Inactive)
REMARK    1  A    between atoms: N_1  and  C_9
REMARK    2  A    between atoms: N_2  and  C_24
REMARK    3  A    between atoms: C_11  and  C_18
REMARK    4  A    between atoms: N_22  and  C_28
REMARK                            x       y       z     vdW  Elec       q    Type
REMARK                         _______ _______ _______ _____ _____    ______ ____
ROOT
ATOM      1  N   UNL     1      33.685 -13.407 -23.443  0.00  0.00    +0.389 N 
ATOM      2  N   UNL     1      32.622 -10.757 -23.491  0.00  0.00    -0.299 N 
ATOM      3  C   UNL     1      34.423 -12.317 -24.094  0.00  0.00    -0.055 C 
ATOM      4  C   UNL     1      32.917 -12.889 -22.303  0.00  0.00    -0.055 C 
ATOM      5  C   UNL     1      33.474 -11.221 -24.589  0.00  0.00    +0.069 C 
ATOM      6  C   UNL     1      31.922 -11.820 -22.761  0.00  0.00    +0.069 C 
ATOM      7  H   UNL     1      33.034 -13.808 -24.119  0.00  0.00    -0.080 HD
ENDROOT
BRANCH   1   9
ATOM      8  N   UNL     1      35.142 -16.704 -22.973  0.00  0.00    +0.389 N 
ATOM      9  C   UNL     1      34.595 -14.455 -23.012  0.00  0.00    -0.081 C 
ATOM     10  C   UNL     1      34.348 -14.927 -21.580  0.00  0.00    -0.035 C 
ATOM     11  C   UNL     1      34.759 -16.399 -21.592  0.00  0.00    +0.015 C 
ATOM     12  C   UNL     1      34.460 -15.731 -23.825  0.00  0.00    -0.102 C 
ATOM     13  H   UNL     1      34.849 -17.650 -23.217  0.00  0.00    -0.084 HD
ATOM     14  H   UNL     1      36.153 -16.650 -23.093  0.00  0.00    -0.084 HD
BRANCH  11  18
ATOM     15  S   UNL     1      35.192 -20.927 -20.637  0.00  0.00    -0.117 S 
ATOM     16  O   UNL     1      32.477 -16.839 -21.131  0.00  0.00    -0.277 OA
ATOM     17  N   UNL     1      33.951 -18.621 -20.974  0.00  0.00    -0.271 N 
ATOM     18  C   UNL     1      33.620 -17.294 -21.215  0.00  0.00    +0.206 C 
ATOM     19  C   UNL     1      32.934 -19.595 -20.593  0.00  0.00    +0.106 C 
ATOM     20  C   UNL     1      35.268 -19.207 -21.193  0.00  0.00    +0.152 C 
ATOM     21  C   UNL     1      33.601 -20.709 -19.810  0.00  0.00    +0.081 C 
ENDBRANCH  11  18
ENDBRANCH   1   9
BRANCH   2  24
ATOM     22  N   UNL     1      31.696  -8.893 -22.289  0.00  0.00    -0.177 N 
ATOM     23  N   UNL     1      31.292  -7.620 -22.435  0.00  0.00    -0.177 NA
ATOM     24  C   UNL     1      32.162  -9.459 -23.439  0.00  0.00    +0.125 C 
ATOM     25  C   UNL     1      32.056  -8.489 -24.405  0.00  0.00    +0.048 C 
ATOM     26  C   UNL     1      31.514  -7.378 -23.730  0.00  0.00    +0.080 C 
ATOM     27  C   UNL     1      31.190  -6.057 -24.294  0.00  0.00    +0.054 C 
BRANCH  22  28
ATOM     28  C   UNL     1      31.609  -9.501 -21.034  0.00  0.00    +0.075 C 
ATOM     29  C   UNL     1      32.514  -9.154 -20.041  0.00  0.00    +0.017 C 
ATOM     30  C   UNL     1      30.618 -10.444 -20.800  0.00  0.00    +0.017 C 
ATOM     31  C   UNL     1      32.426  -9.762 -18.789  0.00  0.00    +0.001 C 
ATOM     32  C   UNL     1      30.530 -11.052 -19.547  0.00  0.00    +0.001 C 
ATOM     33  C   UNL     1      31.434 -10.710 -18.542  0.00  0.00    +0.000 C 
ENDBRANCH  22  28
ENDBRANCH   2  24
TORSDOF 4
ENDMDL
