MODEL 1
REMARK VINA RESULT:      -9.2      0.000      0.000
REMARK  Name = 5287408
REMARK  12 active torsions:
REMARK  status: ('A' for Active; 'I' for Inactive)
REMARK    1  A    between atoms: CA_1  and  C_8
REMARK    2  A    between atoms: CA_1  and  N_14
REMARK    3  A    between atoms: CA_1  and  CB_28
REMARK    4  A    between atoms: CA_4  and  C_10
REMARK    5  A    between atoms: C_10  and  O_11
REMARK    6  A    between atoms: C_15  and  C_17
REMARK    7  A    between atoms: C_17  and  C_18
REMARK    8  A    between atoms: C_18  and  C_21
REMARK    9  A    between atoms: C_18  and  O_26
REMARK   10  A    between atoms: N_20  and  C_23
REMARK   11  A    between atoms: C_23  and  C_24
REMARK   12  A    between atoms: CB_28  and  CG1_30
REMARK                            x       y       z     vdW  Elec       q    Type
REMARK                         _______ _______ _______ _____ _____    ______ ____
ROOT
ATOM      1  CA  ILE A   1      34.589 -23.476 -15.165  0.00  0.00    +0.149 C 
ENDROOT
BRANCH   1   8
ATOM      2  O   ILE A   1      35.738 -25.488 -15.711  0.00  0.00    -0.273 OA
ATOM      3  N   ILE A   1      36.498 -24.302 -13.875  0.00  0.00    -0.270 N 
ATOM      4  CA  ILE A   1      37.678 -25.121 -13.625  0.00  0.00    +0.175 C 
ATOM      5  CB  ILE A   1      38.531 -24.290 -12.674  0.00  0.00    +0.033 C 
ATOM      6  CD  ILE A   1      36.439 -23.169 -12.955  0.00  0.00    +0.094 C 
ATOM      7  CG  ILE A   1      37.503 -23.460 -11.907  0.00  0.00    +0.024 C 
ATOM      8  C   ILE A   1      35.657 -24.518 -14.955  0.00  0.00    +0.244 C 
BRANCH   4  10
ATOM      9  OXT ILE A   1      36.971 -26.532 -11.794  0.00  0.00    -0.248 OA
ATOM     10  C   ILE A   1      37.207 -26.391 -12.985  0.00  0.00    +0.332 C 
BRANCH  10  11
ATOM     11  O   ILE A   1      37.076 -27.373 -13.909  0.00  0.00    -0.479 OA
ATOM     12  H   ILE A   1      36.638 -28.171 -13.687  0.00  0.00    +0.295 HD
ENDBRANCH  10  11
ENDBRANCH   4  10
ENDBRANCH   1   8
BRANCH   1  14
ATOM     13  O   UNK A   0      36.705 -21.848 -16.287  0.00  0.00    -0.275 OA
ATOM     14  N   ILE A   1      34.715 -23.028 -16.533  0.00  0.00    -0.298 N 
ATOM     15  C   UNK A   0      35.771 -22.248 -16.977  0.00  0.00    +0.226 C 
ATOM     16  H   ILE A   1      34.019 -23.289 -17.179  0.00  0.00    +0.150 HD
BRANCH  15  17
ATOM     17  C   UNK A   0      35.682 -21.930 -18.457  0.00  0.00    +0.124 C 
BRANCH  17  18
ATOM     18  C   UNK A   0      34.254 -22.120 -18.967  0.00  0.00    +0.196 C 
BRANCH  18  21
ATOM     19  O   UNK A   0      32.699 -20.835 -20.295  0.00  0.00    -0.272 OA
ATOM     20  N   UNK A   0      34.931 -20.192 -20.261  0.00  0.00    -0.302 N 
ATOM     21  C   UNK A   0      33.856 -20.996 -19.914  0.00  0.00    +0.250 C 
ATOM     22  H   UNK A   0      35.819 -20.413 -19.898  0.00  0.00    +0.150 HD
BRANCH  20  23
ATOM     23  C   UNK A   0      34.807 -19.046 -21.132  0.00  0.00    +0.089 C 
BRANCH  23  24
ATOM     24  C   UNK A   0      34.845 -19.430 -22.606  0.00  0.00    +0.021 C 
ATOM     25  C   UNK A   0      35.371 -18.311 -23.493  0.00  0.00    +0.002 C 
ENDBRANCH  23  24
ENDBRANCH  20  23
ENDBRANCH  18  21
BRANCH  18  26
ATOM     26  O   UNK A   0      34.184 -23.358 -19.658  0.00  0.00    -0.375 OA
ATOM     27  H   UNK A   0      35.063 -23.768 -19.677  0.00  0.00    +0.211 HD
ENDBRANCH  18  26
ENDBRANCH  17  18
ENDBRANCH  15  17
ENDBRANCH   1  14
BRANCH   1  28
ATOM     28  CB  ILE A   1      33.186 -24.008 -14.806  0.00  0.00    +0.027 C 
ATOM     29  CG2 ILE A   1      32.970 -23.929 -13.288  0.00  0.00    +0.002 C 
BRANCH  28  30
ATOM     30  CG1 ILE A   1      32.059 -23.284 -15.577  0.00  0.00    +0.002 C 
ATOM     31  CD1 ILE A   1      30.903 -22.843 -14.688  0.00  0.00    +0.000 C 
ENDBRANCH  28  30
ENDBRANCH   1  28
TORSDOF 12
ENDMDL
MODEL 2
REMARK VINA RESULT:      -7.9      2.772      5.632
REMARK  Name = 5287408
REMARK  12 active torsions:
REMARK  status: ('A' for Active; 'I' for Inactive)
REMARK    1  A    between atoms: CA_1  and  C_8
REMARK    2  A    between atoms: CA_1  and  N_14
REMARK    3  A    between atoms: CA_1  and  CB_28
REMARK    4  A    between atoms: CA_4  and  C_10
REMARK    5  A    between atoms: C_10  and  O_11
REMARK    6  A    between atoms: C_15  and  C_17
REMARK    7  A    between atoms: C_17  and  C_18
REMARK    8  A    between atoms: C_18  and  C_21
REMARK    9  A    between atoms: C_18  and  O_26
REMARK   10  A    between atoms: N_20  and  C_23
REMARK   11  A    between atoms: C_23  and  C_24
REMARK   12  A    between atoms: CB_28  and  CG1_30
REMARK                            x       y       z     vdW  Elec       q    Type
REMARK                         _______ _______ _______ _____ _____    ______ ____
ROOT
ATOM      1  CA  ILE A   1      35.631 -23.206 -15.804  0.00  0.00    +0.149 C 
ENDROOT
BRANCH   1   8
ATOM      2  O   ILE A   1      37.260 -22.801 -14.116  0.00  0.00    -0.273 OA
ATOM      3  N   ILE A   1      36.859 -25.007 -14.690  0.00  0.00    -0.270 N 
ATOM      4  CA  ILE A   1      37.691 -25.603 -13.653  0.00  0.00    +0.175 C 
ATOM      5  CB  ILE A   1      37.276 -27.069 -13.619  0.00  0.00    +0.033 C 
ATOM      6  CD  ILE A   1      36.167 -26.034 -15.466  0.00  0.00    +0.094 C 
ATOM      7  CG  ILE A   1      36.821 -27.344 -15.050  0.00  0.00    +0.024 C 
ATOM      8  C   ILE A   1      36.657 -23.639 -14.788  0.00  0.00    +0.244 C 
BRANCH   4  10
ATOM      9  OXT ILE A   1      39.642 -26.026 -15.017  0.00  0.00    -0.248 OA
ATOM     10  C   ILE A   1      39.118 -25.439 -14.082  0.00  0.00    +0.332 C 
BRANCH  10  11
ATOM     11  O   ILE A   1      39.756 -24.544 -13.289  0.00  0.00    -0.479 OA
ATOM     12  H   ILE A   1      39.585 -23.628 -13.383  0.00  0.00    +0.295 HD
ENDBRANCH  10  11
ENDBRANCH   4  10
ENDBRANCH   1   8
BRANCH   1  14
ATOM     13  O   UNK A   0      32.923 -23.766 -16.663  0.00  0.00    -0.275 OA
ATOM     14  N   ILE A   1      34.411 -22.948 -15.073  0.00  0.00    -0.298 N 
ATOM     15  C   UNK A   0      33.155 -23.255 -15.571  0.00  0.00    +0.226 C 
ATOM     16  H   ILE A   1      34.476 -22.537 -14.181  0.00  0.00    +0.150 HD
BRANCH  15  17
ATOM     17  C   UNK A   0      32.041 -22.906 -14.603  0.00  0.00    +0.124 C 
BRANCH  17  18
ATOM     18  C   UNK A   0      31.437 -24.172 -13.995  0.00  0.00    +0.196 C 
BRANCH  18  21
ATOM     19  O   UNK A   0      30.006 -25.929 -14.831  0.00  0.00    -0.272 OA
ATOM     20  N   UNK A   0      29.828 -23.808 -15.762  0.00  0.00    -0.302 N 
ATOM     21  C   UNK A   0      30.358 -24.753 -14.898  0.00  0.00    +0.250 C 
ATOM     22  H   UNK A   0      30.185 -22.892 -15.733  0.00  0.00    +0.150 HD
BRANCH  20  23
ATOM     23  C   UNK A   0      28.775 -24.108 -16.706  0.00  0.00    +0.089 C 
BRANCH  23  24
ATOM     24  C   UNK A   0      27.856 -22.917 -16.949  0.00  0.00    +0.021 C 
ATOM     25  C   UNK A   0      27.426 -22.233 -15.659  0.00  0.00    +0.002 C 
ENDBRANCH  23  24
ENDBRANCH  20  23
ENDBRANCH  18  21
BRANCH  18  26
ATOM     26  O   UNK A   0      32.471 -25.130 -13.828  0.00  0.00    -0.375 OA
ATOM     27  H   UNK A   0      32.458 -25.751 -14.574  0.00  0.00    +0.211 HD
ENDBRANCH  18  26
ENDBRANCH  17  18
ENDBRANCH  15  17
ENDBRANCH   1  14
BRANCH   1  28
ATOM     28  CB  ILE A   1      36.122 -22.009 -16.644  0.00  0.00    +0.027 C 
ATOM     29  CG2 ILE A   1      37.657 -21.967 -16.647  0.00  0.00    +0.002 C 
BRANCH  28  30
ATOM     30  CG1 ILE A   1      35.554 -22.015 -18.081  0.00  0.00    +0.002 C 
ATOM     31  CD1 ILE A   1      36.430 -21.274 -19.084  0.00  0.00    +0.000 C 
ENDBRANCH  28  30
ENDBRANCH   1  28
TORSDOF 12
ENDMDL
MODEL 3
REMARK VINA RESULT:      -7.5      8.658     14.500
REMARK  Name = 5287408
REMARK  12 active torsions:
REMARK  status: ('A' for Active; 'I' for Inactive)
REMARK    1  A    between atoms: CA_1  and  C_8
REMARK    2  A    between atoms: CA_1  and  N_14
REMARK    3  A    between atoms: CA_1  and  CB_28
REMARK    4  A    between atoms: CA_4  and  C_10
REMARK    5  A    between atoms: C_10  and  O_11
REMARK    6  A    between atoms: C_15  and  C_17
REMARK    7  A    between atoms: C_17  and  C_18
REMARK    8  A    between atoms: C_18  and  C_21
REMARK    9  A    between atoms: C_18  and  O_26
REMARK   10  A    between atoms: N_20  and  C_23
REMARK   11  A    between atoms: C_23  and  C_24
REMARK   12  A    between atoms: CB_28  and  CG1_30
REMARK                            x       y       z     vdW  Elec       q    Type
REMARK                         _______ _______ _______ _____ _____    ______ ____
ROOT
ATOM      1  CA  ILE A   1      33.418 -12.019 -23.703  0.00  0.00    +0.149 C 
ENDROOT
BRANCH   1   8
ATOM      2  O   ILE A   1      31.569 -10.951 -22.652  0.00  0.00    -0.273 OA
ATOM      3  N   ILE A   1      33.341  -9.607 -23.293  0.00  0.00    -0.270 N 
ATOM      4  CA  ILE A   1      32.848  -8.379 -22.683  0.00  0.00    +0.175 C 
ATOM      5  CB  ILE A   1      34.050  -7.443 -22.671  0.00  0.00    +0.033 C 
ATOM      6  CD  ILE A   1      34.659  -9.407 -23.890  0.00  0.00    +0.094 C 
ATOM      7  CG  ILE A   1      34.869  -7.900 -23.877  0.00  0.00    +0.024 C 
ATOM      8  C   ILE A   1      32.683 -10.820 -23.162  0.00  0.00    +0.244 C 
BRANCH   4  10
ATOM      9  OXT ILE A   1      31.891  -7.036 -24.451  0.00  0.00    -0.248 OA
ATOM     10  C   ILE A   1      31.748  -7.860 -23.561  0.00  0.00    +0.332 C 
BRANCH  10  11
ATOM     11  O   ILE A   1      30.564  -8.432 -23.232  0.00  0.00    -0.479 OA
ATOM     12  H   ILE A   1      30.117  -8.973 -23.852  0.00  0.00    +0.295 HD
ENDBRANCH  10  11
ENDBRANCH   4  10
ENDBRANCH   1   8
BRANCH   1  14
ATOM     13  O   UNK A   0      34.901 -14.438 -23.122  0.00  0.00    -0.275 OA
ATOM     14  N   ILE A   1      32.968 -13.158 -22.936  0.00  0.00    -0.298 N 
ATOM     15  C   UNK A   0      33.755 -14.275 -22.711  0.00  0.00    +0.226 C 
ATOM     16  H   ILE A   1      32.059 -13.139 -22.555  0.00  0.00    +0.150 HD
BRANCH  15  17
ATOM     17  C   UNK A   0      33.060 -15.321 -21.861  0.00  0.00    +0.124 C 
BRANCH  17  18
ATOM     18  C   UNK A   0      33.991 -15.830 -20.760  0.00  0.00    +0.196 C 
BRANCH  18  21
ATOM     19  O   UNK A   0      35.633 -17.587 -20.536  0.00  0.00    -0.272 OA
ATOM     20  N   UNK A   0      34.279 -17.561 -22.423  0.00  0.00    -0.302 N 
ATOM     21  C   UNK A   0      34.738 -17.078 -21.208  0.00  0.00    +0.250 C 
ATOM     22  H   UNK A   0      33.556 -17.074 -22.880  0.00  0.00    +0.150 HD
BRANCH  20  23
ATOM     23  C   UNK A   0      34.814 -18.748 -23.052  0.00  0.00    +0.089 C 
BRANCH  23  24
ATOM     24  C   UNK A   0      34.691 -18.706 -24.570  0.00  0.00    +0.021 C 
ATOM     25  C   UNK A   0      34.462 -17.299 -25.104  0.00  0.00    +0.002 C 
ENDBRANCH  23  24
ENDBRANCH  20  23
ENDBRANCH  18  21
BRANCH  18  26
ATOM     26  O   UNK A   0      34.930 -14.809 -20.455  0.00  0.00    -0.375 OA
ATOM     27  H   UNK A   0      34.885 -14.117 -21.134  0.00  0.00    +0.211 HD
ENDBRANCH  18  26
ENDBRANCH  17  18
ENDBRANCH  15  17
ENDBRANCH   1  14
BRANCH   1  28
ATOM     28  CB  ILE A   1      33.227 -12.174 -25.225  0.00  0.00    +0.027 C 
ATOM     29  CG2 ILE A   1      34.481 -11.681 -25.962  0.00  0.00    +0.002 C 
BRANCH  28  30
ATOM     30  CG1 ILE A   1      32.861 -13.618 -25.637  0.00  0.00    +0.002 C 
ATOM     31  CD1 ILE A   1      33.219 -13.947 -27.081  0.00  0.00    +0.000 C 
ENDBRANCH  28  30
ENDBRANCH   1  28
TORSDOF 12
ENDMDL
MODEL 4
REMARK VINA RESULT:      -7.4      2.529      4.882
REMARK  Name = 5287408
REMARK  12 active torsions:
REMARK  status: ('A' for Active; 'I' for Inactive)
REMARK    1  A    between atoms: CA_1  and  C_8
REMARK    2  A    between atoms: CA_1  and  N_14
REMARK    3  A    between atoms: CA_1  and  CB_28
REMARK    4  A    between atoms: CA_4  and  C_10
REMARK    5  A    between atoms: C_10  and  O_11
REMARK    6  A    between atoms: C_15  and  C_17
REMARK    7  A    between atoms: C_17  and  C_18
REMARK    8  A    between atoms: C_18  and  C_21
REMARK    9  A    between atoms: C_18  and  O_26
REMARK   10  A    between atoms: N_20  and  C_23
REMARK   11  A    between atoms: C_23  and  C_24
REMARK   12  A    between atoms: CB_28  and  CG1_30
REMARK                            x       y       z     vdW  Elec       q    Type
REMARK                         _______ _______ _______ _____ _____    ______ ____
ROOT
ATOM      1  CA  ILE A   1      33.865 -23.754 -16.023  0.00  0.00    +0.149 C 
ENDROOT
BRANCH   1   8
ATOM      2  O   ILE A   1      33.182 -23.807 -13.742  0.00  0.00    -0.273 OA
ATOM      3  N   ILE A   1      31.538 -23.438 -15.330  0.00  0.00    -0.270 N 
ATOM      4  CA  ILE A   1      30.457 -23.167 -14.391  0.00  0.00    +0.175 C 
ATOM      5  CB  ILE A   1      29.359 -22.534 -15.236  0.00  0.00    +0.033 C 
ATOM      6  CD  ILE A   1      31.091 -23.267 -16.710  0.00  0.00    +0.094 C 
ATOM      7  CG  ILE A   1      29.578 -23.144 -16.619  0.00  0.00    +0.024 C 
ATOM      8  C   ILE A   1      32.842 -23.668 -14.919  0.00  0.00    +0.244 C 
BRANCH   4  10
ATOM      9  OXT ILE A   1      29.375 -25.329 -14.414  0.00  0.00    -0.248 OA
ATOM     10  C   ILE A   1      30.029 -24.485 -13.819  0.00  0.00    +0.332 C 
BRANCH  10  11
ATOM     11  O   ILE A   1      30.466 -24.618 -12.543  0.00  0.00    -0.479 OA
ATOM     12  H   ILE A   1      29.927 -24.335 -11.831  0.00  0.00    +0.295 HD
ENDBRANCH  10  11
ENDBRANCH   4  10
ENDBRANCH   1   8
BRANCH   1  14
ATOM     13  O   UNK A   0      33.910 -23.902 -18.915  0.00  0.00    -0.275 OA
ATOM     14  N   ILE A   1      33.551 -22.697 -16.957  0.00  0.00    -0.298 N 
ATOM     15  C   UNK A   0      33.601 -22.866 -18.331  0.00  0.00    +0.226 C 
ATOM     16  H   ILE A   1      33.290 -21.817 -16.601  0.00  0.00    +0.150 HD
BRANCH  15  17
ATOM     17  C   UNK A   0      33.208 -21.613 -19.090  0.00  0.00    +0.124 C 
BRANCH  17  18
ATOM     18  C   UNK A   0      34.354 -21.140 -19.985  0.00  0.00    +0.196 C 
BRANCH  18  21
ATOM     19  O   UNK A   0      32.897 -19.412 -20.836  0.00  0.00    -0.272 OA
ATOM     20  N   UNK A   0      35.189 -19.033 -20.827  0.00  0.00    -0.302 N 
ATOM     21  C   UNK A   0      34.045 -19.781 -20.598  0.00  0.00    +0.250 C 
ATOM     22  H   UNK A   0      36.062 -19.427 -20.601  0.00  0.00    +0.150 HD
BRANCH  20  23
ATOM     23  C   UNK A   0      35.159 -17.700 -21.384  0.00  0.00    +0.089 C 
BRANCH  23  24
ATOM     24  C   UNK A   0      35.744 -17.645 -22.790  0.00  0.00    +0.021 C 
ATOM     25  C   UNK A   0      35.154 -18.700 -23.715  0.00  0.00    +0.002 C 
ENDBRANCH  23  24
ENDBRANCH  20  23
ENDBRANCH  18  21
BRANCH  18  26
ATOM     26  O   UNK A   0      35.530 -21.038 -19.196  0.00  0.00    -0.375 OA
ATOM     27  H   UNK A   0      35.685 -21.880 -18.738  0.00  0.00    +0.211 HD
ENDBRANCH  18  26
ENDBRANCH  17  18
ENDBRANCH  15  17
ENDBRANCH   1  14
BRANCH   1  28
ATOM     28  CB  ILE A   1      35.307 -23.701 -15.478  0.00  0.00    +0.027 C 
ATOM     29  CG2 ILE A   1      35.867 -25.125 -15.344  0.00  0.00    +0.002 C 
BRANCH  28  30
ATOM     30  CG1 ILE A   1      36.234 -22.807 -16.330  0.00  0.00    +0.002 C 
ATOM     31  CD1 ILE A   1      37.632 -22.648 -15.744  0.00  0.00    +0.000 C 
ENDBRANCH  28  30
ENDBRANCH   1  28
TORSDOF 12
ENDMDL
MODEL 5
REMARK VINA RESULT:      -7.2      3.125      5.389
REMARK  Name = 5287408
REMARK  12 active torsions:
REMARK  status: ('A' for Active; 'I' for Inactive)
REMARK    1  A    between atoms: CA_1  and  C_8
REMARK    2  A    between atoms: CA_1  and  N_14
REMARK    3  A    between atoms: CA_1  and  CB_28
REMARK    4  A    between atoms: CA_4  and  C_10
REMARK    5  A    between atoms: C_10  and  O_11
REMARK    6  A    between atoms: C_15  and  C_17
REMARK    7  A    between atoms: C_17  and  C_18
REMARK    8  A    between atoms: C_18  and  C_21
REMARK    9  A    between atoms: C_18  and  O_26
REMARK   10  A    between atoms: N_20  and  C_23
REMARK   11  A    between atoms: C_23  and  C_24
REMARK   12  A    between atoms: CB_28  and  CG1_30
REMARK                            x       y       z     vdW  Elec       q    Type
REMARK                         _______ _______ _______ _____ _____    ______ ____
ROOT
ATOM      1  CA  ILE A   1      33.260 -23.485 -16.773  0.00  0.00    +0.149 C 
ENDROOT
BRANCH   1   8
ATOM      2  O   ILE A   1      31.504 -22.079 -17.552  0.00  0.00    -0.273 OA
ATOM      3  N   ILE A   1      30.918 -23.823 -16.148  0.00  0.00    -0.270 N 
ATOM      4  CA  ILE A   1      29.475 -23.648 -16.258  0.00  0.00    +0.175 C 
ATOM      5  CB  ILE A   1      28.885 -24.936 -15.697  0.00  0.00    +0.033 C 
ATOM      6  CD  ILE A   1      31.246 -24.988 -15.329  0.00  0.00    +0.094 C 
ATOM      7  CG  ILE A   1      29.930 -25.394 -14.682  0.00  0.00    +0.024 C 
ATOM      8  C   ILE A   1      31.818 -23.057 -16.871  0.00  0.00    +0.244 C 
BRANCH   4  10
ATOM      9  OXT ILE A   1      29.739 -22.059 -14.456  0.00  0.00    -0.248 OA
ATOM     10  C   ILE A   1      29.109 -22.458 -15.424  0.00  0.00    +0.332 C 
BRANCH  10  11
ATOM     11  O   ILE A   1      27.976 -21.878 -15.888  0.00  0.00    -0.479 OA
ATOM     12  H   ILE A   1      27.734 -21.022 -15.596  0.00  0.00    +0.295 HD
ENDBRANCH  10  11
ENDBRANCH   4  10
ENDBRANCH   1   8
BRANCH   1  14
ATOM     13  O   UNK A   0      33.833 -24.318 -19.487  0.00  0.00    -0.275 OA
ATOM     14  N   ILE A   1      33.979 -22.741 -17.782  0.00  0.00    -0.298 N 
ATOM     15  C   UNK A   0      34.203 -23.227 -19.060  0.00  0.00    +0.226 C 
ATOM     16  H   ILE A   1      34.324 -21.848 -17.551  0.00  0.00    +0.150 HD
BRANCH  15  17
ATOM     17  C   UNK A   0      34.962 -22.247 -19.934  0.00  0.00    +0.124 C 
BRANCH  17  18
ATOM     18  C   UNK A   0      34.366 -20.844 -19.819  0.00  0.00    +0.196 C 
BRANCH  18  21
ATOM     19  O   UNK A   0      36.210 -19.375 -20.345  0.00  0.00    -0.272 OA
ATOM     20  N   UNK A   0      34.477 -19.582 -21.879  0.00  0.00    -0.302 N 
ATOM     21  C   UNK A   0      35.129 -19.852 -20.686  0.00  0.00    +0.250 C 
ATOM     22  H   UNK A   0      33.613 -20.019 -22.051  0.00  0.00    +0.150 HD
BRANCH  20  23
ATOM     23  C   UNK A   0      35.009 -18.687 -22.881  0.00  0.00    +0.089 C 
BRANCH  23  24
ATOM     24  C   UNK A   0      34.551 -19.052 -24.287  0.00  0.00    +0.021 C 
ATOM     25  C   UNK A   0      34.458 -17.843 -25.208  0.00  0.00    +0.002 C 
ENDBRANCH  23  24
ENDBRANCH  20  23
ENDBRANCH  18  21
BRANCH  18  26
ATOM     26  O   UNK A   0      33.013 -20.892 -20.248  0.00  0.00    -0.375 OA
ATOM     27  H   UNK A   0      32.874 -20.238 -20.951  0.00  0.00    +0.211 HD
ENDBRANCH  18  26
ENDBRANCH  17  18
ENDBRANCH  15  17
ENDBRANCH   1  14
BRANCH   1  28
ATOM     28  CB  ILE A   1      33.819 -23.307 -15.346  0.00  0.00    +0.027 C 
ATOM     29  CG2 ILE A   1      34.033 -24.680 -14.694  0.00  0.00    +0.002 C 
BRANCH  28  30
ATOM     30  CG1 ILE A   1      35.109 -22.458 -15.313  0.00  0.00    +0.002 C 
ATOM     31  CD1 ILE A   1      36.268 -23.142 -14.598  0.00  0.00    +0.000 C 
ENDBRANCH  28  30
ENDBRANCH   1  28
TORSDOF 12
ENDMDL
MODEL 6
REMARK VINA RESULT:      -7.1      8.795     12.864
REMARK  Name = 5287408
REMARK  12 active torsions:
REMARK  status: ('A' for Active; 'I' for Inactive)
REMARK    1  A    between atoms: CA_1  and  C_8
REMARK    2  A    between atoms: CA_1  and  N_14
REMARK    3  A    between atoms: CA_1  and  CB_28
REMARK    4  A    between atoms: CA_4  and  C_10
REMARK    5  A    between atoms: C_10  and  O_11
REMARK    6  A    between atoms: C_15  and  C_17
REMARK    7  A    between atoms: C_17  and  C_18
REMARK    8  A    between atoms: C_18  and  C_21
REMARK    9  A    between atoms: C_18  and  O_26
REMARK   10  A    between atoms: N_20  and  C_23
REMARK   11  A    between atoms: C_23  and  C_24
REMARK   12  A    between atoms: CB_28  and  CG1_30
REMARK                            x       y       z     vdW  Elec       q    Type
REMARK                         _______ _______ _______ _____ _____    ______ ____
ROOT
ATOM      1  CA  ILE A   1      33.567 -14.248 -24.353  0.00  0.00    +0.149 C 
ENDROOT
BRANCH   1   8
ATOM      2  O   ILE A   1      35.527 -15.504 -23.851  0.00  0.00    -0.273 OA
ATOM      3  N   ILE A   1      33.916 -15.354 -22.197  0.00  0.00    -0.270 N 
ATOM      4  CA  ILE A   1      34.689 -16.012 -21.151  0.00  0.00    +0.175 C 
ATOM      5  CB  ILE A   1      33.947 -15.689 -19.860  0.00  0.00    +0.033 C 
ATOM      6  CD  ILE A   1      32.631 -14.885 -21.685  0.00  0.00    +0.094 C 
ATOM      7  CG  ILE A   1      32.498 -15.529 -20.313  0.00  0.00    +0.024 C 
ATOM      8  C   ILE A   1      34.436 -15.090 -23.454  0.00  0.00    +0.244 C 
BRANCH   4  10
ATOM      9  OXT ILE A   1      33.746 -18.237 -21.206  0.00  0.00    -0.248 OA
ATOM     10  C   ILE A   1      34.675 -17.481 -21.449  0.00  0.00    +0.332 C 
BRANCH  10  11
ATOM     11  O   ILE A   1      35.838 -17.863 -22.029  0.00  0.00    -0.479 OA
ATOM     12  H   ILE A   1      35.988 -18.766 -22.230  0.00  0.00    +0.295 HD
ENDBRANCH  10  11
ENDBRANCH   4  10
ENDBRANCH   1   8
BRANCH   1  14
ATOM     13  O   UNK A   0      32.091 -12.005 -23.270  0.00  0.00    -0.275 OA
ATOM     14  N   ILE A   1      34.028 -12.886 -24.212  0.00  0.00    -0.298 N 
ATOM     15  C   UNK A   0      33.243 -11.877 -23.678  0.00  0.00    +0.226 C 
ATOM     16  H   ILE A   1      34.940 -12.665 -24.508  0.00  0.00    +0.150 HD
BRANCH  15  17
ATOM     17  C   UNK A   0      33.963 -10.543 -23.619  0.00  0.00    +0.124 C 
BRANCH  17  18
ATOM     18  C   UNK A   0      32.962  -9.390 -23.556  0.00  0.00    +0.196 C 
BRANCH  18  21
ATOM     19  O   UNK A   0      33.427  -7.755 -21.839  0.00  0.00    -0.272 OA
ATOM     20  N   UNK A   0      32.115  -9.596 -21.301  0.00  0.00    -0.302 N 
ATOM     21  C   UNK A   0      32.880  -8.812 -22.150  0.00  0.00    +0.250 C 
ATOM     22  H   UNK A   0      31.723 -10.426 -21.654  0.00  0.00    +0.150 HD
BRANCH  20  23
ATOM     23  C   UNK A   0      31.870  -9.250 -19.919  0.00  0.00    +0.089 C 
BRANCH  23  24
ATOM     24  C   UNK A   0      31.424 -10.449 -19.091  0.00  0.00    +0.021 C 
ATOM     25  C   UNK A   0      31.676 -11.776 -19.793  0.00  0.00    +0.002 C 
ENDBRANCH  23  24
ENDBRANCH  20  23
ENDBRANCH  18  21
BRANCH  18  26
ATOM     26  O   UNK A   0      33.387  -8.374 -24.453  0.00  0.00    -0.375 OA
ATOM     27  H   UNK A   0      33.254  -7.505 -24.043  0.00  0.00    +0.211 HD
ENDBRANCH  18  26
ENDBRANCH  17  18
ENDBRANCH  15  17
ENDBRANCH   1  14
BRANCH   1  28
ATOM     28  CB  ILE A   1      33.572 -14.764 -25.807  0.00  0.00    +0.027 C 
ATOM     29  CG2 ILE A   1      33.164 -16.244 -25.837  0.00  0.00    +0.002 C 
BRANCH  28  30
ATOM     30  CG1 ILE A   1      32.687 -13.913 -26.744  0.00  0.00    +0.002 C 
ATOM     31  CD1 ILE A   1      33.431 -12.755 -27.396  0.00  0.00    +0.000 C 
ENDBRANCH  28  30
ENDBRANCH   1  28
TORSDOF 12
ENDMDL
MODEL 7
REMARK VINA RESULT:      -7.1      5.444      9.118
REMARK  Name = 5287408
REMARK  12 active torsions:
REMARK  status: ('A' for Active; 'I' for Inactive)
REMARK    1  A    between atoms: CA_1  and  C_8
REMARK    2  A    between atoms: CA_1  and  N_14
REMARK    3  A    between atoms: CA_1  and  CB_28
REMARK    4  A    between atoms: CA_4  and  C_10
REMARK    5  A    between atoms: C_10  and  O_11
REMARK    6  A    between atoms: C_15  and  C_17
REMARK    7  A    between atoms: C_17  and  C_18
REMARK    8  A    between atoms: C_18  and  C_21
REMARK    9  A    between atoms: C_18  and  O_26
REMARK   10  A    between atoms: N_20  and  C_23
REMARK   11  A    between atoms: C_23  and  C_24
REMARK   12  A    between atoms: CB_28  and  CG1_30
REMARK                            x       y       z     vdW  Elec       q    Type
REMARK                         _______ _______ _______ _____ _____    ______ ____
ROOT
ATOM      1  CA  ILE A   1      34.584 -18.082 -22.286  0.00  0.00    +0.149 C 
ENDROOT
BRANCH   1   8
ATOM      2  O   ILE A   1      36.361 -18.704 -20.828  0.00  0.00    -0.273 OA
ATOM      3  N   ILE A   1      34.388 -19.903 -20.662  0.00  0.00    -0.270 N 
ATOM      4  CA  ILE A   1      34.768 -20.688 -19.494  0.00  0.00    +0.175 C 
ATOM      5  CB  ILE A   1      33.462 -21.287 -18.989  0.00  0.00    +0.033 C 
ATOM      6  CD  ILE A   1      33.013 -20.187 -21.062  0.00  0.00    +0.094 C 
ATOM      7  CG  ILE A   1      32.615 -21.413 -20.254  0.00  0.00    +0.024 C 
ATOM      8  C   ILE A   1      35.202 -18.914 -21.192  0.00  0.00    +0.244 C 
BRANCH   4  10
ATOM      9  OXT ILE A   1      35.398 -22.857 -20.356  0.00  0.00    -0.248 OA
ATOM     10  C   ILE A   1      35.721 -21.746 -19.964  0.00  0.00    +0.332 C 
BRANCH  10  11
ATOM     11  O   ILE A   1      37.000 -21.302 -19.896  0.00  0.00    -0.479 OA
ATOM     12  H   ILE A   1      37.655 -21.673 -20.454  0.00  0.00    +0.295 HD
ENDBRANCH  10  11
ENDBRANCH   4  10
ENDBRANCH   1   8
BRANCH   1  14
ATOM     13  O   UNK A   0      32.502 -16.651 -20.871  0.00  0.00    -0.275 OA
ATOM     14  N   ILE A   1      34.621 -16.711 -21.830  0.00  0.00    -0.298 N 
ATOM     15  C   UNK A   0      33.569 -16.112 -21.157  0.00  0.00    +0.226 C 
ATOM     16  H   ILE A   1      35.431 -16.179 -22.005  0.00  0.00    +0.150 HD
BRANCH  15  17
ATOM     17  C   UNK A   0      33.864 -14.676 -20.768  0.00  0.00    +0.124 C 
BRANCH  17  18
ATOM     18  C   UNK A   0      33.063 -13.705 -21.636  0.00  0.00    +0.196 C 
BRANCH  18  21
ATOM     19  O   UNK A   0      34.545 -14.268 -23.458  0.00  0.00    -0.272 OA
ATOM     20  N   UNK A   0      33.377 -12.262 -23.550  0.00  0.00    -0.302 N 
ATOM     21  C   UNK A   0      33.756 -13.462 -22.969  0.00  0.00    +0.250 C 
ATOM     22  H   UNK A   0      32.738 -11.689 -23.070  0.00  0.00    +0.150 HD
BRANCH  20  23
ATOM     23  C   UNK A   0      33.881 -11.813 -24.828  0.00  0.00    +0.089 C 
BRANCH  23  24
ATOM     24  C   UNK A   0      34.522 -10.434 -24.747  0.00  0.00    +0.021 C 
ATOM     25  C   UNK A   0      35.634 -10.240 -25.769  0.00  0.00    +0.002 C 
ENDBRANCH  23  24
ENDBRANCH  20  23
ENDBRANCH  18  21
BRANCH  18  26
ATOM     26  O   UNK A   0      31.780 -14.265 -21.873  0.00  0.00    -0.375 OA
ATOM     27  H   UNK A   0      31.539 -14.845 -21.133  0.00  0.00    +0.211 HD
ENDBRANCH  18  26
ENDBRANCH  17  18
ENDBRANCH  15  17
ENDBRANCH   1  14
BRANCH   1  28
ATOM     28  CB  ILE A   1      35.278 -18.309 -23.645  0.00  0.00    +0.027 C 
ATOM     29  CG2 ILE A   1      34.728 -19.580 -24.307  0.00  0.00    +0.002 C 
BRANCH  28  30
ATOM     30  CG1 ILE A   1      35.164 -17.087 -24.584  0.00  0.00    +0.002 C 
ATOM     31  CD1 ILE A   1      33.973 -17.160 -25.532  0.00  0.00    +0.000 C 
ENDBRANCH  28  30
ENDBRANCH   1  28
TORSDOF 12
ENDMDL
MODEL 8
REMARK VINA RESULT:      -7.0      3.467     10.122
REMARK  Name = 5287408
REMARK  12 active torsions:
REMARK  status: ('A' for Active; 'I' for Inactive)
REMARK    1  A    between atoms: CA_1  and  C_8
REMARK    2  A    between atoms: CA_1  and  N_14
REMARK    3  A    between atoms: CA_1  and  CB_28
REMARK    4  A    between atoms: CA_4  and  C_10
REMARK    5  A    between atoms: C_10  and  O_11
REMARK    6  A    between atoms: C_15  and  C_17
REMARK    7  A    between atoms: C_17  and  C_18
REMARK    8  A    between atoms: C_18  and  C_21
REMARK    9  A    between atoms: C_18  and  O_26
REMARK   10  A    between atoms: N_20  and  C_23
REMARK   11  A    between atoms: C_23  and  C_24
REMARK   12  A    between atoms: CB_28  and  CG1_30
REMARK                            x       y       z     vdW  Elec       q    Type
REMARK                         _______ _______ _______ _____ _____    ______ ____
ROOT
ATOM      1  CA  ILE A   1      35.381 -17.948 -21.770  0.00  0.00    +0.149 C 
ENDROOT
BRANCH   1   8
ATOM      2  O   ILE A   1      34.962 -16.323 -20.081  0.00  0.00    -0.273 OA
ATOM      3  N   ILE A   1      34.419 -15.750 -22.257  0.00  0.00    -0.270 N 
ATOM      4  CA  ILE A   1      34.073 -14.362 -21.982  0.00  0.00    +0.175 C 
ATOM      5  CB  ILE A   1      34.037 -13.694 -23.351  0.00  0.00    +0.033 C 
ATOM      6  CD  ILE A   1      34.337 -16.041 -23.686  0.00  0.00    +0.094 C 
ATOM      7  CG  ILE A   1      33.642 -14.830 -24.292  0.00  0.00    +0.024 C 
ATOM      8  C   ILE A   1      34.908 -16.603 -21.280  0.00  0.00    +0.244 C 
BRANCH   4  10
ATOM      9  OXT ILE A   1      31.970 -15.324 -21.278  0.00  0.00    -0.248 OA
ATOM     10  C   ILE A   1      32.723 -14.363 -21.329  0.00  0.00    +0.332 C 
BRANCH  10  11
ATOM     11  O   ILE A   1      32.447 -13.147 -20.798  0.00  0.00    -0.479 OA
ATOM     12  H   ILE A   1      31.640 -13.007 -20.344  0.00  0.00    +0.295 HD
ENDBRANCH  10  11
ENDBRANCH   4  10
ENDBRANCH   1   8
BRANCH   1  14
ATOM     13  O   UNK A   0      37.900 -19.322 -21.374  0.00  0.00    -0.275 OA
ATOM     14  N   ILE A   1      35.799 -18.687 -20.600  0.00  0.00    -0.298 N 
ATOM     15  C   UNK A   0      37.031 -19.313 -20.505  0.00  0.00    +0.226 C 
ATOM     16  H   ILE A   1      35.180 -18.748 -19.837  0.00  0.00    +0.150 HD
BRANCH  15  17
ATOM     17  C   UNK A   0      37.236 -20.003 -19.170  0.00  0.00    +0.124 C 
BRANCH  17  18
ATOM     18  C   UNK A   0      36.866 -21.484 -19.264  0.00  0.00    +0.196 C 
BRANCH  18  21
ATOM     19  O   UNK A   0      35.218 -22.519 -17.833  0.00  0.00    -0.272 OA
ATOM     20  N   UNK A   0      37.230 -21.828 -16.898  0.00  0.00    -0.302 N 
ATOM     21  C   UNK A   0      36.327 -21.998 -17.936  0.00  0.00    +0.250 C 
ATOM     22  H   UNK A   0      38.092 -21.397 -17.091  0.00  0.00    +0.150 HD
BRANCH  20  23
ATOM     23  C   UNK A   0      36.960 -22.255 -15.544  0.00  0.00    +0.089 C 
BRANCH  23  24
ATOM     24  C   UNK A   0      37.415 -23.685 -15.284  0.00  0.00    +0.021 C 
ATOM     25  C   UNK A   0      36.255 -24.631 -15.005  0.00  0.00    +0.002 C 
ENDBRANCH  23  24
ENDBRANCH  20  23
ENDBRANCH  18  21
BRANCH  18  26
ATOM     26  O   UNK A   0      35.869 -21.637 -20.262  0.00  0.00    -0.375 OA
ATOM     27  H   UNK A   0      36.117 -21.124 -21.048  0.00  0.00    +0.211 HD
ENDBRANCH  18  26
ENDBRANCH  17  18
ENDBRANCH  15  17
ENDBRANCH   1  14
BRANCH   1  28
ATOM     28  CB  ILE A   1      34.307 -18.665 -22.613  0.00  0.00    +0.027 C 
ATOM     29  CG2 ILE A   1      34.930 -19.189 -23.915  0.00  0.00    +0.002 C 
BRANCH  28  30
ATOM     30  CG1 ILE A   1      33.591 -19.791 -21.835  0.00  0.00    +0.002 C 
ATOM     31  CD1 ILE A   1      32.597 -19.277 -20.801  0.00  0.00    +0.000 C 
ENDBRANCH  28  30
ENDBRANCH   1  28
TORSDOF 12
ENDMDL
MODEL 9
REMARK VINA RESULT:      -6.9      5.463      9.243
REMARK  Name = 5287408
REMARK  12 active torsions:
REMARK  status: ('A' for Active; 'I' for Inactive)
REMARK    1  A    between atoms: CA_1  and  C_8
REMARK    2  A    between atoms: CA_1  and  N_14
REMARK    3  A    between atoms: CA_1  and  CB_28
REMARK    4  A    between atoms: CA_4  and  C_10
REMARK    5  A    between atoms: C_10  and  O_11
REMARK    6  A    between atoms: C_15  and  C_17
REMARK    7  A    between atoms: C_17  and  C_18
REMARK    8  A    between atoms: C_18  and  C_21
REMARK    9  A    between atoms: C_18  and  O_26
REMARK   10  A    between atoms: N_20  and  C_23
REMARK   11  A    between atoms: C_23  and  C_24
REMARK   12  A    between atoms: CB_28  and  CG1_30
REMARK                            x       y       z     vdW  Elec       q    Type
REMARK                         _______ _______ _______ _____ _____    ______ ____
ROOT
ATOM      1  CA  ILE A   1      34.428 -17.518 -21.864  0.00  0.00    +0.149 C 
ENDROOT
BRANCH   1   8
ATOM      2  O   ILE A   1      32.951 -19.386 -21.889  0.00  0.00    -0.273 OA
ATOM      3  N   ILE A   1      35.011 -19.681 -20.876  0.00  0.00    -0.270 N 
ATOM      4  CA  ILE A   1      34.878 -21.113 -20.641  0.00  0.00    +0.175 C 
ATOM      5  CB  ILE A   1      36.288 -21.584 -20.310  0.00  0.00    +0.033 C 
ATOM      6  CD  ILE A   1      36.326 -19.200 -20.459  0.00  0.00    +0.094 C 
ATOM      7  CG  ILE A   1      36.936 -20.354 -19.678  0.00  0.00    +0.024 C 
ATOM      8  C   ILE A   1      34.052 -18.945 -21.553  0.00  0.00    +0.244 C 
BRANCH   4  10
ATOM      9  OXT ILE A   1      32.836 -20.784 -19.389  0.00  0.00    -0.248 OA
ATOM     10  C   ILE A   1      33.947 -21.285 -19.478  0.00  0.00    +0.332 C 
BRANCH  10  11
ATOM     11  O   ILE A   1      34.505 -22.077 -18.531  0.00  0.00    -0.479 OA
ATOM     12  H   ILE A   1      35.304 -21.820 -18.117  0.00  0.00    +0.295 HD
ENDBRANCH  10  11
ENDBRANCH   4  10
ENDBRANCH   1   8
BRANCH   1  14
ATOM     13  O   UNK A   0      35.522 -15.450 -23.570  0.00  0.00    -0.275 OA
ATOM     14  N   ILE A   1      34.177 -17.325 -23.274  0.00  0.00    -0.298 N 
ATOM     15  C   UNK A   0      34.751 -16.300 -24.008  0.00  0.00    +0.226 C 
ATOM     16  H   ILE A   1      33.570 -17.950 -23.733  0.00  0.00    +0.150 HD
BRANCH  15  17
ATOM     17  C   UNK A   0      34.344 -16.327 -25.468  0.00  0.00    +0.124 C 
BRANCH  17  18
ATOM     18  C   UNK A   0      33.111 -15.455 -25.703  0.00  0.00    +0.196 C 
BRANCH  18  21
ATOM     19  O   UNK A   0      33.751 -13.899 -27.436  0.00  0.00    -0.272 OA
ATOM     20  N   UNK A   0      33.516 -13.112 -25.263  0.00  0.00    -0.302 N 
ATOM     21  C   UNK A   0      33.501 -14.088 -26.247  0.00  0.00    +0.250 C 
ATOM     22  H   UNK A   0      33.300 -13.373 -24.339  0.00  0.00    +0.150 HD
BRANCH  20  23
ATOM     23  C   UNK A   0      33.836 -11.729 -25.531  0.00  0.00    +0.089 C 
BRANCH  23  24
ATOM     24  C   UNK A   0      33.952 -10.902 -24.257  0.00  0.00    +0.021 C 
ATOM     25  C   UNK A   0      34.903  -9.722 -24.405  0.00  0.00    +0.002 C 
ENDBRANCH  23  24
ENDBRANCH  20  23
ENDBRANCH  18  21
BRANCH  18  26
ATOM     26  O   UNK A   0      32.270 -16.108 -26.643  0.00  0.00    -0.375 OA
ATOM     27  H   UNK A   0      31.714 -16.757 -26.182  0.00  0.00    +0.211 HD
ENDBRANCH  18  26
ENDBRANCH  17  18
ENDBRANCH  15  17
ENDBRANCH   1  14
BRANCH   1  28
ATOM     28  CB  ILE A   1      33.690 -16.516 -20.952  0.00  0.00    +0.027 C 
ATOM     29  CG2 ILE A   1      34.698 -15.548 -20.317  0.00  0.00    +0.002 C 
BRANCH  28  30
ATOM     30  CG1 ILE A   1      32.563 -15.758 -21.689  0.00  0.00    +0.002 C 
ATOM     31  CD1 ILE A   1      32.698 -14.242 -21.606  0.00  0.00    +0.000 C 
ENDBRANCH  28  30
ENDBRANCH   1  28
TORSDOF 12
ENDMDL
