MODEL 1
REMARK VINA RESULT:      -8.6      0.000      0.000
REMARK  Name = 68778
REMARK  3 active torsions:
REMARK  status: ('A' for Active; 'I' for Inactive)
REMARK    1  A    between atoms: N_1  and  C_20
REMARK    2  A    between atoms: C_2  and  C_8
REMARK    3  A    between atoms: C_2  and  C_14
REMARK                            x       y       z     vdW  Elec       q    Type
REMARK                         _______ _______ _______ _____ _____    ______ ____
ROOT
ATOM      1  N   UNL     1      31.502  -5.765 -23.609  0.00  0.00    +0.389 N 
ATOM      2  C   UNL     1      32.159  -8.509 -22.523  0.00  0.00    +0.034 C 
ATOM      3  C   UNL     1      30.871  -8.128 -23.333  0.00  0.00    -0.015 C 
ATOM      4  C   UNL     1      32.620  -7.154 -21.881  0.00  0.00    -0.015 C 
ATOM      5  C   UNL     1      31.087  -6.975 -24.321  0.00  0.00    -0.077 C 
ATOM      6  C   UNL     1      32.749  -5.990 -22.876  0.00  0.00    -0.077 C 
ATOM      7  H   UNL     1      30.776  -5.530 -22.933  0.00  0.00    -0.080 HD
ENDROOT
BRANCH   2   8
ATOM      8  C   UNL     1      33.201  -9.170 -23.463  0.00  0.00    -0.019 C 
ATOM      9  C   UNL     1      32.952 -10.432 -23.999  0.00  0.00    -0.004 C 
ATOM     10  C   UNL     1      34.383  -8.500 -23.771  0.00  0.00    -0.004 C 
ATOM     11  C   UNL     1      33.889 -11.027 -24.844  0.00  0.00    -0.000 C 
ATOM     12  C   UNL     1      35.320  -9.094 -24.617  0.00  0.00    -0.000 C 
ATOM     13  C   UNL     1      35.073 -10.358 -25.153  0.00  0.00    -0.000 C 
ENDBRANCH   2   8
BRANCH   2  14
ATOM     14  C   UNL     1      31.863  -9.507 -21.371  0.00  0.00    -0.019 C 
ATOM     15  C   UNL     1      32.246  -9.195 -20.068  0.00  0.00    -0.004 C 
ATOM     16  C   UNL     1      31.214 -10.709 -21.642  0.00  0.00    -0.004 C 
ATOM     17  C   UNL     1      31.980 -10.090 -19.031  0.00  0.00    -0.000 C 
ATOM     18  C   UNL     1      30.947 -11.605 -20.606  0.00  0.00    -0.000 C 
ATOM     19  C   UNL     1      31.331 -11.295 -19.301  0.00  0.00    -0.000 C 
ENDBRANCH   2  14
BRANCH   1  20
ATOM     20  C   UNL     1      31.645  -4.643 -24.537  0.00  0.00    -0.043 C 
ATOM     21  C   UNL     1      31.925  -3.372 -23.728  0.00  0.00    -0.021 C 
ATOM     22  C   UNL     1      32.817  -4.936 -25.480  0.00  0.00    -0.021 C 
ATOM     23  C   UNL     1      30.350  -4.481 -25.342  0.00  0.00    -0.021 C 
ENDBRANCH   1  20
TORSDOF 3
ENDMDL
MODEL 2
REMARK VINA RESULT:      -8.4     15.092     17.985
REMARK  Name = 68778
REMARK  3 active torsions:
REMARK  status: ('A' for Active; 'I' for Inactive)
REMARK    1  A    between atoms: N_1  and  C_20
REMARK    2  A    between atoms: C_2  and  C_8
REMARK    3  A    between atoms: C_2  and  C_14
REMARK                            x       y       z     vdW  Elec       q    Type
REMARK                         _______ _______ _______ _____ _____    ______ ____
ROOT
ATOM      1  N   UNL     1      36.631 -24.972 -14.103  0.00  0.00    +0.389 N 
ATOM      2  C   UNL     1      34.313 -23.584 -15.459  0.00  0.00    +0.034 C 
ATOM      3  C   UNL     1      35.098 -23.049 -14.210  0.00  0.00    -0.015 C 
ATOM      4  C   UNL     1      34.524 -25.137 -15.405  0.00  0.00    -0.015 C 
ATOM      5  C   UNL     1      36.559 -23.510 -14.163  0.00  0.00    -0.077 C 
ATOM      6  C   UNL     1      35.990 -25.576 -15.273  0.00  0.00    -0.077 C 
ATOM      7  H   UNL     1      36.127 -25.280 -13.272  0.00  0.00    -0.080 HD
ENDROOT
BRANCH   2   8
ATOM      8  C   UNL     1      34.839 -22.901 -16.749  0.00  0.00    -0.019 C 
ATOM      9  C   UNL     1      36.082 -22.271 -16.745  0.00  0.00    -0.004 C 
ATOM     10  C   UNL     1      34.067 -22.920 -17.909  0.00  0.00    -0.004 C 
ATOM     11  C   UNL     1      36.554 -21.657 -17.905  0.00  0.00    -0.000 C 
ATOM     12  C   UNL     1      34.540 -22.306 -19.069  0.00  0.00    -0.000 C 
ATOM     13  C   UNL     1      35.784 -21.675 -19.067  0.00  0.00    -0.000 C 
ENDBRANCH   2   8
BRANCH   2  14
ATOM     14  C   UNL     1      32.788 -23.306 -15.366  0.00  0.00    -0.019 C 
ATOM     15  C   UNL     1      32.186 -23.149 -14.119  0.00  0.00    -0.004 C 
ATOM     16  C   UNL     1      32.026 -23.212 -16.529  0.00  0.00    -0.004 C 
ATOM     17  C   UNL     1      30.816 -22.898 -14.034  0.00  0.00    -0.000 C 
ATOM     18  C   UNL     1      30.656 -22.962 -16.444  0.00  0.00    -0.000 C 
ATOM     19  C   UNL     1      30.052 -22.805 -15.198  0.00  0.00    -0.000 C 
ENDBRANCH   2  14
BRANCH   1  20
ATOM     20  C   UNL     1      38.020 -25.416 -13.989  0.00  0.00    -0.043 C 
ATOM     21  C   UNL     1      38.451 -25.299 -12.522  0.00  0.00    -0.021 C 
ATOM     22  C   UNL     1      38.105 -26.876 -14.447  0.00  0.00    -0.021 C 
ATOM     23  C   UNL     1      38.911 -24.534 -14.871  0.00  0.00    -0.021 C 
ENDBRANCH   1  20
TORSDOF 3
ENDMDL
MODEL 3
REMARK VINA RESULT:      -8.1     14.761     18.455
REMARK  Name = 68778
REMARK  3 active torsions:
REMARK  status: ('A' for Active; 'I' for Inactive)
REMARK    1  A    between atoms: N_1  and  C_20
REMARK    2  A    between atoms: C_2  and  C_8
REMARK    3  A    between atoms: C_2  and  C_14
REMARK                            x       y       z     vdW  Elec       q    Type
REMARK                         _______ _______ _______ _____ _____    ______ ____
ROOT
ATOM      1  N   UNL     1      36.789 -24.376 -13.648  0.00  0.00    +0.389 N 
ATOM      2  C   UNL     1      34.789 -23.440 -15.713  0.00  0.00    +0.034 C 
ATOM      3  C   UNL     1      35.535 -24.821 -15.719  0.00  0.00    -0.015 C 
ATOM      4  C   UNL     1      35.734 -22.500 -14.886  0.00  0.00    -0.015 C 
ATOM      5  C   UNL     1      35.898 -25.326 -14.318  0.00  0.00    -0.077 C 
ATOM      6  C   UNL     1      36.154 -23.063 -13.520  0.00  0.00    -0.077 C 
ATOM      7  H   UNL     1      37.625 -24.268 -14.222  0.00  0.00    -0.080 HD
ENDROOT
BRANCH   2   8
ATOM      8  C   UNL     1      33.364 -23.609 -15.125  0.00  0.00    -0.019 C 
ATOM      9  C   UNL     1      33.005 -24.805 -14.506  0.00  0.00    -0.004 C 
ATOM     10  C   UNL     1      32.446 -22.565 -15.216  0.00  0.00    -0.004 C 
ATOM     11  C   UNL     1      31.722 -24.957 -13.977  0.00  0.00    -0.000 C 
ATOM     12  C   UNL     1      31.165 -22.717 -14.687  0.00  0.00    -0.000 C 
ATOM     13  C   UNL     1      30.802 -23.913 -14.067  0.00  0.00    -0.000 C 
ENDBRANCH   2   8
BRANCH   2  14
ATOM     14  C   UNL     1      34.644 -22.837 -17.137  0.00  0.00    -0.019 C 
ATOM     15  C   UNL     1      35.701 -22.125 -17.700  0.00  0.00    -0.004 C 
ATOM     16  C   UNL     1      33.459 -23.012 -17.848  0.00  0.00    -0.004 C 
ATOM     17  C   UNL     1      35.572 -21.583 -18.979  0.00  0.00    -0.000 C 
ATOM     18  C   UNL     1      33.329 -22.470 -19.127  0.00  0.00    -0.000 C 
ATOM     19  C   UNL     1      34.385 -21.756 -19.692  0.00  0.00    -0.000 C 
ENDBRANCH   2  14
BRANCH   1  20
ATOM     20  C   UNL     1      37.194 -24.884 -12.338  0.00  0.00    -0.043 C 
ATOM     21  C   UNL     1      38.478 -24.164 -11.910  0.00  0.00    -0.021 C 
ATOM     22  C   UNL     1      36.071 -24.598 -11.335  0.00  0.00    -0.021 C 
ATOM     23  C   UNL     1      37.444 -26.394 -12.432  0.00  0.00    -0.021 C 
ENDBRANCH   1  20
TORSDOF 3
ENDMDL
MODEL 4
REMARK VINA RESULT:      -7.5      4.991      8.245
REMARK  Name = 68778
REMARK  3 active torsions:
REMARK  status: ('A' for Active; 'I' for Inactive)
REMARK    1  A    between atoms: N_1  and  C_20
REMARK    2  A    between atoms: C_2  and  C_8
REMARK    3  A    between atoms: C_2  and  C_14
REMARK                            x       y       z     vdW  Elec       q    Type
REMARK                         _______ _______ _______ _____ _____    ______ ____
ROOT
ATOM      1  N   UNL     1      34.160 -16.757 -21.336  0.00  0.00    +0.389 N 
ATOM      2  C   UNL     1      33.000 -14.021 -21.890  0.00  0.00    +0.034 C 
ATOM      3  C   UNL     1      34.396 -14.309 -21.235  0.00  0.00    -0.015 C 
ATOM      4  C   UNL     1      32.159 -15.307 -21.576  0.00  0.00    -0.015 C 
ATOM      5  C   UNL     1      35.025 -15.630 -21.692  0.00  0.00    -0.077 C 
ATOM      6  C   UNL     1      32.845 -16.626 -21.965  0.00  0.00    -0.077 C 
ATOM      7  H   UNL     1      34.029 -16.750 -20.325  0.00  0.00    -0.080 HD
ENDROOT
BRANCH   2   8
ATOM      8  C   UNL     1      33.176 -13.712 -23.400  0.00  0.00    -0.019 C 
ATOM      9  C   UNL     1      32.755 -14.638 -24.353  0.00  0.00    -0.004 C 
ATOM     10  C   UNL     1      33.753 -12.509 -23.800  0.00  0.00    -0.004 C 
ATOM     11  C   UNL     1      32.913 -14.360 -25.711  0.00  0.00    -0.000 C 
ATOM     12  C   UNL     1      33.911 -12.230 -25.158  0.00  0.00    -0.000 C 
ATOM     13  C   UNL     1      33.491 -13.156 -26.114  0.00  0.00    -0.000 C 
ENDBRANCH   2   8
BRANCH   2  14
ATOM     14  C   UNL     1      32.278 -12.809 -21.241  0.00  0.00    -0.019 C 
ATOM     15  C   UNL     1      32.313 -12.639 -19.859  0.00  0.00    -0.004 C 
ATOM     16  C   UNL     1      31.599 -11.894 -22.043  0.00  0.00    -0.004 C 
ATOM     17  C   UNL     1      31.665 -11.550 -19.275  0.00  0.00    -0.000 C 
ATOM     18  C   UNL     1      30.951 -10.805 -21.459  0.00  0.00    -0.000 C 
ATOM     19  C   UNL     1      30.984 -10.633 -20.076  0.00  0.00    -0.000 C 
ENDBRANCH   2  14
BRANCH   1  20
ATOM     20  C   UNL     1      34.786 -18.026 -21.708  0.00  0.00    -0.043 C 
ATOM     21  C   UNL     1      33.837 -19.168 -21.328  0.00  0.00    -0.021 C 
ATOM     22  C   UNL     1      35.029 -18.026 -23.221  0.00  0.00    -0.021 C 
ATOM     23  C   UNL     1      36.116 -18.175 -20.961  0.00  0.00    -0.021 C 
ENDBRANCH   1  20
TORSDOF 3
ENDMDL
MODEL 5
REMARK VINA RESULT:      -7.3      8.462     11.840
REMARK  Name = 68778
REMARK  3 active torsions:
REMARK  status: ('A' for Active; 'I' for Inactive)
REMARK    1  A    between atoms: N_1  and  C_20
REMARK    2  A    between atoms: C_2  and  C_8
REMARK    3  A    between atoms: C_2  and  C_14
REMARK                            x       y       z     vdW  Elec       q    Type
REMARK                         _______ _______ _______ _____ _____    ______ ____
ROOT
ATOM      1  N   UNL     1      35.200 -20.190 -19.802  0.00  0.00    +0.389 N 
ATOM      2  C   UNL     1      34.369 -17.797 -21.451  0.00  0.00    +0.034 C 
ATOM      3  C   UNL     1      35.748 -17.975 -20.724  0.00  0.00    -0.015 C 
ATOM      4  C   UNL     1      33.388 -18.712 -20.638  0.00  0.00    -0.015 C 
ATOM      5  C   UNL     1      36.181 -19.439 -20.586  0.00  0.00    -0.077 C 
ATOM      6  C   UNL     1      33.882 -20.153 -20.438  0.00  0.00    -0.077 C 
ATOM      7  H   UNL     1      35.120 -19.749 -18.886  0.00  0.00    -0.080 HD
ENDROOT
BRANCH   2   8
ATOM      8  C   UNL     1      34.508 -18.165 -22.952  0.00  0.00    -0.019 C 
ATOM      9  C   UNL     1      34.464 -17.164 -23.920  0.00  0.00    -0.004 C 
ATOM     10  C   UNL     1      34.677 -19.496 -23.327  0.00  0.00    -0.004 C 
ATOM     11  C   UNL     1      34.589 -17.495 -25.270  0.00  0.00    -0.000 C 
ATOM     12  C   UNL     1      34.802 -19.827 -24.677  0.00  0.00    -0.000 C 
ATOM     13  C   UNL     1      34.758 -18.826 -25.648  0.00  0.00    -0.000 C 
ENDBRANCH   2   8
BRANCH   2  14
ATOM     14  C   UNL     1      33.838 -16.339 -21.370  0.00  0.00    -0.019 C 
ATOM     15  C   UNL     1      32.577 -16.089 -20.833  0.00  0.00    -0.004 C 
ATOM     16  C   UNL     1      34.626 -15.287 -21.832  0.00  0.00    -0.004 C 
ATOM     17  C   UNL     1      32.100 -14.780 -20.759  0.00  0.00    -0.000 C 
ATOM     18  C   UNL     1      34.149 -13.977 -21.758  0.00  0.00    -0.000 C 
ATOM     19  C   UNL     1      32.886 -13.725 -21.222  0.00  0.00    -0.000 C 
ENDBRANCH   2  14
BRANCH   1  20
ATOM     20  C   UNL     1      35.641 -21.572 -19.608  0.00  0.00    -0.043 C 
ATOM     21  C   UNL     1      36.475 -21.642 -18.324  0.00  0.00    -0.021 C 
ATOM     22  C   UNL     1      34.403 -22.466 -19.481  0.00  0.00    -0.021 C 
ATOM     23  C   UNL     1      36.486 -22.009 -20.810  0.00  0.00    -0.021 C 
ENDBRANCH   1  20
TORSDOF 3
ENDMDL
MODEL 6
REMARK VINA RESULT:      -7.0      5.853      9.163
REMARK  Name = 68778
REMARK  3 active torsions:
REMARK  status: ('A' for Active; 'I' for Inactive)
REMARK    1  A    between atoms: N_1  and  C_20
REMARK    2  A    between atoms: C_2  and  C_8
REMARK    3  A    between atoms: C_2  and  C_14
REMARK                            x       y       z     vdW  Elec       q    Type
REMARK                         _______ _______ _______ _____ _____    ______ ____
ROOT
ATOM      1  N   UNL     1      34.399 -17.643 -21.035  0.00  0.00    +0.389 N 
ATOM      2  C   UNL     1      33.277 -15.011 -22.011  0.00  0.00    +0.034 C 
ATOM      3  C   UNL     1      34.727 -15.240 -21.456  0.00  0.00    -0.015 C 
ATOM      4  C   UNL     1      32.433 -16.161 -21.359  0.00  0.00    -0.015 C 
ATOM      5  C   UNL     1      35.257 -16.658 -21.697  0.00  0.00    -0.077 C 
ATOM      6  C   UNL     1      33.027 -17.567 -21.540  0.00  0.00    -0.077 C 
ATOM      7  H   UNL     1      34.381 -17.429 -20.038  0.00  0.00    -0.080 HD
ENDROOT
BRANCH   2   8
ATOM      8  C   UNL     1      33.296 -15.017 -23.562  0.00  0.00    -0.019 C 
ATOM      9  C   UNL     1      33.996 -16.010 -24.245  0.00  0.00    -0.004 C 
ATOM     10  C   UNL     1      32.611 -14.031 -24.268  0.00  0.00    -0.004 C 
ATOM     11  C   UNL     1      34.012 -16.015 -25.640  0.00  0.00    -0.000 C 
ATOM     12  C   UNL     1      32.627 -14.036 -25.664  0.00  0.00    -0.000 C 
ATOM     13  C   UNL     1      33.328 -15.029 -26.350  0.00  0.00    -0.000 C 
ENDBRANCH   2   8
BRANCH   2  14
ATOM     14  C   UNL     1      32.673 -13.657 -21.551  0.00  0.00    -0.019 C 
ATOM     15  C   UNL     1      32.401 -13.440 -20.202  0.00  0.00    -0.004 C 
ATOM     16  C   UNL     1      32.406 -12.661 -22.489  0.00  0.00    -0.004 C 
ATOM     17  C   UNL     1      31.858 -12.224 -19.788  0.00  0.00    -0.000 C 
ATOM     18  C   UNL     1      31.863 -11.444 -22.075  0.00  0.00    -0.000 C 
ATOM     19  C   UNL     1      31.589 -11.226 -20.725  0.00  0.00    -0.000 C 
ENDBRANCH   2  14
BRANCH   1  20
ATOM     20  C   UNL     1      34.937 -18.993 -21.203  0.00  0.00    -0.043 C 
ATOM     21  C   UNL     1      34.891 -19.355 -22.692  0.00  0.00    -0.021 C 
ATOM     22  C   UNL     1      36.385 -19.008 -20.702  0.00  0.00    -0.021 C 
ATOM     23  C   UNL     1      34.089 -19.983 -20.394  0.00  0.00    -0.021 C 
ENDBRANCH   1  20
TORSDOF 3
ENDMDL
MODEL 7
REMARK VINA RESULT:      -6.9      1.240      4.120
REMARK  Name = 68778
REMARK  3 active torsions:
REMARK  status: ('A' for Active; 'I' for Inactive)
REMARK    1  A    between atoms: N_1  and  C_20
REMARK    2  A    between atoms: C_2  and  C_8
REMARK    3  A    between atoms: C_2  and  C_14
REMARK                            x       y       z     vdW  Elec       q    Type
REMARK                         _______ _______ _______ _____ _____    ______ ____
ROOT
ATOM      1  N   UNL     1      31.817  -6.366 -23.410  0.00  0.00    +0.389 N 
ATOM      2  C   UNL     1      32.441  -9.298 -23.013  0.00  0.00    +0.034 C 
ATOM      3  C   UNL     1      33.469  -8.118 -22.901  0.00  0.00    -0.015 C 
ATOM      4  C   UNL     1      31.319  -8.737 -23.955  0.00  0.00    -0.015 C 
ATOM      5  C   UNL     1      32.837  -6.796 -22.452  0.00  0.00    -0.077 C 
ATOM      6  C   UNL     1      30.758  -7.371 -23.533  0.00  0.00    -0.077 C 
ATOM      7  H   UNL     1      32.262  -6.263 -24.322  0.00  0.00    -0.080 HD
ENDROOT
BRANCH   2   8
ATOM      8  C   UNL     1      31.955  -9.714 -21.600  0.00  0.00    -0.019 C 
ATOM      9  C   UNL     1      31.013 -10.731 -21.461  0.00  0.00    -0.004 C 
ATOM     10  C   UNL     1      32.462  -9.070 -20.473  0.00  0.00    -0.004 C 
ATOM     11  C   UNL     1      30.575 -11.106 -20.190  0.00  0.00    -0.000 C 
ATOM     12  C   UNL     1      32.025  -9.445 -19.202  0.00  0.00    -0.000 C 
ATOM     13  C   UNL     1      31.082 -10.463 -19.060  0.00  0.00    -0.000 C 
ENDBRANCH   2   8
BRANCH   2  14
ATOM     14  C   UNL     1      33.050 -10.555 -23.691  0.00  0.00    -0.019 C 
ATOM     15  C   UNL     1      33.783 -10.421 -24.869  0.00  0.00    -0.004 C 
ATOM     16  C   UNL     1      32.864 -11.812 -23.120  0.00  0.00    -0.004 C 
ATOM     17  C   UNL     1      34.331 -11.550 -25.479  0.00  0.00    -0.000 C 
ATOM     18  C   UNL     1      33.412 -12.941 -23.730  0.00  0.00    -0.000 C 
ATOM     19  C   UNL     1      34.145 -12.809 -24.909  0.00  0.00    -0.000 C 
ENDBRANCH   2  14
BRANCH   1  20
ATOM     20  C   UNL     1      31.257  -5.071 -23.024  0.00  0.00    -0.043 C 
ATOM     21  C   UNL     1      30.689  -4.393 -24.275  0.00  0.00    -0.021 C 
ATOM     22  C   UNL     1      30.142  -5.307 -22.000  0.00  0.00    -0.021 C 
ATOM     23  C   UNL     1      32.362  -4.204 -22.409  0.00  0.00    -0.021 C 
ENDBRANCH   1  20
TORSDOF 3
ENDMDL
MODEL 8
REMARK VINA RESULT:      -6.9      1.241      4.246
REMARK  Name = 68778
REMARK  3 active torsions:
REMARK  status: ('A' for Active; 'I' for Inactive)
REMARK    1  A    between atoms: N_1  and  C_20
REMARK    2  A    between atoms: C_2  and  C_8
REMARK    3  A    between atoms: C_2  and  C_14
REMARK                            x       y       z     vdW  Elec       q    Type
REMARK                         _______ _______ _______ _____ _____    ______ ____
ROOT
ATOM      1  N   UNL     1      31.817  -6.365 -23.407  0.00  0.00    +0.389 N 
ATOM      2  C   UNL     1      32.442  -9.296 -23.010  0.00  0.00    +0.034 C 
ATOM      3  C   UNL     1      33.470  -8.117 -22.897  0.00  0.00    -0.015 C 
ATOM      4  C   UNL     1      31.320  -8.736 -23.953  0.00  0.00    -0.015 C 
ATOM      5  C   UNL     1      32.837  -6.795 -22.448  0.00  0.00    -0.077 C 
ATOM      6  C   UNL     1      30.759  -7.370 -23.531  0.00  0.00    -0.077 C 
ATOM      7  H   UNL     1      32.263  -6.262 -24.319  0.00  0.00    -0.080 HD
ENDROOT
BRANCH   2   8
ATOM      8  C   UNL     1      31.954  -9.713 -21.597  0.00  0.00    -0.019 C 
ATOM      9  C   UNL     1      32.462  -9.071 -20.469  0.00  0.00    -0.004 C 
ATOM     10  C   UNL     1      31.009 -10.727 -21.459  0.00  0.00    -0.004 C 
ATOM     11  C   UNL     1      32.024  -9.445 -19.198  0.00  0.00    -0.000 C 
ATOM     12  C   UNL     1      30.570 -11.101 -20.189  0.00  0.00    -0.000 C 
ATOM     13  C   UNL     1      31.078 -10.460 -19.058  0.00  0.00    -0.000 C 
ENDBRANCH   2   8
BRANCH   2  14
ATOM     14  C   UNL     1      33.051 -10.553 -23.688  0.00  0.00    -0.019 C 
ATOM     15  C   UNL     1      32.862 -11.810 -23.117  0.00  0.00    -0.004 C 
ATOM     16  C   UNL     1      33.783 -10.422 -24.866  0.00  0.00    -0.004 C 
ATOM     17  C   UNL     1      33.409 -12.941 -23.725  0.00  0.00    -0.000 C 
ATOM     18  C   UNL     1      34.330 -11.552 -25.475  0.00  0.00    -0.000 C 
ATOM     19  C   UNL     1      34.143 -12.810 -24.904  0.00  0.00    -0.000 C 
ENDBRANCH   2  14
BRANCH   1  20
ATOM     20  C   UNL     1      31.257  -5.070 -23.021  0.00  0.00    -0.043 C 
ATOM     21  C   UNL     1      30.688  -4.392 -24.272  0.00  0.00    -0.021 C 
ATOM     22  C   UNL     1      30.142  -5.307 -21.997  0.00  0.00    -0.021 C 
ATOM     23  C   UNL     1      32.361  -4.202 -22.407  0.00  0.00    -0.021 C 
ENDBRANCH   1  20
TORSDOF 3
ENDMDL
MODEL 9
REMARK VINA RESULT:      -6.7      1.539      2.450
REMARK  Name = 68778
REMARK  3 active torsions:
REMARK  status: ('A' for Active; 'I' for Inactive)
REMARK    1  A    between atoms: N_1  and  C_20
REMARK    2  A    between atoms: C_2  and  C_8
REMARK    3  A    between atoms: C_2  and  C_14
REMARK                            x       y       z     vdW  Elec       q    Type
REMARK                         _______ _______ _______ _____ _____    ______ ____
ROOT
ATOM      1  N   UNL     1      31.208  -7.237 -22.432  0.00  0.00    +0.389 N 
ATOM      2  C   UNL     1      32.327 -10.044 -22.512  0.00  0.00    +0.034 C 
ATOM      3  C   UNL     1      30.951  -9.589 -23.112  0.00  0.00    -0.015 C 
ATOM      4  C   UNL     1      32.619  -8.991 -21.386  0.00  0.00    -0.015 C 
ATOM      5  C   UNL     1      30.936  -8.124 -23.565  0.00  0.00    -0.077 C 
ATOM      6  C   UNL     1      32.516  -7.527 -21.841  0.00  0.00    -0.077 C 
ATOM      7  H   UNL     1      30.496  -7.403 -21.721  0.00  0.00    -0.080 HD
ENDROOT
BRANCH   2   8
ATOM      8  C   UNL     1      33.399 -10.111 -23.632  0.00  0.00    -0.019 C 
ATOM      9  C   UNL     1      34.364  -9.111 -23.731  0.00  0.00    -0.004 C 
ATOM     10  C   UNL     1      33.394 -11.172 -24.535  0.00  0.00    -0.004 C 
ATOM     11  C   UNL     1      35.328  -9.171 -24.739  0.00  0.00    -0.000 C 
ATOM     12  C   UNL     1      34.357 -11.233 -25.542  0.00  0.00    -0.000 C 
ATOM     13  C   UNL     1      35.325 -10.232 -25.644  0.00  0.00    -0.000 C 
ENDBRANCH   2   8
BRANCH   2  14
ATOM     14  C   UNL     1      32.252 -11.445 -21.847  0.00  0.00    -0.019 C 
ATOM     15  C   UNL     1      32.393 -12.591 -22.626  0.00  0.00    -0.004 C 
ATOM     16  C   UNL     1      32.046 -11.552 -20.473  0.00  0.00    -0.004 C 
ATOM     17  C   UNL     1      32.326 -13.851 -22.030  0.00  0.00    -0.000 C 
ATOM     18  C   UNL     1      31.979 -12.812 -19.876  0.00  0.00    -0.000 C 
ATOM     19  C   UNL     1      32.118 -13.960 -20.655  0.00  0.00    -0.000 C 
ENDBRANCH   2  14
BRANCH   1  20
ATOM     20  C   UNL     1      31.127  -5.835 -22.843  0.00  0.00    -0.043 C 
ATOM     21  C   UNL     1      32.524  -5.214 -22.737  0.00  0.00    -0.021 C 
ATOM     22  C   UNL     1      30.634  -5.779 -24.293  0.00  0.00    -0.021 C 
ATOM     23  C   UNL     1      30.149  -5.092 -21.925  0.00  0.00    -0.021 C 
ENDBRANCH   1  20
TORSDOF 3
ENDMDL
