MODEL 1
REMARK VINA RESULT:     -10.5      0.000      0.000
REMARK  Name = 24892822
REMARK  8 active torsions:
REMARK  status: ('A' for Active; 'I' for Inactive)
REMARK    1  A    between atoms: N_2  and  C_5
REMARK    2  A    between atoms: C_3  and  C_17
REMARK    3  A    between atoms: C_7  and  C_14
REMARK    4  A    between atoms: C_9  and  C_16
REMARK    5  A    between atoms: C_17  and  O_19
REMARK    6  A    between atoms: C_17  and  C_21
REMARK    7  A    between atoms: C_21  and  O_22
REMARK    8  A    between atoms: O_22  and  C_25
REMARK                            x       y       z     vdW  Elec       q    Type
REMARK                         _______ _______ _______ _____ _____    ______ ____
ROOT
ATOM      1  O   UNL     1      33.208 -15.340 -25.139  0.00  0.00    -0.272 OA
ATOM      2  N   UNL     1      34.038 -14.514 -23.113  0.00  0.00    -0.282 N 
ATOM      3  C   UNL     1      33.879 -15.462 -24.116  0.00  0.00    +0.254 C 
ATOM      4  H   UNL     1      34.612 -14.774 -22.356  0.00  0.00    +0.155 HD
ENDROOT
BRANCH   2   5
ATOM      5  C   UNL     1      33.471 -13.218 -23.049  0.00  0.00    +0.050 C 
ATOM      6  C   UNL     1      32.643 -12.870 -21.982  0.00  0.00    +0.019 C 
ATOM      7  C   UNL     1      32.084 -11.593 -21.919  0.00  0.00    +0.082 C 
ATOM      8  C   UNL     1      33.741 -12.289 -24.054  0.00  0.00    +0.015 C 
ATOM      9  C   UNL     1      32.355 -10.664 -22.924  0.00  0.00    +0.072 C 
ATOM     10  C   UNL     1      33.182 -11.012 -23.991  0.00  0.00    +0.011 C 
BRANCH   7  14
ATOM     11  F   UNL     1      31.414 -10.001 -20.264  0.00  0.00    -0.166 F 
ATOM     12  F   UNL     1      29.872 -11.306 -21.056  0.00  0.00    -0.166 F 
ATOM     13  F   UNL     1      31.380 -12.103 -19.707  0.00  0.00    -0.166 F 
ATOM     14  C   UNL     1      31.203 -11.255 -20.760  0.00  0.00    +0.419 C 
ENDBRANCH   7  14
BRANCH   9  16
ATOM     15  N   UNL     1      31.343  -8.280 -22.846  0.00  0.00    -0.191 NA
ATOM     16  C   UNL     1      31.795  -9.348 -22.881  0.00  0.00    +0.100 C 
ENDBRANCH   9  16
ENDBRANCH   2   5
BRANCH   3  17
ATOM     17  C   UNL     1      34.654 -16.764 -23.837  0.00  0.00    +0.197 C 
ATOM     18  C   UNL     1      34.552 -17.727 -25.022  0.00  0.00    +0.043 C 
BRANCH  17  19
ATOM     19  O   UNL     1      36.030 -16.418 -23.674  0.00  0.00    -0.375 OA
ATOM     20  H   UNL     1      36.397 -16.144 -24.529  0.00  0.00    +0.211 HD
ENDBRANCH  17  19
BRANCH  17  21
ATOM     21  C   UNL     1      34.202 -17.450 -22.542  0.00  0.00    +0.241 C 
BRANCH  21  22
ATOM     22  O   UNL     1      35.215 -18.321 -22.045  0.00  0.00    -0.472 OA
BRANCH  22  25
ATOM     23 CL   UNL     1      33.454 -22.640 -18.465  0.00  0.00    -0.080 Cl
ATOM     24  F   UNL     1      36.252 -21.956 -19.162  0.00  0.00    -0.203 F 
ATOM     25  C   UNL     1      34.806 -19.326 -21.211  0.00  0.00    +0.141 C 
ATOM     26  C   UNL     1      35.750 -20.149 -20.597  0.00  0.00    +0.067 C 
ATOM     27  C   UNL     1      33.446 -19.527 -20.974  0.00  0.00    +0.038 C 
ATOM     28  C   UNL     1      35.334 -21.173 -19.746  0.00  0.00    +0.154 C 
ATOM     29  C   UNL     1      33.030 -20.551 -20.124  0.00  0.00    +0.017 C 
ATOM     30  C   UNL     1      33.974 -21.375 -19.510  0.00  0.00    +0.085 C 
ENDBRANCH  22  25
ENDBRANCH  21  22
ENDBRANCH  17  21
ENDBRANCH   3  17
TORSDOF 8
ENDMDL
MODEL 2
REMARK VINA RESULT:     -10.5      2.210      2.785
REMARK  Name = 24892822
REMARK  8 active torsions:
REMARK  status: ('A' for Active; 'I' for Inactive)
REMARK    1  A    between atoms: N_2  and  C_5
REMARK    2  A    between atoms: C_3  and  C_17
REMARK    3  A    between atoms: C_7  and  C_14
REMARK    4  A    between atoms: C_9  and  C_16
REMARK    5  A    between atoms: C_17  and  O_19
REMARK    6  A    between atoms: C_17  and  C_21
REMARK    7  A    between atoms: C_21  and  O_22
REMARK    8  A    between atoms: O_22  and  C_25
REMARK                            x       y       z     vdW  Elec       q    Type
REMARK                         _______ _______ _______ _____ _____    ______ ____
ROOT
ATOM      1  O   UNL     1      35.009 -16.276 -21.222  0.00  0.00    -0.272 OA
ATOM      2  N   UNL     1      33.952 -15.776 -23.250  0.00  0.00    -0.282 N 
ATOM      3  C   UNL     1      34.673 -16.571 -22.368  0.00  0.00    +0.254 C 
ATOM      4  H   UNL     1      33.767 -16.167 -24.135  0.00  0.00    +0.155 HD
ENDROOT
BRANCH   2   5
ATOM      5  C   UNL     1      33.454 -14.469 -23.028  0.00  0.00    +0.050 C 
ATOM      6  C   UNL     1      33.914 -13.405 -23.803  0.00  0.00    +0.019 C 
ATOM      7  C   UNL     1      33.422 -12.118 -23.584  0.00  0.00    +0.082 C 
ATOM      8  C   UNL     1      32.501 -14.247 -22.034  0.00  0.00    +0.015 C 
ATOM      9  C   UNL     1      32.469 -11.896 -22.589  0.00  0.00    +0.072 C 
ATOM     10  C   UNL     1      32.009 -12.960 -21.815  0.00  0.00    +0.011 C 
BRANCH   7  14
ATOM     11  F   UNL     1      32.952 -10.210 -24.947  0.00  0.00    -0.166 F 
ATOM     12  F   UNL     1      34.772 -10.153 -23.769  0.00  0.00    -0.166 F 
ATOM     13  F   UNL     1      34.647 -11.451 -25.509  0.00  0.00    -0.166 F 
ATOM     14  C   UNL     1      33.938 -11.002 -24.434  0.00  0.00    +0.419 C 
ENDBRANCH   7  14
BRANCH   9  16
ATOM     15  N   UNL     1      31.524  -9.524 -22.150  0.00  0.00    -0.191 NA
ATOM     16  C   UNL     1      31.948 -10.586 -22.347  0.00  0.00    +0.100 C 
ENDBRANCH   9  16
ENDBRANCH   2   5
BRANCH   3  17
ATOM     17  C   UNL     1      35.047 -17.941 -22.966  0.00  0.00    +0.197 C 
ATOM     18  C   UNL     1      34.582 -18.048 -24.420  0.00  0.00    +0.043 C 
BRANCH  17  19
ATOM     19  O   UNL     1      36.471 -18.041 -22.956  0.00  0.00    -0.375 OA
ATOM     20  H   UNL     1      36.835 -17.545 -23.706  0.00  0.00    +0.211 HD
ENDBRANCH  17  19
BRANCH  17  21
ATOM     21  C   UNL     1      34.504 -19.112 -22.138  0.00  0.00    +0.241 C 
BRANCH  21  22
ATOM     22  O   UNL     1      35.547 -19.744 -21.402  0.00  0.00    -0.472 OA
BRANCH  22  25
ATOM     23 CL   UNL     1      33.898 -23.309 -17.026  0.00  0.00    -0.080 Cl
ATOM     24  F   UNL     1      36.649 -22.360 -17.588  0.00  0.00    -0.203 F 
ATOM     25  C   UNL     1      35.164 -20.573 -20.382  0.00  0.00    +0.141 C 
ATOM     26  C   UNL     1      36.115 -21.058 -19.483  0.00  0.00    +0.067 C 
ATOM     27  C   UNL     1      33.824 -20.934 -20.242  0.00  0.00    +0.038 C 
ATOM     28  C   UNL     1      35.725 -21.902 -18.444  0.00  0.00    +0.154 C 
ATOM     29  C   UNL     1      33.434 -21.779 -19.203  0.00  0.00    +0.017 C 
ATOM     30  C   UNL     1      34.385 -22.263 -18.304  0.00  0.00    +0.085 C 
ENDBRANCH  22  25
ENDBRANCH  21  22
ENDBRANCH  17  21
ENDBRANCH   3  17
TORSDOF 8
ENDMDL
MODEL 3
REMARK VINA RESULT:     -10.3      2.141      2.659
REMARK  Name = 24892822
REMARK  8 active torsions:
REMARK  status: ('A' for Active; 'I' for Inactive)
REMARK    1  A    between atoms: N_2  and  C_5
REMARK    2  A    between atoms: C_3  and  C_17
REMARK    3  A    between atoms: C_7  and  C_14
REMARK    4  A    between atoms: C_9  and  C_16
REMARK    5  A    between atoms: C_17  and  O_19
REMARK    6  A    between atoms: C_17  and  C_21
REMARK    7  A    between atoms: C_21  and  O_22
REMARK    8  A    between atoms: O_22  and  C_25
REMARK                            x       y       z     vdW  Elec       q    Type
REMARK                         _______ _______ _______ _____ _____    ______ ____
ROOT
ATOM      1  O   UNL     1      34.378 -14.472 -21.525  0.00  0.00    -0.272 OA
ATOM      2  N   UNL     1      33.583 -13.677 -23.578  0.00  0.00    -0.282 N 
ATOM      3  C   UNL     1      34.144 -14.618 -22.723  0.00  0.00    +0.254 C 
ATOM      4  H   UNL     1      33.464 -13.957 -24.514  0.00  0.00    +0.155 HD
ENDROOT
BRANCH   2   5
ATOM      5  C   UNL     1      33.165 -12.361 -23.262  0.00  0.00    +0.050 C 
ATOM      6  C   UNL     1      33.872 -11.266 -23.756  0.00  0.00    +0.019 C 
ATOM      7  C   UNL     1      33.458  -9.970 -23.444  0.00  0.00    +0.082 C 
ATOM      8  C   UNL     1      32.044 -12.163 -22.455  0.00  0.00    +0.015 C 
ATOM      9  C   UNL     1      32.337  -9.771 -22.638  0.00  0.00    +0.072 C 
ATOM     10  C   UNL     1      31.630 -10.867 -22.144  0.00  0.00    +0.011 C 
BRANCH   7  14
ATOM     11  F   UNL     1      33.471  -7.909 -24.660  0.00  0.00    -0.166 F 
ATOM     12  F   UNL     1      34.897  -8.104 -23.035  0.00  0.00    -0.166 F 
ATOM     13  F   UNL     1      35.196  -9.216 -24.880  0.00  0.00    -0.166 F 
ATOM     14  C   UNL     1      34.240  -8.820 -23.993  0.00  0.00    +0.419 C 
ENDBRANCH   7  14
BRANCH   9  16
ATOM     15  N   UNL     1      31.532  -7.383 -22.035  0.00  0.00    -0.191 NA
ATOM     16  C   UNL     1      31.893  -8.453 -22.306  0.00  0.00    +0.100 C 
ENDBRANCH   9  16
ENDBRANCH   2   5
BRANCH   3  17
ATOM     17  C   UNL     1      34.474 -15.946 -23.431  0.00  0.00    +0.197 C 
ATOM     18  C   UNL     1      33.886 -15.974 -24.843  0.00  0.00    +0.043 C 
BRANCH  17  19
ATOM     19  O   UNL     1      35.895 -16.029 -23.549  0.00  0.00    -0.375 OA
ATOM     20  H   UNL     1      36.308 -15.448 -22.892  0.00  0.00    +0.211 HD
ENDBRANCH  17  19
BRANCH  17  21
ATOM     21  C   UNL     1      34.013 -17.170 -22.629  0.00  0.00    +0.241 C 
BRANCH  21  22
ATOM     22  O   UNL     1      35.123 -17.847 -22.047  0.00  0.00    -0.472 OA
BRANCH  22  25
ATOM     23 CL   UNL     1      33.906 -22.594 -18.797  0.00  0.00    -0.080 Cl
ATOM     24  F   UNL     1      36.600 -21.605 -19.537  0.00  0.00    -0.203 F 
ATOM     25  C   UNL     1      34.841 -18.952 -21.290  0.00  0.00    +0.141 C 
ATOM     26  C   UNL     1      35.879 -19.736 -20.787  0.00  0.00    +0.067 C 
ATOM     27  C   UNL     1      33.516 -19.294 -21.021  0.00  0.00    +0.038 C 
ATOM     28  C   UNL     1      35.593 -20.861 -20.014  0.00  0.00    +0.154 C 
ATOM     29  C   UNL     1      33.229 -20.420 -20.249  0.00  0.00    +0.017 C 
ATOM     30  C   UNL     1      34.267 -21.203 -19.746  0.00  0.00    +0.085 C 
ENDBRANCH  22  25
ENDBRANCH  21  22
ENDBRANCH  17  21
ENDBRANCH   3  17
TORSDOF 8
ENDMDL
MODEL 4
REMARK VINA RESULT:     -10.2      4.312      6.429
REMARK  Name = 24892822
REMARK  8 active torsions:
REMARK  status: ('A' for Active; 'I' for Inactive)
REMARK    1  A    between atoms: N_2  and  C_5
REMARK    2  A    between atoms: C_3  and  C_17
REMARK    3  A    between atoms: C_7  and  C_14
REMARK    4  A    between atoms: C_9  and  C_16
REMARK    5  A    between atoms: C_17  and  O_19
REMARK    6  A    between atoms: C_17  and  C_21
REMARK    7  A    between atoms: C_21  and  O_22
REMARK    8  A    between atoms: O_22  and  C_25
REMARK                            x       y       z     vdW  Elec       q    Type
REMARK                         _______ _______ _______ _____ _____    ______ ____
ROOT
ATOM      1  O   UNL     1      33.485 -20.185 -20.276  0.00  0.00    -0.272 OA
ATOM      2  N   UNL     1      35.559 -19.249 -20.824  0.00  0.00    -0.282 N 
ATOM      3  C   UNL     1      34.714 -20.201 -20.266  0.00  0.00    +0.254 C 
ATOM      4  H   UNL     1      36.525 -19.415 -20.726  0.00  0.00    +0.155 HD
ENDROOT
BRANCH   2   5
ATOM      5  C   UNL     1      35.195 -18.068 -21.516  0.00  0.00    +0.050 C 
ATOM      6  C   UNL     1      35.015 -18.096 -22.898  0.00  0.00    +0.019 C 
ATOM      7  C   UNL     1      34.656 -16.932 -23.579  0.00  0.00    +0.082 C 
ATOM      8  C   UNL     1      35.017 -16.877 -20.812  0.00  0.00    +0.015 C 
ATOM      9  C   UNL     1      34.478 -15.741 -22.875  0.00  0.00    +0.072 C 
ATOM     10  C   UNL     1      34.657 -15.713 -21.493  0.00  0.00    +0.011 C 
BRANCH   7  14
ATOM     11  F   UNL     1      33.300 -16.441 -25.487  0.00  0.00    -0.166 F 
ATOM     12  F   UNL     1      35.451 -16.360 -25.760  0.00  0.00    -0.166 F 
ATOM     13  F   UNL     1      34.459 -18.281 -25.526  0.00  0.00    -0.166 F 
ATOM     14  C   UNL     1      34.470 -17.000 -25.060  0.00  0.00    +0.419 C 
ENDBRANCH   7  14
BRANCH   9  16
ATOM     15  N   UNL     1      33.809 -13.557 -24.099  0.00  0.00    -0.191 NA
ATOM     16  C   UNL     1      34.108 -14.534 -23.550  0.00  0.00    +0.100 C 
ENDBRANCH   9  16
ENDBRANCH   2   5
BRANCH   3  17
ATOM     17  C   UNL     1      35.479 -21.355 -19.589  0.00  0.00    +0.197 C 
ATOM     18  C   UNL     1      36.534 -21.939 -20.532  0.00  0.00    +0.043 C 
BRANCH  17  19
ATOM     19  O   UNL     1      36.158 -20.815 -18.456  0.00  0.00    -0.375 OA
ATOM     20  H   UNL     1      35.651 -20.068 -18.101  0.00  0.00    +0.211 HD
ENDBRANCH  17  19
BRANCH  17  21
ATOM     21  C   UNL     1      34.544 -22.458 -19.075  0.00  0.00    +0.241 C 
BRANCH  21  22
ATOM     22  O   UNL     1      34.937 -22.896 -17.778  0.00  0.00    -0.472 OA
BRANCH  22  25
ATOM     23 CL   UNL     1      30.631 -23.793 -13.875  0.00  0.00    -0.080 Cl
ATOM     24  F   UNL     1      30.304 -23.022 -16.718  0.00  0.00    -0.203 F 
ATOM     25  C   UNL     1      33.934 -23.105 -16.870  0.00  0.00    +0.141 C 
ATOM     26  C   UNL     1      32.601 -22.955 -17.257  0.00  0.00    +0.067 C 
ATOM     27  C   UNL     1      34.243 -23.469 -15.560  0.00  0.00    +0.038 C 
ATOM     28  C   UNL     1      31.579 -23.169 -16.333  0.00  0.00    +0.154 C 
ATOM     29  C   UNL     1      33.220 -23.682 -14.635  0.00  0.00    +0.017 C 
ATOM     30  C   UNL     1      31.889 -23.532 -15.022  0.00  0.00    +0.085 C 
ENDBRANCH  22  25
ENDBRANCH  21  22
ENDBRANCH  17  21
ENDBRANCH   3  17
TORSDOF 8
ENDMDL
MODEL 5
REMARK VINA RESULT:     -10.2      2.294      2.985
REMARK  Name = 24892822
REMARK  8 active torsions:
REMARK  status: ('A' for Active; 'I' for Inactive)
REMARK    1  A    between atoms: N_2  and  C_5
REMARK    2  A    between atoms: C_3  and  C_17
REMARK    3  A    between atoms: C_7  and  C_14
REMARK    4  A    between atoms: C_9  and  C_16
REMARK    5  A    between atoms: C_17  and  O_19
REMARK    6  A    between atoms: C_17  and  C_21
REMARK    7  A    between atoms: C_21  and  O_22
REMARK    8  A    between atoms: O_22  and  C_25
REMARK                            x       y       z     vdW  Elec       q    Type
REMARK                         _______ _______ _______ _____ _____    ______ ____
ROOT
ATOM      1  O   UNL     1      34.996 -16.339 -21.325  0.00  0.00    -0.272 OA
ATOM      2  N   UNL     1      33.931 -15.801 -23.339  0.00  0.00    -0.282 N 
ATOM      3  C   UNL     1      34.654 -16.613 -22.474  0.00  0.00    +0.254 C 
ATOM      4  H   UNL     1      33.741 -16.175 -24.230  0.00  0.00    +0.155 HD
ENDROOT
BRANCH   2   5
ATOM      5  C   UNL     1      33.438 -14.496 -23.092  0.00  0.00    +0.050 C 
ATOM      6  C   UNL     1      33.900 -13.420 -23.849  0.00  0.00    +0.019 C 
ATOM      7  C   UNL     1      33.413 -12.135 -23.605  0.00  0.00    +0.082 C 
ATOM      8  C   UNL     1      32.489 -14.289 -22.090  0.00  0.00    +0.015 C 
ATOM      9  C   UNL     1      32.464 -11.928 -22.603  0.00  0.00    +0.072 C 
ATOM     10  C   UNL     1      32.002 -13.005 -21.847  0.00  0.00    +0.011 C 
BRANCH   7  14
ATOM     11  F   UNL     1      34.762 -10.166 -23.755  0.00  0.00    -0.166 F 
ATOM     12  F   UNL     1      34.643 -11.415 -25.525  0.00  0.00    -0.166 F 
ATOM     13  F   UNL     1      32.929 -10.218 -24.924  0.00  0.00    -0.166 F 
ATOM     14  C   UNL     1      33.929 -11.006 -24.437  0.00  0.00    +0.419 C 
ENDBRANCH   7  14
BRANCH   9  16
ATOM     15  N   UNL     1      31.528  -9.561 -22.117  0.00  0.00    -0.191 NA
ATOM     16  C   UNL     1      31.948 -10.621 -22.335  0.00  0.00    +0.100 C 
ENDBRANCH   9  16
ENDBRANCH   2   5
BRANCH   3  17
ATOM     17  C   UNL     1      35.020 -17.973 -23.098  0.00  0.00    +0.197 C 
ATOM     18  C   UNL     1      34.442 -18.101 -24.510  0.00  0.00    +0.043 C 
BRANCH  17  19
ATOM     19  O   UNL     1      36.443 -18.029 -23.203  0.00  0.00    -0.375 OA
ATOM     20  H   UNL     1      36.690 -18.291 -24.104  0.00  0.00    +0.211 HD
ENDBRANCH  17  19
BRANCH  17  21
ATOM     21  C   UNL     1      34.583 -19.157 -22.227  0.00  0.00    +0.241 C 
BRANCH  21  22
ATOM     22  O   UNL     1      35.647 -19.594 -21.387  0.00  0.00    -0.472 OA
BRANCH  22  25
ATOM     23 CL   UNL     1      34.233 -23.271 -17.022  0.00  0.00    -0.080 Cl
ATOM     24  F   UNL     1      32.349 -21.885 -18.842  0.00  0.00    -0.203 F 
ATOM     25  C   UNL     1      35.317 -20.450 -20.372  0.00  0.00    +0.141 C 
ATOM     26  C   UNL     1      33.977 -20.741 -20.112  0.00  0.00    +0.067 C 
ATOM     27  C   UNL     1      36.319 -21.032 -19.596  0.00  0.00    +0.038 C 
ATOM     28  C   UNL     1      33.640 -21.615 -19.079  0.00  0.00    +0.154 C 
ATOM     29  C   UNL     1      35.982 -21.906 -18.561  0.00  0.00    +0.017 C 
ATOM     30  C   UNL     1      34.643 -22.196 -18.302  0.00  0.00    +0.085 C 
ENDBRANCH  22  25
ENDBRANCH  21  22
ENDBRANCH  17  21
ENDBRANCH   3  17
TORSDOF 8
ENDMDL
MODEL 6
REMARK VINA RESULT:     -10.1      4.105      6.177
REMARK  Name = 24892822
REMARK  8 active torsions:
REMARK  status: ('A' for Active; 'I' for Inactive)
REMARK    1  A    between atoms: N_2  and  C_5
REMARK    2  A    between atoms: C_3  and  C_17
REMARK    3  A    between atoms: C_7  and  C_14
REMARK    4  A    between atoms: C_9  and  C_16
REMARK    5  A    between atoms: C_17  and  O_19
REMARK    6  A    between atoms: C_17  and  C_21
REMARK    7  A    between atoms: C_21  and  O_22
REMARK    8  A    between atoms: O_22  and  C_25
REMARK                            x       y       z     vdW  Elec       q    Type
REMARK                         _______ _______ _______ _____ _____    ______ ____
ROOT
ATOM      1  O   UNL     1      33.438 -20.126 -20.438  0.00  0.00    -0.272 OA
ATOM      2  N   UNL     1      35.420 -19.771 -21.633  0.00  0.00    -0.282 N 
ATOM      3  C   UNL     1      34.629 -20.347 -20.644  0.00  0.00    +0.254 C 
ATOM      4  H   UNL     1      36.360 -20.060 -21.659  0.00  0.00    +0.155 HD
ENDROOT
BRANCH   2   5
ATOM      5  C   UNL     1      35.032 -18.817 -22.605  0.00  0.00    +0.050 C 
ATOM      6  C   UNL     1      34.779 -17.499 -22.226  0.00  0.00    +0.019 C 
ATOM      7  C   UNL     1      34.398 -16.559 -23.185  0.00  0.00    +0.082 C 
ATOM      8  C   UNL     1      34.902 -19.197 -23.940  0.00  0.00    +0.015 C 
ATOM      9  C   UNL     1      34.268 -16.939 -24.521  0.00  0.00    +0.072 C 
ATOM     10  C   UNL     1      34.521 -18.257 -24.899  0.00  0.00    +0.011 C 
BRANCH   7  14
ATOM     11  F   UNL     1      34.784 -14.219 -23.497  0.00  0.00    -0.166 F 
ATOM     12  F   UNL     1      32.818 -14.806 -22.791  0.00  0.00    -0.166 F 
ATOM     13  F   UNL     1      34.532 -14.931 -21.458  0.00  0.00    -0.166 F 
ATOM     14  C   UNL     1      34.137 -15.155 -22.743  0.00  0.00    +0.419 C 
ENDBRANCH   7  14
BRANCH   9  16
ATOM     15  N   UNL     1      33.567 -15.226 -26.334  0.00  0.00    -0.191 NA
ATOM     16  C   UNL     1      33.880 -15.993 -25.522  0.00  0.00    +0.100 C 
ENDBRANCH   9  16
ENDBRANCH   2   5
BRANCH   3  17
ATOM     17  C   UNL     1      35.405 -21.348 -19.767  0.00  0.00    +0.197 C 
ATOM     18  C   UNL     1      36.484 -22.067 -20.581  0.00  0.00    +0.043 C 
BRANCH  17  19
ATOM     19  O   UNL     1      36.058 -20.604 -18.739  0.00  0.00    -0.375 OA
ATOM     20  H   UNL     1      35.466 -19.904 -18.422  0.00  0.00    +0.211 HD
ENDBRANCH  17  19
BRANCH  17  21
ATOM     21  C   UNL     1      34.483 -22.363 -19.078  0.00  0.00    +0.241 C 
BRANCH  21  22
ATOM     22  O   UNL     1      35.011 -22.756 -17.815  0.00  0.00    -0.472 OA
BRANCH  22  25
ATOM     23 CL   UNL     1      31.114 -24.171 -13.646  0.00  0.00    -0.080 Cl
ATOM     24  F   UNL     1      30.506 -23.416 -16.447  0.00  0.00    -0.203 F 
ATOM     25  C   UNL     1      34.103 -23.086 -16.846  0.00  0.00    +0.141 C 
ATOM     26  C   UNL     1      32.739 -23.085 -17.138  0.00  0.00    +0.067 C 
ATOM     27  C   UNL     1      34.541 -23.424 -15.565  0.00  0.00    +0.038 C 
ATOM     28  C   UNL     1      31.814 -23.422 -16.151  0.00  0.00    +0.154 C 
ATOM     29  C   UNL     1      33.616 -23.761 -14.577  0.00  0.00    +0.017 C 
ATOM     30  C   UNL     1      32.252 -23.759 -14.870  0.00  0.00    +0.085 C 
ENDBRANCH  22  25
ENDBRANCH  21  22
ENDBRANCH  17  21
ENDBRANCH   3  17
TORSDOF 8
ENDMDL
MODEL 7
REMARK VINA RESULT:     -10.0      4.463      9.755
REMARK  Name = 24892822
REMARK  8 active torsions:
REMARK  status: ('A' for Active; 'I' for Inactive)
REMARK    1  A    between atoms: N_2  and  C_5
REMARK    2  A    between atoms: C_3  and  C_17
REMARK    3  A    between atoms: C_7  and  C_14
REMARK    4  A    between atoms: C_9  and  C_16
REMARK    5  A    between atoms: C_17  and  O_19
REMARK    6  A    between atoms: C_17  and  C_21
REMARK    7  A    between atoms: C_21  and  O_22
REMARK    8  A    between atoms: O_22  and  C_25
REMARK                            x       y       z     vdW  Elec       q    Type
REMARK                         _______ _______ _______ _____ _____    ______ ____
ROOT
ATOM      1  O   UNL     1      32.139 -16.110 -20.581  0.00  0.00    -0.272 OA
ATOM      2  N   UNL     1      33.931 -17.157 -21.665  0.00  0.00    -0.282 N 
ATOM      3  C   UNL     1      33.069 -16.103 -21.385  0.00  0.00    +0.254 C 
ATOM      4  H   UNL     1      34.626 -16.983 -22.340  0.00  0.00    +0.155 HD
ENDROOT
BRANCH   2   5
ATOM      5  C   UNL     1      33.926 -18.454 -21.094  0.00  0.00    +0.050 C 
ATOM      6  C   UNL     1      35.130 -19.095 -20.808  0.00  0.00    +0.019 C 
ATOM      7  C   UNL     1      35.125 -20.372 -20.245  0.00  0.00    +0.082 C 
ATOM      8  C   UNL     1      32.714 -19.088 -20.818  0.00  0.00    +0.015 C 
ATOM      9  C   UNL     1      33.913 -21.006 -19.969  0.00  0.00    +0.072 C 
ATOM     10  C   UNL     1      32.709 -20.365 -20.255  0.00  0.00    +0.011 C 
BRANCH   7  14
ATOM     11  F   UNL     1      36.598 -22.225 -20.585  0.00  0.00    -0.166 F 
ATOM     12  F   UNL     1      37.513 -20.277 -20.315  0.00  0.00    -0.166 F 
ATOM     13  F   UNL     1      36.599 -21.289 -18.622  0.00  0.00    -0.166 F 
ATOM     14  C   UNL     1      36.435 -21.028 -19.950  0.00  0.00    +0.419 C 
ENDBRANCH   7  14
BRANCH   9  16
ATOM     15  N   UNL     1      33.856 -23.376 -18.923  0.00  0.00    -0.191 NA
ATOM     16  C   UNL     1      33.881 -22.314 -19.391  0.00  0.00    +0.100 C 
ENDBRANCH   9  16
ENDBRANCH   2   5
BRANCH   3  17
ATOM     17  C   UNL     1      33.385 -14.840 -22.209  0.00  0.00    +0.197 C 
ATOM     18  C   UNL     1      34.801 -14.338 -21.920  0.00  0.00    +0.043 C 
BRANCH  17  19
ATOM     19  O   UNL     1      33.323 -15.200 -23.589  0.00  0.00    -0.375 OA
ATOM     20  H   UNL     1      33.953 -14.661 -24.092  0.00  0.00    +0.211 HD
ENDBRANCH  17  19
BRANCH  17  21
ATOM     21  C   UNL     1      32.359 -13.721 -21.985  0.00  0.00    +0.241 C 
BRANCH  21  22
ATOM     22  O   UNL     1      32.112 -13.006 -23.192  0.00  0.00    -0.472 OA
BRANCH  22  25
ATOM     23 CL   UNL     1      34.544  -7.671 -23.638  0.00  0.00    -0.080 Cl
ATOM     24  F   UNL     1      35.396 -10.124 -25.067  0.00  0.00    -0.203 F 
ATOM     25  C   UNL     1      32.679 -11.765 -23.297  0.00  0.00    +0.141 C 
ATOM     26  C   UNL     1      33.771 -11.565 -24.143  0.00  0.00    +0.067 C 
ATOM     27  C   UNL     1      32.165 -10.698 -22.560  0.00  0.00    +0.038 C 
ATOM     28  C   UNL     1      34.348 -10.300 -24.251  0.00  0.00    +0.154 C 
ATOM     29  C   UNL     1      32.742  -9.433 -22.667  0.00  0.00    +0.017 C 
ATOM     30  C   UNL     1      33.834  -9.234 -23.512  0.00  0.00    +0.085 C 
ENDBRANCH  22  25
ENDBRANCH  21  22
ENDBRANCH  17  21
ENDBRANCH   3  17
TORSDOF 8
ENDMDL
MODEL 8
REMARK VINA RESULT:      -9.9      6.400     10.614
REMARK  Name = 24892822
REMARK  8 active torsions:
REMARK  status: ('A' for Active; 'I' for Inactive)
REMARK    1  A    between atoms: N_2  and  C_5
REMARK    2  A    between atoms: C_3  and  C_17
REMARK    3  A    between atoms: C_7  and  C_14
REMARK    4  A    between atoms: C_9  and  C_16
REMARK    5  A    between atoms: C_17  and  O_19
REMARK    6  A    between atoms: C_17  and  C_21
REMARK    7  A    between atoms: C_21  and  O_22
REMARK    8  A    between atoms: O_22  and  C_25
REMARK                            x       y       z     vdW  Elec       q    Type
REMARK                         _______ _______ _______ _____ _____    ______ ____
ROOT
ATOM      1  O   UNL     1      35.861 -22.411 -17.350  0.00  0.00    -0.272 OA
ATOM      2  N   UNL     1      33.646 -22.498 -18.102  0.00  0.00    -0.282 N 
ATOM      3  C   UNL     1      35.012 -22.275 -18.229  0.00  0.00    +0.254 C 
ATOM      4  H   UNL     1      33.103 -22.340 -18.908  0.00  0.00    +0.155 HD
ENDROOT
BRANCH   2   5
ATOM      5  C   UNL     1      32.942 -22.925 -16.949  0.00  0.00    +0.050 C 
ATOM      6  C   UNL     1      31.560 -22.756 -16.873  0.00  0.00    +0.019 C 
ATOM      7  C   UNL     1      30.867 -23.178 -15.737  0.00  0.00    +0.082 C 
ATOM      8  C   UNL     1      33.633 -23.515 -15.891  0.00  0.00    +0.015 C 
ATOM      9  C   UNL     1      31.558 -23.768 -14.679  0.00  0.00    +0.072 C 
ATOM     10  C   UNL     1      32.940 -23.937 -14.755  0.00  0.00    +0.011 C 
BRANCH   7  14
ATOM     11  F   UNL     1      28.697 -24.119 -15.382  0.00  0.00    -0.166 F 
ATOM     12  F   UNL     1      28.989 -22.059 -14.768  0.00  0.00    -0.166 F 
ATOM     13  F   UNL     1      28.879 -22.555 -16.882  0.00  0.00    -0.166 F 
ATOM     14  C   UNL     1      29.386 -22.982 -15.691  0.00  0.00    +0.419 C 
ENDBRANCH   7  14
BRANCH   9  16
ATOM     15  N   UNL     1      30.311 -24.566 -12.552  0.00  0.00    -0.191 NA
ATOM     16  C   UNL     1      30.870 -24.209 -13.505  0.00  0.00    +0.100 C 
ENDBRANCH   9  16
ENDBRANCH   2   5
BRANCH   3  17
ATOM     17  C   UNL     1      35.413 -21.813 -19.643  0.00  0.00    +0.197 C 
ATOM     18  C   UNL     1      36.873 -21.356 -19.676  0.00  0.00    +0.043 C 
BRANCH  17  19
ATOM     19  O   UNL     1      35.288 -22.938 -20.514  0.00  0.00    -0.375 OA
ATOM     20  H   UNL     1      34.452 -22.878 -21.002  0.00  0.00    +0.211 HD
ENDBRANCH  17  19
BRANCH  17  21
ATOM     21  C   UNL     1      34.490 -20.714 -20.186  0.00  0.00    +0.241 C 
BRANCH  21  22
ATOM     22  O   UNL     1      35.180 -19.472 -20.286  0.00  0.00    -0.472 OA
BRANCH  22  25
ATOM     23 CL   UNL     1      34.707 -16.584 -25.386  0.00  0.00    -0.080 Cl
ATOM     24  F   UNL     1      34.527 -19.517 -24.995  0.00  0.00    -0.203 F 
ATOM     25  C   UNL     1      35.069 -18.801 -21.473  0.00  0.00    +0.141 C 
ATOM     26  C   UNL     1      34.851 -19.508 -22.656  0.00  0.00    +0.067 C 
ATOM     27  C   UNL     1      35.173 -17.410 -21.502  0.00  0.00    +0.038 C 
ATOM     28  C   UNL     1      34.736 -18.825 -23.867  0.00  0.00    +0.154 C 
ATOM     29  C   UNL     1      35.060 -16.726 -22.713  0.00  0.00    +0.017 C 
ATOM     30  C   UNL     1      34.842 -17.434 -23.895  0.00  0.00    +0.085 C 
ENDBRANCH  22  25
ENDBRANCH  21  22
ENDBRANCH  17  21
ENDBRANCH   3  17
TORSDOF 8
ENDMDL
MODEL 9
REMARK VINA RESULT:      -9.8      6.459     11.858
REMARK  Name = 24892822
REMARK  8 active torsions:
REMARK  status: ('A' for Active; 'I' for Inactive)
REMARK    1  A    between atoms: N_2  and  C_5
REMARK    2  A    between atoms: C_3  and  C_17
REMARK    3  A    between atoms: C_7  and  C_14
REMARK    4  A    between atoms: C_9  and  C_16
REMARK    5  A    between atoms: C_17  and  O_19
REMARK    6  A    between atoms: C_17  and  C_21
REMARK    7  A    between atoms: C_21  and  O_22
REMARK    8  A    between atoms: O_22  and  C_25
REMARK                            x       y       z     vdW  Elec       q    Type
REMARK                         _______ _______ _______ _____ _____    ______ ____
ROOT
ATOM      1  O   UNL     1      34.082 -23.041 -18.368  0.00  0.00    -0.272 OA
ATOM      2  N   UNL     1      36.008 -22.276 -17.279  0.00  0.00    -0.282 N 
ATOM      3  C   UNL     1      35.125 -22.390 -18.346  0.00  0.00    +0.254 C 
ATOM      4  H   UNL     1      36.801 -21.712 -17.429  0.00  0.00    +0.155 HD
ENDROOT
BRANCH   2   5
ATOM      5  C   UNL     1      35.902 -22.877 -16.001  0.00  0.00    +0.050 C 
ATOM      6  C   UNL     1      37.015 -23.486 -15.422  0.00  0.00    +0.019 C 
ATOM      7  C   UNL     1      36.910 -24.077 -14.162  0.00  0.00    +0.082 C 
ATOM      8  C   UNL     1      34.684 -22.858 -15.321  0.00  0.00    +0.015 C 
ATOM      9  C   UNL     1      35.692 -24.058 -13.483  0.00  0.00    +0.072 C 
ATOM     10  C   UNL     1      34.579 -23.449 -14.061  0.00  0.00    +0.011 C 
BRANCH   7  14
ATOM     11  F   UNL     1      38.536 -24.137 -12.408  0.00  0.00    -0.166 F 
ATOM     12  F   UNL     1      37.948 -26.039 -13.272  0.00  0.00    -0.166 F 
ATOM     13  F   UNL     1      39.198 -24.671 -14.409  0.00  0.00    -0.166 F 
ATOM     14  C   UNL     1      38.124 -24.720 -13.572  0.00  0.00    +0.419 C 
ENDBRANCH   7  14
BRANCH   9  16
ATOM     15  N   UNL     1      35.454 -25.140 -11.140  0.00  0.00    -0.191 NA
ATOM     16  C   UNL     1      35.560 -24.656 -12.189  0.00  0.00    +0.100 C 
ENDBRANCH   9  16
ENDBRANCH   2   5
BRANCH   3  17
ATOM     17  C   UNL     1      35.576 -21.589 -19.583  0.00  0.00    +0.197 C 
ATOM     18  C   UNL     1      36.897 -20.864 -19.313  0.00  0.00    +0.043 C 
BRANCH  17  19
ATOM     19  O   UNL     1      35.799 -22.521 -20.641  0.00  0.00    -0.375 OA
ATOM     20  H   UNL     1      34.948 -22.869 -20.949  0.00  0.00    +0.211 HD
ENDBRANCH  17  19
BRANCH  17  21
ATOM     21  C   UNL     1      34.507 -20.600 -20.065  0.00  0.00    +0.241 C 
BRANCH  21  22
ATOM     22  O   UNL     1      35.041 -19.285 -20.178  0.00  0.00    -0.472 OA
BRANCH  22  25
ATOM     23 CL   UNL     1      34.716 -16.743 -25.470  0.00  0.00    -0.080 Cl
ATOM     24  F   UNL     1      34.672 -19.652 -24.904  0.00  0.00    -0.203 F 
ATOM     25  C   UNL     1      34.964 -18.694 -21.410  0.00  0.00    +0.141 C 
ATOM     26  C   UNL     1      34.856 -19.483 -22.556  0.00  0.00    +0.067 C 
ATOM     27  C   UNL     1      34.995 -17.304 -21.522  0.00  0.00    +0.038 C 
ATOM     28  C   UNL     1      34.777 -18.882 -23.812  0.00  0.00    +0.154 C 
ATOM     29  C   UNL     1      34.917 -16.703 -22.778  0.00  0.00    +0.017 C 
ATOM     30  C   UNL     1      34.808 -17.491 -23.922  0.00  0.00    +0.085 C 
ENDBRANCH  22  25
ENDBRANCH  21  22
ENDBRANCH  17  21
ENDBRANCH   3  17
TORSDOF 8
ENDMDL
