MODEL 1
REMARK VINA RESULT:      -9.8      0.000      0.000
REMARK  Name = 5720
REMARK  3 active torsions:
REMARK  status: ('A' for Active; 'I' for Inactive)
REMARK    1  A    between atoms: C_4  and  C_17
REMARK    2  A    between atoms: C_17  and  C_20
REMARK    3  A    between atoms: C_20  and  O_21
REMARK                            x       y       z     vdW  Elec       q    Type
REMARK                         _______ _______ _______ _____ _____    ______ ____
ROOT
ATOM      1  S   UNL     1      32.614 -12.577 -23.266  0.00  0.00    -0.087 S 
ATOM      2  O   UNL     1      33.565 -13.323 -27.649  0.00  0.00    -0.291 OA
ATOM      3  C   UNL     1      33.522 -14.908 -24.447  0.00  0.00    -0.009 C 
ATOM      4  C   UNL     1      34.856 -16.565 -23.273  0.00  0.00    -0.012 C 
ATOM      5  C   UNL     1      32.829 -14.447 -25.701  0.00  0.00    +0.096 C 
ATOM      6  C   UNL     1      33.457 -14.148 -23.269  0.00  0.00    +0.026 C 
ATOM      7  C   UNL     1      34.234 -16.116 -24.438  0.00  0.00    -0.007 C 
ATOM      8  C   UNL     1      34.774 -15.812 -22.105  0.00  0.00    -0.003 C 
ATOM      9  C   UNL     1      33.493 -13.294 -26.418  0.00  0.00    +0.178 C 
ATOM     10  C   UNL     1      34.077 -14.605 -22.100  0.00  0.00    +0.006 C 
ATOM     11  C   UNL     1      34.017 -12.082 -25.701  0.00  0.00    +0.041 C 
ATOM     12  C   UNL     1      33.687 -11.688 -24.389  0.00  0.00    +0.032 C 
ATOM     13  C   UNL     1      34.894 -11.272 -26.449  0.00  0.00    +0.003 C 
ATOM     14  C   UNL     1      34.230 -10.495 -23.873  0.00  0.00    +0.007 C 
ATOM     15  C   UNL     1      35.429 -10.097 -25.918  0.00  0.00    +0.000 C 
ATOM     16  C   UNL     1      35.094  -9.706 -24.631  0.00  0.00    +0.001 C 
ENDROOT
BRANCH   4  17
ATOM     17  C   UNL     1      35.606 -17.854 -23.278  0.00  0.00    +0.121 C 
ATOM     18  C   UNL     1      36.340 -18.158 -21.956  0.00  0.00    +0.016 C 
BRANCH  17  20
ATOM     19  O   UNL     1      34.594 -19.522 -24.747  0.00  0.00    -0.250 OA
ATOM     20  C   UNL     1      34.719 -19.056 -23.621  0.00  0.00    +0.317 C 
BRANCH  20  21
ATOM     21  O   UNL     1      34.063 -19.560 -22.543  0.00  0.00    -0.480 OA
ATOM     22  H   UNL     1      33.400 -19.052 -22.118  0.00  0.00    +0.295 HD
ENDBRANCH  20  21
ENDBRANCH  17  20
ENDBRANCH   4  17
TORSDOF 3
ENDMDL
MODEL 2
REMARK VINA RESULT:      -8.9      3.434      7.499
REMARK  Name = 5720
REMARK  3 active torsions:
REMARK  status: ('A' for Active; 'I' for Inactive)
REMARK    1  A    between atoms: C_4  and  C_17
REMARK    2  A    between atoms: C_17  and  C_20
REMARK    3  A    between atoms: C_20  and  O_21
REMARK                            x       y       z     vdW  Elec       q    Type
REMARK                         _______ _______ _______ _____ _____    ______ ____
ROOT
ATOM      1  S   UNL     1      33.072 -13.692 -24.785  0.00  0.00    -0.087 S 
ATOM      2  O   UNL     1      31.659 -13.180 -20.494  0.00  0.00    -0.291 OA
ATOM      3  C   UNL     1      32.791 -11.347 -23.345  0.00  0.00    -0.009 C 
ATOM      4  C   UNL     1      34.129  -9.362 -23.756  0.00  0.00    -0.012 C 
ATOM      5  C   UNL     1      31.707 -12.048 -22.571  0.00  0.00    +0.096 C 
ATOM      6  C   UNL     1      33.454 -11.994 -24.398  0.00  0.00    +0.026 C 
ATOM      7  C   UNL     1      33.144 -10.028 -23.027  0.00  0.00    -0.007 C 
ATOM      8  C   UNL     1      34.772 -10.005 -24.810  0.00  0.00    -0.003 C 
ATOM      9  C   UNL     1      32.184 -13.110 -21.608  0.00  0.00    +0.178 C 
ATOM     10  C   UNL     1      34.438 -11.319 -25.132  0.00  0.00    +0.006 C 
ATOM     11  C   UNL     1      33.231 -14.126 -21.969  0.00  0.00    +0.041 C 
ATOM     12  C   UNL     1      33.652 -14.455 -23.273  0.00  0.00    +0.032 C 
ATOM     13  C   UNL     1      33.802 -14.814 -20.880  0.00  0.00    +0.003 C 
ATOM     14  C   UNL     1      34.616 -15.466 -23.449  0.00  0.00    +0.007 C 
ATOM     15  C   UNL     1      34.763 -15.808 -21.074  0.00  0.00    +0.000 C 
ATOM     16  C   UNL     1      35.167 -16.137 -22.359  0.00  0.00    +0.001 C 
ENDROOT
BRANCH   4  17
ATOM     17  C   UNL     1      34.491  -7.957 -23.408  0.00  0.00    +0.121 C 
ATOM     18  C   UNL     1      34.682  -7.037 -24.632  0.00  0.00    +0.016 C 
BRANCH  17  20
ATOM     19  O   UNL     1      33.457  -7.456 -21.253  0.00  0.00    -0.250 OA
ATOM     20  C   UNL     1      33.476  -7.298 -22.468  0.00  0.00    +0.317 C 
BRANCH  20  21
ATOM     21  O   UNL     1      32.576  -6.515 -23.118  0.00  0.00    -0.480 OA
ATOM     22  H   UNL     1      32.179  -6.817 -23.911  0.00  0.00    +0.295 HD
ENDBRANCH  20  21
ENDBRANCH  17  20
ENDBRANCH   4  17
TORSDOF 3
ENDMDL
MODEL 3
REMARK VINA RESULT:      -8.9      1.974      2.813
REMARK  Name = 5720
REMARK  3 active torsions:
REMARK  status: ('A' for Active; 'I' for Inactive)
REMARK    1  A    between atoms: C_4  and  C_17
REMARK    2  A    between atoms: C_17  and  C_20
REMARK    3  A    between atoms: C_20  and  O_21
REMARK                            x       y       z     vdW  Elec       q    Type
REMARK                         _______ _______ _______ _____ _____    ______ ____
ROOT
ATOM      1  S   UNL     1      31.465 -11.006 -23.002  0.00  0.00    -0.087 S 
ATOM      2  O   UNL     1      34.937 -10.679 -25.919  0.00  0.00    -0.291 OA
ATOM      3  C   UNL     1      33.385 -12.907 -23.596  0.00  0.00    -0.009 C 
ATOM      4  C   UNL     1      34.109 -14.608 -22.020  0.00  0.00    -0.012 C 
ATOM      5  C   UNL     1      33.475 -12.272 -24.958  0.00  0.00    +0.096 C 
ATOM      6  C   UNL     1      32.476 -12.430 -22.640  0.00  0.00    +0.026 C 
ATOM      7  C   UNL     1      34.205 -13.997 -23.270  0.00  0.00    -0.007 C 
ATOM      8  C   UNL     1      33.193 -14.138 -21.083  0.00  0.00    -0.003 C 
ATOM      9  C   UNL     1      34.154 -10.923 -24.997  0.00  0.00    +0.178 C 
ATOM     10  C   UNL     1      32.378 -13.050 -21.389  0.00  0.00    +0.006 C 
ATOM     11  C   UNL     1      33.872  -9.840 -23.995  0.00  0.00    +0.041 C 
ATOM     12  C   UNL     1      32.759  -9.777 -23.133  0.00  0.00    +0.032 C 
ATOM     13  C   UNL     1      34.813  -8.791 -23.962  0.00  0.00    +0.003 C 
ATOM     14  C   UNL     1      32.614  -8.667 -22.278  0.00  0.00    +0.007 C 
ATOM     15  C   UNL     1      34.656  -7.702 -23.102  0.00  0.00    +0.000 C 
ATOM     16  C   UNL     1      33.554  -7.639 -22.262  0.00  0.00    +0.001 C 
ENDROOT
BRANCH   4  17
ATOM     17  C   UNL     1      34.986 -15.768 -21.689  0.00  0.00    +0.121 C 
ATOM     18  C   UNL     1      34.630 -16.464 -20.359  0.00  0.00    +0.016 C 
BRANCH  17  20
ATOM     19  O   UNL     1      34.419 -17.904 -22.730  0.00  0.00    -0.250 OA
ATOM     20  C   UNL     1      35.006 -16.831 -22.794  0.00  0.00    +0.317 C 
BRANCH  20  21
ATOM     21  O   UNL     1      35.757 -16.471 -23.867  0.00  0.00    -0.480 OA
ATOM     22  H   UNL     1      36.691 -16.532 -23.828  0.00  0.00    +0.295 HD
ENDBRANCH  20  21
ENDBRANCH  17  20
ENDBRANCH   4  17
TORSDOF 3
ENDMDL
MODEL 4
REMARK VINA RESULT:      -8.2      4.102      6.105
REMARK  Name = 5720
REMARK  3 active torsions:
REMARK  status: ('A' for Active; 'I' for Inactive)
REMARK    1  A    between atoms: C_4  and  C_17
REMARK    2  A    between atoms: C_17  and  C_20
REMARK    3  A    between atoms: C_20  and  O_21
REMARK                            x       y       z     vdW  Elec       q    Type
REMARK                         _______ _______ _______ _____ _____    ______ ____
ROOT
ATOM      1  S   UNL     1      35.101  -7.347 -23.923  0.00  0.00    -0.087 S 
ATOM      2  O   UNL     1      31.003  -6.975 -21.990  0.00  0.00    -0.291 OA
ATOM      3  C   UNL     1      33.411  -9.373 -23.093  0.00  0.00    -0.009 C 
ATOM      4  C   UNL     1      33.376 -11.580 -24.109  0.00  0.00    -0.012 C 
ATOM      5  C   UNL     1      32.887  -8.405 -22.067  0.00  0.00    +0.096 C 
ATOM      6  C   UNL     1      34.446  -9.005 -23.966  0.00  0.00    +0.026 C 
ATOM      7  C   UNL     1      32.877 -10.668 -23.179  0.00  0.00    -0.007 C 
ATOM      8  C   UNL     1      34.413 -11.211 -24.961  0.00  0.00    -0.003 C 
ATOM      9  C   UNL     1      32.019  -7.294 -22.612  0.00  0.00    +0.178 C 
ATOM     10  C   UNL     1      34.948  -9.926 -24.893  0.00  0.00    +0.006 C 
ATOM     11  C   UNL     1      32.372  -6.518 -23.849  0.00  0.00    +0.041 C 
ATOM     12  C   UNL     1      33.641  -6.461 -24.458  0.00  0.00    +0.032 C 
ATOM     13  C   UNL     1      31.319  -5.767 -24.410  0.00  0.00    +0.003 C 
ATOM     14  C   UNL     1      33.823  -5.648 -25.594  0.00  0.00    +0.007 C 
ATOM     15  C   UNL     1      31.516  -4.973 -25.540  0.00  0.00    +0.000 C 
ATOM     16  C   UNL     1      32.769  -4.910 -26.131  0.00  0.00    +0.001 C 
ENDROOT
BRANCH   4  17
ATOM     17  C   UNL     1      32.800 -12.954 -24.187  0.00  0.00    +0.121 C 
ATOM     18  C   UNL     1      33.255 -13.755 -25.424  0.00  0.00    +0.016 C 
BRANCH  17  20
ATOM     19  O   UNL     1      32.235 -14.321 -22.244  0.00  0.00    -0.250 OA
ATOM     20  C   UNL     1      33.094 -13.792 -22.938  0.00  0.00    +0.317 C 
BRANCH  20  21
ATOM     21  O   UNL     1      34.421 -13.889 -22.660  0.00  0.00    -0.480 OA
ATOM     22  H   UNL     1      34.879 -14.688 -22.832  0.00  0.00    +0.295 HD
ENDBRANCH  20  21
ENDBRANCH  17  20
ENDBRANCH   4  17
TORSDOF 3
ENDMDL
MODEL 5
REMARK VINA RESULT:      -8.1      5.622     10.052
REMARK  Name = 5720
REMARK  3 active torsions:
REMARK  status: ('A' for Active; 'I' for Inactive)
REMARK    1  A    between atoms: C_4  and  C_17
REMARK    2  A    between atoms: C_17  and  C_20
REMARK    3  A    between atoms: C_20  and  O_21
REMARK                            x       y       z     vdW  Elec       q    Type
REMARK                         _______ _______ _______ _____ _____    ______ ____
ROOT
ATOM      1  S   UNL     1      32.821  -7.607 -20.636  0.00  0.00    -0.087 S 
ATOM      2  O   UNL     1      34.386  -9.940 -24.210  0.00  0.00    -0.291 OA
ATOM      3  C   UNL     1      33.077  -6.756 -23.255  0.00  0.00    -0.009 C 
ATOM      4  C   UNL     1      31.654  -5.056 -24.249  0.00  0.00    -0.012 C 
ATOM      5  C   UNL     1      34.216  -7.733 -23.376  0.00  0.00    +0.096 C 
ATOM      6  C   UNL     1      32.396  -6.594 -22.039  0.00  0.00    +0.026 C 
ATOM      7  C   UNL     1      32.691  -5.983 -24.359  0.00  0.00    -0.007 C 
ATOM      8  C   UNL     1      30.994  -4.890 -23.035  0.00  0.00    -0.003 C 
ATOM      9  C   UNL     1      33.814  -9.189 -23.416  0.00  0.00    +0.178 C 
ATOM     10  C   UNL     1      31.360  -5.657 -21.931  0.00  0.00    +0.006 C 
ATOM     11  C   UNL     1      32.791  -9.778 -22.487  0.00  0.00    +0.041 C 
ATOM     12  C   UNL     1      32.330  -9.200 -21.288  0.00  0.00    +0.032 C 
ATOM     13  C   UNL     1      32.287 -11.039 -22.867  0.00  0.00    +0.003 C 
ATOM     14  C   UNL     1      31.395  -9.902 -20.502  0.00  0.00    +0.007 C 
ATOM     15  C   UNL     1      31.356 -11.716 -22.079  0.00  0.00    +0.000 C 
ATOM     16  C   UNL     1      30.912 -11.149 -20.894  0.00  0.00    +0.001 C 
ENDROOT
BRANCH   4  17
ATOM     17  C   UNL     1      31.258  -4.238 -25.432  0.00  0.00    +0.121 C 
ATOM     18  C   UNL     1      30.615  -2.883 -25.070  0.00  0.00    +0.016 C 
BRANCH  17  20
ATOM     19  O   UNL     1      32.732  -4.707 -27.322  0.00  0.00    -0.250 OA
ATOM     20  C   UNL     1      32.425  -3.974 -26.389  0.00  0.00    +0.317 C 
BRANCH  20  21
ATOM     21  O   UNL     1      33.108  -2.836 -26.098  0.00  0.00    -0.480 OA
ATOM     22  H   UNL     1      33.809  -2.856 -25.476  0.00  0.00    +0.295 HD
ENDBRANCH  20  21
ENDBRANCH  17  20
ENDBRANCH   4  17
TORSDOF 3
ENDMDL
MODEL 6
REMARK VINA RESULT:      -8.0      4.299      8.074
REMARK  Name = 5720
REMARK  3 active torsions:
REMARK  status: ('A' for Active; 'I' for Inactive)
REMARK    1  A    between atoms: C_4  and  C_17
REMARK    2  A    between atoms: C_17  and  C_20
REMARK    3  A    between atoms: C_20  and  O_21
REMARK                            x       y       z     vdW  Elec       q    Type
REMARK                         _______ _______ _______ _____ _____    ______ ____
ROOT
ATOM      1  S   UNL     1      33.589 -11.994 -22.985  0.00  0.00    -0.087 S 
ATOM      2  O   UNL     1      35.939 -10.376 -26.525  0.00  0.00    -0.291 OA
ATOM      3  C   UNL     1      33.874  -9.363 -23.790  0.00  0.00    -0.009 C 
ATOM      4  C   UNL     1      32.200  -7.653 -23.374  0.00  0.00    -0.012 C 
ATOM      5  C   UNL     1      35.208  -9.767 -24.358  0.00  0.00    +0.096 C 
ATOM      6  C   UNL     1      33.071 -10.293 -23.113  0.00  0.00    +0.026 C 
ATOM      7  C   UNL     1      33.423  -8.042 -23.921  0.00  0.00    -0.007 C 
ATOM      8  C   UNL     1      31.416  -8.577 -22.690  0.00  0.00    -0.003 C 
ATOM      9  C   UNL     1      35.147 -10.614 -25.609  0.00  0.00    +0.178 C 
ATOM     10  C   UNL     1      31.848  -9.896 -22.559  0.00  0.00    +0.006 C 
ATOM     11  C   UNL     1      34.204 -11.773 -25.763  0.00  0.00    +0.041 C 
ATOM     12  C   UNL     1      33.524 -12.431 -24.720  0.00  0.00    +0.032 C 
ATOM     13  C   UNL     1      34.030 -12.236 -27.082  0.00  0.00    +0.003 C 
ATOM     14  C   UNL     1      32.704 -13.536 -25.024  0.00  0.00    +0.007 C 
ATOM     15  C   UNL     1      33.208 -13.328 -27.366  0.00  0.00    +0.000 C 
ATOM     16  C   UNL     1      32.548 -13.981 -26.335  0.00  0.00    +0.001 C 
ENDROOT
BRANCH   4  17
ATOM     17  C   UNL     1      31.735  -6.243 -23.519  0.00  0.00    +0.121 C 
ATOM     18  C   UNL     1      30.699  -6.037 -24.642  0.00  0.00    +0.016 C 
BRANCH  17  20
ATOM     19  O   UNL     1      29.984  -5.336 -22.078  0.00  0.00    -0.250 OA
ATOM     20  C   UNL     1      31.153  -5.674 -22.220  0.00  0.00    +0.317 C 
BRANCH  20  21
ATOM     21  O   UNL     1      32.072  -5.565 -21.225  0.00  0.00    -0.480 OA
ATOM     22  H   UNL     1      32.562  -6.317 -20.956  0.00  0.00    +0.295 HD
ENDBRANCH  20  21
ENDBRANCH  17  20
ENDBRANCH   4  17
TORSDOF 3
ENDMDL
MODEL 7
REMARK VINA RESULT:      -7.7      3.816      6.064
REMARK  Name = 5720
REMARK  3 active torsions:
REMARK  status: ('A' for Active; 'I' for Inactive)
REMARK    1  A    between atoms: C_4  and  C_17
REMARK    2  A    between atoms: C_17  and  C_20
REMARK    3  A    between atoms: C_20  and  O_21
REMARK                            x       y       z     vdW  Elec       q    Type
REMARK                         _______ _______ _______ _____ _____    ______ ____
ROOT
ATOM      1  S   UNL     1      34.922  -7.658 -23.668  0.00  0.00    -0.087 S 
ATOM      2  O   UNL     1      30.730  -8.562 -22.159  0.00  0.00    -0.291 OA
ATOM      3  C   UNL     1      33.602 -10.087 -23.640  0.00  0.00    -0.009 C 
ATOM      4  C   UNL     1      34.035 -11.859 -25.245  0.00  0.00    -0.012 C 
ATOM      5  C   UNL     1      32.851  -9.574 -22.441  0.00  0.00    +0.096 C 
ATOM      6  C   UNL     1      34.593  -9.308 -24.255  0.00  0.00    +0.026 C 
ATOM      7  C   UNL     1      33.326 -11.364 -24.151  0.00  0.00    -0.007 C 
ATOM      8  C   UNL     1      35.028 -11.086 -25.840  0.00  0.00    -0.003 C 
ATOM      9  C   UNL     1      31.820  -8.507 -22.734  0.00  0.00    +0.178 C 
ATOM     10  C   UNL     1      35.308  -9.812 -25.349  0.00  0.00    +0.006 C 
ATOM     11  C   UNL     1      32.086  -7.347 -23.651  0.00  0.00    +0.041 C 
ATOM     12  C   UNL     1      33.352  -6.902 -24.078  0.00  0.00    +0.032 C 
ATOM     13  C   UNL     1      30.942  -6.645 -24.081  0.00  0.00    +0.003 C 
ATOM     14  C   UNL     1      33.438  -5.766 -24.907  0.00  0.00    +0.007 C 
ATOM     15  C   UNL     1      31.046  -5.526 -24.908  0.00  0.00    +0.000 C 
ATOM     16  C   UNL     1      32.295  -5.084 -25.319  0.00  0.00    +0.001 C 
ENDROOT
BRANCH   4  17
ATOM     17  C   UNL     1      33.732 -13.220 -25.775  0.00  0.00    +0.121 C 
ATOM     18  C   UNL     1      32.621 -13.960 -25.003  0.00  0.00    +0.016 C 
BRANCH  17  20
ATOM     19  O   UNL     1      32.226 -13.002 -27.686  0.00  0.00    -0.250 OA
ATOM     20  C   UNL     1      33.357 -13.209 -27.261  0.00  0.00    +0.317 C 
BRANCH  20  21
ATOM     21  O   UNL     1      34.411 -13.464 -28.081  0.00  0.00    -0.480 OA
ATOM     22  H   UNL     1      34.632 -14.348 -28.298  0.00  0.00    +0.295 HD
ENDBRANCH  20  21
ENDBRANCH  17  20
ENDBRANCH   4  17
TORSDOF 3
ENDMDL
MODEL 8
REMARK VINA RESULT:      -7.6     12.656     14.643
REMARK  Name = 5720
REMARK  3 active torsions:
REMARK  status: ('A' for Active; 'I' for Inactive)
REMARK    1  A    between atoms: C_4  and  C_17
REMARK    2  A    between atoms: C_17  and  C_20
REMARK    3  A    between atoms: C_20  and  O_21
REMARK                            x       y       z     vdW  Elec       q    Type
REMARK                         _______ _______ _______ _____ _____    ______ ____
ROOT
ATOM      1  S   UNL     1      35.100 -23.772 -12.358  0.00  0.00    -0.087 S 
ATOM      2  O   UNL     1      36.687 -23.032 -16.553  0.00  0.00    -0.291 OA
ATOM      3  C   UNL     1      33.662 -23.282 -14.669  0.00  0.00    -0.009 C 
ATOM      4  C   UNL     1      31.409 -24.113 -15.039  0.00  0.00    -0.012 C 
ATOM      5  C   UNL     1      34.856 -22.503 -15.151  0.00  0.00    +0.096 C 
ATOM      6  C   UNL     1      33.654 -23.871 -13.396  0.00  0.00    +0.026 C 
ATOM      7  C   UNL     1      32.531 -23.416 -15.488  0.00  0.00    -0.007 C 
ATOM      8  C   UNL     1      31.403 -24.681 -13.768  0.00  0.00    -0.003 C 
ATOM      9  C   UNL     1      36.056 -23.337 -15.538  0.00  0.00    +0.178 C 
ATOM     10  C   UNL     1      32.523 -24.564 -12.947  0.00  0.00    +0.006 C 
ATOM     11  C   UNL     1      36.551 -24.487 -14.708  0.00  0.00    +0.041 C 
ATOM     12  C   UNL     1      36.225 -24.738 -13.361  0.00  0.00    +0.032 C 
ATOM     13  C   UNL     1      37.446 -25.359 -15.360  0.00  0.00    +0.003 C 
ATOM     14  C   UNL     1      36.810 -25.839 -12.705  0.00  0.00    +0.007 C 
ATOM     15  C   UNL     1      38.010 -26.449 -14.697  0.00  0.00    +0.000 C 
ATOM     16  C   UNL     1      37.695 -26.687 -13.368  0.00  0.00    +0.001 C 
ENDROOT
BRANCH   4  17
ATOM     17  C   UNL     1      30.212 -24.244 -15.920  0.00  0.00    +0.121 C 
ATOM     18  C   UNL     1      29.166 -25.255 -15.409  0.00  0.00    +0.016 C 
BRANCH  17  20
ATOM     19  O   UNL     1      29.279 -22.438 -17.273  0.00  0.00    -0.250 OA
ATOM     20  C   UNL     1      29.506 -22.906 -16.165  0.00  0.00    +0.317 C 
BRANCH  20  21
ATOM     21  O   UNL     1      29.155 -22.269 -15.016  0.00  0.00    -0.480 OA
ATOM     22  H   UNL     1      28.365 -22.506 -14.572  0.00  0.00    +0.295 HD
ENDBRANCH  20  21
ENDBRANCH  17  20
ENDBRANCH   4  17
TORSDOF 3
ENDMDL
MODEL 9
REMARK VINA RESULT:      -7.5      5.007      9.590
REMARK  Name = 5720
REMARK  3 active torsions:
REMARK  status: ('A' for Active; 'I' for Inactive)
REMARK    1  A    between atoms: C_4  and  C_17
REMARK    2  A    between atoms: C_17  and  C_20
REMARK    3  A    between atoms: C_20  and  O_21
REMARK                            x       y       z     vdW  Elec       q    Type
REMARK                         _______ _______ _______ _____ _____    ______ ____
ROOT
ATOM      1  S   UNL     1      36.575 -21.712 -20.288  0.00  0.00    -0.087 S 
ATOM      2  O   UNL     1      32.471 -22.463 -18.482  0.00  0.00    -0.291 OA
ATOM      3  C   UNL     1      34.262 -20.235 -20.626  0.00  0.00    -0.009 C 
ATOM      4  C   UNL     1      34.259 -17.853 -21.104  0.00  0.00    -0.012 C 
ATOM      5  C   UNL     1      33.506 -21.515 -20.387  0.00  0.00    +0.096 C 
ATOM      6  C   UNL     1      35.665 -20.220 -20.638  0.00  0.00    +0.026 C 
ATOM      7  C   UNL     1      33.567 -19.038 -20.855  0.00  0.00    -0.007 C 
ATOM      8  C   UNL     1      35.651 -17.850 -21.129  0.00  0.00    -0.003 C 
ATOM      9  C   UNL     1      33.516 -22.012 -18.960  0.00  0.00    +0.178 C 
ATOM     10  C   UNL     1      36.355 -19.030 -20.895  0.00  0.00    +0.006 C 
ATOM     11  C   UNL     1      34.757 -22.037 -18.114  0.00  0.00    +0.041 C 
ATOM     12  C   UNL     1      36.082 -21.942 -18.583  0.00  0.00    +0.032 C 
ATOM     13  C   UNL     1      34.539 -22.201 -16.731  0.00  0.00    +0.003 C 
ATOM     14  C   UNL     1      37.144 -22.027 -17.663  0.00  0.00    +0.007 C 
ATOM     15  C   UNL     1      35.605 -22.275 -15.833  0.00  0.00    +0.000 C 
ATOM     16  C   UNL     1      36.908 -22.192 -16.299  0.00  0.00    +0.001 C 
ENDROOT
BRANCH   4  17
ATOM     17  C   UNL     1      33.506 -16.589 -21.348  0.00  0.00    +0.121 C 
ATOM     18  C   UNL     1      32.288 -16.396 -20.423  0.00  0.00    +0.016 C 
BRANCH  17  20
ATOM     19  O   UNL     1      34.873 -14.924 -20.195  0.00  0.00    -0.250 OA
ATOM     20  C   UNL     1      34.390 -15.341 -21.241  0.00  0.00    +0.317 C 
BRANCH  20  21
ATOM     21  O   UNL     1      34.585 -14.721 -22.435  0.00  0.00    -0.480 OA
ATOM     22  H   UNL     1      34.190 -13.888 -22.600  0.00  0.00    +0.295 HD
ENDBRANCH  20  21
ENDBRANCH  17  20
ENDBRANCH   4  17
TORSDOF 3
ENDMDL
