MODEL 1
REMARK VINA RESULT:     -11.3      0.000      0.000
REMARK  Name = 24886843
REMARK  5 active torsions:
REMARK  status: ('A' for Active; 'I' for Inactive)
REMARK    1  A    between atoms: C_3  and  C_19
REMARK    2  A    between atoms: C_6  and  O_9
REMARK    3  A    between atoms: O_9  and  C_11
REMARK    4  A    between atoms: C_14  and  C_18
REMARK    5  A    between atoms: C_19  and  C_24
REMARK                            x       y       z     vdW  Elec       q    Type
REMARK                         _______ _______ _______ _____ _____    ______ ____
ROOT
ATOM      1 BR   UNL     1      31.855 -12.387 -20.332  0.00  0.00    -0.046 Br
ATOM      2  F   UNL     1      33.502 -15.183 -24.450  0.00  0.00    -0.201 F 
ATOM      3  C   UNL     1      34.087 -16.004 -22.304  0.00  0.00    +0.014 C 
ATOM      4  C   UNL     1      33.462 -15.057 -23.115  0.00  0.00    +0.171 C 
ATOM      5  C   UNL     1      34.044 -15.870 -20.916  0.00  0.00    -0.001 C 
ATOM      6  C   UNL     1      32.795 -13.976 -22.539  0.00  0.00    +0.178 C 
ATOM      7  C   UNL     1      33.376 -14.789 -20.340  0.00  0.00    +0.010 C 
ATOM      8  C   UNL     1      32.752 -13.842 -21.151  0.00  0.00    +0.071 C 
ENDROOT
BRANCH   6   9
ATOM      9  O   UNL     1      32.195 -13.066 -23.358  0.00  0.00    -0.451 OA
BRANCH   9  11
ATOM     10 CL   UNL     1      35.730 -10.574 -26.074  0.00  0.00    -0.082 Cl
ATOM     11  C   UNL     1      32.867 -11.882 -23.605  0.00  0.00    +0.147 C 
ATOM     12  C   UNL     1      32.568 -10.741 -22.861  0.00  0.00    +0.048 C 
ATOM     13  C   UNL     1      33.845 -11.831 -24.598  0.00  0.00    +0.049 C 
ATOM     14  C   UNL     1      33.246  -9.548 -23.110  0.00  0.00    +0.072 C 
ATOM     15  C   UNL     1      34.523 -10.638 -24.848  0.00  0.00    +0.061 C 
ATOM     16  C   UNL     1      34.224  -9.497 -24.103  0.00  0.00    +0.022 C 
BRANCH  14  18
ATOM     17  N   UNL     1      32.688  -7.431 -21.728  0.00  0.00    -0.191 NA
ATOM     18  C   UNL     1      32.939  -8.380 -22.347  0.00  0.00    +0.101 C 
ENDBRANCH  14  18
ENDBRANCH   9  11
ENDBRANCH   6   9
BRANCH   3  19
ATOM     19  C   UNL     1      34.816 -17.185 -22.930  0.00  0.00    +0.072 C 
BRANCH  19  24
ATOM     20  N   UNL     1      36.589 -18.336 -21.622  0.00  0.00    -0.231 N 
ATOM     21  N   UNL     1      36.836 -19.317 -20.728  0.00  0.00    -0.126 NA
ATOM     22  N   UNL     1      35.294 -20.858 -19.664  0.00  0.00    -0.103 NA
ATOM     23  N   UNL     1      33.964 -21.153 -19.640  0.00  0.00    -0.107 NA
ATOM     24  C   UNL     1      35.271 -18.203 -21.967  0.00  0.00    +0.057 C 
ATOM     25  C   UNL     1      34.621 -19.168 -21.245  0.00  0.00    +0.078 C 
ATOM     26  C   UNL     1      35.627 -19.834 -20.493  0.00  0.00    +0.072 C 
ATOM     27  C   UNL     1      33.267 -19.419 -21.265  0.00  0.00    +0.031 C 
ATOM     28  C   UNL     1      33.029 -20.473 -20.393  0.00  0.00    +0.110 C 
ATOM     29  H   UNL     1      37.297 -17.763 -21.994  0.00  0.00    +0.175 HD
ENDBRANCH  19  24
ENDBRANCH   3  19
TORSDOF 5
ENDMDL
MODEL 2
REMARK VINA RESULT:     -11.1      1.945      2.554
REMARK  Name = 24886843
REMARK  5 active torsions:
REMARK  status: ('A' for Active; 'I' for Inactive)
REMARK    1  A    between atoms: C_3  and  C_19
REMARK    2  A    between atoms: C_6  and  O_9
REMARK    3  A    between atoms: O_9  and  C_11
REMARK    4  A    between atoms: C_14  and  C_18
REMARK    5  A    between atoms: C_19  and  C_24
REMARK                            x       y       z     vdW  Elec       q    Type
REMARK                         _______ _______ _______ _____ _____    ______ ____
ROOT
ATOM      1 BR   UNL     1      32.707 -14.534 -26.626  0.00  0.00    -0.046 Br
ATOM      2  F   UNL     1      33.497 -14.899 -21.455  0.00  0.00    -0.201 F 
ATOM      3  C   UNL     1      34.681 -16.432 -22.823  0.00  0.00    +0.014 C 
ATOM      4  C   UNL     1      33.787 -15.371 -22.677  0.00  0.00    +0.171 C 
ATOM      5  C   UNL     1      34.981 -16.919 -24.095  0.00  0.00    -0.001 C 
ATOM      6  C   UNL     1      33.193 -14.798 -23.802  0.00  0.00    +0.178 C 
ATOM      7  C   UNL     1      34.387 -16.347 -25.220  0.00  0.00    +0.010 C 
ATOM      8  C   UNL     1      33.493 -15.286 -25.074  0.00  0.00    +0.071 C 
ENDROOT
BRANCH   6   9
ATOM      9  O   UNL     1      32.323 -13.763 -23.627  0.00  0.00    -0.451 OA
BRANCH   9  11
ATOM     10 CL   UNL     1      35.548 -10.470 -25.825  0.00  0.00    -0.082 Cl
ATOM     11  C   UNL     1      32.834 -12.479 -23.680  0.00  0.00    +0.147 C 
ATOM     12  C   UNL     1      32.368 -11.504 -22.798  0.00  0.00    +0.048 C 
ATOM     13  C   UNL     1      33.818 -12.159 -24.616  0.00  0.00    +0.049 C 
ATOM     14  C   UNL     1      32.884 -10.209 -22.853  0.00  0.00    +0.072 C 
ATOM     15  C   UNL     1      34.334 -10.865 -24.671  0.00  0.00    +0.061 C 
ATOM     16  C   UNL     1      33.867  -9.890 -23.789  0.00  0.00    +0.022 C 
BRANCH  14  18
ATOM     17  N   UNL     1      32.015  -8.401 -21.216  0.00  0.00    -0.191 NA
ATOM     18  C   UNL     1      32.404  -9.212 -21.949  0.00  0.00    +0.101 C 
ENDBRANCH  14  18
ENDBRANCH   9  11
ENDBRANCH   6   9
BRANCH   3  19
ATOM     19  C   UNL     1      35.330 -17.059 -21.597  0.00  0.00    +0.072 C 
BRANCH  19  24
ATOM     20  N   UNL     1      33.328 -18.452 -21.123  0.00  0.00    -0.231 N 
ATOM     21  N   UNL     1      32.903 -19.649 -20.667  0.00  0.00    -0.126 NA
ATOM     22  N   UNL     1      34.193 -21.543 -19.871  0.00  0.00    -0.103 NA
ATOM     23  N   UNL     1      35.489 -21.915 -19.677  0.00  0.00    -0.107 NA
ATOM     24  C   UNL     1      34.689 -18.300 -21.133  0.00  0.00    +0.057 C 
ATOM     25  C   UNL     1      35.176 -19.484 -20.647  0.00  0.00    +0.078 C 
ATOM     26  C   UNL     1      34.038 -20.289 -20.372  0.00  0.00    +0.072 C 
ATOM     27  C   UNL     1      36.505 -19.800 -20.473  0.00  0.00    +0.031 C 
ATOM     28  C   UNL     1      36.559 -21.091 -19.962  0.00  0.00    +0.110 C 
ATOM     29  H   UNL     1      32.711 -17.746 -21.424  0.00  0.00    +0.175 HD
ENDBRANCH  19  24
ENDBRANCH   3  19
TORSDOF 5
ENDMDL
MODEL 3
REMARK VINA RESULT:     -11.0      2.561      3.271
REMARK  Name = 24886843
REMARK  5 active torsions:
REMARK  status: ('A' for Active; 'I' for Inactive)
REMARK    1  A    between atoms: C_3  and  C_19
REMARK    2  A    between atoms: C_6  and  O_9
REMARK    3  A    between atoms: O_9  and  C_11
REMARK    4  A    between atoms: C_14  and  C_18
REMARK    5  A    between atoms: C_19  and  C_24
REMARK                            x       y       z     vdW  Elec       q    Type
REMARK                         _______ _______ _______ _____ _____    ______ ____
ROOT
ATOM      1 BR   UNL     1      32.758 -14.540 -26.383  0.00  0.00    -0.046 Br
ATOM      2  F   UNL     1      33.482 -15.307 -21.247  0.00  0.00    -0.201 F 
ATOM      3  C   UNL     1      34.767 -16.654 -22.715  0.00  0.00    +0.014 C 
ATOM      4  C   UNL     1      33.816 -15.656 -22.497  0.00  0.00    +0.171 C 
ATOM      5  C   UNL     1      35.113 -17.015 -24.017  0.00  0.00    -0.001 C 
ATOM      6  C   UNL     1      33.212 -15.021 -23.582  0.00  0.00    +0.178 C 
ATOM      7  C   UNL     1      34.508 -16.379 -25.102  0.00  0.00    +0.010 C 
ATOM      8  C   UNL     1      33.558 -15.381 -24.884  0.00  0.00    +0.071 C 
ENDROOT
BRANCH   6   9
ATOM      9  O   UNL     1      32.285 -14.050 -23.338  0.00  0.00    -0.451 OA
BRANCH   9  11
ATOM     10 CL   UNL     1      31.948  -9.296 -21.503  0.00  0.00    -0.082 Cl
ATOM     11  C   UNL     1      32.703 -12.733 -23.406  0.00  0.00    +0.147 C 
ATOM     12  C   UNL     1      33.647 -12.347 -24.357  0.00  0.00    +0.048 C 
ATOM     13  C   UNL     1      32.176 -11.789 -22.524  0.00  0.00    +0.049 C 
ATOM     14  C   UNL     1      34.067 -11.019 -24.426  0.00  0.00    +0.072 C 
ATOM     15  C   UNL     1      32.596 -10.461 -22.592  0.00  0.00    +0.061 C 
ATOM     16  C   UNL     1      33.541 -10.076 -23.543  0.00  0.00    +0.022 C 
BRANCH  14  18
ATOM     17  N   UNL     1      35.821 -10.308 -26.192  0.00  0.00    -0.191 NA
ATOM     18  C   UNL     1      35.035 -10.627 -25.400  0.00  0.00    +0.101 C 
ENDBRANCH  14  18
ENDBRANCH   9  11
ENDBRANCH   6   9
BRANCH   3  19
ATOM     19  C   UNL     1      35.428 -17.350 -21.533  0.00  0.00    +0.072 C 
BRANCH  19  24
ATOM     20  N   UNL     1      33.366 -18.671 -21.113  0.00  0.00    -0.231 N 
ATOM     21  N   UNL     1      32.885 -19.842 -20.646  0.00  0.00    -0.126 NA
ATOM     22  N   UNL     1      34.081 -21.751 -19.746  0.00  0.00    -0.103 NA
ATOM     23  N   UNL     1      35.356 -22.156 -19.485  0.00  0.00    -0.107 NA
ATOM     24  C   UNL     1      34.729 -18.559 -21.066  0.00  0.00    +0.057 C 
ATOM     25  C   UNL     1      35.159 -19.743 -20.530  0.00  0.00    +0.078 C 
ATOM     26  C   UNL     1      33.986 -20.508 -20.284  0.00  0.00    +0.072 C 
ATOM     27  C   UNL     1      36.469 -20.094 -20.289  0.00  0.00    +0.031 C 
ATOM     28  C   UNL     1      36.461 -21.371 -19.744  0.00  0.00    +0.110 C 
ATOM     29  H   UNL     1      32.785 -17.956 -21.459  0.00  0.00    +0.175 HD
ENDBRANCH  19  24
ENDBRANCH   3  19
TORSDOF 5
ENDMDL
MODEL 4
REMARK VINA RESULT:     -10.8      1.711      2.103
REMARK  Name = 24886843
REMARK  5 active torsions:
REMARK  status: ('A' for Active; 'I' for Inactive)
REMARK    1  A    between atoms: C_3  and  C_19
REMARK    2  A    between atoms: C_6  and  O_9
REMARK    3  A    between atoms: O_9  and  C_11
REMARK    4  A    between atoms: C_14  and  C_18
REMARK    5  A    between atoms: C_19  and  C_24
REMARK                            x       y       z     vdW  Elec       q    Type
REMARK                         _______ _______ _______ _____ _____    ______ ____
ROOT
ATOM      1 BR   UNL     1      31.939 -12.662 -20.273  0.00  0.00    -0.046 Br
ATOM      2  F   UNL     1      33.693 -15.541 -24.288  0.00  0.00    -0.201 F 
ATOM      3  C   UNL     1      34.403 -16.193 -22.122  0.00  0.00    +0.014 C 
ATOM      4  C   UNL     1      33.681 -15.345 -22.962  0.00  0.00    +0.171 C 
ATOM      5  C   UNL     1      34.387 -15.986 -20.743  0.00  0.00    -0.001 C 
ATOM      6  C   UNL     1      32.944 -14.290 -22.422  0.00  0.00    +0.178 C 
ATOM      7  C   UNL     1      33.650 -14.932 -20.203  0.00  0.00    +0.010 C 
ATOM      8  C   UNL     1      32.928 -14.084 -21.043  0.00  0.00    +0.071 C 
ENDROOT
BRANCH   6   9
ATOM      9  O   UNL     1      32.249 -13.478 -23.269  0.00  0.00    -0.451 OA
BRANCH   9  11
ATOM     10 CL   UNL     1      32.239  -8.517 -22.055  0.00  0.00    -0.082 Cl
ATOM     11  C   UNL     1      32.754 -12.211 -23.502  0.00  0.00    +0.147 C 
ATOM     12  C   UNL     1      33.719 -12.015 -24.489  0.00  0.00    +0.048 C 
ATOM     13  C   UNL     1      32.295 -11.129 -22.749  0.00  0.00    +0.049 C 
ATOM     14  C   UNL     1      34.227 -10.737 -24.723  0.00  0.00    +0.072 C 
ATOM     15  C   UNL     1      32.803  -9.852 -22.984  0.00  0.00    +0.061 C 
ATOM     16  C   UNL     1      33.769  -9.656 -23.971  0.00  0.00    +0.022 C 
BRANCH  14  18
ATOM     17  N   UNL     1      36.020 -10.375 -26.556  0.00  0.00    -0.191 NA
ATOM     18  C   UNL     1      35.217 -10.538 -25.734  0.00  0.00    +0.101 C 
ENDBRANCH  14  18
ENDBRANCH   9  11
ENDBRANCH   6   9
BRANCH   3  19
ATOM     19  C   UNL     1      35.208 -17.345 -22.708  0.00  0.00    +0.072 C 
BRANCH  19  24
ATOM     20  N   UNL     1      36.761 -18.710 -21.329  0.00  0.00    -0.231 N 
ATOM     21  N   UNL     1      36.848 -19.742 -20.464  0.00  0.00    -0.126 NA
ATOM     22  N   UNL     1      35.092 -21.164 -19.580  0.00  0.00    -0.103 NA
ATOM     23  N   UNL     1      33.742 -21.329 -19.662  0.00  0.00    -0.107 NA
ATOM     24  C   UNL     1      35.491 -18.437 -21.761  0.00  0.00    +0.057 C 
ATOM     25  C   UNL     1      34.702 -19.360 -21.129  0.00  0.00    +0.078 C 
ATOM     26  C   UNL     1      35.581 -20.147 -20.338  0.00  0.00    +0.072 C 
ATOM     27  C   UNL     1      33.335 -19.476 -21.256  0.00  0.00    +0.031 C 
ATOM     28  C   UNL     1      32.934 -20.534 -20.449  0.00  0.00    +0.110 C 
ATOM     29  H   UNL     1      37.546 -18.195 -21.626  0.00  0.00    +0.175 HD
ENDBRANCH  19  24
ENDBRANCH   3  19
TORSDOF 5
ENDMDL
MODEL 5
REMARK VINA RESULT:     -10.7      2.918      3.962
REMARK  Name = 24886843
REMARK  5 active torsions:
REMARK  status: ('A' for Active; 'I' for Inactive)
REMARK    1  A    between atoms: C_3  and  C_19
REMARK    2  A    between atoms: C_6  and  O_9
REMARK    3  A    between atoms: O_9  and  C_11
REMARK    4  A    between atoms: C_14  and  C_18
REMARK    5  A    between atoms: C_19  and  C_24
REMARK                            x       y       z     vdW  Elec       q    Type
REMARK                         _______ _______ _______ _____ _____    ______ ____
ROOT
ATOM      1 BR   UNL     1      33.268 -15.275 -26.417  0.00  0.00    -0.046 Br
ATOM      2  F   UNL     1      35.768 -16.259 -21.914  0.00  0.00    -0.201 F 
ATOM      3  C   UNL     1      35.142 -18.139 -23.216  0.00  0.00    +0.014 C 
ATOM      4  C   UNL     1      35.190 -16.759 -23.016  0.00  0.00    +0.171 C 
ATOM      5  C   UNL     1      34.541 -18.656 -24.364  0.00  0.00    -0.001 C 
ATOM      6  C   UNL     1      34.634 -15.897 -23.962  0.00  0.00    +0.178 C 
ATOM      7  C   UNL     1      33.986 -17.794 -25.310  0.00  0.00    +0.010 C 
ATOM      8  C   UNL     1      34.033 -16.414 -25.109  0.00  0.00    +0.071 C 
ENDROOT
BRANCH   6   9
ATOM      9  O   UNL     1      34.695 -14.553 -23.737  0.00  0.00    -0.451 OA
BRANCH   9  11
ATOM     10 CL   UNL     1      32.019 -15.058 -19.418  0.00  0.00    -0.082 Cl
ATOM     11  C   UNL     1      33.784 -14.009 -22.851  0.00  0.00    +0.147 C 
ATOM     12  C   UNL     1      33.243 -12.746 -23.092  0.00  0.00    +0.048 C 
ATOM     13  C   UNL     1      33.405 -14.724 -21.714  0.00  0.00    +0.049 C 
ATOM     14  C   UNL     1      32.324 -12.198 -22.198  0.00  0.00    +0.072 C 
ATOM     15  C   UNL     1      32.486 -14.176 -20.820  0.00  0.00    +0.061 C 
ATOM     16  C   UNL     1      31.946 -12.913 -21.062  0.00  0.00    +0.022 C 
BRANCH  14  18
ATOM     17  N   UNL     1      31.323  -9.853 -22.648  0.00  0.00    -0.191 NA
ATOM     18  C   UNL     1      31.771 -10.904 -22.446  0.00  0.00    +0.101 C 
ENDBRANCH  14  18
ENDBRANCH   9  11
ENDBRANCH   6   9
BRANCH   3  19
ATOM     19  C   UNL     1      35.747 -19.082 -22.186  0.00  0.00    +0.072 C 
BRANCH  19  24
ATOM     20  N   UNL     1      33.413 -19.636 -21.537  0.00  0.00    -0.231 N 
ATOM     21  N   UNL     1      32.647 -20.358 -20.692  0.00  0.00    -0.126 NA
ATOM     22  N   UNL     1      33.315 -21.873 -18.918  0.00  0.00    -0.103 NA
ATOM     23  N   UNL     1      34.444 -22.369 -18.339  0.00  0.00    -0.107 NA
ATOM     24  C   UNL     1      34.761 -19.793 -21.354  0.00  0.00    +0.057 C 
ATOM     25  C   UNL     1      34.872 -20.679 -20.317  0.00  0.00    +0.078 C 
ATOM     26  C   UNL     1      33.542 -21.003 -19.937  0.00  0.00    +0.072 C 
ATOM     27  C   UNL     1      36.050 -21.144 -19.774  0.00  0.00    +0.031 C 
ATOM     28  C   UNL     1      35.715 -22.020 -18.749  0.00  0.00    +0.110 C 
ATOM     29  H   UNL     1      33.034 -19.046 -22.227  0.00  0.00    +0.175 HD
ENDBRANCH  19  24
ENDBRANCH   3  19
TORSDOF 5
ENDMDL
MODEL 6
REMARK VINA RESULT:     -10.5      1.679      2.218
REMARK  Name = 24886843
REMARK  5 active torsions:
REMARK  status: ('A' for Active; 'I' for Inactive)
REMARK    1  A    between atoms: C_3  and  C_19
REMARK    2  A    between atoms: C_6  and  O_9
REMARK    3  A    between atoms: O_9  and  C_11
REMARK    4  A    between atoms: C_14  and  C_18
REMARK    5  A    between atoms: C_19  and  C_24
REMARK                            x       y       z     vdW  Elec       q    Type
REMARK                         _______ _______ _______ _____ _____    ______ ____
ROOT
ATOM      1 BR   UNL     1      31.940 -12.439 -20.503  0.00  0.00    -0.046 Br
ATOM      2  F   UNL     1      33.482 -16.272 -23.730  0.00  0.00    -0.201 F 
ATOM      3  C   UNL     1      34.242 -16.400 -21.488  0.00  0.00    +0.014 C 
ATOM      4  C   UNL     1      33.518 -15.757 -22.493  0.00  0.00    +0.171 C 
ATOM      5  C   UNL     1      34.275 -15.862 -20.202  0.00  0.00    -0.001 C 
ATOM      6  C   UNL     1      32.829 -14.578 -22.211  0.00  0.00    +0.178 C 
ATOM      7  C   UNL     1      33.587 -14.683 -19.919  0.00  0.00    +0.010 C 
ATOM      8  C   UNL     1      32.863 -14.040 -20.924  0.00  0.00    +0.071 C 
ENDROOT
BRANCH   6   9
ATOM      9  O   UNL     1      32.131 -13.972 -23.214  0.00  0.00    -0.451 OA
BRANCH   9  11
ATOM     10 CL   UNL     1      34.040 -13.332 -27.906  0.00  0.00    -0.082 Cl
ATOM     11  C   UNL     1      32.836 -13.172 -24.095  0.00  0.00    +0.147 C 
ATOM     12  C   UNL     1      33.327 -11.936 -23.677  0.00  0.00    +0.048 C 
ATOM     13  C   UNL     1      33.057 -13.605 -25.403  0.00  0.00    +0.049 C 
ATOM     14  C   UNL     1      34.038 -11.131 -24.566  0.00  0.00    +0.072 C 
ATOM     15  C   UNL     1      33.768 -12.799 -26.292  0.00  0.00    +0.061 C 
ATOM     16  C   UNL     1      34.259 -11.563 -25.873  0.00  0.00    +0.022 C 
BRANCH  14  18
ATOM     17  N   UNL     1      34.948  -8.835 -23.788  0.00  0.00    -0.191 NA
ATOM     18  C   UNL     1      34.540  -9.864 -24.136  0.00  0.00    +0.101 C 
ENDBRANCH  14  18
ENDBRANCH   9  11
ENDBRANCH   6   9
BRANCH   3  19
ATOM     19  C   UNL     1      34.994 -17.688 -21.793  0.00  0.00    +0.072 C 
BRANCH  19  24
ATOM     20  N   UNL     1      33.085 -19.129 -21.119  0.00  0.00    -0.231 N 
ATOM     21  N   UNL     1      32.736 -20.274 -20.495  0.00  0.00    -0.126 NA
ATOM     22  N   UNL     1      34.144 -21.945 -19.439  0.00  0.00    -0.103 NA
ATOM     23  N   UNL     1      35.460 -22.199 -19.198  0.00  0.00    -0.107 NA
ATOM     24  C   UNL     1      34.433 -18.890 -21.153  0.00  0.00    +0.057 C 
ATOM     25  C   UNL     1      34.993 -19.957 -20.505  0.00  0.00    +0.078 C 
ATOM     26  C   UNL     1      33.909 -20.789 -20.114  0.00  0.00    +0.072 C 
ATOM     27  C   UNL     1      36.340 -20.156 -20.290  0.00  0.00    +0.031 C 
ATOM     28  C   UNL     1      36.474 -21.355 -19.600  0.00  0.00    +0.110 C 
ATOM     29  H   UNL     1      32.425 -18.516 -21.516  0.00  0.00    +0.175 HD
ENDBRANCH  19  24
ENDBRANCH   3  19
TORSDOF 5
ENDMDL
MODEL 7
REMARK VINA RESULT:     -10.4      4.377     10.153
REMARK  Name = 24886843
REMARK  5 active torsions:
REMARK  status: ('A' for Active; 'I' for Inactive)
REMARK    1  A    between atoms: C_3  and  C_19
REMARK    2  A    between atoms: C_6  and  O_9
REMARK    3  A    between atoms: O_9  and  C_11
REMARK    4  A    between atoms: C_14  and  C_18
REMARK    5  A    between atoms: C_19  and  C_24
REMARK                            x       y       z     vdW  Elec       q    Type
REMARK                         _______ _______ _______ _____ _____    ______ ____
ROOT
ATOM      1 BR   UNL     1      31.115 -10.885 -19.191  0.00  0.00    -0.046 Br
ATOM      2  F   UNL     1      32.512 -10.107 -24.184  0.00  0.00    -0.201 F 
ATOM      3  C   UNL     1      33.133  -8.427 -22.632  0.00  0.00    +0.014 C 
ATOM      4  C   UNL     1      32.521  -9.645 -22.925  0.00  0.00    +0.171 C 
ATOM      5  C   UNL     1      33.142  -7.949 -21.321  0.00  0.00    -0.001 C 
ATOM      6  C   UNL     1      31.917 -10.385 -21.909  0.00  0.00    +0.178 C 
ATOM      7  C   UNL     1      32.538  -8.689 -20.305  0.00  0.00    +0.010 C 
ATOM      8  C   UNL     1      31.925  -9.908 -20.598  0.00  0.00    +0.071 C 
ENDROOT
BRANCH   6   9
ATOM      9  O   UNL     1      31.325 -11.572 -22.227  0.00  0.00    -0.451 OA
BRANCH   9  11
ATOM     10 CL   UNL     1      34.464 -15.127 -20.332  0.00  0.00    -0.082 Cl
ATOM     11  C   UNL     1      32.150 -12.657 -22.465  0.00  0.00    +0.147 C 
ATOM     12  C   UNL     1      32.320 -13.134 -23.764  0.00  0.00    +0.048 C 
ATOM     13  C   UNL     1      32.814 -13.273 -21.403  0.00  0.00    +0.049 C 
ATOM     14  C   UNL     1      33.152 -14.228 -24.003  0.00  0.00    +0.072 C 
ATOM     15  C   UNL     1      33.645 -14.366 -21.642  0.00  0.00    +0.061 C 
ATOM     16  C   UNL     1      33.815 -14.843 -22.942  0.00  0.00    +0.022 C 
BRANCH  14  18
ATOM     17  N   UNL     1      33.463 -15.112 -26.416  0.00  0.00    -0.191 NA
ATOM     18  C   UNL     1      33.324 -14.716 -25.334  0.00  0.00    +0.101 C 
ENDBRANCH  14  18
ENDBRANCH   9  11
ENDBRANCH   6   9
BRANCH   3  19
ATOM     19  C   UNL     1      33.793  -7.617 -23.739  0.00  0.00    +0.072 C 
BRANCH  19  24
ATOM     20  N   UNL     1      31.724  -6.241 -23.771  0.00  0.00    -0.231 N 
ATOM     21  N   UNL     1      31.088  -5.223 -24.388  0.00  0.00    -0.126 NA
ATOM     22  N   UNL     1      31.814  -3.860 -26.260  0.00  0.00    -0.103 NA
ATOM     23  N   UNL     1      32.876  -3.724 -27.101  0.00  0.00    -0.107 NA
ATOM     24  C   UNL     1      32.957  -6.535 -24.287  0.00  0.00    +0.057 C 
ATOM     25  C   UNL     1      33.129  -5.643 -25.311  0.00  0.00    +0.078 C 
ATOM     26  C   UNL     1      31.949  -4.851 -25.339  0.00  0.00    +0.072 C 
ATOM     27  C   UNL     1      34.233  -5.556 -26.131  0.00  0.00    +0.031 C 
ATOM     28  C   UNL     1      33.999  -4.523 -27.030  0.00  0.00    +0.110 C 
ATOM     29  H   UNL     1      31.333  -6.732 -23.012  0.00  0.00    +0.175 HD
ENDBRANCH  19  24
ENDBRANCH   3  19
TORSDOF 5
ENDMDL
MODEL 8
REMARK VINA RESULT:     -10.3      6.224     10.424
REMARK  Name = 24886843
REMARK  5 active torsions:
REMARK  status: ('A' for Active; 'I' for Inactive)
REMARK    1  A    between atoms: C_3  and  C_19
REMARK    2  A    between atoms: C_6  and  O_9
REMARK    3  A    between atoms: O_9  and  C_11
REMARK    4  A    between atoms: C_14  and  C_18
REMARK    5  A    between atoms: C_19  and  C_24
REMARK                            x       y       z     vdW  Elec       q    Type
REMARK                         _______ _______ _______ _____ _____    ______ ____
ROOT
ATOM      1 BR   UNL     1      37.330 -22.391 -16.997  0.00  0.00    -0.046 Br
ATOM      2  F   UNL     1      32.993 -22.363 -19.942  0.00  0.00    -0.201 F 
ATOM      3  C   UNL     1      34.525 -20.588 -20.289  0.00  0.00    +0.014 C 
ATOM      4  C   UNL     1      34.149 -21.759 -19.632  0.00  0.00    +0.171 C 
ATOM      5  C   UNL     1      35.729 -19.963 -19.965  0.00  0.00    -0.001 C 
ATOM      6  C   UNL     1      34.976 -22.304 -18.650  0.00  0.00    +0.178 C 
ATOM      7  C   UNL     1      36.557 -20.508 -18.983  0.00  0.00    +0.010 C 
ATOM      8  C   UNL     1      36.180 -21.680 -18.326  0.00  0.00    +0.071 C 
ENDROOT
BRANCH   6   9
ATOM      9  O   UNL     1      34.581 -23.450 -18.024  0.00  0.00    -0.451 OA
BRANCH   9  11
ATOM     10 CL   UNL     1      33.571 -23.635 -13.021  0.00  0.00    -0.082 Cl
ATOM     11  C   UNL     1      33.647 -23.338 -17.010  0.00  0.00    +0.147 C 
ATOM     12  C   UNL     1      32.318 -23.043 -17.314  0.00  0.00    +0.048 C 
ATOM     13  C   UNL     1      34.035 -23.522 -15.682  0.00  0.00    +0.049 C 
ATOM     14  C   UNL     1      31.377 -22.930 -16.291  0.00  0.00    +0.072 C 
ATOM     15  C   UNL     1      33.093 -23.409 -14.659  0.00  0.00    +0.061 C 
ATOM     16  C   UNL     1      31.764 -23.113 -14.964  0.00  0.00    +0.022 C 
BRANCH  14  18
ATOM     17  N   UNL     1      28.911 -22.381 -16.859  0.00  0.00    -0.191 NA
ATOM     18  C   UNL     1      30.016 -22.627 -16.604  0.00  0.00    +0.101 C 
ENDBRANCH  14  18
ENDBRANCH   9  11
ENDBRANCH   6   9
BRANCH   3  19
ATOM     19  C   UNL     1      33.625 -19.990 -21.362  0.00  0.00    +0.072 C 
BRANCH  19  24
ATOM     20  N   UNL     1      34.926 -19.259 -23.349  0.00  0.00    -0.231 N 
ATOM     21  N   UNL     1      35.455 -18.194 -23.987  0.00  0.00    -0.126 NA
ATOM     22  N   UNL     1      35.403 -15.846 -23.375  0.00  0.00    -0.103 NA
ATOM     23  N   UNL     1      34.918 -15.035 -22.394  0.00  0.00    -0.107 NA
ATOM     24  C   UNL     1      34.265 -18.953 -22.190  0.00  0.00    +0.057 C 
ATOM     25  C   UNL     1      34.377 -17.594 -22.071  0.00  0.00    +0.078 C 
ATOM     26  C   UNL     1      35.121 -17.165 -23.203  0.00  0.00    +0.072 C 
ATOM     27  C   UNL     1      33.862 -16.827 -21.049  0.00  0.00    +0.031 C 
ATOM     28  C   UNL     1      34.201 -15.506 -21.314  0.00  0.00    +0.110 C 
ATOM     29  H   UNL     1      35.007 -20.179 -23.689  0.00  0.00    +0.175 HD
ENDBRANCH  19  24
ENDBRANCH   3  19
TORSDOF 5
ENDMDL
MODEL 9
REMARK VINA RESULT:     -10.3      8.058     12.398
REMARK  Name = 24886843
REMARK  5 active torsions:
REMARK  status: ('A' for Active; 'I' for Inactive)
REMARK    1  A    between atoms: C_3  and  C_19
REMARK    2  A    between atoms: C_6  and  O_9
REMARK    3  A    between atoms: O_9  and  C_11
REMARK    4  A    between atoms: C_14  and  C_18
REMARK    5  A    between atoms: C_19  and  C_24
REMARK                            x       y       z     vdW  Elec       q    Type
REMARK                         _______ _______ _______ _____ _____    ______ ____
ROOT
ATOM      1 BR   UNL     1      31.688 -23.320 -13.490  0.00  0.00    -0.046 Br
ATOM      2  F   UNL     1      35.591 -22.512 -16.896  0.00  0.00    -0.201 F 
ATOM      3  C   UNL     1      33.448 -22.938 -17.815  0.00  0.00    +0.014 C 
ATOM      4  C   UNL     1      34.289 -22.776 -16.714  0.00  0.00    +0.171 C 
ATOM      5  C   UNL     1      32.094 -23.211 -17.624  0.00  0.00    -0.001 C 
ATOM      6  C   UNL     1      33.776 -22.888 -15.422  0.00  0.00    +0.178 C 
ATOM      7  C   UNL     1      31.580 -23.323 -16.331  0.00  0.00    +0.010 C 
ATOM      8  C   UNL     1      32.422 -23.161 -15.230  0.00  0.00    +0.071 C 
ENDROOT
BRANCH   6   9
ATOM      9  O   UNL     1      34.623 -22.725 -14.366  0.00  0.00    -0.451 OA
BRANCH   9  11
ATOM     10 CL   UNL     1      38.724 -24.261 -11.738  0.00  0.00    -0.082 Cl
ATOM     11  C   UNL     1      35.617 -23.670 -14.188  0.00  0.00    +0.147 C 
ATOM     12  C   UNL     1      35.680 -24.784 -15.026  0.00  0.00    +0.048 C 
ATOM     13  C   UNL     1      36.559 -23.508 -13.172  0.00  0.00    +0.049 C 
ATOM     14  C   UNL     1      36.683 -25.736 -14.846  0.00  0.00    +0.072 C 
ATOM     15  C   UNL     1      37.562 -24.460 -12.992  0.00  0.00    +0.061 C 
ATOM     16  C   UNL     1      37.624 -25.574 -13.830  0.00  0.00    +0.022 C 
BRANCH  14  18
ATOM     17  N   UNL     1      36.795 -27.803 -16.401  0.00  0.00    -0.191 NA
ATOM     18  C   UNL     1      36.745 -26.877 -15.704  0.00  0.00    +0.101 C 
ENDBRANCH  14  18
ENDBRANCH   9  11
ENDBRANCH   6   9
BRANCH   3  19
ATOM     19  C   UNL     1      34.005 -22.816 -19.227  0.00  0.00    +0.072 C 
BRANCH  19  24
ATOM     20  N   UNL     1      32.646 -20.935 -20.116  0.00  0.00    -0.231 N 
ATOM     21  N   UNL     1      32.696 -19.701 -20.660  0.00  0.00    -0.126 NA
ATOM     22  N   UNL     1      34.625 -18.328 -21.190  0.00  0.00    -0.103 NA
ATOM     23  N   UNL     1      35.984 -18.365 -21.115  0.00  0.00    -0.107 NA
ATOM     24  C   UNL     1      33.869 -21.477 -19.825  0.00  0.00    +0.057 C 
ATOM     25  C   UNL     1      34.773 -20.524 -20.210  0.00  0.00    +0.078 C 
ATOM     26  C   UNL     1      34.006 -19.443 -20.721  0.00  0.00    +0.072 C 
ATOM     27  C   UNL     1      36.144 -20.623 -20.109  0.00  0.00    +0.031 C 
ATOM     28  C   UNL     1      36.680 -19.444 -20.609  0.00  0.00    +0.110 C 
ATOM     29  H   UNL     1      31.799 -21.407 -19.943  0.00  0.00    +0.175 HD
ENDBRANCH  19  24
ENDBRANCH   3  19
TORSDOF 5
ENDMDL
