MODEL 1
REMARK VINA RESULT:      -9.9      0.000      0.000
REMARK  Name = 9838389
REMARK  6 active torsions:
REMARK  status: ('A' for Active; 'I' for Inactive)
REMARK    1  A    between atoms: C_1  and  C_11
REMARK    2  A    between atoms: C_4  and  N_9
REMARK    3  A    between atoms: C_5  and  O_19
REMARK    4  A    between atoms: C_6  and  O_21
REMARK    5  A    between atoms: C_11  and  C_12
REMARK    6  A    between atoms: C_12  and  C_13
REMARK                            x       y       z     vdW  Elec       q    Type
REMARK                         _______ _______ _______ _____ _____    ______ ____
ROOT
ATOM      1  C   UNL     1      34.589 -16.338 -22.468  0.00  0.00    +0.040 C 
ATOM      2  C   UNL     1      33.984 -15.122 -22.157  0.00  0.00    +0.030 C 
ATOM      3  C   UNL     1      34.630 -16.779 -23.791  0.00  0.00    +0.043 C 
ATOM      4  C   UNL     1      33.420 -14.344 -23.169  0.00  0.00    +0.179 C 
ATOM      5  C   UNL     1      34.066 -16.002 -24.802  0.00  0.00    +0.169 C 
ATOM      6  C   UNL     1      33.461 -14.783 -24.492  0.00  0.00    +0.190 C 
ENDROOT
BRANCH   4   9
ATOM      7  O   UNL     1      33.130 -12.076 -23.471  0.00  0.00    -0.126 OA
ATOM      8  O   UNL     1      31.962 -13.079 -21.906  0.00  0.00    -0.126 OA
ATOM      9  N   UNL     1      32.808 -13.106 -22.832  0.00  0.00    +0.061 N 
ENDBRANCH   4   9
BRANCH   1  11
ATOM     10  O   UNL     1      35.298 -16.697 -20.256  0.00  0.00    -0.291 OA
ATOM     11  C   UNL     1      35.176 -17.150 -21.414  0.00  0.00    +0.178 C 
BRANCH  11  12
ATOM     12  C   UNL     1      35.654 -18.580 -21.721  0.00  0.00    +0.095 C 
BRANCH  12  13
ATOM     13  C   UNL     1      34.968 -19.651 -20.910  0.00  0.00    -0.014 C 
ATOM     14  C   UNL     1      35.735 -20.580 -20.224  0.00  0.00    -0.004 C 
ATOM     15  C   UNL     1      33.583 -19.687 -20.865  0.00  0.00    -0.004 C 
ATOM     16  C   UNL     1      35.101 -21.571 -19.474  0.00  0.00    -0.000 C 
ATOM     17  C   UNL     1      32.949 -20.678 -20.115  0.00  0.00    -0.000 C 
ATOM     18  C   UNL     1      33.708 -21.620 -19.420  0.00  0.00    -0.000 C 
ENDBRANCH  12  13
ENDBRANCH  11  12
ENDBRANCH   1  11
BRANCH   5  19
ATOM     19  O   UNL     1      34.113 -16.444 -26.091  0.00  0.00    -0.503 OA
ATOM     20  H   UNL     1      34.766 -17.065 -26.349  0.00  0.00    +0.292 HD
ENDBRANCH   5  19
BRANCH   6  21
ATOM     21  O   UNL     1      32.912 -14.032 -25.490  0.00  0.00    -0.502 OA
ATOM     22  H   UNL     1      32.012 -14.147 -25.721  0.00  0.00    +0.292 HD
ENDBRANCH   6  21
TORSDOF 6
ENDMDL
MODEL 2
REMARK VINA RESULT:      -9.5      1.413      2.860
REMARK  Name = 9838389
REMARK  6 active torsions:
REMARK  status: ('A' for Active; 'I' for Inactive)
REMARK    1  A    between atoms: C_1  and  C_11
REMARK    2  A    between atoms: C_4  and  N_9
REMARK    3  A    between atoms: C_5  and  O_19
REMARK    4  A    between atoms: C_6  and  O_21
REMARK    5  A    between atoms: C_11  and  C_12
REMARK    6  A    between atoms: C_12  and  C_13
REMARK                            x       y       z     vdW  Elec       q    Type
REMARK                         _______ _______ _______ _____ _____    ______ ____
ROOT
ATOM      1  C   UNL     1      34.683 -16.976 -23.200  0.00  0.00    +0.040 C 
ATOM      2  C   UNL     1      34.279 -16.570 -24.471  0.00  0.00    +0.030 C 
ATOM      3  C   UNL     1      34.418 -16.169 -22.093  0.00  0.00    +0.043 C 
ATOM      4  C   UNL     1      33.610 -15.356 -24.636  0.00  0.00    +0.179 C 
ATOM      5  C   UNL     1      33.751 -14.956 -22.258  0.00  0.00    +0.169 C 
ATOM      6  C   UNL     1      33.345 -14.550 -23.530  0.00  0.00    +0.190 C 
ENDROOT
BRANCH   4   9
ATOM      7  O   UNL     1      32.733 -15.821 -26.718  0.00  0.00    -0.126 OA
ATOM      8  O   UNL     1      33.334 -13.758 -26.275  0.00  0.00    -0.126 OA
ATOM      9  N   UNL     1      33.206 -14.959 -25.940  0.00  0.00    +0.061 N 
ENDBRANCH   4   9
BRANCH   1  11
ATOM     10  O   UNL     1      35.486 -19.043 -23.978  0.00  0.00    -0.291 OA
ATOM     11  C   UNL     1      35.380 -18.240 -23.027  0.00  0.00    +0.178 C 
BRANCH  11  12
ATOM     12  C   UNL     1      35.997 -18.598 -21.663  0.00  0.00    +0.095 C 
BRANCH  12  13
ATOM     13  C   UNL     1      35.234 -19.646 -20.892  0.00  0.00    -0.014 C 
ATOM     14  C   UNL     1      33.848 -19.613 -20.890  0.00  0.00    -0.004 C 
ATOM     15  C   UNL     1      35.932 -20.624 -20.202  0.00  0.00    -0.004 C 
ATOM     16  C   UNL     1      33.142 -20.584 -20.177  0.00  0.00    -0.000 C 
ATOM     17  C   UNL     1      35.226 -21.594 -19.489  0.00  0.00    -0.000 C 
ATOM     18  C   UNL     1      33.831 -21.573 -19.477  0.00  0.00    -0.000 C 
ENDBRANCH  12  13
ENDBRANCH  11  12
ENDBRANCH   1  11
BRANCH   5  19
ATOM     19  O   UNL     1      33.499 -14.177 -21.168  0.00  0.00    -0.503 OA
ATOM     20  H   UNL     1      33.671 -13.257 -21.201  0.00  0.00    +0.292 HD
ENDBRANCH   5  19
BRANCH   6  21
ATOM     21  O   UNL     1      32.693 -13.360 -23.679  0.00  0.00    -0.502 OA
ATOM     22  H   UNL     1      32.836 -12.841 -24.445  0.00  0.00    +0.292 HD
ENDBRANCH   6  21
TORSDOF 6
ENDMDL
MODEL 3
REMARK VINA RESULT:      -9.5      6.639      9.678
REMARK  Name = 9838389
REMARK  6 active torsions:
REMARK  status: ('A' for Active; 'I' for Inactive)
REMARK    1  A    between atoms: C_1  and  C_11
REMARK    2  A    between atoms: C_4  and  N_9
REMARK    3  A    between atoms: C_5  and  O_19
REMARK    4  A    between atoms: C_6  and  O_21
REMARK    5  A    between atoms: C_11  and  C_12
REMARK    6  A    between atoms: C_12  and  C_13
REMARK                            x       y       z     vdW  Elec       q    Type
REMARK                         _______ _______ _______ _____ _____    ______ ____
ROOT
ATOM      1  C   UNL     1      33.331 -23.070 -16.526  0.00  0.00    +0.040 C 
ATOM      2  C   UNL     1      31.989 -23.075 -16.901  0.00  0.00    +0.030 C 
ATOM      3  C   UNL     1      33.682 -23.245 -15.187  0.00  0.00    +0.043 C 
ATOM      4  C   UNL     1      30.995 -23.254 -15.937  0.00  0.00    +0.179 C 
ATOM      5  C   UNL     1      32.690 -23.423 -14.223  0.00  0.00    +0.169 C 
ATOM      6  C   UNL     1      31.346 -23.429 -14.599  0.00  0.00    +0.190 C 
ENDROOT
BRANCH   4   9
ATOM      7  O   UNL     1      29.203 -22.306 -17.035  0.00  0.00    -0.126 OA
ATOM      8  O   UNL     1      28.897 -24.209 -15.986  0.00  0.00    -0.126 OA
ATOM      9  N   UNL     1      29.632 -23.256 -16.338  0.00  0.00    +0.061 N 
ENDBRANCH   4   9
BRANCH   1  11
ATOM     10  O   UNL     1      35.554 -22.696 -17.190  0.00  0.00    -0.291 OA
ATOM     11  C   UNL     1      34.367 -22.883 -17.530  0.00  0.00    +0.178 C 
BRANCH  11  12
ATOM     12  C   UNL     1      34.003 -22.915 -19.024  0.00  0.00    +0.095 C 
BRANCH  12  13
ATOM     13  C   UNL     1      34.114 -21.581 -19.720  0.00  0.00    -0.014 C 
ATOM     14  C   UNL     1      35.367 -21.099 -20.068  0.00  0.00    -0.004 C 
ATOM     15  C   UNL     1      32.963 -20.862 -20.000  0.00  0.00    -0.004 C 
ATOM     16  C   UNL     1      35.470 -19.865 -20.711  0.00  0.00    -0.000 C 
ATOM     17  C   UNL     1      33.066 -19.628 -20.643  0.00  0.00    -0.000 C 
ATOM     18  C   UNL     1      34.320 -19.130 -20.999  0.00  0.00    -0.000 C 
ENDBRANCH  12  13
ENDBRANCH  11  12
ENDBRANCH   1  11
BRANCH   5  19
ATOM     19  O   UNL     1      33.047 -23.593 -12.919  0.00  0.00    -0.503 OA
ATOM     20  H   UNL     1      33.359 -24.425 -12.624  0.00  0.00    +0.292 HD
ENDBRANCH   5  19
BRANCH   6  21
ATOM     21  O   UNL     1      30.384 -23.604 -13.647  0.00  0.00    -0.502 OA
ATOM     22  H   UNL     1      30.614 -23.942 -12.805  0.00  0.00    +0.292 HD
ENDBRANCH   6  21
TORSDOF 6
ENDMDL
MODEL 4
REMARK VINA RESULT:      -9.5      6.534      9.500
REMARK  Name = 9838389
REMARK  6 active torsions:
REMARK  status: ('A' for Active; 'I' for Inactive)
REMARK    1  A    between atoms: C_1  and  C_11
REMARK    2  A    between atoms: C_4  and  N_9
REMARK    3  A    between atoms: C_5  and  O_19
REMARK    4  A    between atoms: C_6  and  O_21
REMARK    5  A    between atoms: C_11  and  C_12
REMARK    6  A    between atoms: C_12  and  C_13
REMARK                            x       y       z     vdW  Elec       q    Type
REMARK                         _______ _______ _______ _____ _____    ______ ____
ROOT
ATOM      1  C   UNL     1      33.287 -23.207 -17.176  0.00  0.00    +0.040 C 
ATOM      2  C   UNL     1      31.897 -23.106 -17.216  0.00  0.00    +0.030 C 
ATOM      3  C   UNL     1      33.942 -23.324 -15.950  0.00  0.00    +0.043 C 
ATOM      4  C   UNL     1      31.161 -23.122 -16.031  0.00  0.00    +0.179 C 
ATOM      5  C   UNL     1      33.207 -23.340 -14.765  0.00  0.00    +0.169 C 
ATOM      6  C   UNL     1      31.816 -23.240 -14.805  0.00  0.00    +0.190 C 
ENDROOT
BRANCH   4   9
ATOM      7  O   UNL     1      29.050 -23.725 -15.324  0.00  0.00    -0.126 OA
ATOM      8  O   UNL     1      29.230 -22.222 -16.913  0.00  0.00    -0.126 OA
ATOM      9  N   UNL     1      29.745 -23.018 -16.093  0.00  0.00    +0.061 N 
ENDBRANCH   4   9
BRANCH   1  11
ATOM     10  O   UNL     1      33.879 -24.069 -19.281  0.00  0.00    -0.291 OA
ATOM     11  C   UNL     1      34.055 -23.189 -18.411  0.00  0.00    +0.178 C 
BRANCH  11  12
ATOM     12  C   UNL     1      35.092 -22.080 -18.655  0.00  0.00    +0.095 C 
BRANCH  12  13
ATOM     13  C   UNL     1      34.685 -21.066 -19.695  0.00  0.00    -0.014 C 
ATOM     14  C   UNL     1      35.663 -20.433 -20.446  0.00  0.00    -0.004 C 
ATOM     15  C   UNL     1      33.340 -20.786 -19.880  0.00  0.00    -0.004 C 
ATOM     16  C   UNL     1      35.286 -19.495 -21.408  0.00  0.00    -0.000 C 
ATOM     17  C   UNL     1      32.963 -19.847 -20.842  0.00  0.00    -0.000 C 
ATOM     18  C   UNL     1      33.937 -19.202 -21.606  0.00  0.00    -0.000 C 
ENDBRANCH  12  13
ENDBRANCH  11  12
ENDBRANCH   1  11
BRANCH   5  19
ATOM     19  O   UNL     1      33.860 -23.455 -13.574  0.00  0.00    -0.503 OA
ATOM     20  H   UNL     1      34.321 -22.720 -13.220  0.00  0.00    +0.292 HD
ENDBRANCH   5  19
BRANCH   6  21
ATOM     21  O   UNL     1      31.107 -23.256 -13.639  0.00  0.00    -0.502 OA
ATOM     22  H   UNL     1      30.669 -24.038 -13.368  0.00  0.00    +0.292 HD
ENDBRANCH   6  21
TORSDOF 6
ENDMDL
MODEL 5
REMARK VINA RESULT:      -9.3     10.237     12.735
REMARK  Name = 9838389
REMARK  6 active torsions:
REMARK  status: ('A' for Active; 'I' for Inactive)
REMARK    1  A    between atoms: C_1  and  C_11
REMARK    2  A    between atoms: C_4  and  N_9
REMARK    3  A    between atoms: C_5  and  O_19
REMARK    4  A    between atoms: C_6  and  O_21
REMARK    5  A    between atoms: C_11  and  C_12
REMARK    6  A    between atoms: C_12  and  C_13
REMARK                            x       y       z     vdW  Elec       q    Type
REMARK                         _______ _______ _______ _____ _____    ______ ____
ROOT
ATOM      1  C   UNL     1      35.308 -24.558 -14.600  0.00  0.00    +0.040 C 
ATOM      2  C   UNL     1      35.262 -24.251 -13.241  0.00  0.00    +0.030 C 
ATOM      3  C   UNL     1      36.224 -25.500 -15.071  0.00  0.00    +0.043 C 
ATOM      4  C   UNL     1      36.132 -24.884 -12.352  0.00  0.00    +0.179 C 
ATOM      5  C   UNL     1      37.094 -26.132 -14.182  0.00  0.00    +0.169 C 
ATOM      6  C   UNL     1      37.047 -25.824 -12.822  0.00  0.00    +0.190 C 
ENDROOT
BRANCH   4   9
ATOM      7  O   UNL     1      35.179 -25.083 -10.261  0.00  0.00    -0.126 OA
ATOM      8  O   UNL     1      36.907 -23.751 -10.498  0.00  0.00    -0.126 OA
ATOM      9  N   UNL     1      36.069 -24.557 -10.970  0.00  0.00    +0.061 N 
ENDBRANCH   4   9
BRANCH   1  11
ATOM     10  O   UNL     1      34.535 -24.050 -16.760  0.00  0.00    -0.291 OA
ATOM     11  C   UNL     1      34.403 -23.899 -15.527  0.00  0.00    +0.178 C 
BRANCH  11  12
ATOM     12  C   UNL     1      33.270 -23.007 -14.991  0.00  0.00    +0.095 C 
BRANCH  12  13
ATOM     13  C   UNL     1      31.892 -23.608 -15.120  0.00  0.00    -0.014 C 
ATOM     14  C   UNL     1      30.984 -23.043 -16.003  0.00  0.00    -0.004 C 
ATOM     15  C   UNL     1      31.559 -24.715 -14.355  0.00  0.00    -0.004 C 
ATOM     16  C   UNL     1      29.710 -23.599 -16.123  0.00  0.00    -0.000 C 
ATOM     17  C   UNL     1      30.285 -25.271 -14.475  0.00  0.00    -0.000 C 
ATOM     18  C   UNL     1      29.361 -24.712 -15.359  0.00  0.00    -0.000 C 
ENDBRANCH  12  13
ENDBRANCH  11  12
ENDBRANCH   1  11
BRANCH   5  19
ATOM     19  O   UNL     1      37.984 -27.049 -14.656  0.00  0.00    -0.503 OA
ATOM     20  H   UNL     1      37.869 -27.413 -15.512  0.00  0.00    +0.292 HD
ENDBRANCH   5  19
BRANCH   6  21
ATOM     21  O   UNL     1      37.903 -26.449 -11.962  0.00  0.00    -0.502 OA
ATOM     22  H   UNL     1      37.764 -27.346 -11.732  0.00  0.00    +0.292 HD
ENDBRANCH   6  21
TORSDOF 6
ENDMDL
MODEL 6
REMARK VINA RESULT:      -9.0      1.323      2.938
REMARK  Name = 9838389
REMARK  6 active torsions:
REMARK  status: ('A' for Active; 'I' for Inactive)
REMARK    1  A    between atoms: C_1  and  C_11
REMARK    2  A    between atoms: C_4  and  N_9
REMARK    3  A    between atoms: C_5  and  O_19
REMARK    4  A    between atoms: C_6  and  O_21
REMARK    5  A    between atoms: C_11  and  C_12
REMARK    6  A    between atoms: C_12  and  C_13
REMARK                            x       y       z     vdW  Elec       q    Type
REMARK                         _______ _______ _______ _____ _____    ______ ____
ROOT
ATOM      1  C   UNL     1      33.911 -15.201 -21.604  0.00  0.00    +0.040 C 
ATOM      2  C   UNL     1      33.982 -14.778 -22.931  0.00  0.00    +0.030 C 
ATOM      3  C   UNL     1      33.166 -14.470 -20.678  0.00  0.00    +0.043 C 
ATOM      4  C   UNL     1      33.307 -13.625 -23.333  0.00  0.00    +0.179 C 
ATOM      5  C   UNL     1      32.492 -13.317 -21.080  0.00  0.00    +0.169 C 
ATOM      6  C   UNL     1      32.561 -12.895 -22.408  0.00  0.00    +0.190 C 
ENDROOT
BRANCH   4   9
ATOM      7  O   UNL     1      33.865 -12.079 -24.951  0.00  0.00    -0.126 OA
ATOM      8  O   UNL     1      32.988 -13.988 -25.588  0.00  0.00    -0.126 OA
ATOM      9  N   UNL     1      33.390 -13.210 -24.690  0.00  0.00    +0.061 N 
ENDBRANCH   4   9
BRANCH   1  11
ATOM     10  O   UNL     1      35.291 -16.408 -20.134  0.00  0.00    -0.291 OA
ATOM     11  C   UNL     1      34.615 -16.402 -21.184  0.00  0.00    +0.178 C 
BRANCH  11  12
ATOM     12  C   UNL     1      34.529 -17.680 -22.037  0.00  0.00    +0.095 C 
BRANCH  12  13
ATOM     13  C   UNL     1      34.462 -18.957 -21.236  0.00  0.00    -0.014 C 
ATOM     14  C   UNL     1      33.232 -19.414 -20.788  0.00  0.00    -0.004 C 
ATOM     15  C   UNL     1      35.631 -19.652 -20.965  0.00  0.00    -0.004 C 
ATOM     16  C   UNL     1      33.170 -20.595 -20.048  0.00  0.00    -0.000 C 
ATOM     17  C   UNL     1      35.568 -20.833 -20.225  0.00  0.00    -0.000 C 
ATOM     18  C   UNL     1      34.337 -21.304 -19.767  0.00  0.00    -0.000 C 
ENDBRANCH  12  13
ENDBRANCH  11  12
ENDBRANCH   1  11
BRANCH   5  19
ATOM     19  O   UNL     1      31.767 -12.613 -20.165  0.00  0.00    -0.503 OA
ATOM     20  H   UNL     1      31.412 -13.048 -19.415  0.00  0.00    +0.292 HD
ENDBRANCH   5  19
BRANCH   6  21
ATOM     21  O   UNL     1      31.898 -11.765 -22.789  0.00  0.00    -0.502 OA
ATOM     22  H   UNL     1      32.264 -10.922 -22.606  0.00  0.00    +0.292 HD
ENDBRANCH   6  21
TORSDOF 6
ENDMDL
MODEL 7
REMARK VINA RESULT:      -9.0     10.161     12.601
REMARK  Name = 9838389
REMARK  6 active torsions:
REMARK  status: ('A' for Active; 'I' for Inactive)
REMARK    1  A    between atoms: C_1  and  C_11
REMARK    2  A    between atoms: C_4  and  N_9
REMARK    3  A    between atoms: C_5  and  O_19
REMARK    4  A    between atoms: C_6  and  O_21
REMARK    5  A    between atoms: C_11  and  C_12
REMARK    6  A    between atoms: C_12  and  C_13
REMARK                            x       y       z     vdW  Elec       q    Type
REMARK                         _______ _______ _______ _____ _____    ______ ____
ROOT
ATOM      1  C   UNL     1      35.092 -24.223 -14.465  0.00  0.00    +0.040 C 
ATOM      2  C   UNL     1      36.345 -24.617 -14.932  0.00  0.00    +0.030 C 
ATOM      3  C   UNL     1      34.777 -24.360 -13.113  0.00  0.00    +0.043 C 
ATOM      4  C   UNL     1      37.284 -25.148 -14.048  0.00  0.00    +0.179 C 
ATOM      5  C   UNL     1      35.715 -24.892 -12.229  0.00  0.00    +0.169 C 
ATOM      6  C   UNL     1      36.970 -25.285 -12.696  0.00  0.00    +0.190 C 
ENDROOT
BRANCH   4   9
ATOM      7  O   UNL     1      38.830 -26.766 -14.608  0.00  0.00    -0.126 OA
ATOM      8  O   UNL     1      39.370 -24.659 -14.902  0.00  0.00    -0.126 OA
ATOM      9  N   UNL     1      38.557 -25.544 -14.543  0.00  0.00    +0.061 N 
ENDBRANCH   4   9
BRANCH   1  11
ATOM     10  O   UNL     1      34.238 -23.828 -16.619  0.00  0.00    -0.291 OA
ATOM     11  C   UNL     1      34.112 -23.670 -15.386  0.00  0.00    +0.178 C 
BRANCH  11  12
ATOM     12  C   UNL     1      32.907 -22.882 -14.844  0.00  0.00    +0.095 C 
BRANCH  12  13
ATOM     13  C   UNL     1      31.571 -23.536 -15.100  0.00  0.00    -0.014 C 
ATOM     14  C   UNL     1      31.260 -24.722 -14.452  0.00  0.00    -0.004 C 
ATOM     15  C   UNL     1      30.679 -22.940 -15.977  0.00  0.00    -0.004 C 
ATOM     16  C   UNL     1      30.025 -25.327 -14.688  0.00  0.00    -0.000 C 
ATOM     17  C   UNL     1      29.444 -23.544 -16.213  0.00  0.00    -0.000 C 
ATOM     18  C   UNL     1      29.118 -24.738 -15.569  0.00  0.00    -0.000 C 
ENDBRANCH  12  13
ENDBRANCH  11  12
ENDBRANCH   1  11
BRANCH   5  19
ATOM     19  O   UNL     1      35.395 -25.021 -10.911  0.00  0.00    -0.503 OA
ATOM     20  H   UNL     1      35.104 -25.847 -10.578  0.00  0.00    +0.292 HD
ENDBRANCH   5  19
BRANCH   6  21
ATOM     21  O   UNL     1      37.880 -25.805 -11.822  0.00  0.00    -0.502 OA
ATOM     22  H   UNL     1      37.975 -26.733 -11.741  0.00  0.00    +0.292 HD
ENDBRANCH   6  21
TORSDOF 6
ENDMDL
MODEL 8
REMARK VINA RESULT:      -9.0      6.641     10.553
REMARK  Name = 9838389
REMARK  6 active torsions:
REMARK  status: ('A' for Active; 'I' for Inactive)
REMARK    1  A    between atoms: C_1  and  C_11
REMARK    2  A    between atoms: C_4  and  N_9
REMARK    3  A    between atoms: C_5  and  O_19
REMARK    4  A    between atoms: C_6  and  O_21
REMARK    5  A    between atoms: C_11  and  C_12
REMARK    6  A    between atoms: C_12  and  C_13
REMARK                            x       y       z     vdW  Elec       q    Type
REMARK                         _______ _______ _______ _____ _____    ______ ____
ROOT
ATOM      1  C   UNL     1      33.455 -23.337 -16.290  0.00  0.00    +0.040 C 
ATOM      2  C   UNL     1      34.801 -23.416 -15.935  0.00  0.00    +0.030 C 
ATOM      3  C   UNL     1      32.469 -23.690 -15.368  0.00  0.00    +0.043 C 
ATOM      4  C   UNL     1      35.162 -23.849 -14.658  0.00  0.00    +0.179 C 
ATOM      5  C   UNL     1      32.829 -24.123 -14.092  0.00  0.00    +0.169 C 
ATOM      6  C   UNL     1      34.177 -24.202 -13.737  0.00  0.00    +0.190 C 
ENDROOT
BRANCH   4   9
ATOM      7  O   UNL     1      36.989 -24.991 -13.836  0.00  0.00    -0.126 OA
ATOM      8  O   UNL     1      37.266 -22.919 -14.501  0.00  0.00    -0.126 OA
ATOM      9  N   UNL     1      36.540 -23.924 -14.315  0.00  0.00    +0.061 N 
ENDBRANCH   4   9
BRANCH   1  11
ATOM     10  O   UNL     1      31.932 -22.444 -17.840  0.00  0.00    -0.291 OA
ATOM     11  C   UNL     1      33.079 -22.887 -17.620  0.00  0.00    +0.178 C 
BRANCH  11  12
ATOM     12  C   UNL     1      34.098 -22.953 -18.771  0.00  0.00    +0.095 C 
BRANCH  12  13
ATOM     13  C   UNL     1      34.239 -21.669 -19.550  0.00  0.00    -0.014 C 
ATOM     14  C   UNL     1      33.099 -20.977 -19.932  0.00  0.00    -0.004 C 
ATOM     15  C   UNL     1      35.505 -21.203 -19.869  0.00  0.00    -0.004 C 
ATOM     16  C   UNL     1      33.230 -19.789 -20.653  0.00  0.00    -0.000 C 
ATOM     17  C   UNL     1      35.635 -20.015 -20.590  0.00  0.00    -0.000 C 
ATOM     18  C   UNL     1      34.497 -19.309 -20.982  0.00  0.00    -0.000 C 
ENDBRANCH  12  13
ENDBRANCH  11  12
ENDBRANCH   1  11
BRANCH   5  19
ATOM     19  O   UNL     1      31.856 -24.465 -13.202  0.00  0.00    -0.503 OA
ATOM     20  H   UNL     1      31.424 -25.293 -13.277  0.00  0.00    +0.292 HD
ENDBRANCH   5  19
BRANCH   6  21
ATOM     21  O   UNL     1      34.517 -24.628 -12.486  0.00  0.00    -0.502 OA
ATOM     22  H   UNL     1      35.189 -25.270 -12.376  0.00  0.00    +0.292 HD
ENDBRANCH   6  21
TORSDOF 6
ENDMDL
MODEL 9
REMARK VINA RESULT:      -9.0      6.563     10.351
REMARK  Name = 9838389
REMARK  6 active torsions:
REMARK  status: ('A' for Active; 'I' for Inactive)
REMARK    1  A    between atoms: C_1  and  C_11
REMARK    2  A    between atoms: C_4  and  N_9
REMARK    3  A    between atoms: C_5  and  O_19
REMARK    4  A    between atoms: C_6  and  O_21
REMARK    5  A    between atoms: C_11  and  C_12
REMARK    6  A    between atoms: C_12  and  C_13
REMARK                            x       y       z     vdW  Elec       q    Type
REMARK                         _______ _______ _______ _____ _____    ______ ____
ROOT
ATOM      1  C   UNL     1      36.381 -22.539 -16.594  0.00  0.00    +0.040 C 
ATOM      2  C   UNL     1      37.382 -23.150 -15.840  0.00  0.00    +0.030 C 
ATOM      3  C   UNL     1      35.041 -22.834 -16.345  0.00  0.00    +0.043 C 
ATOM      4  C   UNL     1      37.042 -24.058 -14.835  0.00  0.00    +0.179 C 
ATOM      5  C   UNL     1      34.701 -23.742 -15.342  0.00  0.00    +0.169 C 
ATOM      6  C   UNL     1      35.702 -24.353 -14.586  0.00  0.00    +0.190 C 
ENDROOT
BRANCH   4   9
ATOM      7  O   UNL     1      38.339 -25.880 -14.276  0.00  0.00    -0.126 OA
ATOM      8  O   UNL     1      38.696 -23.984 -13.230  0.00  0.00    -0.126 OA
ATOM      9  N   UNL     1      38.076 -24.671 -14.077  0.00  0.00    +0.061 N 
ENDBRANCH   4   9
BRANCH   1  11
ATOM     10  O   UNL     1      37.277 -20.505 -17.358  0.00  0.00    -0.291 OA
ATOM     11  C   UNL     1      36.734 -21.593 -17.641  0.00  0.00    +0.178 C 
BRANCH  11  12
ATOM     12  C   UNL     1      36.440 -21.931 -19.113  0.00  0.00    +0.095 C 
BRANCH  12  13
ATOM     13  C   UNL     1      35.349 -21.096 -19.736  0.00  0.00    -0.014 C 
ATOM     14  C   UNL     1      35.692 -20.012 -20.529  0.00  0.00    -0.004 C 
ATOM     15  C   UNL     1      34.023 -21.428 -19.506  0.00  0.00    -0.004 C 
ATOM     16  C   UNL     1      34.683 -19.239 -21.105  0.00  0.00    -0.000 C 
ATOM     17  C   UNL     1      33.014 -20.656 -20.082  0.00  0.00    -0.000 C 
ATOM     18  C   UNL     1      33.345 -19.561 -20.882  0.00  0.00    -0.000 C 
ENDBRANCH  12  13
ENDBRANCH  11  12
ENDBRANCH   1  11
BRANCH   5  19
ATOM     19  O   UNL     1      33.388 -24.022 -15.110  0.00  0.00    -0.503 OA
ATOM     20  H   UNL     1      32.876 -24.445 -15.771  0.00  0.00    +0.292 HD
ENDBRANCH   5  19
BRANCH   6  21
ATOM     21  O   UNL     1      35.358 -25.240 -13.608  0.00  0.00    -0.502 OA
ATOM     22  H   UNL     1      35.410 -26.161 -13.771  0.00  0.00    +0.292 HD
ENDBRANCH   6  21
TORSDOF 6
ENDMDL
