MODEL 1
REMARK VINA RESULT:      -8.6      0.000      0.000
REMARK  Name = 6634
REMARK  3 active torsions:
REMARK  status: ('A' for Active; 'I' for Inactive)
REMARK    1  A    between atoms: S_1  and  N_5
REMARK    2  A    between atoms: S_1  and  C_13
REMARK    3  A    between atoms: C_16  and  N_19
REMARK                            x       y       z     vdW  Elec       q    Type
REMARK                         _______ _______ _______ _____ _____    ______ ____
ROOT
ATOM      1  S   UNL     1      35.240 -18.375 -22.897  0.00  0.00    +0.075 S 
ATOM      2  O   UNL     1      36.672 -18.186 -22.698  0.00  0.00    -0.150 OA
ATOM      3  O   UNL     1      34.780 -19.563 -23.606  0.00  0.00    -0.150 OA
ENDROOT
BRANCH   1   5
ATOM      4 CL   UNL     1      33.800 -23.287 -18.473  0.00  0.00    -0.059 Cl
ATOM      5  N   UNL     1      34.471 -18.288 -21.358  0.00  0.00    -0.197 N 
ATOM      6  N   UNL     1      35.317 -20.176 -20.216  0.00  0.00    -0.131 NA
ATOM      7  N   UNL     1      35.148 -21.344 -19.541  0.00  0.00    -0.135 NA
ATOM      8  C   UNL     1      34.228 -19.519 -20.652  0.00  0.00    +0.169 C 
ATOM      9  C   UNL     1      32.940 -19.958 -20.459  0.00  0.00    +0.040 C 
ATOM     10  C   UNL     1      32.769 -21.147 -19.771  0.00  0.00    +0.036 C 
ATOM     11  C   UNL     1      33.898 -21.808 -19.332  0.00  0.00    +0.160 C 
ATOM     12  H   UNL     1      34.206 -17.422 -20.972  0.00  0.00    +0.175 HD
ENDBRANCH   1   5
BRANCH   1  13
ATOM     13  C   UNL     1      34.625 -16.961 -23.717  0.00  0.00    +0.125 C 
ATOM     14  C   UNL     1      34.236 -17.044 -25.054  0.00  0.00    +0.021 C 
ATOM     15  C   UNL     1      34.524 -15.749 -23.035  0.00  0.00    +0.021 C 
ATOM     16  C   UNL     1      33.644 -14.702 -25.027  0.00  0.00    +0.042 C 
ATOM     17  C   UNL     1      33.746 -15.915 -25.708  0.00  0.00    +0.015 C 
ATOM     18  C   UNL     1      34.034 -14.619 -23.690  0.00  0.00    +0.015 C 
BRANCH  16  19
ATOM     19  N   UNL     1      33.148 -13.560 -25.690  0.00  0.00    -0.357 N 
ATOM     20  H   UNL     1      32.641 -13.658 -26.527  0.00  0.00    +0.142 HD
ATOM     21  H   UNL     1      33.307 -12.664 -25.313  0.00  0.00    +0.142 HD
ENDBRANCH  16  19
ENDBRANCH   1  13
TORSDOF 3
ENDMDL
MODEL 2
REMARK VINA RESULT:      -8.6      5.443      8.048
REMARK  Name = 6634
REMARK  3 active torsions:
REMARK  status: ('A' for Active; 'I' for Inactive)
REMARK    1  A    between atoms: S_1  and  N_5
REMARK    2  A    between atoms: S_1  and  C_13
REMARK    3  A    between atoms: C_16  and  N_19
REMARK                            x       y       z     vdW  Elec       q    Type
REMARK                         _______ _______ _______ _____ _____    ______ ____
ROOT
ATOM      1  S   UNL     1      33.162 -13.498 -23.625  0.00  0.00    +0.075 S 
ATOM      2  O   UNL     1      32.705 -13.987 -24.920  0.00  0.00    -0.150 OA
ATOM      3  O   UNL     1      34.078 -12.364 -23.585  0.00  0.00    -0.150 OA
ENDROOT
BRANCH   1   5
ATOM      4 CL   UNL     1      31.817  -8.155 -19.699  0.00  0.00    -0.059 Cl
ATOM      5  N   UNL     1      31.775 -13.151 -22.664  0.00  0.00    -0.197 N 
ATOM      6  N   UNL     1      31.771 -10.792 -22.539  0.00  0.00    -0.131 NA
ATOM      7  N   UNL     1      31.780  -9.629 -21.835  0.00  0.00    -0.135 NA
ATOM      8  C   UNL     1      31.787 -11.955 -21.864  0.00  0.00    +0.169 C 
ATOM      9  C   UNL     1      31.813 -12.044 -20.493  0.00  0.00    +0.040 C 
ATOM     10  C   UNL     1      31.822 -10.860 -19.776  0.00  0.00    +0.036 C 
ATOM     11  C   UNL     1      31.806  -9.676 -20.486  0.00  0.00    +0.160 C 
ATOM     12  H   UNL     1      30.996 -13.753 -22.663  0.00  0.00    +0.175 HD
ENDBRANCH   1   5
BRANCH   1  13
ATOM     13  C   UNL     1      33.894 -14.839 -22.778  0.00  0.00    +0.125 C 
ATOM     14  C   UNL     1      33.986 -14.819 -21.387  0.00  0.00    +0.021 C 
ATOM     15  C   UNL     1      34.387 -15.929 -23.495  0.00  0.00    +0.021 C 
ATOM     16  C   UNL     1      35.064 -16.980 -21.427  0.00  0.00    +0.042 C 
ATOM     17  C   UNL     1      34.571 -15.890 -20.712  0.00  0.00    +0.015 C 
ATOM     18  C   UNL     1      34.972 -17.000 -22.820  0.00  0.00    +0.015 C 
BRANCH  16  19
ATOM     19  N   UNL     1      35.656 -18.064 -20.744  0.00  0.00    -0.357 N 
ATOM     20  H   UNL     1      36.188 -18.726 -21.240  0.00  0.00    +0.142 HD
ATOM     21  H   UNL     1      35.538 -18.156 -19.771  0.00  0.00    +0.142 HD
ENDBRANCH  16  19
ENDBRANCH   1  13
TORSDOF 3
ENDMDL
MODEL 3
REMARK VINA RESULT:      -8.5      3.574      7.014
REMARK  Name = 6634
REMARK  3 active torsions:
REMARK  status: ('A' for Active; 'I' for Inactive)
REMARK    1  A    between atoms: S_1  and  N_5
REMARK    2  A    between atoms: S_1  and  C_13
REMARK    3  A    between atoms: C_16  and  N_19
REMARK                            x       y       z     vdW  Elec       q    Type
REMARK                         _______ _______ _______ _____ _____    ______ ____
ROOT
ATOM      1  S   UNL     1      35.168 -17.780 -21.427  0.00  0.00    +0.075 S 
ATOM      2  O   UNL     1      36.134 -18.014 -22.495  0.00  0.00    -0.150 OA
ATOM      3  O   UNL     1      35.530 -16.885 -20.335  0.00  0.00    -0.150 OA
ENDROOT
BRANCH   1   5
ATOM      4 CL   UNL     1      33.341 -11.618 -23.538  0.00  0.00    -0.059 Cl
ATOM      5  N   UNL     1      33.696 -17.248 -22.145  0.00  0.00    -0.197 N 
ATOM      6  N   UNL     1      34.352 -15.357 -23.401  0.00  0.00    -0.131 NA
ATOM      7  N   UNL     1      34.260 -14.039 -23.719  0.00  0.00    -0.135 NA
ATOM      8  C   UNL     1      33.553 -15.845 -22.436  0.00  0.00    +0.169 C 
ATOM      9  C   UNL     1      32.640 -15.088 -21.742  0.00  0.00    +0.040 C 
ATOM     10  C   UNL     1      32.546 -13.746 -22.067  0.00  0.00    +0.036 C 
ATOM     11  C   UNL     1      33.374 -13.262 -23.060  0.00  0.00    +0.160 C 
ATOM     12  H   UNL     1      32.973 -17.884 -22.351  0.00  0.00    +0.175 HD
ENDBRANCH   1   5
BRANCH   1  13
ATOM     13  C   UNL     1      34.732 -19.333 -20.755  0.00  0.00    +0.125 C 
ATOM     14  C   UNL     1      33.389 -19.684 -20.624  0.00  0.00    +0.021 C 
ATOM     15  C   UNL     1      35.729 -20.221 -20.351  0.00  0.00    +0.021 C 
ATOM     16  C   UNL     1      34.037 -21.812 -19.683  0.00  0.00    +0.042 C 
ATOM     17  C   UNL     1      33.042 -20.923 -20.087  0.00  0.00    +0.015 C 
ATOM     18  C   UNL     1      35.381 -21.461 -19.815  0.00  0.00    +0.015 C 
BRANCH  16  19
ATOM     19  N   UNL     1      33.685 -23.066 -19.140  0.00  0.00    -0.357 N 
ATOM     20  H   UNL     1      33.995 -23.317 -18.240  0.00  0.00    +0.142 HD
ATOM     21  H   UNL     1      33.129 -23.689 -19.661  0.00  0.00    +0.142 HD
ENDBRANCH  16  19
ENDBRANCH   1  13
TORSDOF 3
ENDMDL
MODEL 4
REMARK VINA RESULT:      -8.3      1.770      2.329
REMARK  Name = 6634
REMARK  3 active torsions:
REMARK  status: ('A' for Active; 'I' for Inactive)
REMARK    1  A    between atoms: S_1  and  N_5
REMARK    2  A    between atoms: S_1  and  C_13
REMARK    3  A    between atoms: C_16  and  N_19
REMARK                            x       y       z     vdW  Elec       q    Type
REMARK                         _______ _______ _______ _____ _____    ______ ____
ROOT
ATOM      1  S   UNL     1      34.074 -16.800 -21.503  0.00  0.00    +0.075 S 
ATOM      2  O   UNL     1      32.807 -16.853 -20.783  0.00  0.00    -0.150 OA
ATOM      3  O   UNL     1      35.231 -16.206 -20.846  0.00  0.00    -0.150 OA
ENDROOT
BRANCH   1   5
ATOM      4 CL   UNL     1      33.300 -22.715 -18.312  0.00  0.00    -0.059 Cl
ATOM      5  N   UNL     1      34.461 -18.396 -22.022  0.00  0.00    -0.197 N 
ATOM      6  N   UNL     1      32.970 -19.750 -20.787  0.00  0.00    -0.131 NA
ATOM      7  N   UNL     1      32.710 -20.763 -19.918  0.00  0.00    -0.135 NA
ATOM      8  C   UNL     1      34.250 -19.478 -21.097  0.00  0.00    +0.169 C 
ATOM      9  C   UNL     1      35.324 -20.166 -20.586  0.00  0.00    +0.040 C 
ATOM     10  C   UNL     1      35.059 -21.198 -19.702  0.00  0.00    +0.036 C 
ATOM     11  C   UNL     1      33.739 -21.462 -19.395  0.00  0.00    +0.160 C 
ATOM     12  H   UNL     1      34.816 -18.564 -22.925  0.00  0.00    +0.175 HD
ENDBRANCH   1   5
BRANCH   1  13
ATOM     13  C   UNL     1      33.793 -15.961 -23.009  0.00  0.00    +0.125 C 
ATOM     14  C   UNL     1      33.225 -14.687 -23.003  0.00  0.00    +0.021 C 
ATOM     15  C   UNL     1      34.139 -16.565 -24.218  0.00  0.00    +0.021 C 
ATOM     16  C   UNL     1      33.346 -14.621 -25.414  0.00  0.00    +0.042 C 
ATOM     17  C   UNL     1      33.001 -14.018 -24.205  0.00  0.00    +0.015 C 
ATOM     18  C   UNL     1      33.915 -15.895 -25.421  0.00  0.00    +0.015 C 
BRANCH  16  19
ATOM     19  N   UNL     1      33.120 -13.943 -26.631  0.00  0.00    -0.357 N 
ATOM     20  H   UNL     1      32.558 -13.136 -26.648  0.00  0.00    +0.142 HD
ATOM     21  H   UNL     1      33.526 -14.277 -27.464  0.00  0.00    +0.142 HD
ENDBRANCH  16  19
ENDBRANCH   1  13
TORSDOF 3
ENDMDL
MODEL 5
REMARK VINA RESULT:      -8.2      3.647      6.769
REMARK  Name = 6634
REMARK  3 active torsions:
REMARK  status: ('A' for Active; 'I' for Inactive)
REMARK    1  A    between atoms: S_1  and  N_5
REMARK    2  A    between atoms: S_1  and  C_13
REMARK    3  A    between atoms: C_16  and  N_19
REMARK                            x       y       z     vdW  Elec       q    Type
REMARK                         _______ _______ _______ _____ _____    ______ ____
ROOT
ATOM      1  S   UNL     1      35.419 -18.434 -21.712  0.00  0.00    +0.075 S 
ATOM      2  O   UNL     1      34.502 -18.232 -22.827  0.00  0.00    -0.150 OA
ATOM      3  O   UNL     1      36.834 -18.640 -21.995  0.00  0.00    -0.150 OA
ENDROOT
BRANCH   1   5
ATOM      4 CL   UNL     1      31.649 -12.843 -22.257  0.00  0.00    -0.059 Cl
ATOM      5  N   UNL     1      35.235 -17.112 -20.622  0.00  0.00    -0.197 N 
ATOM      6  N   UNL     1      33.093 -16.264 -21.147  0.00  0.00    -0.131 NA
ATOM      7  N   UNL     1      32.263 -15.258 -21.530  0.00  0.00    -0.135 NA
ATOM      8  C   UNL     1      34.408 -16.008 -21.032  0.00  0.00    +0.169 C 
ATOM      9  C   UNL     1      34.974 -14.780 -21.279  0.00  0.00    +0.040 C 
ATOM     10  C   UNL     1      34.128 -13.755 -21.668  0.00  0.00    +0.036 C 
ATOM     11  C   UNL     1      32.782 -14.037 -21.782  0.00  0.00    +0.160 C 
ATOM     12  H   UNL     1      35.682 -17.113 -19.745  0.00  0.00    +0.175 HD
ENDBRANCH   1   5
BRANCH   1  13
ATOM     13  C   UNL     1      34.833 -19.789 -20.779  0.00  0.00    +0.125 C 
ATOM     14  C   UNL     1      33.462 -19.967 -20.594  0.00  0.00    +0.021 C 
ATOM     15  C   UNL     1      35.736 -20.694 -20.221  0.00  0.00    +0.021 C 
ATOM     16  C   UNL     1      33.896 -21.954 -19.291  0.00  0.00    +0.042 C 
ATOM     17  C   UNL     1      32.994 -21.049 -19.849  0.00  0.00    +0.015 C 
ATOM     18  C   UNL     1      35.267 -21.777 -19.477  0.00  0.00    +0.015 C 
BRANCH  16  19
ATOM     19  N   UNL     1      33.423 -23.049 -18.537  0.00  0.00    -0.357 N 
ATOM     20  H   UNL     1      34.023 -23.801 -18.331  0.00  0.00    +0.142 HD
ATOM     21  H   UNL     1      32.492 -23.061 -18.216  0.00  0.00    +0.142 HD
ENDBRANCH  16  19
ENDBRANCH   1  13
TORSDOF 3
ENDMDL
MODEL 6
REMARK VINA RESULT:      -8.2      4.762      6.361
REMARK  Name = 6634
REMARK  3 active torsions:
REMARK  status: ('A' for Active; 'I' for Inactive)
REMARK    1  A    between atoms: S_1  and  N_5
REMARK    2  A    between atoms: S_1  and  C_13
REMARK    3  A    between atoms: C_16  and  N_19
REMARK                            x       y       z     vdW  Elec       q    Type
REMARK                         _______ _______ _______ _____ _____    ______ ____
ROOT
ATOM      1  S   UNL     1      33.850 -22.903 -18.409  0.00  0.00    +0.075 S 
ATOM      2  O   UNL     1      34.759 -22.925 -17.269  0.00  0.00    -0.150 OA
ATOM      3  O   UNL     1      33.724 -24.101 -19.230  0.00  0.00    -0.150 OA
ENDROOT
BRANCH   1   5
ATOM      4 CL   UNL     1      30.489 -24.768 -12.841  0.00  0.00    -0.059 Cl
ATOM      5  N   UNL     1      32.295 -22.425 -17.843  0.00  0.00    -0.197 N 
ATOM      6  N   UNL     1      32.442 -22.741 -15.506  0.00  0.00    -0.131 NA
ATOM      7  N   UNL     1      32.011 -23.294 -14.341  0.00  0.00    -0.135 NA
ATOM      8  C   UNL     1      31.792 -23.043 -16.644  0.00  0.00    +0.169 C 
ATOM      9  C   UNL     1      30.708 -23.885 -16.706  0.00  0.00    +0.040 C 
ATOM     10  C   UNL     1      30.268 -24.447 -15.520  0.00  0.00    +0.036 C 
ATOM     11  C   UNL     1      30.948 -24.127 -14.362  0.00  0.00    +0.160 C 
ATOM     12  H   UNL     1      31.765 -21.750 -18.325  0.00  0.00    +0.175 HD
ENDBRANCH   1   5
BRANCH   1  13
ATOM     13  C   UNL     1      34.315 -21.568 -19.435  0.00  0.00    +0.125 C 
ATOM     14  C   UNL     1      33.337 -20.780 -20.041  0.00  0.00    +0.021 C 
ATOM     15  C   UNL     1      35.666 -21.291 -19.647  0.00  0.00    +0.021 C 
ATOM     16  C   UNL     1      35.059 -19.437 -21.073  0.00  0.00    +0.042 C 
ATOM     17  C   UNL     1      33.710 -19.716 -20.861  0.00  0.00    +0.015 C 
ATOM     18  C   UNL     1      36.038 -20.225 -20.466  0.00  0.00    +0.015 C 
BRANCH  16  19
ATOM     19  N   UNL     1      35.436 -18.359 -21.902  0.00  0.00    -0.357 N 
ATOM     20  H   UNL     1      35.759 -17.521 -21.502  0.00  0.00    +0.142 HD
ATOM     21  H   UNL     1      35.376 -18.446 -22.881  0.00  0.00    +0.142 HD
ENDBRANCH  16  19
ENDBRANCH   1  13
TORSDOF 3
ENDMDL
MODEL 7
REMARK VINA RESULT:      -8.2      4.538      5.796
REMARK  Name = 6634
REMARK  3 active torsions:
REMARK  status: ('A' for Active; 'I' for Inactive)
REMARK    1  A    between atoms: S_1  and  N_5
REMARK    2  A    between atoms: S_1  and  C_13
REMARK    3  A    between atoms: C_16  and  N_19
REMARK                            x       y       z     vdW  Elec       q    Type
REMARK                         _______ _______ _______ _____ _____    ______ ____
ROOT
ATOM      1  S   UNL     1      33.223 -13.062 -23.801  0.00  0.00    +0.075 S 
ATOM      2  O   UNL     1      33.241 -13.523 -25.185  0.00  0.00    -0.150 OA
ATOM      3  O   UNL     1      32.029 -13.296 -22.999  0.00  0.00    -0.150 OA
ENDROOT
BRANCH   1   5
ATOM      4 CL   UNL     1      34.632 -19.477 -22.181  0.00  0.00    -0.059 Cl
ATOM      5  N   UNL     1      34.596 -13.725 -22.999  0.00  0.00    -0.197 N 
ATOM      6  N   UNL     1      34.668 -15.951 -23.788  0.00  0.00    -0.131 NA
ATOM      7  N   UNL     1      34.677 -17.295 -23.585  0.00  0.00    -0.135 NA
ATOM      8  C   UNL     1      34.600 -15.137 -22.720  0.00  0.00    +0.169 C 
ATOM      9  C   UNL     1      34.537 -15.582 -21.421  0.00  0.00    +0.040 C 
ATOM     10  C   UNL     1      34.546 -16.950 -21.215  0.00  0.00    +0.036 C 
ATOM     11  C   UNL     1      34.616 -17.771 -22.323  0.00  0.00    +0.160 C 
ATOM     12  H   UNL     1      35.355 -13.155 -22.740  0.00  0.00    +0.175 HD
ENDBRANCH   1   5
BRANCH   1  13
ATOM     13  C   UNL     1      33.567 -11.350 -23.806  0.00  0.00    +0.125 C 
ATOM     14  C   UNL     1      32.752 -10.472 -23.092  0.00  0.00    +0.021 C 
ATOM     15  C   UNL     1      34.658 -10.860 -24.525  0.00  0.00    +0.021 C 
ATOM     16  C   UNL     1      34.116  -8.615 -23.815  0.00  0.00    +0.042 C 
ATOM     17  C   UNL     1      33.026  -9.105 -23.097  0.00  0.00    +0.015 C 
ATOM     18  C   UNL     1      34.933  -9.493 -24.529  0.00  0.00    +0.015 C 
BRANCH  16  19
ATOM     19  N   UNL     1      34.395  -7.232 -23.819  0.00  0.00    -0.357 N 
ATOM     20  H   UNL     1      34.932  -6.836 -23.096  0.00  0.00    +0.142 HD
ATOM     21  H   UNL     1      34.053  -6.663 -24.546  0.00  0.00    +0.142 HD
ENDBRANCH  16  19
ENDBRANCH   1  13
TORSDOF 3
ENDMDL
MODEL 8
REMARK VINA RESULT:      -8.0      6.555      8.241
REMARK  Name = 6634
REMARK  3 active torsions:
REMARK  status: ('A' for Active; 'I' for Inactive)
REMARK    1  A    between atoms: S_1  and  N_5
REMARK    2  A    between atoms: S_1  and  C_13
REMARK    3  A    between atoms: C_16  and  N_19
REMARK                            x       y       z     vdW  Elec       q    Type
REMARK                         _______ _______ _______ _____ _____    ______ ____
ROOT
ATOM      1  S   UNL     1      35.446 -23.580 -15.445  0.00  0.00    +0.075 S 
ATOM      2  O   UNL     1      36.677 -23.279 -14.723  0.00  0.00    -0.150 OA
ATOM      3  O   UNL     1      35.111 -24.973 -15.713  0.00  0.00    -0.150 OA
ENDROOT
BRANCH   1   5
ATOM      4 CL   UNL     1      29.063 -25.647 -14.577  0.00  0.00    -0.059 Cl
ATOM      5  N   UNL     1      34.141 -22.823 -14.613  0.00  0.00    -0.197 N 
ATOM      6  N   UNL     1      32.759 -24.638 -13.996  0.00  0.00    -0.131 NA
ATOM      7  N   UNL     1      31.566 -25.290 -13.994  0.00  0.00    -0.135 NA
ATOM      8  C   UNL     1      32.853 -23.465 -14.648  0.00  0.00    +0.169 C 
ATOM      9  C   UNL     1      31.809 -22.877 -15.320  0.00  0.00    +0.040 C 
ATOM     10  C   UNL     1      30.594 -23.541 -15.317  0.00  0.00    +0.036 C 
ATOM     11  C   UNL     1      30.516 -24.743 -14.643  0.00  0.00    +0.160 C 
ATOM     12  H   UNL     1      34.271 -21.976 -14.128  0.00  0.00    +0.175 HD
ENDBRANCH   1   5
BRANCH   1  13
ATOM     13  C   UNL     1      35.493 -22.713 -16.961  0.00  0.00    +0.125 C 
ATOM     14  C   UNL     1      34.392 -22.742 -17.816  0.00  0.00    +0.021 C 
ATOM     15  C   UNL     1      36.634 -21.992 -17.315  0.00  0.00    +0.021 C 
ATOM     16  C   UNL     1      35.570 -21.330 -19.382  0.00  0.00    +0.042 C 
ATOM     17  C   UNL     1      34.431 -22.052 -19.026  0.00  0.00    +0.015 C 
ATOM     18  C   UNL     1      36.672 -21.301 -18.526  0.00  0.00    +0.015 C 
BRANCH  16  19
ATOM     19  N   UNL     1      35.609 -20.630 -20.606  0.00  0.00    -0.357 N 
ATOM     20  H   UNL     1      35.615 -21.126 -21.456  0.00  0.00    +0.142 HD
ATOM     21  H   UNL     1      35.629 -19.646 -20.610  0.00  0.00    +0.142 HD
ENDBRANCH  16  19
ENDBRANCH   1  13
TORSDOF 3
ENDMDL
MODEL 9
REMARK VINA RESULT:      -7.8      5.214      6.932
REMARK  Name = 6634
REMARK  3 active torsions:
REMARK  status: ('A' for Active; 'I' for Inactive)
REMARK    1  A    between atoms: S_1  and  N_5
REMARK    2  A    between atoms: S_1  and  C_13
REMARK    3  A    between atoms: C_16  and  N_19
REMARK                            x       y       z     vdW  Elec       q    Type
REMARK                         _______ _______ _______ _____ _____    ______ ____
ROOT
ATOM      1  S   UNL     1      33.300 -22.950 -17.780  0.00  0.00    +0.075 S 
ATOM      2  O   UNL     1      33.797 -24.284 -18.096  0.00  0.00    -0.150 OA
ATOM      3  O   UNL     1      31.859 -22.731 -17.725  0.00  0.00    -0.150 OA
ENDROOT
BRANCH   1   5
ATOM      4 CL   UNL     1      37.233 -26.387 -13.481  0.00  0.00    -0.059 Cl
ATOM      5  N   UNL     1      34.016 -22.451 -16.294  0.00  0.00    -0.197 N 
ATOM      6  N   UNL     1      35.905 -23.856 -16.099  0.00  0.00    -0.131 NA
ATOM      7  N   UNL     1      36.650 -24.777 -15.432  0.00  0.00    -0.135 NA
ATOM      8  C   UNL     1      34.760 -23.426 -15.541  0.00  0.00    +0.169 C 
ATOM      9  C   UNL     1      34.288 -23.862 -14.326  0.00  0.00    +0.040 C 
ATOM     10  C   UNL     1      35.048 -24.799 -13.646  0.00  0.00    +0.036 C 
ATOM     11  C   UNL     1      36.220 -25.230 -14.235  0.00  0.00    +0.160 C 
ATOM     12  H   UNL     1      33.920 -21.526 -15.971  0.00  0.00    +0.175 HD
ENDBRANCH   1   5
BRANCH   1  13
ATOM     13  C   UNL     1      33.990 -21.837 -18.936  0.00  0.00    +0.125 C 
ATOM     14  C   UNL     1      33.159 -21.004 -19.684  0.00  0.00    +0.021 C 
ATOM     15  C   UNL     1      35.373 -21.782 -19.109  0.00  0.00    +0.021 C 
ATOM     16  C   UNL     1      35.093 -20.060 -20.781  0.00  0.00    +0.042 C 
ATOM     17  C   UNL     1      33.711 -20.116 -20.607  0.00  0.00    +0.015 C 
ATOM     18  C   UNL     1      35.925 -20.893 -20.032  0.00  0.00    +0.015 C 
BRANCH  16  19
ATOM     19  N   UNL     1      35.652 -19.162 -21.715  0.00  0.00    -0.357 N 
ATOM     20  H   UNL     1      36.436 -19.428 -22.245  0.00  0.00    +0.142 HD
ATOM     21  H   UNL     1      35.255 -18.269 -21.837  0.00  0.00    +0.142 HD
ENDBRANCH  16  19
ENDBRANCH   1  13
TORSDOF 3
ENDMDL
