MODEL 1
REMARK VINA RESULT:     -10.6      0.000      0.000
REMARK  Name = 45100669
REMARK  4 active torsions:
REMARK  status: ('A' for Active; 'I' for Inactive)
REMARK    1  A    between atoms: C_17  and  C_27
REMARK    2  A    between atoms: C_19  and  C_22
REMARK    3  A    between atoms: C_22  and  O_25
REMARK    4  A    between atoms: C_27  and  C_28
REMARK                            x       y       z     vdW  Elec       q    Type
REMARK                         _______ _______ _______ _____ _____    ______ ____
ROOT
ATOM      1  N   UNL     1      32.854 -10.836 -23.591  0.00  0.00    -0.294 N 
ATOM      2  N   UNL     1      33.796 -13.474 -23.392  0.00  0.00    -0.289 N 
ATOM      3  N   UNL     1      34.927 -15.123 -22.140  0.00  0.00    -0.134 NA
ATOM      4  N   UNL     1      31.205  -9.137 -23.575  0.00  0.00    -0.252 NA
ATOM      5  N   UNL     1      35.367 -16.401 -21.986  0.00  0.00    -0.151 NA
ATOM      6  N   UNL     1      33.064  -7.433 -22.348  0.00  0.00    -0.267 NA
ATOM      7  C   UNL     1      34.199 -11.131 -24.113  0.00  0.00    +0.094 C 
ATOM      8  C   UNL     1      34.767 -12.375 -23.400  0.00  0.00    +0.112 C 
ATOM      9  C   UNL     1      31.891 -11.941 -23.607  0.00  0.00    +0.113 C 
ATOM     10  C   UNL     1      32.466 -13.144 -22.863  0.00  0.00    +0.114 C 
ATOM     11  C   UNL     1      34.175 -11.316 -25.633  0.00  0.00    +0.023 C 
ATOM     12  C   UNL     1      34.240 -14.793 -23.253  0.00  0.00    +0.149 A 
ATOM     13  C   UNL     1      32.457  -9.540 -23.283  0.00  0.00    +0.129 C 
ATOM     14  C   UNL     1      33.958 -15.698 -24.257  0.00  0.00    +0.009 A 
ATOM     15  C   UNL     1      34.407 -16.998 -24.100  0.00  0.00    -0.007 A 
ATOM     16  C   UNL     1      33.370  -8.702 -22.679  0.00  0.00    +0.185 C 
ATOM     17  C   UNL     1      35.107 -17.308 -22.951  0.00  0.00    +0.081 A 
ATOM     18  C   UNL     1      33.195 -15.299 -25.476  0.00  0.00    +0.034 C 
ATOM     19  C   UNL     1      31.812  -7.030 -22.641  0.00  0.00    +0.080 C 
ATOM     20  C   UNL     1      30.899  -7.866 -23.244  0.00  0.00    +0.169 C 
ATOM     21  C   UNL     1      34.141 -18.034 -25.142  0.00  0.00    +0.032 C 
ENDROOT
BRANCH  19  22
ATOM     22  C   UNL     1      31.438  -5.631 -22.288  0.00  0.00    +0.121 C 
ATOM     23  C   UNL     1      30.012  -5.537 -21.695  0.00  0.00    +0.035 C 
ATOM     24  C   UNL     1      31.550  -4.672 -23.497  0.00  0.00    +0.035 C 
BRANCH  22  25
ATOM     25  O   UNL     1      32.314  -5.082 -21.276  0.00  0.00    -0.381 OA
ATOM     26  H   UNL     1      33.237  -5.228 -21.533  0.00  0.00    +0.211 HD
ENDBRANCH  22  25
ENDBRANCH  19  22
BRANCH  17  27
ATOM     27  C   UNL     1      35.621 -18.687 -22.713  0.00  0.00    +0.074 C 
BRANCH  27  28
ATOM     28  C   UNL     1      34.851 -19.458 -21.661  0.00  0.00    -0.016 C 
ATOM     29  C   UNL     1      33.468 -19.304 -21.556  0.00  0.00    -0.004 C 
ATOM     30  C   UNL     1      35.524 -20.323 -20.797  0.00  0.00    -0.004 C 
ATOM     31  C   UNL     1      32.758 -20.014 -20.588  0.00  0.00    -0.000 C 
ATOM     32  C   UNL     1      34.815 -21.034 -19.830  0.00  0.00    -0.000 C 
ATOM     33  C   UNL     1      33.431 -20.879 -19.724  0.00  0.00    -0.000 C 
ENDBRANCH  27  28
ENDBRANCH  17  27
TORSDOF 4
ENDMDL
MODEL 2
REMARK VINA RESULT:      -8.7      4.338      7.345
REMARK  Name = 45100669
REMARK  4 active torsions:
REMARK  status: ('A' for Active; 'I' for Inactive)
REMARK    1  A    between atoms: C_17  and  C_27
REMARK    2  A    between atoms: C_19  and  C_22
REMARK    3  A    between atoms: C_22  and  O_25
REMARK    4  A    between atoms: C_27  and  C_28
REMARK                            x       y       z     vdW  Elec       q    Type
REMARK                         _______ _______ _______ _____ _____    ______ ____
ROOT
ATOM      1  N   UNL     1      34.450 -17.001 -22.917  0.00  0.00    -0.294 N 
ATOM      2  N   UNL     1      34.208 -19.194 -21.179  0.00  0.00    -0.289 N 
ATOM      3  N   UNL     1      32.864 -20.902 -20.262  0.00  0.00    -0.134 NA
ATOM      4  N   UNL     1      35.148 -15.888 -24.887  0.00  0.00    -0.252 NA
ATOM      5  N   UNL     1      32.713 -21.991 -19.461  0.00  0.00    -0.151 NA
ATOM      6  N   UNL     1      32.734 -14.460 -24.860  0.00  0.00    -0.267 NA
ATOM      7  C   UNL     1      34.059 -16.738 -21.522  0.00  0.00    +0.094 C 
ATOM      8  C   UNL     1      33.398 -17.997 -20.925  0.00  0.00    +0.112 C 
ATOM      9  C   UNL     1      35.273 -18.192 -23.150  0.00  0.00    +0.113 C 
ATOM     10  C   UNL     1      34.578 -19.425 -22.582  0.00  0.00    +0.114 C 
ATOM     11  C   UNL     1      35.259 -16.282 -20.687  0.00  0.00    +0.023 C 
ATOM     12  C   UNL     1      34.074 -20.312 -20.350  0.00  0.00    +0.149 A 
ATOM     13  C   UNL     1      34.220 -16.075 -23.928  0.00  0.00    +0.129 C 
ATOM     14  C   UNL     1      35.181 -20.764 -19.659  0.00  0.00    +0.009 A 
ATOM     15  C   UNL     1      35.027 -21.872 -18.844  0.00  0.00    -0.007 A 
ATOM     16  C   UNL     1      33.034 -15.374 -23.916  0.00  0.00    +0.185 C 
ATOM     17  C   UNL     1      33.778 -22.455 -18.773  0.00  0.00    +0.081 A 
ATOM     18  C   UNL     1      36.506 -20.087 -19.780  0.00  0.00    +0.034 C 
ATOM     19  C   UNL     1      33.664 -14.272 -25.818  0.00  0.00    +0.080 C 
ATOM     20  C   UNL     1      34.849 -14.973 -25.832  0.00  0.00    +0.169 C 
ATOM     21  C   UNL     1      36.177 -22.419 -18.066  0.00  0.00    +0.032 C 
ENDROOT
BRANCH  19  22
ATOM     22  C   UNL     1      33.367 -13.270 -26.879  0.00  0.00    +0.121 C 
ATOM     23  C   UNL     1      33.667 -11.822 -26.419  0.00  0.00    +0.035 C 
ATOM     24  C   UNL     1      31.902 -13.354 -27.370  0.00  0.00    +0.035 C 
BRANCH  22  25
ATOM     25  O   UNL     1      34.182 -13.477 -28.056  0.00  0.00    -0.381 OA
ATOM     26  H   UNL     1      34.720 -14.275 -27.941  0.00  0.00    +0.211 HD
ENDBRANCH  22  25
ENDBRANCH  19  22
BRANCH  17  27
ATOM     27  C   UNL     1      33.536 -23.651 -17.917  0.00  0.00    +0.074 C 
BRANCH  27  28
ATOM     28  C   UNL     1      32.766 -23.352 -16.646  0.00  0.00    -0.016 C 
ATOM     29  C   UNL     1      31.404 -23.055 -16.710  0.00  0.00    -0.004 C 
ATOM     30  C   UNL     1      33.418 -23.375 -15.413  0.00  0.00    -0.004 C 
ATOM     31  C   UNL     1      30.695 -22.780 -15.541  0.00  0.00    -0.000 C 
ATOM     32  C   UNL     1      32.709 -23.102 -14.244  0.00  0.00    -0.000 C 
ATOM     33  C   UNL     1      31.347 -22.803 -14.308  0.00  0.00    -0.000 C 
ENDBRANCH  27  28
ENDBRANCH  17  27
TORSDOF 4
ENDMDL
MODEL 3
REMARK VINA RESULT:      -8.1      2.263      4.339
REMARK  Name = 45100669
REMARK  4 active torsions:
REMARK  status: ('A' for Active; 'I' for Inactive)
REMARK    1  A    between atoms: C_17  and  C_27
REMARK    2  A    between atoms: C_19  and  C_22
REMARK    3  A    between atoms: C_22  and  O_25
REMARK    4  A    between atoms: C_27  and  C_28
REMARK                            x       y       z     vdW  Elec       q    Type
REMARK                         _______ _______ _______ _____ _____    ______ ____
ROOT
ATOM      1  N   UNL     1      33.337 -14.373 -22.423  0.00  0.00    -0.294 N 
ATOM      2  N   UNL     1      34.340 -16.853 -21.570  0.00  0.00    -0.289 N 
ATOM      3  N   UNL     1      36.141 -18.114 -20.714  0.00  0.00    -0.134 NA
ATOM      4  N   UNL     1      32.048 -12.395 -22.229  0.00  0.00    -0.252 NA
ATOM      5  N   UNL     1      36.656 -19.287 -20.257  0.00  0.00    -0.151 NA
ATOM      6  N   UNL     1      34.104 -11.004 -23.534  0.00  0.00    -0.267 NA
ATOM      7  C   UNL     1      33.952 -15.252 -23.430  0.00  0.00    +0.094 C 
ATOM      8  C   UNL     1      34.946 -16.209 -22.741  0.00  0.00    +0.112 C 
ATOM      9  C   UNL     1      32.721 -15.034 -21.268  0.00  0.00    +0.113 C 
ATOM     10  C   UNL     1      33.737 -15.945 -20.586  0.00  0.00    +0.114 C 
ATOM     11  C   UNL     1      32.888 -16.020 -24.220  0.00  0.00    +0.023 C 
ATOM     12  C   UNL     1      34.851 -18.069 -21.104  0.00  0.00    +0.149 A 
ATOM     13  C   UNL     1      33.174 -13.009 -22.643  0.00  0.00    +0.129 C 
ATOM     14  C   UNL     1      34.016 -19.168 -21.063  0.00  0.00    +0.009 A 
ATOM     15  C   UNL     1      34.540 -20.362 -20.599  0.00  0.00    -0.007 A 
ATOM     16  C   UNL     1      34.184 -12.325 -23.284  0.00  0.00    +0.185 C 
ATOM     17  C   UNL     1      35.863 -20.378 -20.206  0.00  0.00    +0.081 A 
ATOM     18  C   UNL     1      32.592 -19.083 -21.503  0.00  0.00    +0.034 C 
ATOM     19  C   UNL     1      32.977 -10.390 -23.121  0.00  0.00    +0.080 C 
ATOM     20  C   UNL     1      31.968 -11.072 -22.480  0.00  0.00    +0.169 C 
ATOM     21  C   UNL     1      33.700 -21.594 -20.525  0.00  0.00    +0.032 C 
ENDROOT
BRANCH  19  22
ATOM     22  C   UNL     1      32.855  -8.928 -23.381  0.00  0.00    +0.121 C 
ATOM     23  C   UNL     1      34.100  -8.353 -24.098  0.00  0.00    +0.035 C 
ATOM     24  C   UNL     1      32.597  -8.122 -22.085  0.00  0.00    +0.035 C 
BRANCH  22  25
ATOM     25  O   UNL     1      31.737  -8.631 -24.250  0.00  0.00    -0.381 OA
ATOM     26  H   UNL     1      30.929  -8.545 -23.722  0.00  0.00    +0.211 HD
ENDBRANCH  22  25
ENDBRANCH  19  22
BRANCH  17  27
ATOM     27  C   UNL     1      36.497 -21.627 -19.696  0.00  0.00    +0.074 C 
BRANCH  27  28
ATOM     28  C   UNL     1      36.188 -21.925 -18.243  0.00  0.00    -0.016 C 
ATOM     29  C   UNL     1      34.992 -22.556 -17.899  0.00  0.00    -0.004 C 
ATOM     30  C   UNL     1      37.100 -21.568 -17.248  0.00  0.00    -0.004 C 
ATOM     31  C   UNL     1      34.708 -22.831 -16.561  0.00  0.00    -0.000 C 
ATOM     32  C   UNL     1      36.816 -21.843 -15.911  0.00  0.00    -0.000 C 
ATOM     33  C   UNL     1      35.619 -22.474 -15.567  0.00  0.00    -0.000 C 
ENDBRANCH  27  28
ENDBRANCH  17  27
TORSDOF 4
ENDMDL
MODEL 4
REMARK VINA RESULT:      -7.7      3.600     10.702
REMARK  Name = 45100669
REMARK  4 active torsions:
REMARK  status: ('A' for Active; 'I' for Inactive)
REMARK    1  A    between atoms: C_17  and  C_27
REMARK    2  A    between atoms: C_19  and  C_22
REMARK    3  A    between atoms: C_22  and  O_25
REMARK    4  A    between atoms: C_27  and  C_28
REMARK                            x       y       z     vdW  Elec       q    Type
REMARK                         _______ _______ _______ _____ _____    ______ ____
ROOT
ATOM      1  N   UNL     1      34.415 -16.607 -21.863  0.00  0.00    -0.294 N 
ATOM      2  N   UNL     1      33.278 -14.076 -22.295  0.00  0.00    -0.289 N 
ATOM      3  N   UNL     1      31.581 -12.515 -21.796  0.00  0.00    -0.134 NA
ATOM      4  N   UNL     1      36.013 -18.125 -20.997  0.00  0.00    -0.252 NA
ATOM      5  N   UNL     1      31.019 -11.285 -21.947  0.00  0.00    -0.151 NA
ATOM      6  N   UNL     1      33.943 -19.973 -20.590  0.00  0.00    -0.267 NA
ATOM      7  C   UNL     1      33.425 -16.470 -22.944  0.00  0.00    +0.094 C 
ATOM      8  C   UNL     1      32.502 -15.270 -22.648  0.00  0.00    +0.112 C 
ATOM      9  C   UNL     1      35.194 -15.409 -21.535  0.00  0.00    +0.113 C 
ATOM     10  C   UNL     1      34.255 -14.250 -21.213  0.00  0.00    +0.114 C 
ATOM     11  C   UNL     1      34.108 -16.331 -24.307  0.00  0.00    +0.023 C 
ATOM     12  C   UNL     1      32.716 -12.806 -22.465  0.00  0.00    +0.149 A 
ATOM     13  C   UNL     1      34.735 -17.845 -21.316  0.00  0.00    +0.129 C 
ATOM     14  C   UNL     1      33.342 -11.909 -23.306  0.00  0.00    +0.009 A 
ATOM     15  C   UNL     1      32.770 -10.659 -23.460  0.00  0.00    -0.007 A 
ATOM     16  C   UNL     1      33.718 -18.753 -21.116  0.00  0.00    +0.185 C 
ATOM     17  C   UNL     1      31.610 -10.388 -22.763  0.00  0.00    +0.081 A 
ATOM     18  C   UNL     1      34.598 -12.265 -24.032  0.00  0.00    +0.034 C 
ATOM     19  C   UNL     1      35.223 -20.253 -20.271  0.00  0.00    +0.080 C 
ATOM     20  C   UNL     1      36.239 -19.346 -20.470  0.00  0.00    +0.169 C 
ATOM     21  C   UNL     1      33.388  -9.634 -24.352  0.00  0.00    +0.032 C 
ENDROOT
BRANCH  19  22
ATOM     22  C   UNL     1      35.510 -21.593 -19.687  0.00  0.00    +0.121 C 
ATOM     23  C   UNL     1      34.224 -22.313 -19.212  0.00  0.00    +0.035 C 
ATOM     24  C   UNL     1      36.514 -21.517 -18.512  0.00  0.00    +0.035 C 
BRANCH  22  25
ATOM     25  O   UNL     1      36.114 -22.481 -20.656  0.00  0.00    -0.381 OA
ATOM     26  H   UNL     1      36.977 -22.778 -20.329  0.00  0.00    +0.211 HD
ENDBRANCH  22  25
ENDBRANCH  19  22
BRANCH  17  27
ATOM     27  C   UNL     1      30.936  -9.063 -22.879  0.00  0.00    +0.074 C 
BRANCH  27  28
ATOM     28  C   UNL     1      31.519  -7.994 -21.976  0.00  0.00    -0.016 C 
ATOM     29  C   UNL     1      31.396  -6.648 -22.319  0.00  0.00    -0.004 C 
ATOM     30  C   UNL     1      32.179  -8.357 -20.802  0.00  0.00    -0.004 C 
ATOM     31  C   UNL     1      31.932  -5.664 -21.488  0.00  0.00    -0.000 C 
ATOM     32  C   UNL     1      32.714  -7.375 -19.971  0.00  0.00    -0.000 C 
ATOM     33  C   UNL     1      32.592  -6.027 -20.314  0.00  0.00    -0.000 C 
ENDBRANCH  27  28
ENDBRANCH  17  27
TORSDOF 4
ENDMDL
