MODEL 1
REMARK VINA RESULT:      -8.0      0.000      0.000
REMARK  Name = 71940
REMARK  3 active torsions:
REMARK  status: ('A' for Active; 'I' for Inactive)
REMARK    1  A    between atoms: C_11  and  C_15
REMARK    2  A    between atoms: C_15  and  O_16
REMARK    3  A    between atoms: O_16  and  C_17
REMARK                            x       y       z     vdW  Elec       q    Type
REMARK                         _______ _______ _______ _____ _____    ______ ____
ROOT
ATOM      1  O   UNL     1      34.214 -14.276 -21.191  0.00  0.00    -0.269 OA
ATOM      2  N   UNL     1      34.325 -15.767 -23.008  0.00  0.00    -0.245 N 
ATOM      3  N   UNL     1      33.335 -15.115 -25.068  0.00  0.00    -0.273 N 
ATOM      4  C   UNL     1      35.064 -16.745 -22.149  0.00  0.00    +0.082 C 
ATOM      5  C   UNL     1      35.891 -17.705 -22.993  0.00  0.00    +0.025 C 
ATOM      6  C   UNL     1      35.029 -18.325 -24.070  0.00  0.00    +0.030 C 
ATOM      7  C   UNL     1      34.501 -17.240 -24.986  0.00  0.00    +0.004 C 
ATOM      8  C   UNL     1      34.024 -15.993 -24.307  0.00  0.00    +0.105 C 
ATOM      9  C   UNL     1      34.058 -17.468 -21.252  0.00  0.00    +0.022 C 
ATOM     10  C   UNL     1      33.926 -14.524 -22.353  0.00  0.00    +0.261 C 
ATOM     11  C   UNL     1      33.151 -13.610 -23.210  0.00  0.00    +0.144 C 
ATOM     12  C   UNL     1      32.900 -13.938 -24.480  0.00  0.00    +0.077 C 
ATOM     13  C   UNL     1      33.015 -15.339 -26.494  0.00  0.00    +0.119 C 
ENDROOT
BRANCH  11  15
ATOM     14  O   UNL     1      33.021 -11.244 -23.141  0.00  0.00    -0.245 OA
ATOM     15  C   UNL     1      32.634 -12.326 -22.729  0.00  0.00    +0.347 C 
BRANCH  15  16
ATOM     16  O   UNL     1      31.687 -12.565 -21.787  0.00  0.00    -0.445 OA
BRANCH  16  17
ATOM     17  C   UNL     1      31.152 -11.402 -21.147  0.00  0.00    +0.209 C 
ATOM     18  C   UNL     1      31.572 -11.401 -19.693  0.00  0.00    +0.051 C 
ENDBRANCH  16  17
ENDBRANCH  15  16
ENDBRANCH  11  15
TORSDOF 3
ENDMDL
MODEL 2
REMARK VINA RESULT:      -7.6      8.912     11.693
REMARK  Name = 71940
REMARK  3 active torsions:
REMARK  status: ('A' for Active; 'I' for Inactive)
REMARK    1  A    between atoms: C_11  and  C_15
REMARK    2  A    between atoms: C_15  and  O_16
REMARK    3  A    between atoms: O_16  and  C_17
REMARK                            x       y       z     vdW  Elec       q    Type
REMARK                         _______ _______ _______ _____ _____    ______ ____
ROOT
ATOM      1  O   UNL     1      30.848 -22.274 -17.442  0.00  0.00    -0.269 OA
ATOM      2  N   UNL     1      31.720 -23.507 -15.637  0.00  0.00    -0.245 N 
ATOM      3  N   UNL     1      34.048 -23.983 -15.614  0.00  0.00    -0.273 N 
ATOM      4  C   UNL     1      30.348 -23.592 -15.044  0.00  0.00    +0.082 C 
ATOM      5  C   UNL     1      30.411 -23.828 -13.542  0.00  0.00    +0.025 C 
ATOM      6  C   UNL     1      31.313 -25.002 -13.236  0.00  0.00    +0.030 C 
ATOM      7  C   UNL     1      32.718 -24.703 -13.718  0.00  0.00    +0.004 C 
ATOM      8  C   UNL     1      32.818 -24.044 -15.058  0.00  0.00    +0.105 C 
ATOM      9  C   UNL     1      29.564 -24.682 -15.778  0.00  0.00    +0.022 C 
ATOM     10  C   UNL     1      31.816 -22.800 -16.912  0.00  0.00    +0.261 C 
ATOM     11  C   UNL     1      33.168 -22.785 -17.496  0.00  0.00    +0.144 C 
ATOM     12  C   UNL     1      34.183 -23.358 -16.843  0.00  0.00    +0.077 C 
ATOM     13  C   UNL     1      35.261 -24.549 -14.984  0.00  0.00    +0.119 C 
ENDROOT
BRANCH  11  15
ATOM     14  O   UNL     1      32.781 -21.270 -19.277  0.00  0.00    -0.245 OA
ATOM     15  C   UNL     1      33.465 -22.152 -18.784  0.00  0.00    +0.347 C 
BRANCH  15  16
ATOM     16  O   UNL     1      34.593 -22.711 -19.292  0.00  0.00    -0.445 OA
BRANCH  16  17
ATOM     17  C   UNL     1      35.525 -21.792 -19.869  0.00  0.00    +0.209 C 
ATOM     18  C   UNL     1      36.536 -21.389 -18.817  0.00  0.00    +0.051 C 
ENDBRANCH  16  17
ENDBRANCH  15  16
ENDBRANCH  11  15
TORSDOF 3
ENDMDL
MODEL 3
REMARK VINA RESULT:      -7.6      2.148      5.448
REMARK  Name = 71940
REMARK  3 active torsions:
REMARK  status: ('A' for Active; 'I' for Inactive)
REMARK    1  A    between atoms: C_11  and  C_15
REMARK    2  A    between atoms: C_15  and  O_16
REMARK    3  A    between atoms: O_16  and  C_17
REMARK                            x       y       z     vdW  Elec       q    Type
REMARK                         _______ _______ _______ _____ _____    ______ ____
ROOT
ATOM      1  O   UNL     1      32.216 -14.838 -21.890  0.00  0.00    -0.269 OA
ATOM      2  N   UNL     1      32.351 -12.540 -22.383  0.00  0.00    -0.245 N 
ATOM      3  N   UNL     1      33.766 -11.848 -24.162  0.00  0.00    -0.273 N 
ATOM      4  C   UNL     1      31.391 -12.254 -21.271  0.00  0.00    +0.082 C 
ATOM      5  C   UNL     1      30.677 -10.927 -21.488  0.00  0.00    +0.025 C 
ATOM      6  C   UNL     1      31.683  -9.833 -21.760  0.00  0.00    +0.030 C 
ATOM      7  C   UNL     1      32.456 -10.155 -23.023  0.00  0.00    +0.004 C 
ATOM      8  C   UNL     1      32.881 -11.582 -23.177  0.00  0.00    +0.105 C 
ATOM      9  C   UNL     1      32.150 -12.303 -19.943  0.00  0.00    +0.022 C 
ATOM     10  C   UNL     1      32.705 -13.946 -22.568  0.00  0.00    +0.261 C 
ATOM     11  C   UNL     1      33.695 -14.186 -23.632  0.00  0.00    +0.144 C 
ATOM     12  C   UNL     1      34.163 -13.162 -24.351  0.00  0.00    +0.077 C 
ATOM     13  C   UNL     1      34.339 -10.815 -25.052  0.00  0.00    +0.119 C 
ENDROOT
BRANCH  11  15
ATOM     14  O   UNL     1      33.724 -16.236 -24.821  0.00  0.00    -0.245 OA
ATOM     15  C   UNL     1      34.200 -15.524 -23.952  0.00  0.00    +0.347 C 
BRANCH  15  16
ATOM     16  O   UNL     1      35.250 -15.798 -23.136  0.00  0.00    -0.445 OA
BRANCH  16  17
ATOM     17  C   UNL     1      35.243 -17.102 -22.549  0.00  0.00    +0.209 C 
ATOM     18  C   UNL     1      34.969 -16.974 -21.066  0.00  0.00    +0.051 C 
ENDBRANCH  16  17
ENDBRANCH  15  16
ENDBRANCH  11  15
TORSDOF 3
ENDMDL
MODEL 4
REMARK VINA RESULT:      -7.6      3.230      6.600
REMARK  Name = 71940
REMARK  3 active torsions:
REMARK  status: ('A' for Active; 'I' for Inactive)
REMARK    1  A    between atoms: C_11  and  C_15
REMARK    2  A    between atoms: C_15  and  O_16
REMARK    3  A    between atoms: O_16  and  C_17
REMARK                            x       y       z     vdW  Elec       q    Type
REMARK                         _______ _______ _______ _____ _____    ______ ____
ROOT
ATOM      1  O   UNL     1      31.155 -11.467 -21.720  0.00  0.00    -0.269 OA
ATOM      2  N   UNL     1      32.523  -9.810 -22.680  0.00  0.00    -0.245 N 
ATOM      3  N   UNL     1      34.196 -10.483 -24.228  0.00  0.00    -0.273 N 
ATOM      4  C   UNL     1      31.797  -8.766 -21.891  0.00  0.00    +0.082 C 
ATOM      5  C   UNL     1      31.913  -7.398 -22.549  0.00  0.00    +0.025 C 
ATOM      6  C   UNL     1      33.362  -7.084 -22.843  0.00  0.00    +0.030 C 
ATOM      7  C   UNL     1      33.921  -8.110 -23.806  0.00  0.00    +0.004 C 
ATOM      8  C   UNL     1      33.529  -9.531 -23.540  0.00  0.00    +0.105 C 
ATOM      9  C   UNL     1      32.329  -8.775 -20.457  0.00  0.00    +0.022 C 
ATOM     10  C   UNL     1      32.085 -11.186 -22.463  0.00  0.00    +0.261 C 
ATOM     11  C   UNL     1      32.858 -12.193 -23.210  0.00  0.00    +0.144 C 
ATOM     12  C   UNL     1      33.843 -11.808 -24.026  0.00  0.00    +0.077 C 
ATOM     13  C   UNL     1      35.285 -10.192 -25.186  0.00  0.00    +0.119 C 
ENDROOT
BRANCH  11  15
ATOM     14  O   UNL     1      32.104 -14.157 -22.118  0.00  0.00    -0.245 OA
ATOM     15  C   UNL     1      32.593 -13.631 -23.105  0.00  0.00    +0.347 C 
BRANCH  15  16
ATOM     16  O   UNL     1      32.975 -14.228 -24.262  0.00  0.00    -0.445 OA
BRANCH  16  17
ATOM     17  C   UNL     1      33.752 -15.420 -24.107  0.00  0.00    +0.209 C 
ATOM     18  C   UNL     1      33.902 -16.089 -25.457  0.00  0.00    +0.051 C 
ENDBRANCH  16  17
ENDBRANCH  15  16
ENDBRANCH  11  15
TORSDOF 3
ENDMDL
MODEL 5
REMARK VINA RESULT:      -7.4     10.768     13.196
REMARK  Name = 71940
REMARK  3 active torsions:
REMARK  status: ('A' for Active; 'I' for Inactive)
REMARK    1  A    between atoms: C_11  and  C_15
REMARK    2  A    between atoms: C_15  and  O_16
REMARK    3  A    between atoms: O_16  and  C_17
REMARK                            x       y       z     vdW  Elec       q    Type
REMARK                         _______ _______ _______ _____ _____    ______ ____
ROOT
ATOM      1  O   UNL     1      34.311 -24.523 -12.776  0.00  0.00    -0.269 OA
ATOM      2  N   UNL     1      33.373 -23.765 -14.797  0.00  0.00    -0.245 N 
ATOM      3  N   UNL     1      34.835 -22.975 -16.495  0.00  0.00    -0.273 N 
ATOM      4  C   UNL     1      32.006 -24.065 -14.265  0.00  0.00    +0.082 C 
ATOM      5  C   UNL     1      31.010 -24.279 -15.396  0.00  0.00    +0.025 C 
ATOM      6  C   UNL     1      31.076 -23.128 -16.373  0.00  0.00    +0.030 C 
ATOM      7  C   UNL     1      32.461 -23.057 -16.983  0.00  0.00    +0.004 C 
ATOM      8  C   UNL     1      33.600 -23.266 -16.033  0.00  0.00    +0.105 C 
ATOM      9  C   UNL     1      31.589 -22.937 -13.320  0.00  0.00    +0.022 C 
ATOM     10  C   UNL     1      34.482 -24.039 -13.886  0.00  0.00    +0.261 C 
ATOM     11  C   UNL     1      35.807 -23.679 -14.418  0.00  0.00    +0.144 C 
ATOM     12  C   UNL     1      35.917 -23.180 -15.652  0.00  0.00    +0.077 C 
ATOM     13  C   UNL     1      35.102 -22.447 -17.851  0.00  0.00    +0.119 C 
ENDROOT
BRANCH  11  15
ATOM     14  O   UNL     1      37.562 -22.955 -12.999  0.00  0.00    -0.245 OA
ATOM     15  C   UNL     1      37.041 -23.848 -13.646  0.00  0.00    +0.347 C 
BRANCH  15  16
ATOM     16  O   UNL     1      37.466 -25.130 -13.785  0.00  0.00    -0.445 OA
BRANCH  16  17
ATOM     17  C   UNL     1      38.676 -25.451 -13.092  0.00  0.00    +0.209 C 
ATOM     18  C   UNL     1      39.813 -25.518 -14.090  0.00  0.00    +0.051 C 
ENDBRANCH  16  17
ENDBRANCH  15  16
ENDBRANCH  11  15
TORSDOF 3
ENDMDL
MODEL 6
REMARK VINA RESULT:      -7.4      3.275      6.353
REMARK  Name = 71940
REMARK  3 active torsions:
REMARK  status: ('A' for Active; 'I' for Inactive)
REMARK    1  A    between atoms: C_11  and  C_15
REMARK    2  A    between atoms: C_15  and  O_16
REMARK    3  A    between atoms: O_16  and  C_17
REMARK                            x       y       z     vdW  Elec       q    Type
REMARK                         _______ _______ _______ _____ _____    ______ ____
ROOT
ATOM      1  O   UNL     1      31.159 -11.438 -21.773  0.00  0.00    -0.269 OA
ATOM      2  N   UNL     1      32.541  -9.777 -22.705  0.00  0.00    -0.245 N 
ATOM      3  N   UNL     1      34.231 -10.442 -24.237  0.00  0.00    -0.273 N 
ATOM      4  C   UNL     1      31.806  -8.737 -21.919  0.00  0.00    +0.082 C 
ATOM      5  C   UNL     1      31.933  -7.365 -22.567  0.00  0.00    +0.025 C 
ATOM      6  C   UNL     1      33.386  -7.051 -22.841  0.00  0.00    +0.030 C 
ATOM      7  C   UNL     1      33.955  -8.073 -23.804  0.00  0.00    +0.004 C 
ATOM      8  C   UNL     1      33.557  -9.494 -23.551  0.00  0.00    +0.105 C 
ATOM      9  C   UNL     1      32.321  -8.756 -20.478  0.00  0.00    +0.022 C 
ATOM     10  C   UNL     1      32.098 -11.154 -22.503  0.00  0.00    +0.261 C 
ATOM     11  C   UNL     1      32.879 -12.157 -23.246  0.00  0.00    +0.144 C 
ATOM     12  C   UNL     1      33.874 -11.768 -24.048  0.00  0.00    +0.077 C 
ATOM     13  C   UNL     1      35.332 -10.148 -25.180  0.00  0.00    +0.119 C 
ENDROOT
BRANCH  11  15
ATOM     14  O   UNL     1      32.668 -14.357 -24.105  0.00  0.00    -0.245 OA
ATOM     15  C   UNL     1      32.610 -13.595 -23.153  0.00  0.00    +0.347 C 
BRANCH  15  16
ATOM     16  O   UNL     1      32.301 -13.896 -21.867  0.00  0.00    -0.445 OA
BRANCH  16  17
ATOM     17  C   UNL     1      32.776 -15.164 -21.404  0.00  0.00    +0.209 C 
ATOM     18  C   UNL     1      34.159 -14.989 -20.817  0.00  0.00    +0.051 C 
ENDBRANCH  16  17
ENDBRANCH  15  16
ENDBRANCH  11  15
TORSDOF 3
ENDMDL
MODEL 7
REMARK VINA RESULT:      -7.4      2.159      5.739
REMARK  Name = 71940
REMARK  3 active torsions:
REMARK  status: ('A' for Active; 'I' for Inactive)
REMARK    1  A    between atoms: C_11  and  C_15
REMARK    2  A    between atoms: C_15  and  O_16
REMARK    3  A    between atoms: O_16  and  C_17
REMARK                            x       y       z     vdW  Elec       q    Type
REMARK                         _______ _______ _______ _____ _____    ______ ____
ROOT
ATOM      1  O   UNL     1      32.082 -14.662 -21.494  0.00  0.00    -0.269 OA
ATOM      2  N   UNL     1      32.270 -12.459 -22.301  0.00  0.00    -0.245 N 
ATOM      3  N   UNL     1      33.770 -12.037 -24.095  0.00  0.00    -0.273 N 
ATOM      4  C   UNL     1      31.267 -12.010 -21.285  0.00  0.00    +0.082 C 
ATOM      5  C   UNL     1      30.581 -10.723 -21.720  0.00  0.00    +0.025 C 
ATOM      6  C   UNL     1      31.613  -9.686 -22.099  0.00  0.00    +0.030 C 
ATOM      7  C   UNL     1      32.436 -10.190 -23.268  0.00  0.00    +0.004 C 
ATOM      8  C   UNL     1      32.847 -11.628 -23.199  0.00  0.00    +0.105 C 
ATOM      9  C   UNL     1      31.966 -11.875 -19.931  0.00  0.00    +0.022 C 
ATOM     10  C   UNL     1      32.612 -13.879 -22.270  0.00  0.00    +0.261 C 
ATOM     11  C   UNL     1      33.644 -14.276 -23.243  0.00  0.00    +0.144 C 
ATOM     12  C   UNL     1      34.157 -13.368 -24.078  0.00  0.00    +0.077 C 
ATOM     13  C   UNL     1      34.396 -11.145 -25.096  0.00  0.00    +0.119 C 
ENDROOT
BRANCH  11  15
ATOM     14  O   UNL     1      34.766 -16.211 -22.460  0.00  0.00    -0.245 OA
ATOM     15  C   UNL     1      34.145 -15.649 -23.347  0.00  0.00    +0.347 C 
BRANCH  15  16
ATOM     16  O   UNL     1      33.796 -16.146 -24.561  0.00  0.00    -0.445 OA
BRANCH  16  17
ATOM     17  C   UNL     1      34.772 -16.990 -25.180  0.00  0.00    +0.209 C 
ATOM     18  C   UNL     1      34.344 -18.434 -25.028  0.00  0.00    +0.051 C 
ENDBRANCH  16  17
ENDBRANCH  15  16
ENDBRANCH  11  15
TORSDOF 3
ENDMDL
MODEL 8
REMARK VINA RESULT:      -7.3      2.582      5.745
REMARK  Name = 71940
REMARK  3 active torsions:
REMARK  status: ('A' for Active; 'I' for Inactive)
REMARK    1  A    between atoms: C_11  and  C_15
REMARK    2  A    between atoms: C_15  and  O_16
REMARK    3  A    between atoms: O_16  and  C_17
REMARK                            x       y       z     vdW  Elec       q    Type
REMARK                         _______ _______ _______ _____ _____    ______ ____
ROOT
ATOM      1  O   UNL     1      35.296 -16.351 -24.418  0.00  0.00    -0.269 OA
ATOM      2  N   UNL     1      33.864 -14.864 -23.288  0.00  0.00    -0.245 N 
ATOM      3  N   UNL     1      33.155 -15.428 -21.091  0.00  0.00    -0.273 N 
ATOM      4  C   UNL     1      33.878 -13.958 -24.480  0.00  0.00    +0.082 C 
ATOM      5  C   UNL     1      33.538 -12.527 -24.088  0.00  0.00    +0.025 C 
ATOM      6  C   UNL     1      32.261 -12.498 -23.280  0.00  0.00    +0.030 C 
ATOM      7  C   UNL     1      32.448 -13.295 -22.005  0.00  0.00    +0.004 C 
ATOM      8  C   UNL     1      33.182 -14.592 -22.152  0.00  0.00    +0.105 C 
ATOM      9  C   UNL     1      32.924 -14.522 -25.535  0.00  0.00    +0.022 C 
ATOM     10  C   UNL     1      34.640 -16.094 -23.418  0.00  0.00    +0.261 C 
ATOM     11  C   UNL     1      34.558 -16.989 -22.251  0.00  0.00    +0.144 C 
ATOM     12  C   UNL     1      33.843 -16.627 -21.182  0.00  0.00    +0.077 C 
ATOM     13  C   UNL     1      32.429 -15.137 -19.836  0.00  0.00    +0.119 C 
ENDROOT
BRANCH  11  15
ATOM     14  O   UNL     1      36.456 -18.409 -22.210  0.00  0.00    -0.245 OA
ATOM     15  C   UNL     1      35.242 -18.284 -22.199  0.00  0.00    +0.347 C 
BRANCH  15  16
ATOM     16  O   UNL     1      34.306 -19.266 -22.137  0.00  0.00    -0.445 OA
BRANCH  16  17
ATOM     17  C   UNL     1      34.360 -20.090 -20.969  0.00  0.00    +0.209 C 
ATOM     18  C   UNL     1      32.968 -20.216 -20.389  0.00  0.00    +0.051 C 
ENDBRANCH  16  17
ENDBRANCH  15  16
ENDBRANCH  11  15
TORSDOF 3
ENDMDL
MODEL 9
REMARK VINA RESULT:      -7.3      8.546     10.891
REMARK  Name = 71940
REMARK  3 active torsions:
REMARK  status: ('A' for Active; 'I' for Inactive)
REMARK    1  A    between atoms: C_11  and  C_15
REMARK    2  A    between atoms: C_15  and  O_16
REMARK    3  A    between atoms: O_16  and  C_17
REMARK                            x       y       z     vdW  Elec       q    Type
REMARK                         _______ _______ _______ _____ _____    ______ ____
ROOT
ATOM      1  O   UNL     1      32.172 -23.298 -17.675  0.00  0.00    -0.269 OA
ATOM      2  N   UNL     1      34.358 -22.494 -18.007  0.00  0.00    -0.245 N 
ATOM      3  N   UNL     1      35.856 -22.497 -16.162  0.00  0.00    -0.273 N 
ATOM      4  C   UNL     1      34.027 -22.210 -19.439  0.00  0.00    +0.082 C 
ATOM      5  C   UNL     1      35.283 -22.177 -20.299  0.00  0.00    +0.025 C 
ATOM      6  C   UNL     1      36.309 -21.253 -19.686  0.00  0.00    +0.030 C 
ATOM      7  C   UNL     1      36.700 -21.764 -18.314  0.00  0.00    +0.004 C 
ATOM      8  C   UNL     1      35.574 -22.261 -17.462  0.00  0.00    +0.105 C 
ATOM      9  C   UNL     1      33.233 -20.904 -19.509  0.00  0.00    +0.022 C 
ATOM     10  C   UNL     1      33.270 -23.044 -17.202  0.00  0.00    +0.261 C 
ATOM     11  C   UNL     1      33.613 -23.257 -15.786  0.00  0.00    +0.144 C 
ATOM     12  C   UNL     1      34.844 -22.982 -15.348  0.00  0.00    +0.077 C 
ATOM     13  C   UNL     1      37.185 -22.266 -15.555  0.00  0.00    +0.119 C 
ENDROOT
BRANCH  11  15
ATOM     14  O   UNL     1      32.728 -24.880 -14.302  0.00  0.00    -0.245 OA
ATOM     15  C   UNL     1      32.649 -23.773 -14.810  0.00  0.00    +0.347 C 
BRANCH  15  16
ATOM     16  O   UNL     1      31.702 -22.826 -14.592  0.00  0.00    -0.445 OA
BRANCH  16  17
ATOM     17  C   UNL     1      30.380 -23.323 -14.363  0.00  0.00    +0.209 C 
ATOM     18  C   UNL     1      29.452 -22.762 -15.419  0.00  0.00    +0.051 C 
ENDBRANCH  16  17
ENDBRANCH  15  16
ENDBRANCH  11  15
TORSDOF 3
ENDMDL
