MODEL 1
REMARK VINA RESULT:      -8.3      0.000      0.000
REMARK  Name = 7099
REMARK  2 active torsions:
REMARK  status: ('A' for Active; 'I' for Inactive)
REMARK    1  A    between atoms: C_11  and  N_15
REMARK    2  A    between atoms: C_12  and  N_18
REMARK                            x       y       z     vdW  Elec       q    Type
REMARK                         _______ _______ _______ _____ _____    ______ ____
ROOT
ATOM      1  N   UNL     1      36.420 -20.936 -18.876  0.00  0.00    -0.410 NA
ATOM      2  C   UNL     1      34.371 -20.742 -20.123  0.00  0.00    +0.008 C 
ATOM      3  C   UNL     1      34.485 -22.177 -18.165  0.00  0.00    +0.008 C 
ATOM      4  C   UNL     1      35.720 -20.417 -19.903  0.00  0.00    +0.111 C 
ATOM      5  C   UNL     1      35.829 -21.795 -18.023  0.00  0.00    +0.111 C 
ATOM      6  C   UNL     1      33.762 -21.634 -19.234  0.00  0.00    +0.057 C 
ATOM      7  C   UNL     1      33.670 -20.182 -21.205  0.00  0.00    -0.001 C 
ATOM      8  C   UNL     1      33.899 -23.075 -17.257  0.00  0.00    -0.001 C 
ATOM      9  C   UNL     1      36.331 -19.529 -20.785  0.00  0.00    +0.099 C 
ATOM     10  C   UNL     1      36.553 -22.331 -16.961  0.00  0.00    +0.099 C 
ATOM     11  C   UNL     1      35.637 -18.971 -21.862  0.00  0.00    +0.026 C 
ATOM     12  C   UNL     1      35.973 -23.225 -16.055  0.00  0.00    +0.026 C 
ATOM     13  C   UNL     1      34.304 -19.297 -22.073  0.00  0.00    +0.010 C 
ATOM     14  C   UNL     1      34.644 -23.597 -16.203  0.00  0.00    +0.010 C 
ENDROOT
BRANCH  11  15
ATOM     15  N   UNL     1      36.292 -18.075 -22.733  0.00  0.00    -0.360 N 
ATOM     16  H   UNL     1      35.766 -17.505 -23.339  0.00  0.00    +0.142 HD
ATOM     17  H   UNL     1      37.275 -18.022 -22.736  0.00  0.00    +0.142 HD
ENDBRANCH  11  15
BRANCH  12  18
ATOM     18  N   UNL     1      36.740 -23.746 -14.993  0.00  0.00    -0.360 N 
ATOM     19  H   UNL     1      37.613 -24.164 -15.174  0.00  0.00    +0.142 HD
ATOM     20  H   UNL     1      36.402 -23.692 -14.069  0.00  0.00    +0.142 HD
ENDBRANCH  12  18
TORSDOF 2
ENDMDL
MODEL 2
REMARK VINA RESULT:      -8.2      0.027      5.647
REMARK  Name = 7099
REMARK  2 active torsions:
REMARK  status: ('A' for Active; 'I' for Inactive)
REMARK    1  A    between atoms: C_11  and  N_15
REMARK    2  A    between atoms: C_12  and  N_18
REMARK                            x       y       z     vdW  Elec       q    Type
REMARK                         _______ _______ _______ _____ _____    ______ ____
ROOT
ATOM      1  N   UNL     1      36.398 -20.926 -18.875  0.00  0.00    -0.410 NA
ATOM      2  C   UNL     1      34.462 -22.171 -18.174  0.00  0.00    +0.008 C 
ATOM      3  C   UNL     1      34.353 -20.728 -20.126  0.00  0.00    +0.008 C 
ATOM      4  C   UNL     1      35.806 -21.789 -18.027  0.00  0.00    +0.111 C 
ATOM      5  C   UNL     1      35.701 -20.403 -19.902  0.00  0.00    +0.111 C 
ATOM      6  C   UNL     1      33.742 -21.624 -19.242  0.00  0.00    +0.057 C 
ATOM      7  C   UNL     1      33.875 -23.073 -17.271  0.00  0.00    -0.001 C 
ATOM      8  C   UNL     1      33.654 -20.164 -21.208  0.00  0.00    -0.001 C 
ATOM      9  C   UNL     1      36.527 -22.329 -16.965  0.00  0.00    +0.099 C 
ATOM     10  C   UNL     1      36.314 -19.511 -20.778  0.00  0.00    +0.099 C 
ATOM     11  C   UNL     1      35.946 -23.227 -16.065  0.00  0.00    +0.026 C 
ATOM     12  C   UNL     1      35.622 -18.948 -21.854  0.00  0.00    +0.026 C 
ATOM     13  C   UNL     1      34.617 -23.600 -16.218  0.00  0.00    +0.010 C 
ATOM     14  C   UNL     1      34.289 -19.275 -22.070  0.00  0.00    +0.010 C 
ENDROOT
BRANCH  11  15
ATOM     15  N   UNL     1      36.710 -23.753 -15.003  0.00  0.00    -0.360 N 
ATOM     16  H   UNL     1      36.677 -23.328 -14.115  0.00  0.00    +0.142 HD
ATOM     17  H   UNL     1      37.278 -24.544 -15.150  0.00  0.00    +0.142 HD
ENDBRANCH  11  15
BRANCH  12  18
ATOM     18  N   UNL     1      36.278 -18.049 -22.720  0.00  0.00    -0.360 N 
ATOM     19  H   UNL     1      36.602 -18.357 -23.597  0.00  0.00    +0.142 HD
ATOM     20  H   UNL     1      36.411 -17.112 -22.448  0.00  0.00    +0.142 HD
ENDBRANCH  12  18
TORSDOF 2
ENDMDL
MODEL 3
REMARK VINA RESULT:      -8.2      4.437      8.839
REMARK  Name = 7099
REMARK  2 active torsions:
REMARK  status: ('A' for Active; 'I' for Inactive)
REMARK    1  A    between atoms: C_11  and  N_15
REMARK    2  A    between atoms: C_12  and  N_18
REMARK                            x       y       z     vdW  Elec       q    Type
REMARK                         _______ _______ _______ _____ _____    ______ ____
ROOT
ATOM      1  N   UNL     1      34.671 -15.536 -22.510  0.00  0.00    -0.410 NA
ATOM      2  C   UNL     1      34.589 -17.609 -23.728  0.00  0.00    +0.008 C 
ATOM      3  C   UNL     1      33.926 -15.530 -24.798  0.00  0.00    +0.008 C 
ATOM      4  C   UNL     1      34.856 -16.869 -22.565  0.00  0.00    +0.111 C 
ATOM      5  C   UNL     1      34.219 -14.872 -23.592  0.00  0.00    +0.111 C 
ATOM      6  C   UNL     1      34.119 -16.915 -24.849  0.00  0.00    +0.057 C 
ATOM      7  C   UNL     1      34.792 -19.000 -23.751  0.00  0.00    -0.001 C 
ATOM      8  C   UNL     1      33.455 -14.808 -25.908  0.00  0.00    -0.001 C 
ATOM      9  C   UNL     1      35.323 -17.554 -21.446  0.00  0.00    +0.099 C 
ATOM     10  C   UNL     1      34.029 -13.494 -23.535  0.00  0.00    +0.099 C 
ATOM     11  C   UNL     1      35.527 -18.937 -21.465  0.00  0.00    +0.026 C 
ATOM     12  C   UNL     1      33.561 -12.772 -24.637  0.00  0.00    +0.026 C 
ATOM     13  C   UNL     1      35.261 -19.661 -22.620  0.00  0.00    +0.010 C 
ATOM     14  C   UNL     1      33.273 -13.430 -25.826  0.00  0.00    +0.010 C 
ENDROOT
BRANCH  11  15
ATOM     15  N   UNL     1      36.002 -19.595 -20.312  0.00  0.00    -0.360 N 
ATOM     16  H   UNL     1      35.366 -19.926 -19.637  0.00  0.00    +0.142 HD
ATOM     17  H   UNL     1      36.969 -19.722 -20.181  0.00  0.00    +0.142 HD
ENDBRANCH  11  15
BRANCH  12  18
ATOM     18  N   UNL     1      33.381 -11.377 -24.540  0.00  0.00    -0.360 N 
ATOM     19  H   UNL     1      33.414 -10.936 -23.660  0.00  0.00    +0.142 HD
ATOM     20  H   UNL     1      33.224 -10.843 -25.352  0.00  0.00    +0.142 HD
ENDBRANCH  12  18
TORSDOF 2
ENDMDL
MODEL 4
REMARK VINA RESULT:      -8.2      4.439      7.097
REMARK  Name = 7099
REMARK  2 active torsions:
REMARK  status: ('A' for Active; 'I' for Inactive)
REMARK    1  A    between atoms: C_11  and  N_15
REMARK    2  A    between atoms: C_12  and  N_18
REMARK                            x       y       z     vdW  Elec       q    Type
REMARK                         _______ _______ _______ _____ _____    ______ ____
ROOT
ATOM      1  N   UNL     1      34.667 -15.539 -22.514  0.00  0.00    -0.410 NA
ATOM      2  C   UNL     1      33.924 -15.528 -24.803  0.00  0.00    +0.008 C 
ATOM      3  C   UNL     1      34.586 -17.609 -23.737  0.00  0.00    +0.008 C 
ATOM      4  C   UNL     1      34.216 -14.873 -23.594  0.00  0.00    +0.111 C 
ATOM      5  C   UNL     1      34.851 -16.872 -22.571  0.00  0.00    +0.111 C 
ATOM      6  C   UNL     1      34.117 -16.912 -24.857  0.00  0.00    +0.057 C 
ATOM      7  C   UNL     1      33.455 -14.802 -25.911  0.00  0.00    -0.001 C 
ATOM      8  C   UNL     1      34.789 -19.000 -23.764  0.00  0.00    -0.001 C 
ATOM      9  C   UNL     1      34.026 -13.495 -23.535  0.00  0.00    +0.099 C 
ATOM     10  C   UNL     1      35.318 -17.560 -21.454  0.00  0.00    +0.099 C 
ATOM     11  C   UNL     1      33.559 -12.770 -24.635  0.00  0.00    +0.026 C 
ATOM     12  C   UNL     1      35.521 -18.943 -21.477  0.00  0.00    +0.026 C 
ATOM     13  C   UNL     1      33.273 -13.425 -25.826  0.00  0.00    +0.010 C 
ATOM     14  C   UNL     1      35.256 -19.664 -22.633  0.00  0.00    +0.010 C 
ENDROOT
BRANCH  11  15
ATOM     15  N   UNL     1      33.379 -11.375 -24.535  0.00  0.00    -0.360 N 
ATOM     16  H   UNL     1      33.991 -10.838 -23.981  0.00  0.00    +0.142 HD
ATOM     17  H   UNL     1      32.641 -10.938 -25.017  0.00  0.00    +0.142 HD
ENDBRANCH  11  15
BRANCH  12  18
ATOM     18  N   UNL     1      35.995 -19.603 -20.324  0.00  0.00    -0.360 N 
ATOM     19  H   UNL     1      36.003 -19.137 -19.457  0.00  0.00    +0.142 HD
ATOM     20  H   UNL     1      36.317 -20.532 -20.386  0.00  0.00    +0.142 HD
ENDBRANCH  12  18
TORSDOF 2
ENDMDL
MODEL 5
REMARK VINA RESULT:      -8.1      4.625      7.473
REMARK  Name = 7099
REMARK  2 active torsions:
REMARK  status: ('A' for Active; 'I' for Inactive)
REMARK    1  A    between atoms: C_11  and  N_15
REMARK    2  A    between atoms: C_12  and  N_18
REMARK                            x       y       z     vdW  Elec       q    Type
REMARK                         _______ _______ _______ _____ _____    ______ ____
ROOT
ATOM      1  N   UNL     1      35.773 -24.349 -15.692  0.00  0.00    -0.410 NA
ATOM      2  C   UNL     1      35.928 -24.800 -13.334  0.00  0.00    +0.008 C 
ATOM      3  C   UNL     1      33.866 -23.934 -14.284  0.00  0.00    +0.008 C 
ATOM      4  C   UNL     1      36.479 -24.771 -14.625  0.00  0.00    +0.111 C 
ATOM      5  C   UNL     1      34.499 -23.938 -15.538  0.00  0.00    +0.111 C 
ATOM      6  C   UNL     1      34.604 -24.373 -13.179  0.00  0.00    +0.057 C 
ATOM      7  C   UNL     1      36.692 -25.247 -12.242  0.00  0.00    -0.001 C 
ATOM      8  C   UNL     1      32.535 -23.499 -14.159  0.00  0.00    -0.001 C 
ATOM      9  C   UNL     1      37.796 -25.195 -14.785  0.00  0.00    +0.099 C 
ATOM     10  C   UNL     1      33.769 -23.502 -16.641  0.00  0.00    +0.099 C 
ATOM     11  C   UNL     1      38.559 -25.640 -13.702  0.00  0.00    +0.026 C 
ATOM     12  C   UNL     1      32.446 -23.069 -16.520  0.00  0.00    +0.026 C 
ATOM     13  C   UNL     1      38.007 -25.666 -12.428  0.00  0.00    +0.010 C 
ATOM     14  C   UNL     1      31.827 -23.067 -15.277  0.00  0.00    +0.010 C 
ENDROOT
BRANCH  11  15
ATOM     15  N   UNL     1      39.890 -26.061 -13.904  0.00  0.00    -0.360 N 
ATOM     16  H   UNL     1      40.622 -25.404 -13.888  0.00  0.00    +0.142 HD
ATOM     17  H   UNL     1      40.086 -27.013 -14.062  0.00  0.00    +0.142 HD
ENDBRANCH  11  15
BRANCH  12  18
ATOM     18  N   UNL     1      31.740 -22.635 -17.661  0.00  0.00    -0.360 N 
ATOM     19  H   UNL     1      31.330 -23.293 -18.267  0.00  0.00    +0.142 HD
ATOM     20  H   UNL     1      31.657 -21.672 -17.851  0.00  0.00    +0.142 HD
ENDBRANCH  12  18
TORSDOF 2
ENDMDL
MODEL 6
REMARK VINA RESULT:      -8.1      4.641      6.163
REMARK  Name = 7099
REMARK  2 active torsions:
REMARK  status: ('A' for Active; 'I' for Inactive)
REMARK    1  A    between atoms: C_11  and  N_15
REMARK    2  A    between atoms: C_12  and  N_18
REMARK                            x       y       z     vdW  Elec       q    Type
REMARK                         _______ _______ _______ _____ _____    ______ ____
ROOT
ATOM      1  N   UNL     1      35.751 -24.344 -15.682  0.00  0.00    -0.410 NA
ATOM      2  C   UNL     1      33.843 -23.947 -14.270  0.00  0.00    +0.008 C 
ATOM      3  C   UNL     1      35.909 -24.813 -13.327  0.00  0.00    +0.008 C 
ATOM      4  C   UNL     1      34.475 -23.940 -15.524  0.00  0.00    +0.111 C 
ATOM      5  C   UNL     1      36.459 -24.771 -14.619  0.00  0.00    +0.111 C 
ATOM      6  C   UNL     1      34.584 -24.392 -13.169  0.00  0.00    +0.057 C 
ATOM      7  C   UNL     1      32.511 -23.519 -14.140  0.00  0.00    -0.001 C 
ATOM      8  C   UNL     1      36.676 -25.264 -12.239  0.00  0.00    -0.001 C 
ATOM      9  C   UNL     1      33.743 -23.498 -16.623  0.00  0.00    +0.099 C 
ATOM     10  C   UNL     1      37.778 -25.189 -14.782  0.00  0.00    +0.099 C 
ATOM     11  C   UNL     1      32.418 -23.072 -16.499  0.00  0.00    +0.026 C 
ATOM     12  C   UNL     1      38.543 -25.639 -13.702  0.00  0.00    +0.026 C 
ATOM     13  C   UNL     1      31.800 -23.082 -15.255  0.00  0.00    +0.010 C 
ATOM     14  C   UNL     1      37.992 -25.676 -12.429  0.00  0.00    +0.010 C 
ENDROOT
BRANCH  11  15
ATOM     15  N   UNL     1      31.710 -22.631 -17.636  0.00  0.00    -0.360 N 
ATOM     16  H   UNL     1      30.925 -22.046 -17.532  0.00  0.00    +0.142 HD
ATOM     17  H   UNL     1      32.000 -22.910 -18.535  0.00  0.00    +0.142 HD
ENDBRANCH  11  15
BRANCH  12  18
ATOM     18  N   UNL     1      39.875 -26.053 -13.909  0.00  0.00    -0.360 N 
ATOM     19  H   UNL     1      40.379 -26.475 -13.175  0.00  0.00    +0.142 HD
ATOM     20  H   UNL     1      40.302 -25.922 -14.787  0.00  0.00    +0.142 HD
ENDBRANCH  12  18
TORSDOF 2
ENDMDL
MODEL 7
REMARK VINA RESULT:      -8.0      2.080      6.460
REMARK  Name = 7099
REMARK  2 active torsions:
REMARK  status: ('A' for Active; 'I' for Inactive)
REMARK    1  A    between atoms: C_11  and  N_15
REMARK    2  A    between atoms: C_12  and  N_18
REMARK                            x       y       z     vdW  Elec       q    Type
REMARK                         _______ _______ _______ _____ _____    ______ ____
ROOT
ATOM      1  N   UNL     1      34.417 -23.117 -16.829  0.00  0.00    -0.410 NA
ATOM      2  C   UNL     1      36.745 -22.938 -16.245  0.00  0.00    +0.008 C 
ATOM      3  C   UNL     1      35.882 -21.798 -18.209  0.00  0.00    +0.008 C 
ATOM      4  C   UNL     1      35.446 -23.422 -16.014  0.00  0.00    +0.111 C 
ATOM      5  C   UNL     1      34.617 -22.327 -17.902  0.00  0.00    +0.111 C 
ATOM      6  C   UNL     1      36.947 -22.118 -17.360  0.00  0.00    +0.057 C 
ATOM      7  C   UNL     1      37.796 -23.276 -15.375  0.00  0.00    -0.001 C 
ATOM      8  C   UNL     1      36.056 -20.977 -19.337  0.00  0.00    -0.001 C 
ATOM      9  C   UNL     1      35.239 -24.239 -14.906  0.00  0.00    +0.099 C 
ATOM     10  C   UNL     1      33.554 -22.012 -18.743  0.00  0.00    +0.099 C 
ATOM     11  C   UNL     1      36.282 -24.577 -14.039  0.00  0.00    +0.026 C 
ATOM     12  C   UNL     1      33.723 -21.195 -19.865  0.00  0.00    +0.026 C 
ATOM     13  C   UNL     1      37.563 -24.095 -14.273  0.00  0.00    +0.010 C 
ATOM     14  C   UNL     1      34.976 -20.677 -20.163  0.00  0.00    +0.010 C 
ENDROOT
BRANCH  11  15
ATOM     15  N   UNL     1      36.032 -25.407 -12.926  0.00  0.00    -0.360 N 
ATOM     16  H   UNL     1      36.239 -25.089 -12.018  0.00  0.00    +0.142 HD
ATOM     17  H   UNL     1      35.650 -26.305 -13.058  0.00  0.00    +0.142 HD
ENDBRANCH  11  15
BRANCH  12  18
ATOM     18  N   UNL     1      32.621 -20.899 -20.693  0.00  0.00    -0.360 N 
ATOM     19  H   UNL     1      32.713 -20.948 -21.672  0.00  0.00    +0.142 HD
ATOM     20  H   UNL     1      31.758 -20.645 -20.292  0.00  0.00    +0.142 HD
ENDBRANCH  12  18
TORSDOF 2
ENDMDL
MODEL 8
REMARK VINA RESULT:      -8.0      2.134      3.490
REMARK  Name = 7099
REMARK  2 active torsions:
REMARK  status: ('A' for Active; 'I' for Inactive)
REMARK    1  A    between atoms: C_11  and  N_15
REMARK    2  A    between atoms: C_12  and  N_18
REMARK                            x       y       z     vdW  Elec       q    Type
REMARK                         _______ _______ _______ _____ _____    ______ ____
ROOT
ATOM      1  N   UNL     1      34.460 -23.181 -16.732  0.00  0.00    -0.410 NA
ATOM      2  C   UNL     1      35.909 -21.864 -18.130  0.00  0.00    +0.008 C 
ATOM      3  C   UNL     1      36.790 -22.988 -16.164  0.00  0.00    +0.008 C 
ATOM      4  C   UNL     1      34.649 -22.396 -17.811  0.00  0.00    +0.111 C 
ATOM      5  C   UNL     1      35.495 -23.476 -15.922  0.00  0.00    +0.111 C 
ATOM      6  C   UNL     1      36.981 -22.174 -17.286  0.00  0.00    +0.057 C 
ATOM      7  C   UNL     1      36.072 -21.048 -19.263  0.00  0.00    -0.001 C 
ATOM      8  C   UNL     1      37.848 -23.316 -15.299  0.00  0.00    -0.001 C 
ATOM      9  C   UNL     1      33.579 -22.091 -18.647  0.00  0.00    +0.099 C 
ATOM     10  C   UNL     1      35.299 -24.287 -14.807  0.00  0.00    +0.099 C 
ATOM     11  C   UNL     1      33.737 -21.281 -19.775  0.00  0.00    +0.026 C 
ATOM     12  C   UNL     1      36.349 -24.615 -13.945  0.00  0.00    +0.026 C 
ATOM     13  C   UNL     1      34.986 -20.758 -20.084  0.00  0.00    +0.010 C 
ATOM     14  C   UNL     1      37.626 -24.128 -14.191  0.00  0.00    +0.010 C 
ENDROOT
BRANCH  11  15
ATOM     15  N   UNL     1      32.628 -20.995 -20.598  0.00  0.00    -0.360 N 
ATOM     16  H   UNL     1      31.966 -20.324 -20.315  0.00  0.00    +0.142 HD
ATOM     17  H   UNL     1      32.515 -21.468 -21.454  0.00  0.00    +0.142 HD
ENDBRANCH  11  15
BRANCH  12  18
ATOM     18  N   UNL     1      36.110 -25.439 -12.826  0.00  0.00    -0.360 N 
ATOM     19  H   UNL     1      36.850 -25.676 -12.222  0.00  0.00    +0.142 HD
ATOM     20  H   UNL     1      35.202 -25.778 -12.649  0.00  0.00    +0.142 HD
ENDBRANCH  12  18
TORSDOF 2
ENDMDL
MODEL 9
REMARK VINA RESULT:      -8.0      5.849      7.180
REMARK  Name = 7099
REMARK  2 active torsions:
REMARK  status: ('A' for Active; 'I' for Inactive)
REMARK    1  A    between atoms: C_11  and  N_15
REMARK    2  A    between atoms: C_12  and  N_18
REMARK                            x       y       z     vdW  Elec       q    Type
REMARK                         _______ _______ _______ _____ _____    ______ ____
ROOT
ATOM      1  N   UNL     1      33.335 -24.635 -13.024  0.00  0.00    -0.410 NA
ATOM      2  C   UNL     1      32.594 -23.781 -15.148  0.00  0.00    +0.008 C 
ATOM      3  C   UNL     1      34.893 -23.458 -14.430  0.00  0.00    +0.008 C 
ATOM      4  C   UNL     1      32.363 -24.461 -13.940  0.00  0.00    +0.111 C 
ATOM      5  C   UNL     1      34.572 -24.151 -13.251  0.00  0.00    +0.111 C 
ATOM      6  C   UNL     1      33.880 -23.280 -15.379  0.00  0.00    +0.057 C 
ATOM      7  C   UNL     1      31.557 -23.616 -16.083  0.00  0.00    -0.001 C 
ATOM      8  C   UNL     1      36.194 -22.966 -14.636  0.00  0.00    -0.001 C 
ATOM      9  C   UNL     1      31.085 -24.961 -13.705  0.00  0.00    +0.099 C 
ATOM     10  C   UNL     1      35.576 -24.331 -12.304  0.00  0.00    +0.099 C 
ATOM     11  C   UNL     1      30.052 -24.800 -14.633  0.00  0.00    +0.026 C 
ATOM     12  C   UNL     1      36.870 -23.843 -12.505  0.00  0.00    +0.026 C 
ATOM     13  C   UNL     1      30.288 -24.126 -15.824  0.00  0.00    +0.010 C 
ATOM     14  C   UNL     1      37.180 -23.159 -13.673  0.00  0.00    +0.010 C 
ENDROOT
BRANCH  11  15
ATOM     15  N   UNL     1      28.771 -25.321 -14.357  0.00  0.00    -0.360 N 
ATOM     16  H   UNL     1      28.586 -26.277 -14.506  0.00  0.00    +0.142 HD
ATOM     17  H   UNL     1      28.061 -24.730 -14.016  0.00  0.00    +0.142 HD
ENDBRANCH  11  15
BRANCH  12  18
ATOM     18  N   UNL     1      37.860 -24.047 -11.521  0.00  0.00    -0.360 N 
ATOM     19  H   UNL     1      38.795 -24.201 -11.787  0.00  0.00    +0.142 HD
ATOM     20  H   UNL     1      37.616 -24.032 -10.567  0.00  0.00    +0.142 HD
ENDBRANCH  12  18
TORSDOF 2
ENDMDL
