MODEL 1
REMARK VINA RESULT:     -10.8      0.000      0.000
REMARK  Name = 16737780
REMARK  11 active torsions:
REMARK  status: ('A' for Active; 'I' for Inactive)
REMARK    1  A    between atoms: C_1  and  C_2
REMARK    2  A    between atoms: C_1  and  C_18
REMARK    3  A    between atoms: C_2  and  N_3
REMARK    4  A    between atoms: C_11  and  O_14
REMARK    5  A    between atoms: C_12  and  O_16
REMARK    6  A    between atoms: C_18  and  C_19
REMARK    7  A    between atoms: C_19  and  N_21
REMARK    8  A    between atoms: C_22  and  C_24
REMARK    9  A    between atoms: C_25  and  O_31
REMARK   10  A    between atoms: O_31  and  C_32
REMARK   11  A    between atoms: C_32  and  C_34
REMARK                            x       y       z     vdW  Elec       q    Type
REMARK                         _______ _______ _______ _____ _____    ______ ____
ROOT
ATOM      1  C   UNL     1      35.513 -19.424 -20.959  0.00  0.00    -0.021 C 
ENDROOT
BRANCH   1   2
ATOM      2  C   UNL     1      36.599 -18.649 -21.708  0.00  0.00    -0.077 C 
BRANCH   2   3
ATOM      3  N   UNL     1      36.049 -17.866 -22.814  0.00  0.00    +0.390 N 
ATOM      4  C   UNL     1      35.195 -18.698 -23.669  0.00  0.00    -0.072 C 
ATOM      5  C   UNL     1      35.286 -16.715 -22.298  0.00  0.00    -0.050 C 
ATOM      6  C   UNL     1      34.799 -17.919 -24.927  0.00  0.00    +0.003 C 
ATOM      7  C   UNL     1      34.572 -15.937 -23.378  0.00  0.00    -0.044 C 
ATOM      8  C   UNL     1      34.299 -16.531 -24.623  0.00  0.00    -0.027 C 
ATOM      9  C   UNL     1      34.119 -14.636 -23.120  0.00  0.00    +0.033 C 
ATOM     10  C   UNL     1      33.613 -15.802 -25.603  0.00  0.00    +0.035 C 
ATOM     11  C   UNL     1      33.427 -13.923 -24.098  0.00  0.00    +0.172 C 
ATOM     12  C   UNL     1      33.176 -14.504 -25.339  0.00  0.00    +0.172 C 
ATOM     13  H   UNL     1      36.827 -17.519 -23.376  0.00  0.00    -0.079 HD
BRANCH  11  14
ATOM     14  O   UNL     1      33.002 -12.657 -23.829  0.00  0.00    -0.468 OA
ATOM     15  C   UNL     1      33.907 -11.593 -24.121  0.00  0.00    +0.253 C 
ENDBRANCH  11  14
BRANCH  12  16
ATOM     16  O   UNL     1      32.505 -13.815 -26.304  0.00  0.00    -0.468 OA
ATOM     17  C   UNL     1      33.275 -13.317 -27.397  0.00  0.00    +0.253 C 
ENDBRANCH  12  16
ENDBRANCH   2   3
ENDBRANCH   1   2
BRANCH   1  18
ATOM     18  C   UNL     1      36.073 -20.563 -20.099  0.00  0.00    +0.019 C 
BRANCH  18  19
ATOM     19  C   UNL     1      35.151 -21.778 -20.072  0.00  0.00    +0.090 C 
BRANCH  19  21
ATOM     20  O   UNL     1      33.726 -24.116 -19.208  0.00  0.00    -0.270 OA
ATOM     21  N   UNL     1      34.563 -21.996 -18.779  0.00  0.00    -0.301 N 
ATOM     22  C   UNL     1      33.888 -23.165 -18.448  0.00  0.00    +0.249 C 
ATOM     23  H   UNL     1      34.641 -21.288 -18.100  0.00  0.00    +0.150 HD
BRANCH  22  24
ATOM     24  C   UNL     1      33.314 -23.225 -17.079  0.00  0.00    +0.087 C 
ATOM     25  C   UNL     1      34.131 -23.437 -15.969  0.00  0.00    +0.143 C 
ATOM     26  C   UNL     1      31.938 -23.062 -16.913  0.00  0.00    +0.003 C 
ATOM     27  C   UNL     1      31.380 -23.113 -15.635  0.00  0.00    -0.022 C 
ATOM     28  C   UNL     1      33.573 -23.488 -14.692  0.00  0.00    +0.037 C 
ATOM     29  C   UNL     1      32.198 -23.326 -14.525  0.00  0.00    -0.001 C 
ATOM     30  C   UNL     1      29.910 -22.941 -15.456  0.00  0.00    +0.031 C 
BRANCH  25  31
ATOM     31  O   UNL     1      35.477 -23.598 -16.112  0.00  0.00    -0.472 OA
BRANCH  31  32
ATOM     32  C   UNL     1      36.315 -22.850 -15.234  0.00  0.00    +0.243 C 
BRANCH  32  34
ATOM     33  F   UNL     1      37.157 -22.417 -17.369  0.00  0.00    -0.230 F 
ATOM     34  C   UNL     1      37.394 -22.175 -16.051  0.00  0.00    +0.240 C 
ENDBRANCH  32  34
ENDBRANCH  31  32
ENDBRANCH  25  31
ENDBRANCH  22  24
ENDBRANCH  19  21
ENDBRANCH  18  19
ENDBRANCH   1  18
TORSDOF 11
ENDMDL
MODEL 2
REMARK VINA RESULT:     -10.6      5.406     12.522
REMARK  Name = 16737780
REMARK  11 active torsions:
REMARK  status: ('A' for Active; 'I' for Inactive)
REMARK    1  A    between atoms: C_1  and  C_2
REMARK    2  A    between atoms: C_1  and  C_18
REMARK    3  A    between atoms: C_2  and  N_3
REMARK    4  A    between atoms: C_11  and  O_14
REMARK    5  A    between atoms: C_12  and  O_16
REMARK    6  A    between atoms: C_18  and  C_19
REMARK    7  A    between atoms: C_19  and  N_21
REMARK    8  A    between atoms: C_22  and  C_24
REMARK    9  A    between atoms: C_25  and  O_31
REMARK   10  A    between atoms: O_31  and  C_32
REMARK   11  A    between atoms: C_32  and  C_34
REMARK                            x       y       z     vdW  Elec       q    Type
REMARK                         _______ _______ _______ _____ _____    ______ ____
ROOT
ATOM      1  C   UNL     1      31.843 -12.037 -20.212  0.00  0.00    -0.021 C 
ENDROOT
BRANCH   1   2
ATOM      2  C   UNL     1      31.512 -12.115 -21.704  0.00  0.00    -0.077 C 
BRANCH   2   3
ATOM      3  N   UNL     1      32.095 -13.300 -22.333  0.00  0.00    +0.390 N 
ATOM      4  C   UNL     1      33.026 -12.920 -23.401  0.00  0.00    -0.072 C 
ATOM      5  C   UNL     1      32.784 -14.128 -21.327  0.00  0.00    -0.050 C 
ATOM      6  C   UNL     1      33.463 -14.164 -24.180  0.00  0.00    +0.003 C 
ATOM      7  C   UNL     1      33.529 -15.299 -21.924  0.00  0.00    -0.044 C 
ATOM      8  C   UNL     1      33.894 -15.295 -23.282  0.00  0.00    -0.027 C 
ATOM      9  C   UNL     1      33.918 -16.370 -21.108  0.00  0.00    +0.033 C 
ATOM     10  C   UNL     1      34.608 -16.378 -23.812  0.00  0.00    +0.035 C 
ATOM     11  C   UNL     1      34.638 -17.438 -21.642  0.00  0.00    +0.172 C 
ATOM     12  C   UNL     1      34.980 -17.444 -22.992  0.00  0.00    +0.172 C 
ATOM     13  H   UNL     1      31.338 -13.847 -22.746  0.00  0.00    -0.079 HD
BRANCH  11  14
ATOM     14  O   UNL     1      35.000 -18.472 -20.833  0.00  0.00    -0.468 OA
ATOM     15  C   UNL     1      34.108 -19.584 -20.762  0.00  0.00    +0.253 C 
ENDBRANCH  11  14
BRANCH  12  16
ATOM     16  O   UNL     1      35.679 -18.485 -23.526  0.00  0.00    -0.468 OA
ATOM     17  C   UNL     1      34.964 -19.371 -24.385  0.00  0.00    +0.253 C 
ENDBRANCH  12  16
ENDBRANCH   2   3
ENDBRANCH   1   2
BRANCH   1  18
ATOM     18  C   UNL     1      31.123 -10.888 -19.497  0.00  0.00    +0.019 C 
BRANCH  18  19
ATOM     19  C   UNL     1      32.010  -9.656 -19.336  0.00  0.00    +0.090 C 
BRANCH  19  21
ATOM     20  O   UNL     1      32.984  -6.963 -19.542  0.00  0.00    -0.270 OA
ATOM     21  N   UNL     1      32.051  -8.847 -20.523  0.00  0.00    -0.301 N 
ATOM     22  C   UNL     1      32.542  -7.547 -20.529  0.00  0.00    +0.249 C 
ATOM     23  H   UNL     1      31.718  -9.230 -21.366  0.00  0.00    +0.150 HD
BRANCH  22  24
ATOM     24  C   UNL     1      32.492  -6.834 -21.831  0.00  0.00    +0.087 C 
ATOM     25  C   UNL     1      33.172  -7.327 -22.944  0.00  0.00    +0.143 C 
ATOM     26  C   UNL     1      31.749  -5.657 -21.932  0.00  0.00    +0.003 C 
ATOM     27  C   UNL     1      31.688  -4.974 -23.146  0.00  0.00    -0.022 C 
ATOM     28  C   UNL     1      33.111  -6.644 -24.158  0.00  0.00    +0.037 C 
ATOM     29  C   UNL     1      32.370  -5.467 -24.260  0.00  0.00    -0.001 C 
ATOM     30  C   UNL     1      30.895  -3.716 -23.256  0.00  0.00    +0.031 C 
BRANCH  25  31
ATOM     31  O   UNL     1      33.904  -8.475 -22.864  0.00  0.00    -0.472 OA
BRANCH  31  32
ATOM     32  C   UNL     1      33.727  -9.428 -23.910  0.00  0.00    +0.243 C 
BRANCH  32  34
ATOM     33  F   UNL     1      34.962 -10.844 -25.297  0.00  0.00    -0.230 F 
ATOM     34  C   UNL     1      35.075  -9.728 -24.527  0.00  0.00    +0.240 C 
ENDBRANCH  32  34
ENDBRANCH  31  32
ENDBRANCH  25  31
ENDBRANCH  22  24
ENDBRANCH  19  21
ENDBRANCH  18  19
ENDBRANCH   1  18
TORSDOF 11
ENDMDL
MODEL 3
REMARK VINA RESULT:     -10.5      3.121     11.564
REMARK  Name = 16737780
REMARK  11 active torsions:
REMARK  status: ('A' for Active; 'I' for Inactive)
REMARK    1  A    between atoms: C_1  and  C_2
REMARK    2  A    between atoms: C_1  and  C_18
REMARK    3  A    between atoms: C_2  and  N_3
REMARK    4  A    between atoms: C_11  and  O_14
REMARK    5  A    between atoms: C_12  and  O_16
REMARK    6  A    between atoms: C_18  and  C_19
REMARK    7  A    between atoms: C_19  and  N_21
REMARK    8  A    between atoms: C_22  and  C_24
REMARK    9  A    between atoms: C_25  and  O_31
REMARK   10  A    between atoms: O_31  and  C_32
REMARK   11  A    between atoms: C_32  and  C_34
REMARK                            x       y       z     vdW  Elec       q    Type
REMARK                         _______ _______ _______ _____ _____    ______ ____
ROOT
ATOM      1  C   UNL     1      34.647 -16.584 -23.225  0.00  0.00    -0.021 C 
ENDROOT
BRANCH   1   2
ATOM      2  C   UNL     1      35.716 -17.318 -22.413  0.00  0.00    -0.077 C 
BRANCH   2   3
ATOM      3  N   UNL     1      35.131 -18.285 -21.485  0.00  0.00    +0.390 N 
ATOM      4  C   UNL     1      34.121 -19.111 -22.159  0.00  0.00    -0.072 C 
ATOM      5  C   UNL     1      36.181 -19.140 -20.904  0.00  0.00    -0.050 C 
ATOM      6  C   UNL     1      33.377 -19.968 -21.131  0.00  0.00    +0.003 C 
ATOM      7  C   UNL     1      35.637 -20.254 -20.040  0.00  0.00    -0.044 C 
ATOM      8  C   UNL     1      34.305 -20.681 -20.182  0.00  0.00    -0.027 C 
ATOM      9  C   UNL     1      36.481 -20.914 -19.137  0.00  0.00    +0.033 C 
ATOM     10  C   UNL     1      33.826 -21.733 -19.391  0.00  0.00    +0.035 C 
ATOM     11  C   UNL     1      35.998 -21.968 -18.361  0.00  0.00    +0.172 C 
ATOM     12  C   UNL     1      34.672 -22.375 -18.486  0.00  0.00    +0.172 C 
ATOM     13  H   UNL     1      34.674 -17.769 -20.733  0.00  0.00    -0.079 HD
BRANCH  11  14
ATOM     14  O   UNL     1      36.833 -22.590 -17.484  0.00  0.00    -0.468 OA
ATOM     15  C   UNL     1      37.271 -21.832 -16.357  0.00  0.00    +0.253 C 
ENDBRANCH  11  14
BRANCH  12  16
ATOM     16  O   UNL     1      34.187 -23.401 -17.731  0.00  0.00    -0.468 OA
ATOM     17  C   UNL     1      33.596 -23.059 -16.478  0.00  0.00    +0.253 C 
ENDBRANCH  12  16
ENDBRANCH   2   3
ENDBRANCH   1   2
BRANCH   1  18
ATOM     18  C   UNL     1      34.419 -15.143 -22.754  0.00  0.00    +0.019 C 
BRANCH  18  19
ATOM     19  C   UNL     1      33.608 -14.326 -23.755  0.00  0.00    +0.090 C 
BRANCH  19  21
ATOM     20  O   UNL     1      33.737 -11.971 -25.392  0.00  0.00    -0.270 OA
ATOM     21  N   UNL     1      33.405 -12.970 -23.325  0.00  0.00    -0.301 N 
ATOM     22  C   UNL     1      33.487 -11.887 -24.192  0.00  0.00    +0.249 C 
ATOM     23  H   UNL     1      33.199 -12.801 -22.378  0.00  0.00    +0.150 HD
BRANCH  22  24
ATOM     24  C   UNL     1      33.278 -10.546 -23.587  0.00  0.00    +0.087 C 
ATOM     25  C   UNL     1      32.246 -10.326 -22.675  0.00  0.00    +0.143 C 
ATOM     26  C   UNL     1      34.132  -9.501 -23.941  0.00  0.00    +0.003 C 
ATOM     27  C   UNL     1      33.953  -8.236 -23.383  0.00  0.00    -0.022 C 
ATOM     28  C   UNL     1      32.067  -9.060 -22.117  0.00  0.00    +0.037 C 
ATOM     29  C   UNL     1      32.920  -8.015 -22.471  0.00  0.00    -0.001 C 
ATOM     30  C   UNL     1      34.864  -7.118 -23.760  0.00  0.00    +0.031 C 
BRANCH  25  31
ATOM     31  O   UNL     1      31.401 -11.334 -22.318  0.00  0.00    -0.472 OA
BRANCH  31  32
ATOM     32  C   UNL     1      30.823 -11.264 -21.017  0.00  0.00    +0.243 C 
BRANCH  32  34
ATOM     33  F   UNL     1      32.101 -13.109 -20.370  0.00  0.00    -0.230 F 
ATOM     34  C   UNL     1      31.807 -11.828 -20.017  0.00  0.00    +0.240 C 
ENDBRANCH  32  34
ENDBRANCH  31  32
ENDBRANCH  25  31
ENDBRANCH  22  24
ENDBRANCH  19  21
ENDBRANCH  18  19
ENDBRANCH   1  18
TORSDOF 11
ENDMDL
MODEL 4
REMARK VINA RESULT:     -10.4      3.493     10.561
REMARK  Name = 16737780
REMARK  11 active torsions:
REMARK  status: ('A' for Active; 'I' for Inactive)
REMARK    1  A    between atoms: C_1  and  C_2
REMARK    2  A    between atoms: C_1  and  C_18
REMARK    3  A    between atoms: C_2  and  N_3
REMARK    4  A    between atoms: C_11  and  O_14
REMARK    5  A    between atoms: C_12  and  O_16
REMARK    6  A    between atoms: C_18  and  C_19
REMARK    7  A    between atoms: C_19  and  N_21
REMARK    8  A    between atoms: C_22  and  C_24
REMARK    9  A    between atoms: C_25  and  O_31
REMARK   10  A    between atoms: O_31  and  C_32
REMARK   11  A    between atoms: C_32  and  C_34
REMARK                            x       y       z     vdW  Elec       q    Type
REMARK                         _______ _______ _______ _____ _____    ______ ____
ROOT
ATOM      1  C   UNL     1      35.350 -17.929 -23.392  0.00  0.00    -0.021 C 
ENDROOT
BRANCH   1   2
ATOM      2  C   UNL     1      36.146 -18.338 -22.150  0.00  0.00    -0.077 C 
BRANCH   2   3
ATOM      3  N   UNL     1      35.320 -19.062 -21.184  0.00  0.00    +0.390 N 
ATOM      4  C   UNL     1      34.168 -19.687 -21.846  0.00  0.00    -0.072 C 
ATOM      5  C   UNL     1      36.122 -20.083 -20.487  0.00  0.00    -0.050 C 
ATOM      6  C   UNL     1      33.211 -20.260 -20.796  0.00  0.00    +0.003 C 
ATOM      7  C   UNL     1      35.304 -20.964 -19.571  0.00  0.00    -0.044 C 
ATOM      8  C   UNL     1      33.914 -21.083 -19.749  0.00  0.00    -0.027 C 
ATOM      9  C   UNL     1      35.940 -21.721 -18.578  0.00  0.00    +0.033 C 
ATOM     10  C   UNL     1      33.177 -21.926 -18.907  0.00  0.00    +0.035 C 
ATOM     11  C   UNL     1      35.198 -22.565 -17.751  0.00  0.00    +0.172 C 
ATOM     12  C   UNL     1      33.819 -22.666 -17.914  0.00  0.00    +0.172 C 
ATOM     13  H   UNL     1      34.971 -18.392 -20.498  0.00  0.00    -0.079 HD
BRANCH  11  14
ATOM     14  O   UNL     1      35.835 -23.286 -16.787  0.00  0.00    -0.468 OA
ATOM     15  C   UNL     1      36.810 -22.600 -16.002  0.00  0.00    +0.253 C 
ENDBRANCH  11  14
BRANCH  12  16
ATOM     16  O   UNL     1      33.083 -23.484 -17.110  0.00  0.00    -0.468 OA
ATOM     17  C   UNL     1      31.784 -23.027 -16.737  0.00  0.00    +0.253 C 
ENDBRANCH  12  16
ENDBRANCH   2   3
ENDBRANCH   1   2
BRANCH   1  18
ATOM     18  C   UNL     1      34.781 -16.509 -23.299  0.00  0.00    +0.019 C 
BRANCH  18  19
ATOM     19  C   UNL     1      34.836 -15.952 -21.880  0.00  0.00    +0.090 C 
BRANCH  19  21
ATOM     20  O   UNL     1      32.070 -15.406 -21.341  0.00  0.00    -0.270 OA
ATOM     21  N   UNL     1      34.223 -14.657 -21.770  0.00  0.00    -0.301 N 
ATOM     22  C   UNL     1      32.869 -14.487 -21.506  0.00  0.00    +0.249 C 
ATOM     23  H   UNL     1      34.785 -13.858 -21.887  0.00  0.00    +0.150 HD
BRANCH  22  24
ATOM     24  C   UNL     1      32.383 -13.085 -21.450  0.00  0.00    +0.087 C 
ATOM     25  C   UNL     1      32.319 -12.303 -22.603  0.00  0.00    +0.143 C 
ATOM     26  C   UNL     1      31.986 -12.552 -20.223  0.00  0.00    +0.003 C 
ATOM     27  C   UNL     1      31.525 -11.238 -20.151  0.00  0.00    -0.022 C 
ATOM     28  C   UNL     1      31.859 -10.989 -22.530  0.00  0.00    +0.037 C 
ATOM     29  C   UNL     1      31.462 -10.456 -21.305  0.00  0.00    -0.001 C 
ATOM     30  C   UNL     1      31.101 -10.667 -18.840  0.00  0.00    +0.031 C 
BRANCH  25  31
ATOM     31  O   UNL     1      32.704 -12.806 -23.811  0.00  0.00    -0.472 OA
BRANCH  31  32
ATOM     32  C   UNL     1      33.986 -12.411 -24.297  0.00  0.00    +0.243 C 
BRANCH  32  34
ATOM     33  F   UNL     1      34.922 -10.942 -25.852  0.00  0.00    -0.230 F 
ATOM     34  C   UNL     1      33.804 -11.677 -25.606  0.00  0.00    +0.240 C 
ENDBRANCH  32  34
ENDBRANCH  31  32
ENDBRANCH  25  31
ENDBRANCH  22  24
ENDBRANCH  19  21
ENDBRANCH  18  19
ENDBRANCH   1  18
TORSDOF 11
ENDMDL
MODEL 5
REMARK VINA RESULT:     -10.3      1.228      2.208
REMARK  Name = 16737780
REMARK  11 active torsions:
REMARK  status: ('A' for Active; 'I' for Inactive)
REMARK    1  A    between atoms: C_1  and  C_2
REMARK    2  A    between atoms: C_1  and  C_18
REMARK    3  A    between atoms: C_2  and  N_3
REMARK    4  A    between atoms: C_11  and  O_14
REMARK    5  A    between atoms: C_12  and  O_16
REMARK    6  A    between atoms: C_18  and  C_19
REMARK    7  A    between atoms: C_19  and  N_21
REMARK    8  A    between atoms: C_22  and  C_24
REMARK    9  A    between atoms: C_25  and  O_31
REMARK   10  A    between atoms: O_31  and  C_32
REMARK   11  A    between atoms: C_32  and  C_34
REMARK                            x       y       z     vdW  Elec       q    Type
REMARK                         _______ _______ _______ _____ _____    ______ ____
ROOT
ATOM      1  C   UNL     1      36.596 -19.356 -21.094  0.00  0.00    -0.021 C 
ENDROOT
BRANCH   1   2
ATOM      2  C   UNL     1      35.311 -19.340 -21.924  0.00  0.00    -0.077 C 
BRANCH   2   3
ATOM      3  N   UNL     1      34.654 -18.034 -21.891  0.00  0.00    +0.390 N 
ATOM      4  C   UNL     1      35.249 -17.176 -20.858  0.00  0.00    -0.072 C 
ATOM      5  C   UNL     1      34.744 -17.380 -23.209  0.00  0.00    -0.050 C 
ATOM      6  C   UNL     1      34.418 -15.900 -20.699  0.00  0.00    +0.003 C 
ATOM      7  C   UNL     1      34.207 -15.968 -23.214  0.00  0.00    -0.044 C 
ATOM      8  C   UNL     1      34.094 -15.243 -22.015  0.00  0.00    -0.027 C 
ATOM      9  C   UNL     1      33.881 -15.349 -24.428  0.00  0.00    +0.033 C 
ATOM     10  C   UNL     1      33.620 -13.925 -22.043  0.00  0.00    +0.035 C 
ATOM     11  C   UNL     1      33.420 -14.032 -24.448  0.00  0.00    +0.172 C 
ATOM     12  C   UNL     1      33.287 -13.322 -23.257  0.00  0.00    +0.172 C 
ATOM     13  H   UNL     1      33.670 -18.178 -21.662  0.00  0.00    -0.079 HD
BRANCH  11  14
ATOM     14  O   UNL     1      33.102 -13.452 -25.638  0.00  0.00    -0.468 OA
ATOM     15  C   UNL     1      33.187 -14.273 -26.802  0.00  0.00    +0.253 C 
ENDBRANCH  11  14
BRANCH  12  16
ATOM     16  O   UNL     1      32.833 -12.038 -23.262  0.00  0.00    -0.468 OA
ATOM     17  C   UNL     1      31.837 -11.699 -22.300  0.00  0.00    +0.253 C 
ENDBRANCH  12  16
ENDBRANCH   2   3
ENDBRANCH   1   2
BRANCH   1  18
ATOM     18  C   UNL     1      36.600 -20.446 -20.015  0.00  0.00    +0.019 C 
BRANCH  18  19
ATOM     19  C   UNL     1      35.413 -21.396 -20.144  0.00  0.00    +0.090 C 
BRANCH  19  21
ATOM     20  O   UNL     1      33.916 -23.760 -19.505  0.00  0.00    -0.270 OA
ATOM     21  N   UNL     1      34.828 -21.723 -18.873  0.00  0.00    -0.301 N 
ATOM     22  C   UNL     1      34.116 -22.897 -18.654  0.00  0.00    +0.249 C 
ATOM     23  H   UNL     1      34.936 -21.090 -18.127  0.00  0.00    +0.150 HD
BRANCH  22  24
ATOM     24  C   UNL     1      33.551 -23.075 -17.292  0.00  0.00    +0.087 C 
ATOM     25  C   UNL     1      34.380 -23.341 -16.202  0.00  0.00    +0.143 C 
ATOM     26  C   UNL     1      32.172 -22.971 -17.110  0.00  0.00    +0.003 C 
ATOM     27  C   UNL     1      31.622 -23.133 -15.839  0.00  0.00    -0.022 C 
ATOM     28  C   UNL     1      33.830 -23.504 -14.931  0.00  0.00    +0.037 C 
ATOM     29  C   UNL     1      32.452 -23.400 -14.749  0.00  0.00    -0.001 C 
ATOM     30  C   UNL     1      30.149 -23.023 -15.643  0.00  0.00    +0.031 C 
BRANCH  25  31
ATOM     31  O   UNL     1      35.730 -23.447 -16.360  0.00  0.00    -0.472 OA
BRANCH  31  32
ATOM     32  C   UNL     1      36.542 -23.109 -15.238  0.00  0.00    +0.243 C 
BRANCH  32  34
ATOM     33  F   UNL     1      36.870 -25.417 -15.369  0.00  0.00    -0.230 F 
ATOM     34  C   UNL     1      37.461 -24.271 -14.934  0.00  0.00    +0.240 C 
ENDBRANCH  32  34
ENDBRANCH  31  32
ENDBRANCH  25  31
ENDBRANCH  22  24
ENDBRANCH  19  21
ENDBRANCH  18  19
ENDBRANCH   1  18
TORSDOF 11
ENDMDL
MODEL 6
REMARK VINA RESULT:     -10.2      2.787     11.363
REMARK  Name = 16737780
REMARK  11 active torsions:
REMARK  status: ('A' for Active; 'I' for Inactive)
REMARK    1  A    between atoms: C_1  and  C_2
REMARK    2  A    between atoms: C_1  and  C_18
REMARK    3  A    between atoms: C_2  and  N_3
REMARK    4  A    between atoms: C_11  and  O_14
REMARK    5  A    between atoms: C_12  and  O_16
REMARK    6  A    between atoms: C_18  and  C_19
REMARK    7  A    between atoms: C_19  and  N_21
REMARK    8  A    between atoms: C_22  and  C_24
REMARK    9  A    between atoms: C_25  and  O_31
REMARK   10  A    between atoms: O_31  and  C_32
REMARK   11  A    between atoms: C_32  and  C_34
REMARK                            x       y       z     vdW  Elec       q    Type
REMARK                         _______ _______ _______ _____ _____    ______ ____
ROOT
ATOM      1  C   UNL     1      34.806 -15.885 -22.530  0.00  0.00    -0.021 C 
ENDROOT
BRANCH   1   2
ATOM      2  C   UNL     1      35.376 -17.291 -22.730  0.00  0.00    -0.077 C 
BRANCH   2   3
ATOM      3  N   UNL     1      34.882 -18.230 -21.723  0.00  0.00    +0.390 N 
ATOM      4  C   UNL     1      33.828 -19.087 -22.280  0.00  0.00    -0.072 C 
ATOM      5  C   UNL     1      35.988 -19.055 -21.205  0.00  0.00    -0.050 C 
ATOM      6  C   UNL     1      33.185 -19.914 -21.163  0.00  0.00    +0.003 C 
ATOM      7  C   UNL     1      35.532 -20.143 -20.261  0.00  0.00    -0.044 C 
ATOM      8  C   UNL     1      34.197 -20.585 -20.273  0.00  0.00    -0.027 C 
ATOM      9  C   UNL     1      36.457 -20.764 -19.410  0.00  0.00    +0.033 C 
ATOM     10  C   UNL     1      33.799 -21.613 -19.408  0.00  0.00    +0.035 C 
ATOM     11  C   UNL     1      36.053 -21.793 -18.560  0.00  0.00    +0.172 C 
ATOM     12  C   UNL     1      34.726 -22.216 -18.558  0.00  0.00    +0.172 C 
ATOM     13  H   UNL     1      34.485 -17.691 -20.953  0.00  0.00    -0.079 HD
BRANCH  11  14
ATOM     14  O   UNL     1      36.967 -22.378 -17.737  0.00  0.00    -0.468 OA
ATOM     15  C   UNL     1      37.193 -21.755 -16.473  0.00  0.00    +0.253 C 
ENDBRANCH  11  14
BRANCH  12  16
ATOM     16  O   UNL     1      34.320 -23.218 -17.729  0.00  0.00    -0.468 OA
ATOM     17  C   UNL     1      32.958 -23.194 -17.304  0.00  0.00    +0.253 C 
ENDBRANCH  12  16
ENDBRANCH   2   3
ENDBRANCH   1   2
BRANCH   1  18
ATOM     18  C   UNL     1      33.609 -15.853 -21.572  0.00  0.00    +0.019 C 
BRANCH  18  19
ATOM     19  C   UNL     1      32.668 -14.686 -21.856  0.00  0.00    +0.090 C 
BRANCH  19  21
ATOM     20  O   UNL     1      31.591 -12.085 -22.419  0.00  0.00    -0.270 OA
ATOM     21  N   UNL     1      33.297 -13.644 -22.621  0.00  0.00    -0.301 N 
ATOM     22  C   UNL     1      32.697 -12.410 -22.843  0.00  0.00    +0.249 C 
ATOM     23  H   UNL     1      34.188 -13.812 -23.003  0.00  0.00    +0.150 HD
BRANCH  22  24
ATOM     24  C   UNL     1      33.465 -11.450 -23.677  0.00  0.00    +0.087 C 
ATOM     25  C   UNL     1      34.075 -11.860 -24.862  0.00  0.00    +0.143 C 
ATOM     26  C   UNL     1      33.570 -10.122 -23.261  0.00  0.00    +0.003 C 
ATOM     27  C   UNL     1      34.285  -9.205 -24.031  0.00  0.00    -0.022 C 
ATOM     28  C   UNL     1      34.790 -10.943 -25.632  0.00  0.00    +0.037 C 
ATOM     29  C   UNL     1      34.896  -9.616 -25.217  0.00  0.00    -0.001 C 
ATOM     30  C   UNL     1      34.399  -7.787 -23.587  0.00  0.00    +0.031 C 
BRANCH  25  31
ATOM     31  O   UNL     1      33.984 -13.153 -25.284  0.00  0.00    -0.472 OA
BRANCH  31  32
ATOM     32  C   UNL     1      33.271 -13.389 -26.497  0.00  0.00    +0.243 C 
BRANCH  32  34
ATOM     33  F   UNL     1      33.577 -15.636 -25.938  0.00  0.00    -0.230 F 
ATOM     34  C   UNL     1      32.655 -14.769 -26.437  0.00  0.00    +0.240 C 
ENDBRANCH  32  34
ENDBRANCH  31  32
ENDBRANCH  25  31
ENDBRANCH  22  24
ENDBRANCH  19  21
ENDBRANCH  18  19
ENDBRANCH   1  18
TORSDOF 11
ENDMDL
MODEL 7
REMARK VINA RESULT:     -10.2      2.058      3.596
REMARK  Name = 16737780
REMARK  11 active torsions:
REMARK  status: ('A' for Active; 'I' for Inactive)
REMARK    1  A    between atoms: C_1  and  C_2
REMARK    2  A    between atoms: C_1  and  C_18
REMARK    3  A    between atoms: C_2  and  N_3
REMARK    4  A    between atoms: C_11  and  O_14
REMARK    5  A    between atoms: C_12  and  O_16
REMARK    6  A    between atoms: C_18  and  C_19
REMARK    7  A    between atoms: C_19  and  N_21
REMARK    8  A    between atoms: C_22  and  C_24
REMARK    9  A    between atoms: C_25  and  O_31
REMARK   10  A    between atoms: O_31  and  C_32
REMARK   11  A    between atoms: C_32  and  C_34
REMARK                            x       y       z     vdW  Elec       q    Type
REMARK                         _______ _______ _______ _____ _____    ______ ____
ROOT
ATOM      1  C   UNL     1      34.939 -20.114 -20.902  0.00  0.00    -0.021 C 
ENDROOT
BRANCH   1   2
ATOM      2  C   UNL     1      35.245 -19.394 -22.217  0.00  0.00    -0.077 C 
BRANCH   2   3
ATOM      3  N   UNL     1      34.668 -18.050 -22.252  0.00  0.00    +0.390 N 
ATOM      4  C   UNL     1      35.468 -17.118 -21.448  0.00  0.00    -0.072 C 
ATOM      5  C   UNL     1      34.570 -17.570 -23.642  0.00  0.00    -0.050 C 
ATOM      6  C   UNL     1      34.739 -15.776 -21.328  0.00  0.00    +0.003 C 
ATOM      7  C   UNL     1      34.111 -16.134 -23.748  0.00  0.00    -0.044 C 
ATOM      8  C   UNL     1      34.234 -15.263 -22.651  0.00  0.00    -0.027 C 
ATOM      9  C   UNL     1      33.619 -15.646 -24.966  0.00  0.00    +0.033 C 
ATOM     10  C   UNL     1      33.828 -13.928 -22.777  0.00  0.00    +0.035 C 
ATOM     11  C   UNL     1      33.226 -14.313 -25.084  0.00  0.00    +0.172 C 
ATOM     12  C   UNL     1      33.329 -13.456 -23.992  0.00  0.00    +0.172 C 
ATOM     13  H   UNL     1      33.730 -18.096 -21.853  0.00  0.00    -0.079 HD
BRANCH  11  14
ATOM     14  O   UNL     1      32.744 -13.861 -26.275  0.00  0.00    -0.468 OA
ATOM     15  C   UNL     1      33.701 -13.426 -27.240  0.00  0.00    +0.253 C 
ENDBRANCH  11  14
BRANCH  12  16
ATOM     16  O   UNL     1      32.945 -12.152 -24.094  0.00  0.00    -0.468 OA
ATOM     17  C   UNL     1      33.980 -11.181 -24.230  0.00  0.00    +0.253 C 
ENDBRANCH  12  16
ENDBRANCH   2   3
ENDBRANCH   1   2
BRANCH   1  18
ATOM     18  C   UNL     1      33.497 -19.905 -20.424  0.00  0.00    +0.019 C 
BRANCH  18  19
ATOM     19  C   UNL     1      32.746 -21.222 -20.247  0.00  0.00    +0.090 C 
BRANCH  19  21
ATOM     20  O   UNL     1      33.868 -23.583 -19.060  0.00  0.00    -0.270 OA
ATOM     21  N   UNL     1      32.647 -21.620 -18.870  0.00  0.00    -0.301 N 
ATOM     22  C   UNL     1      33.226 -22.786 -18.381  0.00  0.00    +0.249 C 
ATOM     23  H   UNL     1      32.150 -21.043 -18.247  0.00  0.00    +0.150 HD
BRANCH  22  24
ATOM     24  C   UNL     1      33.010 -23.070 -16.939  0.00  0.00    +0.087 C 
ATOM     25  C   UNL     1      31.732 -23.023 -16.384  0.00  0.00    +0.143 C 
ATOM     26  C   UNL     1      34.107 -23.388 -16.139  0.00  0.00    +0.003 C 
ATOM     27  C   UNL     1      33.925 -23.659 -14.783  0.00  0.00    -0.022 C 
ATOM     28  C   UNL     1      31.550 -23.294 -15.028  0.00  0.00    +0.037 C 
ATOM     29  C   UNL     1      32.646 -23.612 -14.227  0.00  0.00    -0.001 C 
ATOM     30  C   UNL     1      35.097 -23.999 -13.926  0.00  0.00    +0.031 C 
BRANCH  25  31
ATOM     31  O   UNL     1      30.647 -22.713 -17.151  0.00  0.00    -0.472 OA
BRANCH  31  32
ATOM     32  C   UNL     1      29.400 -22.561 -16.476  0.00  0.00    +0.243 C 
BRANCH  32  34
ATOM     33  F   UNL     1      28.570 -24.721 -16.162  0.00  0.00    -0.230 F 
ATOM     34  C   UNL     1      28.449 -23.629 -16.966  0.00  0.00    +0.240 C 
ENDBRANCH  32  34
ENDBRANCH  31  32
ENDBRANCH  25  31
ENDBRANCH  22  24
ENDBRANCH  19  21
ENDBRANCH  18  19
ENDBRANCH   1  18
TORSDOF 11
ENDMDL
MODEL 8
REMARK VINA RESULT:     -10.2      6.793     12.554
REMARK  Name = 16737780
REMARK  11 active torsions:
REMARK  status: ('A' for Active; 'I' for Inactive)
REMARK    1  A    between atoms: C_1  and  C_2
REMARK    2  A    between atoms: C_1  and  C_18
REMARK    3  A    between atoms: C_2  and  N_3
REMARK    4  A    between atoms: C_11  and  O_14
REMARK    5  A    between atoms: C_12  and  O_16
REMARK    6  A    between atoms: C_18  and  C_19
REMARK    7  A    between atoms: C_19  and  N_21
REMARK    8  A    between atoms: C_22  and  C_24
REMARK    9  A    between atoms: C_25  and  O_31
REMARK   10  A    between atoms: O_31  and  C_32
REMARK   11  A    between atoms: C_32  and  C_34
REMARK                            x       y       z     vdW  Elec       q    Type
REMARK                         _______ _______ _______ _____ _____    ______ ____
ROOT
ATOM      1  C   UNL     1      31.532 -11.400 -20.806  0.00  0.00    -0.021 C 
ENDROOT
BRANCH   1   2
ATOM      2  C   UNL     1      32.012 -12.620 -20.016  0.00  0.00    -0.077 C 
BRANCH   2   3
ATOM      3  N   UNL     1      32.809 -13.527 -20.841  0.00  0.00    +0.390 N 
ATOM      4  C   UNL     1      32.727 -14.902 -20.334  0.00  0.00    -0.072 C 
ATOM      5  C   UNL     1      32.359 -13.474 -22.244  0.00  0.00    -0.050 C 
ATOM      6  C   UNL     1      33.725 -15.793 -21.079  0.00  0.00    +0.003 C 
ATOM      7  C   UNL     1      33.045 -14.487 -23.131  0.00  0.00    -0.044 C 
ATOM      8  C   UNL     1      33.661 -15.622 -22.574  0.00  0.00    -0.027 C 
ATOM      9  C   UNL     1      33.013 -14.331 -24.523  0.00  0.00    +0.033 C 
ATOM     10  C   UNL     1      34.269 -16.563 -23.415  0.00  0.00    +0.035 C 
ATOM     11  C   UNL     1      33.612 -15.280 -25.352  0.00  0.00    +0.172 C 
ATOM     12  C   UNL     1      34.241 -16.393 -24.799  0.00  0.00    +0.172 C 
ATOM     13  H   UNL     1      33.782 -13.225 -20.796  0.00  0.00    -0.079 HD
BRANCH  11  14
ATOM     14  O   UNL     1      33.576 -15.106 -26.703  0.00  0.00    -0.468 OA
ATOM     15  C   UNL     1      33.229 -13.806 -27.180  0.00  0.00    +0.253 C 
ENDBRANCH  11  14
BRANCH  12  16
ATOM     16  O   UNL     1      34.833 -17.323 -25.599  0.00  0.00    -0.468 OA
ATOM     17  C   UNL     1      34.665 -18.692 -25.233  0.00  0.00    +0.253 C 
ENDBRANCH  12  16
ENDBRANCH   2   3
ENDBRANCH   1   2
BRANCH   1  18
ATOM     18  C   UNL     1      31.115 -10.229 -19.908  0.00  0.00    +0.019 C 
BRANCH  18  19
ATOM     19  C   UNL     1      32.167  -9.126 -19.865  0.00  0.00    +0.090 C 
BRANCH  19  21
ATOM     20  O   UNL     1      32.375  -6.299 -20.322  0.00  0.00    -0.270 OA
ATOM     21  N   UNL     1      32.334  -8.472 -21.133  0.00  0.00    -0.301 N 
ATOM     22  C   UNL     1      32.426  -7.091 -21.260  0.00  0.00    +0.249 C 
ATOM     23  H   UNL     1      32.386  -9.025 -21.946  0.00  0.00    +0.150 HD
BRANCH  22  24
ATOM     24  C   UNL     1      32.570  -6.568 -22.643  0.00  0.00    +0.087 C 
ATOM     25  C   UNL     1      33.554  -7.065 -23.497  0.00  0.00    +0.143 C 
ATOM     26  C   UNL     1      31.702  -5.569 -23.085  0.00  0.00    +0.003 C 
ATOM     27  C   UNL     1      31.820  -5.067 -24.381  0.00  0.00    -0.022 C 
ATOM     28  C   UNL     1      33.672  -6.563 -24.793  0.00  0.00    +0.037 C 
ATOM     29  C   UNL     1      32.806  -5.564 -25.235  0.00  0.00    -0.001 C 
ATOM     30  C   UNL     1      30.894  -3.999 -24.854  0.00  0.00    +0.031 C 
BRANCH  25  31
ATOM     31  O   UNL     1      34.412  -8.041 -23.083  0.00  0.00    -0.472 OA
BRANCH  31  32
ATOM     32  C   UNL     1      34.745  -9.054 -24.029  0.00  0.00    +0.243 C 
BRANCH  32  34
ATOM     33  F   UNL     1      34.333 -11.353 -24.052  0.00  0.00    -0.230 F 
ATOM     34  C   UNL     1      33.705 -10.150 -23.954  0.00  0.00    +0.240 C 
ENDBRANCH  32  34
ENDBRANCH  31  32
ENDBRANCH  25  31
ENDBRANCH  22  24
ENDBRANCH  19  21
ENDBRANCH  18  19
ENDBRANCH   1  18
TORSDOF 11
ENDMDL
MODEL 9
REMARK VINA RESULT:     -10.2      2.722     10.927
REMARK  Name = 16737780
REMARK  11 active torsions:
REMARK  status: ('A' for Active; 'I' for Inactive)
REMARK    1  A    between atoms: C_1  and  C_2
REMARK    2  A    between atoms: C_1  and  C_18
REMARK    3  A    between atoms: C_2  and  N_3
REMARK    4  A    between atoms: C_11  and  O_14
REMARK    5  A    between atoms: C_12  and  O_16
REMARK    6  A    between atoms: C_18  and  C_19
REMARK    7  A    between atoms: C_19  and  N_21
REMARK    8  A    between atoms: C_22  and  C_24
REMARK    9  A    between atoms: C_25  and  O_31
REMARK   10  A    between atoms: O_31  and  C_32
REMARK   11  A    between atoms: C_32  and  C_34
REMARK                            x       y       z     vdW  Elec       q    Type
REMARK                         _______ _______ _______ _____ _____    ______ ____
ROOT
ATOM      1  C   UNL     1      34.817 -19.700 -21.645  0.00  0.00    -0.021 C 
ENDROOT
BRANCH   1   2
ATOM      2  C   UNL     1      35.971 -20.096 -20.721  0.00  0.00    -0.077 C 
BRANCH   2   3
ATOM      3  N   UNL     1      35.496 -20.732 -19.493  0.00  0.00    +0.390 N 
ATOM      4  C   UNL     1      34.506 -21.773 -19.794  0.00  0.00    -0.072 C 
ATOM      5  C   UNL     1      36.626 -21.305 -18.742  0.00  0.00    -0.050 C 
ATOM      6  C   UNL     1      33.871 -22.280 -18.495  0.00  0.00    +0.003 C 
ATOM      7  C   UNL     1      36.197 -22.099 -17.530  0.00  0.00    -0.044 C 
ATOM      8  C   UNL     1      34.889 -22.605 -17.434  0.00  0.00    -0.027 C 
ATOM      9  C   UNL     1      37.126 -22.392 -16.522  0.00  0.00    +0.033 C 
ATOM     10  C   UNL     1      34.518 -23.361 -16.314  0.00  0.00    +0.035 C 
ATOM     11  C   UNL     1      36.750 -23.155 -15.416  0.00  0.00    +0.172 C 
ATOM     12  C   UNL     1      35.448 -23.637 -15.311  0.00  0.00    +0.172 C 
ATOM     13  H   UNL     1      35.047 -20.018 -18.918  0.00  0.00    -0.079 HD
BRANCH  11  14
ATOM     14  O   UNL     1      37.667 -23.422 -14.445  0.00  0.00    -0.468 OA
ATOM     15  C   UNL     1      38.433 -24.618 -14.587  0.00  0.00    +0.253 C 
ENDBRANCH  11  14
BRANCH  12  16
ATOM     16  O   UNL     1      35.068 -24.380 -14.234  0.00  0.00    -0.468 OA
ATOM     17  C   UNL     1      33.758 -24.149 -13.719  0.00  0.00    +0.253 C 
ENDBRANCH  12  16
ENDBRANCH   2   3
ENDBRANCH   1   2
BRANCH   1  18
ATOM     18  C   UNL     1      34.926 -18.259 -22.159  0.00  0.00    +0.019 C 
BRANCH  18  19
ATOM     19  C   UNL     1      35.017 -17.243 -21.024  0.00  0.00    +0.090 C 
BRANCH  19  21
ATOM     20  O   UNL     1      32.355 -16.222 -20.687  0.00  0.00    -0.270 OA
ATOM     21  N   UNL     1      34.542 -15.942 -21.409  0.00  0.00    -0.301 N 
ATOM     22  C   UNL     1      33.230 -15.532 -21.206  0.00  0.00    +0.249 C 
ATOM     23  H   UNL     1      35.172 -15.317 -21.834  0.00  0.00    +0.150 HD
BRANCH  22  24
ATOM     24  C   UNL     1      32.890 -14.167 -21.683  0.00  0.00    +0.087 C 
ATOM     25  C   UNL     1      33.312 -13.721 -22.935  0.00  0.00    +0.143 C 
ATOM     26  C   UNL     1      32.135 -13.329 -20.862  0.00  0.00    +0.003 C 
ATOM     27  C   UNL     1      31.803 -12.045 -21.294  0.00  0.00    -0.022 C 
ATOM     28  C   UNL     1      32.981 -12.437 -23.367  0.00  0.00    +0.037 C 
ATOM     29  C   UNL     1      32.227 -11.598 -22.546  0.00  0.00    -0.001 C 
ATOM     30  C   UNL     1      30.997 -11.148 -20.417  0.00  0.00    +0.031 C 
BRANCH  25  31
ATOM     31  O   UNL     1      34.051 -14.525 -23.751  0.00  0.00    -0.472 OA
BRANCH  31  32
ATOM     32  C   UNL     1      33.428 -14.978 -24.951  0.00  0.00    +0.243 C 
BRANCH  32  34
ATOM     33  F   UNL     1      35.243 -16.436 -24.767  0.00  0.00    -0.230 F 
ATOM     34  C   UNL     1      34.004 -16.327 -25.319  0.00  0.00    +0.240 C 
ENDBRANCH  32  34
ENDBRANCH  31  32
ENDBRANCH  25  31
ENDBRANCH  22  24
ENDBRANCH  19  21
ENDBRANCH  18  19
ENDBRANCH   1  18
TORSDOF 11
ENDMDL
