MODEL 1
REMARK VINA RESULT:      -8.9      0.000      0.000
REMARK  Name = 5171
REMARK  4 active torsions:
REMARK  status: ('A' for Active; 'I' for Inactive)
REMARK    1  A    between atoms: N_1  and  C_19
REMARK    2  A    between atoms: C_3  and  C_14
REMARK    3  A    between atoms: C_5  and  C_7
REMARK    4  A    between atoms: C_19  and  C_20
REMARK                            x       y       z     vdW  Elec       q    Type
REMARK                         _______ _______ _______ _____ _____    ______ ____
ROOT
ATOM      1  N   UNL     1      33.359 -14.521 -25.575  0.00  0.00    -0.245 NA
ATOM      2  N   UNL     1      33.601 -12.566 -26.599  0.00  0.00    -0.255 NA
ATOM      3  C   UNL     1      33.481 -13.591 -24.581  0.00  0.00    +0.122 C 
ATOM      4  C   UNL     1      33.437 -13.858 -26.768  0.00  0.00    +0.201 C 
ATOM      5  C   UNL     1      33.629 -12.395 -25.239  0.00  0.00    +0.074 C 
ENDROOT
BRANCH   5   7
ATOM      6  F   UNL     1      34.260  -7.427 -22.812  0.00  0.00    -0.204 F 
ATOM      7  C   UNL     1      33.793 -11.113 -24.613  0.00  0.00    +0.015 C 
ATOM      8  C   UNL     1      32.831 -10.648 -23.716  0.00  0.00    +0.004 C 
ATOM      9  C   UNL     1      34.912 -10.334 -24.901  0.00  0.00    +0.004 C 
ATOM     10  C   UNL     1      32.989  -9.403 -23.108  0.00  0.00    +0.030 C 
ATOM     11  C   UNL     1      35.070  -9.089 -24.293  0.00  0.00    +0.030 C 
ATOM     12  C   UNL     1      34.108  -8.623 -23.396  0.00  0.00    +0.140 C 
ENDBRANCH   5   7
BRANCH   3  14
ATOM     13  N   UNL     1      33.376 -14.541 -20.453  0.00  0.00    -0.242 NA
ATOM     14  C   UNL     1      33.446 -13.913 -23.173  0.00  0.00    +0.001 C 
ATOM     15  C   UNL     1      32.259 -13.790 -22.461  0.00  0.00    +0.018 C 
ATOM     16  C   UNL     1      34.597 -14.348 -22.530  0.00  0.00    +0.018 C 
ATOM     17  C   UNL     1      32.277 -14.114 -21.114  0.00  0.00    +0.099 C 
ATOM     18  C   UNL     1      34.511 -14.647 -21.180  0.00  0.00    +0.099 C 
ENDBRANCH   3  14
BRANCH   1  19
ATOM     19  C   UNL     1      33.180 -15.947 -25.421  0.00  0.00    +0.074 C 
BRANCH  19  20
ATOM     20  C   UNL     1      34.483 -16.672 -25.332  0.00  0.00    +0.016 C 
ATOM     21  C   UNL     1      34.865 -17.313 -24.036  0.00  0.00    +0.001 C 
ATOM     22  C   UNL     1      34.474 -18.162 -25.210  0.00  0.00    +0.001 C 
ENDBRANCH  19  20
ENDBRANCH   1  19
TORSDOF 4
ENDMDL
MODEL 2
REMARK VINA RESULT:      -8.5      4.464      7.459
REMARK  Name = 5171
REMARK  4 active torsions:
REMARK  status: ('A' for Active; 'I' for Inactive)
REMARK    1  A    between atoms: N_1  and  C_19
REMARK    2  A    between atoms: C_3  and  C_14
REMARK    3  A    between atoms: C_5  and  C_7
REMARK    4  A    between atoms: C_19  and  C_20
REMARK                            x       y       z     vdW  Elec       q    Type
REMARK                         _______ _______ _______ _____ _____    ______ ____
ROOT
ATOM      1  N   UNL     1      34.671 -17.252 -24.326  0.00  0.00    -0.245 NA
ATOM      2  N   UNL     1      34.866 -19.456 -24.131  0.00  0.00    -0.255 NA
ATOM      3  C   UNL     1      34.408 -17.537 -23.016  0.00  0.00    +0.122 C 
ATOM      4  C   UNL     1      34.941 -18.436 -24.955  0.00  0.00    +0.201 C 
ATOM      5  C   UNL     1      34.534 -18.901 -22.922  0.00  0.00    +0.074 C 
ENDROOT
BRANCH   5   7
ATOM      6  F   UNL     1      33.819 -21.904 -18.292  0.00  0.00    -0.204 F 
ATOM      7  C   UNL     1      34.350 -19.676 -21.728  0.00  0.00    +0.015 C 
ATOM      8  C   UNL     1      33.066 -19.886 -21.223  0.00  0.00    +0.004 C 
ATOM      9  C   UNL     1      35.454 -20.219 -21.071  0.00  0.00    +0.004 C 
ATOM     10  C   UNL     1      32.887 -20.638 -20.063  0.00  0.00    +0.030 C 
ATOM     11  C   UNL     1      35.275 -20.971 -19.911  0.00  0.00    +0.030 C 
ATOM     12  C   UNL     1      33.991 -21.181 -19.407  0.00  0.00    +0.140 C 
ENDBRANCH   5   7
BRANCH   3  14
ATOM     13  N   UNL     1      33.444 -14.592 -20.124  0.00  0.00    -0.242 NA
ATOM     14  C   UNL     1      34.078 -16.534 -22.028  0.00  0.00    +0.001 C 
ATOM     15  C   UNL     1      35.045 -16.099 -21.130  0.00  0.00    +0.018 C 
ATOM     16  C   UNL     1      32.796 -16.002 -21.978  0.00  0.00    +0.018 C 
ATOM     17  C   UNL     1      34.680 -15.134 -20.205  0.00  0.00    +0.099 C 
ATOM     18  C   UNL     1      32.532 -15.042 -21.015  0.00  0.00    +0.099 C 
ENDBRANCH   3  14
BRANCH   1  19
ATOM     19  C   UNL     1      34.673 -15.952 -24.956  0.00  0.00    +0.074 C 
BRANCH  19  20
ATOM     20  C   UNL     1      33.337 -15.602 -25.527  0.00  0.00    +0.016 C 
ATOM     21  C   UNL     1      32.769 -14.245 -25.256  0.00  0.00    +0.001 C 
ATOM     22  C   UNL     1      33.265 -14.594 -26.629  0.00  0.00    +0.001 C 
ENDBRANCH  19  20
ENDBRANCH   1  19
TORSDOF 4
ENDMDL
MODEL 3
REMARK VINA RESULT:      -8.5     11.759     14.884
REMARK  Name = 5171
REMARK  4 active torsions:
REMARK  status: ('A' for Active; 'I' for Inactive)
REMARK    1  A    between atoms: N_1  and  C_19
REMARK    2  A    between atoms: C_3  and  C_14
REMARK    3  A    between atoms: C_5  and  C_7
REMARK    4  A    between atoms: C_19  and  C_20
REMARK                            x       y       z     vdW  Elec       q    Type
REMARK                         _______ _______ _______ _____ _____    ______ ____
ROOT
ATOM      1  N   UNL     1      32.288 -23.502 -15.048  0.00  0.00    -0.245 NA
ATOM      2  N   UNL     1      33.241 -24.560 -13.344  0.00  0.00    -0.255 NA
ATOM      3  C   UNL     1      33.607 -23.634 -15.380  0.00  0.00    +0.122 C 
ATOM      4  C   UNL     1      32.117 -24.073 -13.817  0.00  0.00    +0.201 C 
ATOM      5  C   UNL     1      34.172 -24.289 -14.313  0.00  0.00    +0.074 C 
ENDROOT
BRANCH   5   7
ATOM      6  F   UNL     1      39.530 -25.722 -13.867  0.00  0.00    -0.204 F 
ATOM      7  C   UNL     1      35.554 -24.658 -14.198  0.00  0.00    +0.015 C 
ATOM      8  C   UNL     1      36.057 -25.721 -14.948  0.00  0.00    +0.004 C 
ATOM      9  C   UNL     1      36.395 -23.954 -13.336  0.00  0.00    +0.004 C 
ATOM     10  C   UNL     1      37.400 -26.081 -14.837  0.00  0.00    +0.030 C 
ATOM     11  C   UNL     1      37.738 -24.314 -13.224  0.00  0.00    +0.030 C 
ATOM     12  C   UNL     1      38.240 -25.377 -13.975  0.00  0.00    +0.140 C 
ENDBRANCH   5   7
BRANCH   3  14
ATOM     13  N   UNL     1      35.266 -22.207 -19.008  0.00  0.00    -0.242 NA
ATOM     14  C   UNL     1      34.174 -23.149 -16.617  0.00  0.00    +0.001 C 
ATOM     15  C   UNL     1      33.477 -23.303 -17.809  0.00  0.00    +0.018 C 
ATOM     16  C   UNL     1      35.415 -22.526 -16.617  0.00  0.00    +0.018 C 
ATOM     17  C   UNL     1      34.062 -22.819 -18.967  0.00  0.00    +0.099 C 
ATOM     18  C   UNL     1      35.914 -22.076 -17.828  0.00  0.00    +0.099 C 
ENDBRANCH   3  14
BRANCH   1  19
ATOM     19  C   UNL     1      31.246 -22.880 -15.832  0.00  0.00    +0.074 C 
BRANCH  19  20
ATOM     20  C   UNL     1      29.899 -23.043 -15.208  0.00  0.00    +0.016 C 
ATOM     21  C   UNL     1      28.696 -22.549 -15.947  0.00  0.00    +0.001 C 
ATOM     22  C   UNL     1      28.940 -24.022 -15.805  0.00  0.00    +0.001 C 
ENDBRANCH  19  20
ENDBRANCH   1  19
TORSDOF 4
ENDMDL
MODEL 4
REMARK VINA RESULT:      -8.5     11.876     14.934
REMARK  Name = 5171
REMARK  4 active torsions:
REMARK  status: ('A' for Active; 'I' for Inactive)
REMARK    1  A    between atoms: N_1  and  C_19
REMARK    2  A    between atoms: C_3  and  C_14
REMARK    3  A    between atoms: C_5  and  C_7
REMARK    4  A    between atoms: C_19  and  C_20
REMARK                            x       y       z     vdW  Elec       q    Type
REMARK                         _______ _______ _______ _____ _____    ______ ____
ROOT
ATOM      1  N   UNL     1      35.825 -23.798 -13.750  0.00  0.00    -0.245 NA
ATOM      2  N   UNL     1      34.076 -24.333 -12.490  0.00  0.00    -0.255 NA
ATOM      3  C   UNL     1      34.727 -23.639 -14.547  0.00  0.00    +0.122 C 
ATOM      4  C   UNL     1      35.384 -24.215 -12.525  0.00  0.00    +0.201 C 
ATOM      5  C   UNL     1      33.663 -23.975 -13.748  0.00  0.00    +0.074 C 
ENDROOT
BRANCH   5   7
ATOM      6  F   UNL     1      28.316 -23.931 -15.291  0.00  0.00    -0.204 F 
ATOM      7  C   UNL     1      32.284 -23.963 -14.146  0.00  0.00    +0.015 C 
ATOM      8  C   UNL     1      31.587 -25.164 -14.282  0.00  0.00    +0.004 C 
ATOM      9  C   UNL     1      31.640 -22.751 -14.396  0.00  0.00    +0.004 C 
ATOM     10  C   UNL     1      30.247 -25.153 -14.669  0.00  0.00    +0.030 C 
ATOM     11  C   UNL     1      30.300 -22.741 -14.783  0.00  0.00    +0.030 C 
ATOM     12  C   UNL     1      29.603 -23.942 -14.919  0.00  0.00    +0.140 C 
ENDBRANCH   5   7
BRANCH   3  14
ATOM     13  N   UNL     1      34.925 -22.370 -18.586  0.00  0.00    -0.242 NA
ATOM     14  C   UNL     1      34.793 -23.205 -15.924  0.00  0.00    +0.001 C 
ATOM     15  C   UNL     1      35.905 -22.506 -16.380  0.00  0.00    +0.018 C 
ATOM     16  C   UNL     1      33.748 -23.487 -16.794  0.00  0.00    +0.018 C 
ATOM     17  C   UNL     1      35.921 -22.115 -17.709  0.00  0.00    +0.099 C 
ATOM     18  C   UNL     1      33.861 -23.052 -18.105  0.00  0.00    +0.099 C 
ENDBRANCH   3  14
BRANCH   1  19
ATOM     19  C   UNL     1      37.207 -23.573 -14.107  0.00  0.00    +0.074 C 
BRANCH  19  20
ATOM     20  C   UNL     1      38.059 -24.772 -13.843  0.00  0.00    +0.016 C 
ATOM     21  C   UNL     1      37.926 -25.964 -14.736  0.00  0.00    +0.001 C 
ATOM     22  C   UNL     1      39.154 -25.106 -14.804  0.00  0.00    +0.001 C 
ENDBRANCH  19  20
ENDBRANCH   1  19
TORSDOF 4
ENDMDL
MODEL 5
REMARK VINA RESULT:      -8.5     11.864     14.932
REMARK  Name = 5171
REMARK  4 active torsions:
REMARK  status: ('A' for Active; 'I' for Inactive)
REMARK    1  A    between atoms: N_1  and  C_19
REMARK    2  A    between atoms: C_3  and  C_14
REMARK    3  A    between atoms: C_5  and  C_7
REMARK    4  A    between atoms: C_19  and  C_20
REMARK                            x       y       z     vdW  Elec       q    Type
REMARK                         _______ _______ _______ _____ _____    ______ ____
ROOT
ATOM      1  N   UNL     1      35.828 -23.788 -13.764  0.00  0.00    -0.245 NA
ATOM      2  N   UNL     1      34.082 -24.328 -12.502  0.00  0.00    -0.255 NA
ATOM      3  C   UNL     1      34.728 -23.631 -14.559  0.00  0.00    +0.122 C 
ATOM      4  C   UNL     1      35.390 -24.207 -12.538  0.00  0.00    +0.201 C 
ATOM      5  C   UNL     1      33.666 -23.971 -13.758  0.00  0.00    +0.074 C 
ENDROOT
BRANCH   5   7
ATOM      6  F   UNL     1      28.317 -23.932 -15.291  0.00  0.00    -0.204 F 
ATOM      7  C   UNL     1      32.286 -23.962 -14.154  0.00  0.00    +0.015 C 
ATOM      8  C   UNL     1      31.636 -22.750 -14.389  0.00  0.00    +0.004 C 
ATOM      9  C   UNL     1      31.594 -25.163 -14.303  0.00  0.00    +0.004 C 
ATOM     10  C   UNL     1      30.296 -22.739 -14.774  0.00  0.00    +0.030 C 
ATOM     11  C   UNL     1      30.254 -25.153 -14.687  0.00  0.00    +0.030 C 
ATOM     12  C   UNL     1      29.604 -23.941 -14.923  0.00  0.00    +0.140 C 
ENDBRANCH   5   7
BRANCH   3  14
ATOM     13  N   UNL     1      34.915 -22.359 -18.597  0.00  0.00    -0.242 NA
ATOM     14  C   UNL     1      34.790 -23.196 -15.936  0.00  0.00    +0.001 C 
ATOM     15  C   UNL     1      35.904 -22.505 -16.397  0.00  0.00    +0.018 C 
ATOM     16  C   UNL     1      33.739 -23.470 -16.801  0.00  0.00    +0.018 C 
ATOM     17  C   UNL     1      35.917 -22.111 -17.725  0.00  0.00    +0.099 C 
ATOM     18  C   UNL     1      33.849 -23.034 -18.112  0.00  0.00    +0.099 C 
ENDBRANCH   3  14
BRANCH   1  19
ATOM     19  C   UNL     1      37.208 -23.560 -14.124  0.00  0.00    +0.074 C 
BRANCH  19  20
ATOM     20  C   UNL     1      38.068 -24.749 -13.841  0.00  0.00    +0.016 C 
ATOM     21  C   UNL     1      37.940 -25.957 -14.714  0.00  0.00    +0.001 C 
ATOM     22  C   UNL     1      39.163 -25.092 -14.798  0.00  0.00    +0.001 C 
ENDBRANCH  19  20
ENDBRANCH   1  19
TORSDOF 4
ENDMDL
MODEL 6
REMARK VINA RESULT:      -8.4      2.502      4.692
REMARK  Name = 5171
REMARK  4 active torsions:
REMARK  status: ('A' for Active; 'I' for Inactive)
REMARK    1  A    between atoms: N_1  and  C_19
REMARK    2  A    between atoms: C_3  and  C_14
REMARK    3  A    between atoms: C_5  and  C_7
REMARK    4  A    between atoms: C_19  and  C_20
REMARK                            x       y       z     vdW  Elec       q    Type
REMARK                         _______ _______ _______ _____ _____    ______ ____
ROOT
ATOM      1  N   UNL     1      32.254 -12.146 -22.265  0.00  0.00    -0.245 NA
ATOM      2  N   UNL     1      31.022 -10.603 -21.249  0.00  0.00    -0.255 NA
ATOM      3  C   UNL     1      32.558 -10.962 -22.877  0.00  0.00    +0.122 C 
ATOM      4  C   UNL     1      31.328 -11.879 -21.295  0.00  0.00    +0.201 C 
ATOM      5  C   UNL     1      31.785 -10.028 -22.232  0.00  0.00    +0.074 C 
ENDROOT
BRANCH   5   7
ATOM      6  F   UNL     1      31.677  -4.581 -23.369  0.00  0.00    -0.204 F 
ATOM      7  C   UNL     1      31.758  -8.623 -22.525  0.00  0.00    +0.015 C 
ATOM      8  C   UNL     1      31.144  -8.165 -23.691  0.00  0.00    +0.004 C 
ATOM      9  C   UNL     1      32.344  -7.715 -21.644  0.00  0.00    +0.004 C 
ATOM     10  C   UNL     1      31.117  -6.801 -23.977  0.00  0.00    +0.030 C 
ATOM     11  C   UNL     1      32.317  -6.350 -21.929  0.00  0.00    +0.030 C 
ATOM     12  C   UNL     1      31.703  -5.893 -23.096  0.00  0.00    +0.140 C 
ENDBRANCH   5   7
BRANCH   3  14
ATOM     13  N   UNL     1      35.343 -10.606 -26.051  0.00  0.00    -0.242 NA
ATOM     14  C   UNL     1      33.505 -10.840 -23.960  0.00  0.00    +0.001 C 
ATOM     15  C   UNL     1      34.472  -9.841 -23.930  0.00  0.00    +0.018 C 
ATOM     16  C   UNL     1      33.456 -11.722 -25.032  0.00  0.00    +0.018 C 
ATOM     17  C   UNL     1      35.359  -9.767 -24.990  0.00  0.00    +0.099 C 
ATOM     18  C   UNL     1      34.389 -11.564 -26.044  0.00  0.00    +0.099 C 
ENDBRANCH   3  14
BRANCH   1  19
ATOM     19  C   UNL     1      32.795 -13.451 -22.567  0.00  0.00    +0.074 C 
BRANCH  19  20
ATOM     20  C   UNL     1      33.239 -14.174 -21.337  0.00  0.00    +0.016 C 
ATOM     21  C   UNL     1      32.544 -15.443 -20.956  0.00  0.00    +0.001 C 
ATOM     22  C   UNL     1      33.948 -15.482 -21.485  0.00  0.00    +0.001 C 
ENDBRANCH  19  20
ENDBRANCH   1  19
TORSDOF 4
ENDMDL
MODEL 7
REMARK VINA RESULT:      -8.2      2.863      6.671
REMARK  Name = 5171
REMARK  4 active torsions:
REMARK  status: ('A' for Active; 'I' for Inactive)
REMARK    1  A    between atoms: N_1  and  C_19
REMARK    2  A    between atoms: C_3  and  C_14
REMARK    3  A    between atoms: C_5  and  C_7
REMARK    4  A    between atoms: C_19  and  C_20
REMARK                            x       y       z     vdW  Elec       q    Type
REMARK                         _______ _______ _______ _____ _____    ______ ____
ROOT
ATOM      1  N   UNL     1      31.912 -10.663 -22.648  0.00  0.00    -0.245 NA
ATOM      2  N   UNL     1      31.635 -12.591 -21.581  0.00  0.00    -0.255 NA
ATOM      3  C   UNL     1      32.818 -11.527 -23.195  0.00  0.00    +0.122 C 
ATOM      4  C   UNL     1      31.224 -11.347 -21.684  0.00  0.00    +0.201 C 
ATOM      5  C   UNL     1      32.627 -12.707 -22.520  0.00  0.00    +0.074 C 
ENDROOT
BRANCH   5   7
ATOM      6  F   UNL     1      35.448 -17.425 -23.389  0.00  0.00    -0.204 F 
ATOM      7  C   UNL     1      33.354 -13.924 -22.745  0.00  0.00    +0.015 C 
ATOM      8  C   UNL     1      34.171 -14.444 -21.740  0.00  0.00    +0.004 C 
ATOM      9  C   UNL     1      33.246 -14.587 -23.967  0.00  0.00    +0.004 C 
ATOM     10  C   UNL     1      34.878 -15.626 -21.957  0.00  0.00    +0.030 C 
ATOM     11  C   UNL     1      33.953 -15.769 -24.184  0.00  0.00    +0.030 C 
ATOM     12  C   UNL     1      34.769 -16.289 -23.179  0.00  0.00    +0.140 C 
ENDBRANCH   5   7
BRANCH   3  14
ATOM     13  N   UNL     1      35.496 -10.463 -26.302  0.00  0.00    -0.242 NA
ATOM     14  C   UNL     1      33.733 -11.165 -24.253  0.00  0.00    +0.001 C 
ATOM     15  C   UNL     1      33.695 -11.842 -25.467  0.00  0.00    +0.018 C 
ATOM     16  C   UNL     1      34.648 -10.139 -24.062  0.00  0.00    +0.018 C 
ATOM     17  C   UNL     1      34.590 -11.456 -26.450  0.00  0.00    +0.099 C 
ATOM     18  C   UNL     1      35.501  -9.828 -25.109  0.00  0.00    +0.099 C 
ENDBRANCH   3  14
BRANCH   1  19
ATOM     19  C   UNL     1      31.697  -9.279 -23.003  0.00  0.00    +0.074 C 
BRANCH  19  20
ATOM     20  C   UNL     1      32.049  -8.350 -21.887  0.00  0.00    +0.016 C 
ATOM     21  C   UNL     1      33.193  -7.404 -22.067  0.00  0.00    +0.001 C 
ATOM     22  C   UNL     1      31.784  -6.888 -22.053  0.00  0.00    +0.001 C 
ENDBRANCH  19  20
ENDBRANCH   1  19
TORSDOF 4
ENDMDL
MODEL 8
REMARK VINA RESULT:      -7.9      2.816      6.608
REMARK  Name = 5171
REMARK  4 active torsions:
REMARK  status: ('A' for Active; 'I' for Inactive)
REMARK    1  A    between atoms: N_1  and  C_19
REMARK    2  A    between atoms: C_3  and  C_14
REMARK    3  A    between atoms: C_5  and  C_7
REMARK    4  A    between atoms: C_19  and  C_20
REMARK                            x       y       z     vdW  Elec       q    Type
REMARK                         _______ _______ _______ _____ _____    ______ ____
ROOT
ATOM      1  N   UNL     1      32.024 -12.314 -21.994  0.00  0.00    -0.245 NA
ATOM      2  N   UNL     1      32.695 -13.809 -20.495  0.00  0.00    -0.255 NA
ATOM      3  C   UNL     1      32.791 -13.213 -22.680  0.00  0.00    +0.122 C 
ATOM      4  C   UNL     1      31.995 -12.713 -20.687  0.00  0.00    +0.201 C 
ATOM      5  C   UNL     1      33.192 -14.124 -21.733  0.00  0.00    +0.074 C 
ENDROOT
BRANCH   5   7
ATOM      6  F   UNL     1      36.413 -18.562 -22.679  0.00  0.00    -0.204 F 
ATOM      7  C   UNL     1      34.023 -15.269 -21.977  0.00  0.00    +0.015 C 
ATOM      8  C   UNL     1      34.590 -15.464 -23.236  0.00  0.00    +0.004 C 
ATOM      9  C   UNL     1      34.263 -16.186 -20.954  0.00  0.00    +0.004 C 
ATOM     10  C   UNL     1      35.397 -16.576 -23.473  0.00  0.00    +0.030 C 
ATOM     11  C   UNL     1      35.070 -17.298 -21.192  0.00  0.00    +0.030 C 
ATOM     12  C   UNL     1      35.638 -17.493 -22.451  0.00  0.00    +0.140 C 
ENDBRANCH   5   7
BRANCH   3  14
ATOM     13  N   UNL     1      33.559 -12.952 -26.839  0.00  0.00    -0.242 NA
ATOM     14  C   UNL     1      33.055 -13.125 -24.097  0.00  0.00    +0.001 C 
ATOM     15  C   UNL     1      32.536 -14.081 -24.963  0.00  0.00    +0.018 C 
ATOM     16  C   UNL     1      33.824 -12.083 -24.599  0.00  0.00    +0.018 C 
ATOM     17  C   UNL     1      32.815 -13.951 -26.313  0.00  0.00    +0.099 C 
ATOM     18  C   UNL     1      34.046 -12.041 -25.966  0.00  0.00    +0.099 C 
ENDBRANCH   3  14
BRANCH   1  19
ATOM     19  C   UNL     1      31.356 -11.148 -22.526  0.00  0.00    +0.074 C 
BRANCH  19  20
ATOM     20  C   UNL     1      31.944  -9.877 -22.008  0.00  0.00    +0.016 C 
ATOM     21  C   UNL     1      32.942  -9.148 -22.850  0.00  0.00    +0.001 C 
ATOM     22  C   UNL     1      31.564  -8.587 -22.661  0.00  0.00    +0.001 C 
ENDBRANCH  19  20
ENDBRANCH   1  19
TORSDOF 4
ENDMDL
MODEL 9
REMARK VINA RESULT:      -7.8      3.669      7.305
REMARK  Name = 5171
REMARK  4 active torsions:
REMARK  status: ('A' for Active; 'I' for Inactive)
REMARK    1  A    between atoms: N_1  and  C_19
REMARK    2  A    between atoms: C_3  and  C_14
REMARK    3  A    between atoms: C_5  and  C_7
REMARK    4  A    between atoms: C_19  and  C_20
REMARK                            x       y       z     vdW  Elec       q    Type
REMARK                         _______ _______ _______ _____ _____    ______ ____
ROOT
ATOM      1  N   UNL     1      32.666 -13.968 -21.765  0.00  0.00    -0.245 NA
ATOM      2  N   UNL     1      33.022 -15.243 -19.981  0.00  0.00    -0.255 NA
ATOM      3  C   UNL     1      33.240 -15.116 -22.234  0.00  0.00    +0.122 C 
ATOM      4  C   UNL     1      32.555 -14.091 -20.408  0.00  0.00    +0.201 C 
ATOM      5  C   UNL     1      33.449 -15.885 -21.115  0.00  0.00    +0.074 C 
ENDROOT
BRANCH   5   7
ATOM      6  F   UNL     1      35.726 -20.962 -21.059  0.00  0.00    -0.204 F 
ATOM      7  C   UNL     1      34.036 -17.195 -21.101  0.00  0.00    +0.015 C 
ATOM      8  C   UNL     1      35.424 -17.337 -21.123  0.00  0.00    +0.004 C 
ATOM      9  C   UNL     1      33.220 -18.325 -21.064  0.00  0.00    +0.004 C 
ATOM     10  C   UNL     1      35.995 -18.609 -21.109  0.00  0.00    +0.030 C 
ATOM     11  C   UNL     1      33.791 -19.597 -21.050  0.00  0.00    +0.030 C 
ATOM     12  C   UNL     1      35.178 -19.739 -21.072  0.00  0.00    +0.140 C 
ENDBRANCH   5   7
BRANCH   3  14
ATOM     13  N   UNL     1      34.065 -15.824 -26.330  0.00  0.00    -0.242 NA
ATOM     14  C   UNL     1      33.520 -15.360 -23.630  0.00  0.00    +0.001 C 
ATOM     15  C   UNL     1      32.916 -14.577 -24.607  0.00  0.00    +0.018 C 
ATOM     16  C   UNL     1      34.396 -16.373 -23.999  0.00  0.00    +0.018 C 
ATOM     17  C   UNL     1      33.219 -14.848 -25.931  0.00  0.00    +0.099 C 
ATOM     18  C   UNL     1      34.633 -16.563 -25.350  0.00  0.00    +0.099 C 
ENDBRANCH   3  14
BRANCH   1  19
ATOM     19  C   UNL     1      32.244 -12.822 -22.537  0.00  0.00    +0.074 C 
BRANCH  19  20
ATOM     20  C   UNL     1      32.024 -11.617 -21.681  0.00  0.00    +0.016 C 
ATOM     21  C   UNL     1      31.454 -10.383 -22.304  0.00  0.00    +0.001 C 
ATOM     22  C   UNL     1      30.623 -11.204 -21.363  0.00  0.00    +0.001 C 
ENDBRANCH  19  20
ENDBRANCH   1  19
TORSDOF 4
ENDMDL
