MODEL 1
REMARK VINA RESULT:      -7.5      0.000      0.000
REMARK  Name = 446757
REMARK  4 active torsions:
REMARK  status: ('A' for Active; 'I' for Inactive)
REMARK    1  A    between atoms: C_1  and  O_10
REMARK    2  A    between atoms: C_4  and  N_9
REMARK    3  A    between atoms: O_10  and  P_11
REMARK    4  A    between atoms: P_11  and  O_14
REMARK                            x       y       z     vdW  Elec       q    Type
REMARK                         _______ _______ _______ _____ _____    ______ ____
ROOT
ATOM      1  C   UNL     1      34.276 -19.009 -21.218  0.00  0.00    +0.147 C 
ATOM      2  C   UNL     1      35.517 -19.592 -20.958  0.00  0.00    +0.039 C 
ATOM      3  C   UNL     1      33.112 -19.600 -20.727  0.00  0.00    +0.039 C 
ATOM      4  C   UNL     1      34.429 -21.357 -19.718  0.00  0.00    +0.143 C 
ATOM      5  C   UNL     1      35.593 -20.766 -20.209  0.00  0.00    +0.027 C 
ATOM      6  C   UNL     1      33.189 -20.774 -19.977  0.00  0.00    +0.027 C 
ENDROOT
BRANCH   4   9
ATOM      7  O   UNL     1      33.894 -23.571 -19.362  0.00  0.00    -0.126 OA
ATOM      8  O   UNL     1      35.181 -22.559 -17.899  0.00  0.00    -0.126 OA
ATOM      9  N   UNL     1      34.505 -22.553 -18.956  0.00  0.00    +0.058 N 
ENDBRANCH   4   9
BRANCH   1  10
ATOM     10  O   UNL     1      34.203 -17.864 -21.949  0.00  0.00    -0.422 OA
BRANCH  10  11
ATOM     11  P   UNL     1      34.226 -16.363 -21.347  0.00  0.00    +0.389 P 
ATOM     12  O   UNL     1      35.128 -16.138 -20.169  0.00  0.00    -0.244 OA
ATOM     13  C   UNL     1      34.646 -15.370 -22.767  0.00  0.00    +0.143 C 
BRANCH  11  14
ATOM     14  O   UNL     1      32.668 -16.001 -21.107  0.00  0.00    -0.315 OA
ATOM     15  H   UNL     1      32.204 -16.780 -20.764  0.00  0.00    +0.221 HD
ENDBRANCH  11  14
ENDBRANCH  10  11
ENDBRANCH   1  10
TORSDOF 4
ENDMDL
MODEL 2
REMARK VINA RESULT:      -7.5      0.061      1.536
REMARK  Name = 446757
REMARK  4 active torsions:
REMARK  status: ('A' for Active; 'I' for Inactive)
REMARK    1  A    between atoms: C_1  and  O_10
REMARK    2  A    between atoms: C_4  and  N_9
REMARK    3  A    between atoms: O_10  and  P_11
REMARK    4  A    between atoms: P_11  and  O_14
REMARK                            x       y       z     vdW  Elec       q    Type
REMARK                         _______ _______ _______ _____ _____    ______ ____
ROOT
ATOM      1  C   UNL     1      34.260 -19.029 -21.164  0.00  0.00    +0.147 C 
ATOM      2  C   UNL     1      33.101 -19.640 -20.686  0.00  0.00    +0.039 C 
ATOM      3  C   UNL     1      35.507 -19.592 -20.895  0.00  0.00    +0.039 C 
ATOM      4  C   UNL     1      34.435 -21.379 -19.671  0.00  0.00    +0.143 C 
ATOM      5  C   UNL     1      33.188 -20.816 -19.940  0.00  0.00    +0.027 C 
ATOM      6  C   UNL     1      35.594 -20.768 -20.148  0.00  0.00    +0.027 C 
ENDROOT
BRANCH   4   9
ATOM      7  O   UNL     1      35.222 -22.578 -17.865  0.00  0.00    -0.126 OA
ATOM      8  O   UNL     1      33.909 -23.594 -19.302  0.00  0.00    -0.126 OA
ATOM      9  N   UNL     1      34.527 -22.575 -18.910  0.00  0.00    +0.058 N 
ENDBRANCH   4   9
BRANCH   1  10
ATOM     10  O   UNL     1      34.174 -17.883 -21.892  0.00  0.00    -0.422 OA
BRANCH  10  11
ATOM     11  P   UNL     1      34.225 -16.382 -21.291  0.00  0.00    +0.389 P 
ATOM     12  O   UNL     1      35.146 -16.169 -20.125  0.00  0.00    -0.244 OA
ATOM     13  C   UNL     1      34.639 -15.395 -22.717  0.00  0.00    +0.143 C 
BRANCH  11  14
ATOM     14  O   UNL     1      32.676 -16.000 -21.031  0.00  0.00    -0.315 OA
ATOM     15  H   UNL     1      32.145 -16.810 -20.990  0.00  0.00    +0.221 HD
ENDBRANCH  11  14
ENDBRANCH  10  11
ENDBRANCH   1  10
TORSDOF 4
ENDMDL
MODEL 3
REMARK VINA RESULT:      -7.3      1.427      2.475
REMARK  Name = 446757
REMARK  4 active torsions:
REMARK  status: ('A' for Active; 'I' for Inactive)
REMARK    1  A    between atoms: C_1  and  O_10
REMARK    2  A    between atoms: C_4  and  N_9
REMARK    3  A    between atoms: O_10  and  P_11
REMARK    4  A    between atoms: P_11  and  O_14
REMARK                            x       y       z     vdW  Elec       q    Type
REMARK                         _______ _______ _______ _____ _____    ______ ____
ROOT
ATOM      1  C   UNL     1      34.350 -19.362 -21.084  0.00  0.00    +0.147 C 
ATOM      2  C   UNL     1      33.140 -19.892 -20.639  0.00  0.00    +0.039 C 
ATOM      3  C   UNL     1      35.553 -19.967 -20.718  0.00  0.00    +0.039 C 
ATOM      4  C   UNL     1      34.333 -21.632 -19.461  0.00  0.00    +0.143 C 
ATOM      5  C   UNL     1      33.130 -21.027 -19.827  0.00  0.00    +0.027 C 
ATOM      6  C   UNL     1      35.544 -21.102 -19.906  0.00  0.00    +0.027 C 
ENDROOT
BRANCH   4   9
ATOM      7  O   UNL     1      33.774 -23.831 -19.055  0.00  0.00    -0.126 OA
ATOM      8  O   UNL     1      34.872 -22.729 -17.506  0.00  0.00    -0.126 OA
ATOM      9  N   UNL     1      34.326 -22.786 -18.634  0.00  0.00    +0.058 N 
ENDBRANCH   4   9
BRANCH   1  10
ATOM     10  O   UNL     1      34.359 -18.255 -21.876  0.00  0.00    -0.422 OA
BRANCH  10  11
ATOM     11  P   UNL     1      35.045 -18.151 -23.336  0.00  0.00    +0.389 P 
ATOM     12  O   UNL     1      34.650 -19.205 -24.328  0.00  0.00    -0.244 OA
ATOM     13  C   UNL     1      34.634 -16.494 -23.853  0.00  0.00    +0.143 C 
BRANCH  11  14
ATOM     14  O   UNL     1      36.629 -18.045 -23.029  0.00  0.00    -0.315 OA
ATOM     15  H   UNL     1      36.949 -17.164 -23.278  0.00  0.00    +0.221 HD
ENDBRANCH  11  14
ENDBRANCH  10  11
ENDBRANCH   1  10
TORSDOF 4
ENDMDL
MODEL 4
REMARK VINA RESULT:      -6.7      8.052      9.156
REMARK  Name = 446757
REMARK  4 active torsions:
REMARK  status: ('A' for Active; 'I' for Inactive)
REMARK    1  A    between atoms: C_1  and  O_10
REMARK    2  A    between atoms: C_4  and  N_9
REMARK    3  A    between atoms: O_10  and  P_11
REMARK    4  A    between atoms: P_11  and  O_14
REMARK                            x       y       z     vdW  Elec       q    Type
REMARK                         _______ _______ _______ _____ _____    ______ ____
ROOT
ATOM      1  C   UNL     1      35.828 -24.827 -15.072  0.00  0.00    +0.147 C 
ATOM      2  C   UNL     1      36.366 -26.103 -14.904  0.00  0.00    +0.039 C 
ATOM      3  C   UNL     1      36.673 -23.721 -15.162  0.00  0.00    +0.039 C 
ATOM      4  C   UNL     1      38.593 -25.167 -14.915  0.00  0.00    +0.143 C 
ATOM      5  C   UNL     1      37.749 -26.273 -14.825  0.00  0.00    +0.027 C 
ATOM      6  C   UNL     1      38.055 -23.891 -15.083  0.00  0.00    +0.027 C 
ENDROOT
BRANCH   4   9
ATOM      7  O   UNL     1      40.643 -24.684 -13.976  0.00  0.00    -0.126 OA
ATOM      8  O   UNL     1      40.562 -26.137 -15.620  0.00  0.00    -0.126 OA
ATOM      9  N   UNL     1      40.001 -25.337 -14.834  0.00  0.00    +0.058 N 
ENDBRANCH   4   9
BRANCH   1  10
ATOM     10  O   UNL     1      34.480 -24.663 -15.149  0.00  0.00    -0.422 OA
BRANCH  10  11
ATOM     11  P   UNL     1      33.505 -24.309 -13.908  0.00  0.00    +0.389 P 
ATOM     12  O   UNL     1      34.182 -23.946 -12.619  0.00  0.00    -0.244 OA
ATOM     13  C   UNL     1      32.478 -23.008 -14.565  0.00  0.00    +0.143 C 
BRANCH  11  14
ATOM     14  O   UNL     1      32.485 -25.561 -13.828  0.00  0.00    -0.315 OA
ATOM     15  H   UNL     1      32.840 -26.229 -13.220  0.00  0.00    +0.221 HD
ENDBRANCH  11  14
ENDBRANCH  10  11
ENDBRANCH   1  10
TORSDOF 4
ENDMDL
MODEL 5
REMARK VINA RESULT:      -6.7      3.621      4.805
REMARK  Name = 446757
REMARK  4 active torsions:
REMARK  status: ('A' for Active; 'I' for Inactive)
REMARK    1  A    between atoms: C_1  and  O_10
REMARK    2  A    between atoms: C_4  and  N_9
REMARK    3  A    between atoms: O_10  and  P_11
REMARK    4  A    between atoms: P_11  and  O_14
REMARK                            x       y       z     vdW  Elec       q    Type
REMARK                         _______ _______ _______ _____ _____    ______ ____
ROOT
ATOM      1  C   UNL     1      34.622 -16.638 -24.804  0.00  0.00    +0.147 C 
ATOM      2  C   UNL     1      34.959 -16.062 -23.579  0.00  0.00    +0.039 C 
ATOM      3  C   UNL     1      34.513 -18.024 -24.916  0.00  0.00    +0.039 C 
ATOM      4  C   UNL     1      35.079 -18.257 -22.578  0.00  0.00    +0.143 C 
ATOM      5  C   UNL     1      35.188 -16.871 -22.466  0.00  0.00    +0.027 C 
ATOM      6  C   UNL     1      34.742 -18.834 -23.803  0.00  0.00    +0.027 C 
ENDROOT
BRANCH   4   9
ATOM      7  O   UNL     1      36.321 -18.861 -20.732  0.00  0.00    -0.126 OA
ATOM      8  O   UNL     1      34.507 -20.010 -21.193  0.00  0.00    -0.126 OA
ATOM      9  N   UNL     1      35.313 -19.083 -21.447  0.00  0.00    +0.058 N 
ENDBRANCH   4   9
BRANCH   1  10
ATOM     10  O   UNL     1      34.398 -15.848 -25.889  0.00  0.00    -0.422 OA
BRANCH  10  11
ATOM     11  P   UNL     1      33.111 -14.895 -26.107  0.00  0.00    +0.389 P 
ATOM     12  O   UNL     1      32.571 -14.223 -24.878  0.00  0.00    -0.244 OA
ATOM     13  C   UNL     1      33.666 -13.753 -27.359  0.00  0.00    +0.143 C 
BRANCH  11  14
ATOM     14  O   UNL     1      32.057 -15.820 -26.912  0.00  0.00    -0.315 OA
ATOM     15  H   UNL     1      32.376 -16.736 -26.927  0.00  0.00    +0.221 HD
ENDBRANCH  11  14
ENDBRANCH  10  11
ENDBRANCH   1  10
TORSDOF 4
ENDMDL
MODEL 6
REMARK VINA RESULT:      -6.7      6.884      7.904
REMARK  Name = 446757
REMARK  4 active torsions:
REMARK  status: ('A' for Active; 'I' for Inactive)
REMARK    1  A    between atoms: C_1  and  O_10
REMARK    2  A    between atoms: C_4  and  N_9
REMARK    3  A    between atoms: O_10  and  P_11
REMARK    4  A    between atoms: P_11  and  O_14
REMARK                            x       y       z     vdW  Elec       q    Type
REMARK                         _______ _______ _______ _____ _____    ______ ____
ROOT
ATOM      1  C   UNL     1      30.717 -22.789 -16.172  0.00  0.00    +0.147 C 
ATOM      2  C   UNL     1      31.907 -23.064 -16.846  0.00  0.00    +0.039 C 
ATOM      3  C   UNL     1      30.671 -22.864 -14.780  0.00  0.00    +0.039 C 
ATOM      4  C   UNL     1      33.005 -23.489 -14.736  0.00  0.00    +0.143 C 
ATOM      5  C   UNL     1      33.051 -23.414 -16.128  0.00  0.00    +0.027 C 
ATOM      6  C   UNL     1      31.815 -23.214 -14.062  0.00  0.00    +0.027 C 
ENDROOT
BRANCH   4   9
ATOM      7  O   UNL     1      34.076 -24.019 -12.765  0.00  0.00    -0.126 OA
ATOM      8  O   UNL     1      35.255 -23.980 -14.617  0.00  0.00    -0.126 OA
ATOM      9  N   UNL     1      34.168 -23.846 -14.004  0.00  0.00    +0.058 N 
ENDBRANCH   4   9
BRANCH   1  10
ATOM     10  O   UNL     1      29.602 -22.447 -16.872  0.00  0.00    -0.422 OA
BRANCH  10  11
ATOM     11  P   UNL     1      28.191 -23.236 -16.833  0.00  0.00    +0.389 P 
ATOM     12  O   UNL     1      28.258 -24.692 -16.477  0.00  0.00    -0.244 OA
ATOM     13  C   UNL     1      27.223 -22.266 -15.692  0.00  0.00    +0.143 C 
BRANCH  11  14
ATOM     14  O   UNL     1      27.503 -22.900 -18.258  0.00  0.00    -0.315 OA
ATOM     15  H   UNL     1      28.032 -23.289 -18.972  0.00  0.00    +0.221 HD
ENDBRANCH  11  14
ENDBRANCH  10  11
ENDBRANCH   1  10
TORSDOF 4
ENDMDL
MODEL 7
REMARK VINA RESULT:      -6.7      2.918      5.736
REMARK  Name = 446757
REMARK  4 active torsions:
REMARK  status: ('A' for Active; 'I' for Inactive)
REMARK    1  A    between atoms: C_1  and  O_10
REMARK    2  A    between atoms: C_4  and  N_9
REMARK    3  A    between atoms: O_10  and  P_11
REMARK    4  A    between atoms: P_11  and  O_14
REMARK                            x       y       z     vdW  Elec       q    Type
REMARK                         _______ _______ _______ _____ _____    ______ ____
ROOT
ATOM      1  C   UNL     1      33.526 -21.040 -19.773  0.00  0.00    +0.147 C 
ATOM      2  C   UNL     1      34.913 -21.046 -19.923  0.00  0.00    +0.039 C 
ATOM      3  C   UNL     1      32.764 -20.044 -20.384  0.00  0.00    +0.039 C 
ATOM      4  C   UNL     1      34.775 -19.060 -21.293  0.00  0.00    +0.143 C 
ATOM      5  C   UNL     1      35.538 -20.056 -20.682  0.00  0.00    +0.027 C 
ATOM      6  C   UNL     1      33.388 -19.054 -21.143  0.00  0.00    +0.027 C 
ENDROOT
BRANCH   4   9
ATOM      7  O   UNL     1      36.050 -18.385 -23.091  0.00  0.00    -0.126 OA
ATOM      8  O   UNL     1      35.311 -16.855 -21.700  0.00  0.00    -0.126 OA
ATOM      9  N   UNL     1      35.409 -18.051 -22.065  0.00  0.00    +0.058 N 
ENDBRANCH   4   9
BRANCH   1  10
ATOM     10  O   UNL     1      32.918 -22.006 -19.033  0.00  0.00    -0.422 OA
BRANCH  10  11
ATOM     11  P   UNL     1      33.669 -23.055 -18.059  0.00  0.00    +0.389 P 
ATOM     12  O   UNL     1      35.018 -22.636 -17.552  0.00  0.00    -0.244 OA
ATOM     13  C   UNL     1      32.473 -23.327 -16.765  0.00  0.00    +0.143 C 
BRANCH  11  14
ATOM     14  O   UNL     1      33.637 -24.453 -18.873  0.00  0.00    -0.315 OA
ATOM     15  H   UNL     1      33.728 -24.276 -19.822  0.00  0.00    +0.221 HD
ENDBRANCH  11  14
ENDBRANCH  10  11
ENDBRANCH   1  10
TORSDOF 4
ENDMDL
MODEL 8
REMARK VINA RESULT:      -6.6      6.478      8.911
REMARK  Name = 446757
REMARK  4 active torsions:
REMARK  status: ('A' for Active; 'I' for Inactive)
REMARK    1  A    between atoms: C_1  and  O_10
REMARK    2  A    between atoms: C_4  and  N_9
REMARK    3  A    between atoms: O_10  and  P_11
REMARK    4  A    between atoms: P_11  and  O_14
REMARK                            x       y       z     vdW  Elec       q    Type
REMARK                         _______ _______ _______ _____ _____    ______ ____
ROOT
ATOM      1  C   UNL     1      34.151 -23.717 -13.710  0.00  0.00    +0.147 C 
ATOM      2  C   UNL     1      35.180 -23.407 -14.599  0.00  0.00    +0.039 C 
ATOM      3  C   UNL     1      32.840 -23.827 -14.172  0.00  0.00    +0.039 C 
ATOM      4  C   UNL     1      33.587 -23.320 -16.413  0.00  0.00    +0.143 C 
ATOM      5  C   UNL     1      34.899 -23.209 -15.951  0.00  0.00    +0.027 C 
ATOM      6  C   UNL     1      32.558 -23.629 -15.524  0.00  0.00    +0.027 C 
ENDROOT
BRANCH   4   9
ATOM      7  O   UNL     1      34.067 -23.608 -18.650  0.00  0.00    -0.126 OA
ATOM      8  O   UNL     1      32.282 -22.452 -18.105  0.00  0.00    -0.126 OA
ATOM      9  N   UNL     1      33.298 -23.116 -17.789  0.00  0.00    +0.058 N 
ENDBRANCH   4   9
BRANCH   1  10
ATOM     10  O   UNL     1      34.427 -23.910 -12.391  0.00  0.00    -0.422 OA
BRANCH  10  11
ATOM     11  P   UNL     1      35.766 -24.601 -11.804  0.00  0.00    +0.389 P 
ATOM     12  O   UNL     1      36.373 -25.685 -12.645  0.00  0.00    -0.244 OA
ATOM     13  C   UNL     1      36.851 -23.210 -11.541  0.00  0.00    +0.143 C 
BRANCH  11  14
ATOM     14  O   UNL     1      35.368 -25.032 -10.297  0.00  0.00    -0.315 OA
ATOM     15  H   UNL     1      36.174 -25.135  -9.767  0.00  0.00    +0.221 HD
ENDBRANCH  11  14
ENDBRANCH  10  11
ENDBRANCH   1  10
TORSDOF 4
ENDMDL
MODEL 9
REMARK VINA RESULT:      -6.6      6.959      9.000
REMARK  Name = 446757
REMARK  4 active torsions:
REMARK  status: ('A' for Active; 'I' for Inactive)
REMARK    1  A    between atoms: C_1  and  O_10
REMARK    2  A    between atoms: C_4  and  N_9
REMARK    3  A    between atoms: O_10  and  P_11
REMARK    4  A    between atoms: P_11  and  O_14
REMARK                            x       y       z     vdW  Elec       q    Type
REMARK                         _______ _______ _______ _____ _____    ______ ____
ROOT
ATOM      1  C   UNL     1      35.042 -24.209 -14.628  0.00  0.00    +0.147 C 
ATOM      2  C   UNL     1      34.831 -23.687 -15.904  0.00  0.00    +0.039 C 
ATOM      3  C   UNL     1      33.982 -24.293 -13.725  0.00  0.00    +0.039 C 
ATOM      4  C   UNL     1      32.500 -23.333 -15.375  0.00  0.00    +0.143 C 
ATOM      5  C   UNL     1      33.560 -23.249 -16.278  0.00  0.00    +0.027 C 
ATOM      6  C   UNL     1      32.711 -23.855 -14.099  0.00  0.00    +0.027 C 
ENDROOT
BRANCH   4   9
ATOM      7  O   UNL     1      30.337 -22.722 -14.863  0.00  0.00    -0.126 OA
ATOM      8  O   UNL     1      30.969 -22.665 -16.965  0.00  0.00    -0.126 OA
ATOM      9  N   UNL     1      31.206 -22.885 -15.753  0.00  0.00    +0.058 N 
ENDBRANCH   4   9
BRANCH   1  10
ATOM     10  O   UNL     1      36.281 -24.637 -14.265  0.00  0.00    -0.422 OA
BRANCH  10  11
ATOM     11  P   UNL     1      36.904 -26.093 -14.588  0.00  0.00    +0.389 P 
ATOM     12  O   UNL     1      36.337 -26.804 -15.783  0.00  0.00    -0.244 OA
ATOM     13  C   UNL     1      38.651 -25.761 -14.718  0.00  0.00    +0.143 C 
BRANCH  11  14
ATOM     14  O   UNL     1      36.797 -26.897 -13.189  0.00  0.00    -0.315 OA
ATOM     15  H   UNL     1      35.865 -27.058 -12.979  0.00  0.00    +0.221 HD
ENDBRANCH  11  14
ENDBRANCH  10  11
ENDBRANCH   1  10
TORSDOF 4
ENDMDL
