MODEL 1
REMARK VINA RESULT:      -9.0      0.000      0.000
REMARK  Name = 6533629
REMARK  6 active torsions:
REMARK  status: ('A' for Active; 'I' for Inactive)
REMARK    1  A    between atoms: N_2  and  CA_9
REMARK    2  A    between atoms: C_3  and  C_19
REMARK    3  A    between atoms: CA_11  and  C_15
REMARK    4  A    between atoms: C_15  and  O_16
REMARK    5  A    between atoms: N_18  and  O_28
REMARK    6  A    between atoms: C_19  and  C_23
REMARK                            x       y       z     vdW  Elec       q    Type
REMARK                         _______ _______ _______ _____ _____    ______ ____
ROOT
ATOM      1  O   UNK A   0      35.392 -24.588 -15.918  0.00  0.00    -0.268 OA
ATOM      2  N   MET A   1      35.269 -22.357 -15.200  0.00  0.00    -0.291 N 
ATOM      3  C   UNK A   0      34.844 -23.500 -15.853  0.00  0.00    +0.269 C 
ATOM      4  H   MET A   1      34.706 -21.551 -15.242  0.00  0.00    +0.150 HD
ENDROOT
BRANCH   2   9
ATOM      5  SD  MET A   1      35.170 -24.043 -12.626  0.00  0.00    -0.114 S 
ATOM      6  O   MET A   1      38.291 -23.294 -16.026  0.00  0.00    -0.273 OA
ATOM      7  N   MET A   1      37.497 -24.027 -13.936  0.00  0.00    -0.242 N 
ATOM      8  CE  MET A   1      36.649 -23.139 -13.157  0.00  0.00    +0.155 C 
ATOM      9  CA  MET A   1      36.522 -22.298 -14.447  0.00  0.00    +0.179 C 
ATOM     10  C   MET A   1      37.634 -23.231 -15.014  0.00  0.00    +0.251 C 
ATOM     11  CA  MET A   1      37.897 -25.240 -13.495  0.00  0.00    +0.127 C 
ATOM     12  CG  MET A   1      36.115 -25.303 -11.693  0.00  0.00    +0.087 C 
ATOM     13  CB  MET A   1      37.308 -25.843 -12.447  0.00  0.00    +0.007 C 
BRANCH  11  15
ATOM     14  OXT MET A   1      40.071 -26.166 -13.755  0.00  0.00    -0.244 OA
ATOM     15  C   MET A   1      38.957 -25.963 -14.202  0.00  0.00    +0.352 C 
BRANCH  15  16
ATOM     16  O   MET A   1      38.505 -26.360 -15.410  0.00  0.00    -0.476 OA
ATOM     17  H   MET A   1      37.826 -25.879 -15.838  0.00  0.00    +0.295 HD
ENDBRANCH  15  16
ENDBRANCH  11  15
ENDBRANCH   2   9
BRANCH   3  19
ATOM     18  N   UNK A   0      33.499 -22.961 -17.809  0.00  0.00    -0.076 NA
ATOM     19  C   UNK A   0      33.525 -23.318 -16.561  0.00  0.00    +0.198 C 
BRANCH  19  23
ATOM     20  S   UNK A   0      29.830 -23.468 -15.226  0.00  0.00    -0.060 S 
ATOM     21  N   UNK A   0      32.231 -24.286 -14.728  0.00  0.00    -0.383 NA
ATOM     22  N   UNK A   0      30.588 -24.991 -13.181  0.00  0.00    -0.328 N 
ATOM     23  C   UNK A   0      32.251 -23.529 -15.865  0.00  0.00    +0.148 C 
ATOM     24  C   UNK A   0      31.076 -22.997 -16.303  0.00  0.00    +0.127 C 
ATOM     25  C   UNK A   0      30.990 -24.325 -14.296  0.00  0.00    +0.204 C 
ATOM     26  H   UNK A   0      29.640 -24.978 -12.916  0.00  0.00    +0.145 HD
ATOM     27  H   UNK A   0      31.244 -25.487 -12.640  0.00  0.00    +0.145 HD
ENDBRANCH  19  23
BRANCH  18  28
ATOM     28  O   UNK A   0      34.790 -22.792 -18.329  0.00  0.00    -0.373 OA
ATOM     29  C   UNK A   0      34.721 -21.839 -19.378  0.00  0.00    +0.288 C 
ENDBRANCH  18  28
ENDBRANCH   3  19
TORSDOF 6
ENDMDL
MODEL 2
REMARK VINA RESULT:      -8.4     11.979     14.939
REMARK  Name = 6533629
REMARK  6 active torsions:
REMARK  status: ('A' for Active; 'I' for Inactive)
REMARK    1  A    between atoms: N_2  and  CA_9
REMARK    2  A    between atoms: C_3  and  C_19
REMARK    3  A    between atoms: CA_11  and  C_15
REMARK    4  A    between atoms: C_15  and  O_16
REMARK    5  A    between atoms: N_18  and  O_28
REMARK    6  A    between atoms: C_19  and  C_23
REMARK                            x       y       z     vdW  Elec       q    Type
REMARK                         _______ _______ _______ _____ _____    ______ ____
ROOT
ATOM      1  O   UNK A   0      30.658 -10.787 -22.495  0.00  0.00    -0.268 OA
ATOM      2  N   MET A   1      32.646 -12.028 -22.621  0.00  0.00    -0.291 N 
ATOM      3  C   UNK A   0      31.867 -10.885 -22.634  0.00  0.00    +0.269 C 
ATOM      4  H   MET A   1      33.618 -11.938 -22.748  0.00  0.00    +0.150 HD
ENDROOT
BRANCH   2   9
ATOM      5  SD  MET A   1      33.779 -14.078 -24.617  0.00  0.00    -0.114 S 
ATOM      6  O   MET A   1      32.800 -14.037 -20.045  0.00  0.00    -0.273 OA
ATOM      7  N   MET A   1      33.331 -14.968 -22.140  0.00  0.00    -0.242 N 
ATOM      8  CE  MET A   1      32.599 -14.519 -23.313  0.00  0.00    +0.155 C 
ATOM      9  CA  MET A   1      32.086 -13.364 -22.424  0.00  0.00    +0.179 C 
ATOM     10  C   MET A   1      32.744 -14.147 -21.247  0.00  0.00    +0.251 C 
ATOM     11  CA  MET A   1      34.271 -15.938 -22.183  0.00  0.00    +0.127 C 
ATOM     12  CG  MET A   1      34.514 -15.753 -24.700  0.00  0.00    +0.087 C 
ATOM     13  CB  MET A   1      34.813 -16.348 -23.344  0.00  0.00    +0.007 C 
BRANCH  11  15
ATOM     14  OXT MET A   1      34.909 -17.722 -20.747  0.00  0.00    -0.244 OA
ATOM     15  C   MET A   1      34.772 -16.527 -20.940  0.00  0.00    +0.352 C 
BRANCH  15  16
ATOM     16  O   MET A   1      35.053 -15.547 -20.056  0.00  0.00    -0.476 OA
ATOM     17  H   MET A   1      35.671 -14.879 -20.277  0.00  0.00    +0.295 HD
ENDBRANCH  15  16
ENDBRANCH  11  15
ENDBRANCH   2   9
BRANCH   3  19
ATOM     18  N   UNK A   0      33.556  -9.577 -23.800  0.00  0.00    -0.076 NA
ATOM     19  C   UNK A   0      32.667  -9.627 -22.855  0.00  0.00    +0.198 C 
BRANCH  19  23
ATOM     20  S   UNK A   0      32.291  -6.905 -20.042  0.00  0.00    -0.060 S 
ATOM     21  N   UNK A   0      32.166  -7.250 -22.601  0.00  0.00    -0.383 NA
ATOM     22  N   UNK A   0      31.739  -5.045 -21.861  0.00  0.00    -0.328 N 
ATOM     23  C   UNK A   0      32.475  -8.443 -22.011  0.00  0.00    +0.148 C 
ATOM     24  C   UNK A   0      32.588  -8.478 -20.654  0.00  0.00    +0.127 C 
ATOM     25  C   UNK A   0      32.043  -6.352 -21.647  0.00  0.00    +0.204 C 
ATOM     26  H   UNK A   0      31.663  -4.427 -21.098  0.00  0.00    +0.145 HD
ATOM     27  H   UNK A   0      31.595  -4.715 -22.777  0.00  0.00    +0.145 HD
ENDBRANCH  19  23
BRANCH  18  28
ATOM     28  O   UNK A   0      33.628 -10.783 -24.511  0.00  0.00    -0.373 OA
ATOM     29  C   UNK A   0      34.742 -10.713 -25.386  0.00  0.00    +0.288 C 
ENDBRANCH  18  28
ENDBRANCH   3  19
TORSDOF 6
ENDMDL
MODEL 3
REMARK VINA RESULT:      -8.4      3.670      6.502
REMARK  Name = 6533629
REMARK  6 active torsions:
REMARK  status: ('A' for Active; 'I' for Inactive)
REMARK    1  A    between atoms: N_2  and  CA_9
REMARK    2  A    between atoms: C_3  and  C_19
REMARK    3  A    between atoms: CA_11  and  C_15
REMARK    4  A    between atoms: C_15  and  O_16
REMARK    5  A    between atoms: N_18  and  O_28
REMARK    6  A    between atoms: C_19  and  C_23
REMARK                            x       y       z     vdW  Elec       q    Type
REMARK                         _______ _______ _______ _____ _____    ______ ____
ROOT
ATOM      1  O   UNK A   0      34.792 -23.280 -20.053  0.00  0.00    -0.268 OA
ATOM      2  N   MET A   1      34.216 -22.452 -17.934  0.00  0.00    -0.291 N 
ATOM      3  C   UNK A   0      34.817 -22.428 -19.180  0.00  0.00    +0.269 C 
ATOM      4  H   MET A   1      34.331 -21.678 -17.339  0.00  0.00    +0.150 HD
ENDROOT
BRANCH   2   9
ATOM      5  SD  MET A   1      35.502 -23.887 -15.534  0.00  0.00    -0.114 S 
ATOM      6  O   MET A   1      31.183 -22.542 -16.715  0.00  0.00    -0.273 OA
ATOM      7  N   MET A   1      32.840 -23.689 -15.500  0.00  0.00    -0.242 N 
ATOM      8  CE  MET A   1      33.898 -24.370 -16.228  0.00  0.00    +0.155 C 
ATOM      9  CA  MET A   1      33.413 -23.582 -17.466  0.00  0.00    +0.179 C 
ATOM     10  C   MET A   1      32.210 -23.160 -16.568  0.00  0.00    +0.251 C 
ATOM     11  CA  MET A   1      32.728 -23.725 -14.154  0.00  0.00    +0.127 C 
ATOM     12  CG  MET A   1      35.117 -24.523 -13.861  0.00  0.00    +0.087 C 
ATOM     13  CB  MET A   1      33.742 -24.134 -13.370  0.00  0.00    +0.007 C 
BRANCH  11  15
ATOM     14  OXT MET A   1      30.376 -23.558 -13.856  0.00  0.00    -0.244 OA
ATOM     15  C   MET A   1      31.502 -23.252 -13.508  0.00  0.00    +0.352 C 
BRANCH  15  16
ATOM     16  O   MET A   1      31.817 -22.434 -12.482  0.00  0.00    -0.476 OA
ATOM     17  H   MET A   1      32.676 -22.459 -12.110  0.00  0.00    +0.295 HD
ENDBRANCH  15  16
ENDBRANCH  11  15
ENDBRANCH   2   9
BRANCH   3  19
ATOM     18  N   UNK A   0      36.669 -20.906 -18.756  0.00  0.00    -0.076 NA
ATOM     19  C   UNK A   0      35.592 -21.161 -19.436  0.00  0.00    +0.198 C 
BRANCH  19  23
ATOM     20  S   UNK A   0      33.741 -18.771 -21.951  0.00  0.00    -0.060 S 
ATOM     21  N   UNK A   0      36.089 -19.465 -21.122  0.00  0.00    -0.383 NA
ATOM     22  N   UNK A   0      36.066 -17.802 -22.804  0.00  0.00    -0.328 N 
ATOM     23  C   UNK A   0      35.152 -20.189 -20.441  0.00  0.00    +0.148 C 
ATOM     24  C   UNK A   0      33.839 -19.973 -20.732  0.00  0.00    +0.127 C 
ATOM     25  C   UNK A   0      35.454 -18.673 -21.958  0.00  0.00    +0.204 C 
ATOM     26  H   UNK A   0      35.527 -17.238 -23.403  0.00  0.00    +0.145 HD
ATOM     27  H   UNK A   0      37.048 -17.736 -22.817  0.00  0.00    +0.145 HD
ENDBRANCH  19  23
BRANCH  18  28
ATOM     28  O   UNK A   0      36.954 -21.922 -17.833  0.00  0.00    -0.373 OA
ATOM     29  C   UNK A   0      37.437 -21.315 -16.645  0.00  0.00    +0.288 C 
ENDBRANCH  18  28
ENDBRANCH   3  19
TORSDOF 6
ENDMDL
MODEL 4
REMARK VINA RESULT:      -8.3      1.246      1.283
REMARK  Name = 6533629
REMARK  6 active torsions:
REMARK  status: ('A' for Active; 'I' for Inactive)
REMARK    1  A    between atoms: N_2  and  CA_9
REMARK    2  A    between atoms: C_3  and  C_19
REMARK    3  A    between atoms: CA_11  and  C_15
REMARK    4  A    between atoms: C_15  and  O_16
REMARK    5  A    between atoms: N_18  and  O_28
REMARK    6  A    between atoms: C_19  and  C_23
REMARK                            x       y       z     vdW  Elec       q    Type
REMARK                         _______ _______ _______ _____ _____    ______ ____
ROOT
ATOM      1  O   UNK A   0      33.291 -22.341 -14.294  0.00  0.00    -0.268 OA
ATOM      2  N   MET A   1      35.091 -23.043 -15.626  0.00  0.00    -0.291 N 
ATOM      3  C   UNK A   0      33.762 -22.841 -15.303  0.00  0.00    +0.269 C 
ATOM      4  H   MET A   1      35.310 -23.464 -16.489  0.00  0.00    +0.150 HD
ENDROOT
BRANCH   2   9
ATOM      5  SD  MET A   1      35.525 -25.068 -13.349  0.00  0.00    -0.114 S 
ATOM      6  O   MET A   1      38.277 -22.633 -16.240  0.00  0.00    -0.273 OA
ATOM      7  N   MET A   1      37.727 -23.962 -14.378  0.00  0.00    -0.242 N 
ATOM      8  CE  MET A   1      36.568 -23.603 -13.578  0.00  0.00    +0.155 C 
ATOM      9  CA  MET A   1      36.188 -22.656 -14.739  0.00  0.00    +0.179 C 
ATOM     10  C   MET A   1      37.599 -22.996 -15.309  0.00  0.00    +0.251 C 
ATOM     11  CA  MET A   1      38.541 -24.997 -14.075  0.00  0.00    +0.127 C 
ATOM     12  CG  MET A   1      36.836 -26.031 -12.508  0.00  0.00    +0.087 C 
ATOM     13  CB  MET A   1      38.179 -25.949 -13.196  0.00  0.00    +0.007 C 
BRANCH  11  15
ATOM     14  OXT MET A   1      40.872 -24.641 -14.374  0.00  0.00    -0.244 OA
ATOM     15  C   MET A   1      39.829 -25.140 -14.757  0.00  0.00    +0.352 C 
BRANCH  15  16
ATOM     16  O   MET A   1      39.675 -25.901 -15.861  0.00  0.00    -0.476 OA
ATOM     17  H   MET A   1      39.398 -26.792 -15.781  0.00  0.00    +0.295 HD
ENDBRANCH  15  16
ENDBRANCH  11  15
ENDBRANCH   2   9
BRANCH   3  19
ATOM     18  N   UNK A   0      33.226 -23.452 -17.598  0.00  0.00    -0.076 NA
ATOM     19  C   UNK A   0      32.815 -23.323 -16.373  0.00  0.00    +0.198 C 
BRANCH  19  23
ATOM     20  S   UNK A   0      28.915 -23.615 -15.966  0.00  0.00    -0.060 S 
ATOM     21  N   UNK A   0      31.145 -24.713 -15.256  0.00  0.00    -0.383 NA
ATOM     22  N   UNK A   0      29.198 -25.741 -14.394  0.00  0.00    -0.328 N 
ATOM     23  C   UNK A   0      31.418 -23.646 -16.065  0.00  0.00    +0.148 C 
ATOM     24  C   UNK A   0      30.370 -22.924 -16.551  0.00  0.00    +0.127 C 
ATOM     25  C   UNK A   0      29.838 -24.795 -15.130  0.00  0.00    +0.204 C 
ATOM     26  H   UNK A   0      28.215 -25.744 -14.344  0.00  0.00    +0.145 HD
ATOM     27  H   UNK A   0      29.717 -26.424 -13.910  0.00  0.00    +0.145 HD
ENDBRANCH  19  23
BRANCH  18  28
ATOM     28  O   UNK A   0      34.576 -23.099 -17.734  0.00  0.00    -0.373 OA
ATOM     29  C   UNK A   0      34.710 -22.312 -18.907  0.00  0.00    +0.288 C 
ENDBRANCH  18  28
ENDBRANCH   3  19
TORSDOF 6
ENDMDL
MODEL 5
REMARK VINA RESULT:      -8.2     11.407     14.569
REMARK  Name = 6533629
REMARK  6 active torsions:
REMARK  status: ('A' for Active; 'I' for Inactive)
REMARK    1  A    between atoms: N_2  and  CA_9
REMARK    2  A    between atoms: C_3  and  C_19
REMARK    3  A    between atoms: CA_11  and  C_15
REMARK    4  A    between atoms: C_15  and  O_16
REMARK    5  A    between atoms: N_18  and  O_28
REMARK    6  A    between atoms: C_19  and  C_23
REMARK                            x       y       z     vdW  Elec       q    Type
REMARK                         _______ _______ _______ _____ _____    ______ ____
ROOT
ATOM      1  O   UNK A   0      30.391 -11.154 -22.289  0.00  0.00    -0.268 OA
ATOM      2  N   MET A   1      32.402 -12.277 -21.839  0.00  0.00    -0.291 N 
ATOM      3  C   UNK A   0      31.575 -11.179 -21.993  0.00  0.00    +0.269 C 
ATOM      4  H   MET A   1      33.344 -12.129 -21.594  0.00  0.00    +0.150 HD
ENDROOT
BRANCH   2   9
ATOM      5  SD  MET A   1      33.847 -13.708 -24.149  0.00  0.00    -0.114 S 
ATOM      6  O   MET A   1      32.509 -14.844 -19.816  0.00  0.00    -0.273 OA
ATOM      7  N   MET A   1      33.275 -15.202 -22.012  0.00  0.00    -0.242 N 
ATOM      8  CE  MET A   1      32.606 -14.521 -23.108  0.00  0.00    +0.155 C 
ATOM      9  CA  MET A   1      31.935 -13.651 -22.022  0.00  0.00    +0.179 C 
ATOM     10  C   MET A   1      32.557 -14.660 -21.009  0.00  0.00    +0.251 C 
ATOM     11  CA  MET A   1      34.289 -16.077 -22.196  0.00  0.00    +0.127 C 
ATOM     12  CG  MET A   1      34.715 -15.267 -24.560  0.00  0.00    +0.087 C 
ATOM     13  CB  MET A   1      34.952 -16.158 -23.363  0.00  0.00    +0.007 C 
BRANCH  11  15
ATOM     14  OXT MET A   1      34.701 -18.140 -21.090  0.00  0.00    -0.244 OA
ATOM     15  C   MET A   1      34.735 -16.923 -21.087  0.00  0.00    +0.352 C 
BRANCH  15  16
ATOM     16  O   MET A   1      35.183 -16.148 -20.077  0.00  0.00    -0.476 OA
ATOM     17  H   MET A   1      35.444 -16.538 -19.267  0.00  0.00    +0.295 HD
ENDBRANCH  15  16
ENDBRANCH  11  15
ENDBRANCH   2   9
BRANCH   3  19
ATOM     18  N   UNK A   0      32.059  -9.196 -20.667  0.00  0.00    -0.076 NA
ATOM     19  C   UNK A   0      32.282  -9.870 -21.755  0.00  0.00    +0.198 C 
BRANCH  19  23
ATOM     20  S   UNK A   0      34.608  -7.756 -24.119  0.00  0.00    -0.060 S 
ATOM     21  N   UNK A   0      33.904 -10.179 -23.555  0.00  0.00    -0.383 NA
ATOM     22  N   UNK A   0      35.502  -9.972 -25.287  0.00  0.00    -0.328 N 
ATOM     23  C   UNK A   0      33.224  -9.322 -22.737  0.00  0.00    +0.148 C 
ATOM     24  C   UNK A   0      33.452  -7.986 -22.874  0.00  0.00    +0.127 C 
ATOM     25  C   UNK A   0      34.675  -9.456 -24.339  0.00  0.00    +0.204 C 
ATOM     26  H   UNK A   0      36.053  -9.371 -25.838  0.00  0.00    +0.145 HD
ATOM     27  H   UNK A   0      35.550 -10.946 -25.422  0.00  0.00    +0.145 HD
ENDBRANCH  19  23
BRANCH  18  28
ATOM     28  O   UNK A   0      31.134  -9.842 -19.836  0.00  0.00    -0.373 OA
ATOM     29  C   UNK A   0      31.842 -10.404 -18.742  0.00  0.00    +0.288 C 
ENDBRANCH  18  28
ENDBRANCH   3  19
TORSDOF 6
ENDMDL
MODEL 6
REMARK VINA RESULT:      -8.2      3.112      4.766
REMARK  Name = 6533629
REMARK  6 active torsions:
REMARK  status: ('A' for Active; 'I' for Inactive)
REMARK    1  A    between atoms: N_2  and  CA_9
REMARK    2  A    between atoms: C_3  and  C_19
REMARK    3  A    between atoms: CA_11  and  C_15
REMARK    4  A    between atoms: C_15  and  O_16
REMARK    5  A    between atoms: N_18  and  O_28
REMARK    6  A    between atoms: C_19  and  C_23
REMARK                            x       y       z     vdW  Elec       q    Type
REMARK                         _______ _______ _______ _____ _____    ______ ____
ROOT
ATOM      1  O   UNK A   0      33.643 -24.830 -17.718  0.00  0.00    -0.268 OA
ATOM      2  N   MET A   1      33.658 -23.632 -15.700  0.00  0.00    -0.291 N 
ATOM      3  C   UNK A   0      33.439 -23.828 -17.051  0.00  0.00    +0.269 C 
ATOM      4  H   MET A   1      33.438 -22.757 -15.307  0.00  0.00    +0.150 HD
ENDROOT
BRANCH   2   9
ATOM      5  SD  MET A   1      36.719 -23.862 -15.918  0.00  0.00    -0.114 S 
ATOM      6  O   MET A   1      33.591 -23.923 -12.444  0.00  0.00    -0.273 OA
ATOM      7  N   MET A   1      35.682 -24.218 -13.484  0.00  0.00    -0.242 N 
ATOM      8  CE  MET A   1      35.733 -24.872 -14.781  0.00  0.00    +0.155 C 
ATOM      9  CA  MET A   1      34.201 -24.673 -14.828  0.00  0.00    +0.179 C 
ATOM     10  C   MET A   1      34.341 -24.228 -13.340  0.00  0.00    +0.251 C 
ATOM     11  CA  MET A   1      36.785 -23.815 -12.816  0.00  0.00    +0.127 C 
ATOM     12  CG  MET A   1      38.234 -23.953 -14.893  0.00  0.00    +0.087 C 
ATOM     13  CB  MET A   1      37.981 -23.713 -13.423  0.00  0.00    +0.007 C 
BRANCH  11  15
ATOM     14  OXT MET A   1      36.221 -24.108 -10.526  0.00  0.00    -0.244 OA
ATOM     15  C   MET A   1      36.684 -23.413 -11.412  0.00  0.00    +0.352 C 
BRANCH  15  16
ATOM     16  O   MET A   1      37.181 -22.167 -11.261  0.00  0.00    -0.476 OA
ATOM     17  H   MET A   1      36.665 -21.424 -11.503  0.00  0.00    +0.295 HD
ENDBRANCH  15  16
ENDBRANCH  11  15
ENDBRANCH   2   9
BRANCH   3  19
ATOM     18  N   UNK A   0      31.668 -22.213 -17.478  0.00  0.00    -0.076 NA
ATOM     19  C   UNK A   0      32.876 -22.612 -17.740  0.00  0.00    +0.198 C 
BRANCH  19  23
ATOM     20  S   UNK A   0      35.557 -20.941 -20.082  0.00  0.00    -0.060 S 
ATOM     21  N   UNK A   0      33.025 -20.996 -19.567  0.00  0.00    -0.383 NA
ATOM     22  N   UNK A   0      33.665 -19.533 -21.311  0.00  0.00    -0.328 N 
ATOM     23  C   UNK A   0      33.664 -21.858 -18.722  0.00  0.00    +0.148 C 
ATOM     24  C   UNK A   0      35.016 -21.978 -18.829  0.00  0.00    +0.127 C 
ATOM     25  C   UNK A   0      33.935 -20.446 -20.341  0.00  0.00    +0.204 C 
ATOM     26  H   UNK A   0      34.397 -19.162 -21.854  0.00  0.00    +0.145 HD
ATOM     27  H   UNK A   0      32.739 -19.242 -21.469  0.00  0.00    +0.145 HD
ENDBRANCH  19  23
BRANCH  18  28
ATOM     28  O   UNK A   0      31.043 -23.036 -16.531  0.00  0.00    -0.373 OA
ATOM     29  C   UNK A   0      29.683 -22.645 -16.435  0.00  0.00    +0.288 C 
ENDBRANCH  18  28
ENDBRANCH   3  19
TORSDOF 6
ENDMDL
MODEL 7
REMARK VINA RESULT:      -8.1     10.845     13.934
REMARK  Name = 6533629
REMARK  6 active torsions:
REMARK  status: ('A' for Active; 'I' for Inactive)
REMARK    1  A    between atoms: N_2  and  CA_9
REMARK    2  A    between atoms: C_3  and  C_19
REMARK    3  A    between atoms: CA_11  and  C_15
REMARK    4  A    between atoms: C_15  and  O_16
REMARK    5  A    between atoms: N_18  and  O_28
REMARK    6  A    between atoms: C_19  and  C_23
REMARK                            x       y       z     vdW  Elec       q    Type
REMARK                         _______ _______ _______ _____ _____    ______ ____
ROOT
ATOM      1  O   UNK A   0      31.788 -12.531 -23.567  0.00  0.00    -0.268 OA
ATOM      2  N   MET A   1      33.838 -13.645 -23.314  0.00  0.00    -0.291 N 
ATOM      3  C   UNK A   0      32.996 -12.625 -23.716  0.00  0.00    +0.269 C 
ATOM      4  H   MET A   1      34.799 -13.571 -23.511  0.00  0.00    +0.150 HD
ENDROOT
BRANCH   2   9
ATOM      5  SD  MET A   1      33.834 -16.154 -25.097  0.00  0.00    -0.114 S 
ATOM      6  O   MET A   1      35.038 -15.177 -20.686  0.00  0.00    -0.273 OA
ATOM      7  N   MET A   1      34.512 -16.526 -22.542  0.00  0.00    -0.242 N 
ATOM      8  CE  MET A   1      33.353 -16.185 -23.350  0.00  0.00    +0.155 C 
ATOM      9  CA  MET A   1      33.359 -14.832 -22.605  0.00  0.00    +0.179 C 
ATOM     10  C   MET A   1      34.437 -15.486 -21.688  0.00  0.00    +0.251 C 
ATOM     11  CA  MET A   1      35.278 -17.615 -22.772  0.00  0.00    +0.127 C 
ATOM     12  CG  MET A   1      34.362 -17.907 -25.118  0.00  0.00    +0.087 C 
ATOM     13  CB  MET A   1      35.213 -18.294 -23.931  0.00  0.00    +0.007 C 
BRANCH  11  15
ATOM     14  OXT MET A   1      36.006 -18.230 -20.595  0.00  0.00    -0.244 OA
ATOM     15  C   MET A   1      36.257 -18.045 -21.772  0.00  0.00    +0.352 C 
BRANCH  15  16
ATOM     16  O   MET A   1      37.463 -18.203 -22.357  0.00  0.00    -0.476 OA
ATOM     17  H   MET A   1      38.216 -17.774 -22.003  0.00  0.00    +0.295 HD
ENDBRANCH  15  16
ENDBRANCH  11  15
ENDBRANCH   2   9
BRANCH   3  19
ATOM     18  N   UNK A   0      34.262 -11.723 -25.590  0.00  0.00    -0.076 NA
ATOM     19  C   UNK A   0      33.718 -11.511 -24.430  0.00  0.00    +0.198 C 
BRANCH  19  23
ATOM     20  S   UNK A   0      34.604  -7.856 -23.279  0.00  0.00    -0.060 S 
ATOM     21  N   UNK A   0      32.938  -9.791 -22.879  0.00  0.00    -0.383 NA
ATOM     22  N   UNK A   0      32.570  -7.859 -21.566  0.00  0.00    -0.328 N 
ATOM     23  C   UNK A   0      33.835 -10.175 -23.836  0.00  0.00    +0.148 C 
ATOM     24  C   UNK A   0      34.807  -9.291 -24.195  0.00  0.00    +0.127 C 
ATOM     25  C   UNK A   0      33.249  -8.569 -22.506  0.00  0.00    +0.204 C 
ATOM     26  H   UNK A   0      32.858  -6.947 -21.335  0.00  0.00    +0.145 HD
ATOM     27  H   UNK A   0      31.790  -8.258 -21.116  0.00  0.00    +0.145 HD
ENDBRANCH  19  23
BRANCH  18  28
ATOM     28  O   UNK A   0      34.073 -13.044 -26.019  0.00  0.00    -0.373 OA
ATOM     29  C   UNK A   0      33.367 -13.011 -27.249  0.00  0.00    +0.288 C 
ENDBRANCH  18  28
ENDBRANCH   3  19
TORSDOF 6
ENDMDL
MODEL 8
REMARK VINA RESULT:      -8.0     14.452     17.635
REMARK  Name = 6533629
REMARK  6 active torsions:
REMARK  status: ('A' for Active; 'I' for Inactive)
REMARK    1  A    between atoms: N_2  and  CA_9
REMARK    2  A    between atoms: C_3  and  C_19
REMARK    3  A    between atoms: CA_11  and  C_15
REMARK    4  A    between atoms: C_15  and  O_16
REMARK    5  A    between atoms: N_18  and  O_28
REMARK    6  A    between atoms: C_19  and  C_23
REMARK                            x       y       z     vdW  Elec       q    Type
REMARK                         _______ _______ _______ _____ _____    ______ ____
ROOT
ATOM      1  O   UNK A   0      34.727  -8.067 -23.052  0.00  0.00    -0.268 OA
ATOM      2  N   MET A   1      33.286  -9.750 -23.825  0.00  0.00    -0.291 N 
ATOM      3  C   UNK A   0      33.625  -8.493 -23.357  0.00  0.00    +0.269 C 
ATOM      4  H   MET A   1      32.343  -9.940 -24.028  0.00  0.00    +0.150 HD
ENDROOT
BRANCH   2   9
ATOM      5  SD  MET A   1      32.638 -12.287 -22.206  0.00  0.00    -0.114 S 
ATOM      6  O   MET A   1      34.134 -11.365 -26.539  0.00  0.00    -0.273 OA
ATOM      7  N   MET A   1      33.670 -12.673 -24.638  0.00  0.00    -0.242 N 
ATOM      8  CE  MET A   1      34.056 -12.169 -23.330  0.00  0.00    +0.155 C 
ATOM      9  CA  MET A   1      34.274 -10.810 -24.030  0.00  0.00    +0.179 C 
ATOM     10  C   MET A   1      34.067 -11.603 -25.356  0.00  0.00    +0.251 C 
ATOM     11  CA  MET A   1      33.102 -13.884 -24.825  0.00  0.00    +0.127 C 
ATOM     12  CG  MET A   1      32.488 -14.104 -22.375  0.00  0.00    +0.087 C 
ATOM     13  CB  MET A   1      32.578 -14.586 -23.804  0.00  0.00    +0.007 C 
BRANCH  11  15
ATOM     14  OXT MET A   1      33.666 -15.352 -26.607  0.00  0.00    -0.244 OA
ATOM     15  C   MET A   1      32.987 -14.438 -26.175  0.00  0.00    +0.352 C 
BRANCH  15  16
ATOM     16  O   MET A   1      32.022 -13.782 -26.853  0.00  0.00    -0.476 OA
ATOM     17  H   MET A   1      31.893 -12.865 -26.715  0.00  0.00    +0.295 HD
ENDBRANCH  15  16
ENDBRANCH  11  15
ENDBRANCH   2   9
BRANCH   3  19
ATOM     18  N   UNK A   0      31.528  -7.807 -22.329  0.00  0.00    -0.076 NA
ATOM     19  C   UNK A   0      32.438  -7.574 -23.225  0.00  0.00    +0.198 C 
BRANCH  19  23
ATOM     20  S   UNK A   0      32.612  -4.688 -25.891  0.00  0.00    -0.060 S 
ATOM     21  N   UNK A   0      31.213  -5.573 -23.905  0.00  0.00    -0.383 NA
ATOM     22  N   UNK A   0      30.392  -3.597 -24.914  0.00  0.00    -0.328 N 
ATOM     23  C   UNK A   0      32.276  -6.408 -24.101  0.00  0.00    +0.148 C 
ATOM     24  C   UNK A   0      33.145  -6.117 -25.108  0.00  0.00    +0.127 C 
ATOM     25  C   UNK A   0      31.287  -4.614 -24.804  0.00  0.00    +0.204 C 
ATOM     26  H   UNK A   0      30.509  -2.913 -25.612  0.00  0.00    +0.145 HD
ATOM     27  H   UNK A   0      29.627  -3.545 -24.297  0.00  0.00    +0.145 HD
ENDBRANCH  19  23
BRANCH  18  28
ATOM     28  O   UNK A   0      31.820  -8.955 -21.579  0.00  0.00    -0.373 OA
ATOM     29  C   UNK A   0      32.086  -8.554 -20.244  0.00  0.00    +0.288 C 
ENDBRANCH  18  28
ENDBRANCH   3  19
TORSDOF 6
ENDMDL
MODEL 9
REMARK VINA RESULT:      -7.9     13.593     16.626
REMARK  Name = 6533629
REMARK  6 active torsions:
REMARK  status: ('A' for Active; 'I' for Inactive)
REMARK    1  A    between atoms: N_2  and  CA_9
REMARK    2  A    between atoms: C_3  and  C_19
REMARK    3  A    between atoms: CA_11  and  C_15
REMARK    4  A    between atoms: C_15  and  O_16
REMARK    5  A    between atoms: N_18  and  O_28
REMARK    6  A    between atoms: C_19  and  C_23
REMARK                            x       y       z     vdW  Elec       q    Type
REMARK                         _______ _______ _______ _____ _____    ______ ____
ROOT
ATOM      1  O   UNK A   0      30.755  -8.808 -23.199  0.00  0.00    -0.268 OA
ATOM      2  N   MET A   1      32.402 -10.192 -22.260  0.00  0.00    -0.291 N 
ATOM      3  C   UNK A   0      31.861  -9.005 -22.722  0.00  0.00    +0.269 C 
ATOM      4  H   MET A   1      33.318 -10.185 -21.901  0.00  0.00    +0.150 HD
ENDROOT
BRANCH   2   9
ATOM      5  SD  MET A   1      33.634 -12.227 -24.213  0.00  0.00    -0.114 S 
ATOM      6  O   MET A   1      31.864 -12.377 -19.888  0.00  0.00    -0.273 OA
ATOM      7  N   MET A   1      32.652 -13.222 -21.939  0.00  0.00    -0.242 N 
ATOM      8  CE  MET A   1      32.197 -12.603 -23.173  0.00  0.00    +0.155 C 
ATOM      9  CA  MET A   1      31.667 -11.457 -22.283  0.00  0.00    +0.179 C 
ATOM     10  C   MET A   1      32.011 -12.396 -21.087  0.00  0.00    +0.251 C 
ATOM     11  CA  MET A   1      33.468 -14.298 -21.910  0.00  0.00    +0.127 C 
ATOM     12  CG  MET A   1      34.176 -13.972 -24.322  0.00  0.00    +0.087 C 
ATOM     13  CB  MET A   1      34.159 -14.692 -22.994  0.00  0.00    +0.007 C 
BRANCH  11  15
ATOM     14  OXT MET A   1      34.756 -15.270 -20.164  0.00  0.00    -0.244 OA
ATOM     15  C   MET A   1      33.669 -15.031 -20.658  0.00  0.00    +0.352 C 
BRANCH  15  16
ATOM     16  O   MET A   1      32.473 -15.392 -20.148  0.00  0.00    -0.476 OA
ATOM     17  H   MET A   1      31.710 -14.883 -20.335  0.00  0.00    +0.295 HD
ENDBRANCH  15  16
ENDBRANCH  11  15
ENDBRANCH   2   9
BRANCH   3  19
ATOM     18  N   UNK A   0      33.292  -7.512 -21.439  0.00  0.00    -0.076 NA
ATOM     19  C   UNK A   0      32.807  -7.838 -22.598  0.00  0.00    +0.198 C 
BRANCH  19  23
ATOM     20  S   UNK A   0      34.458  -6.091 -25.710  0.00  0.00    -0.060 S 
ATOM     21  N   UNK A   0      32.325  -6.103 -24.249  0.00  0.00    -0.383 NA
ATOM     22  N   UNK A   0      32.320  -4.541 -26.025  0.00  0.00    -0.328 N 
ATOM     23  C   UNK A   0      33.193  -7.043 -23.768  0.00  0.00    +0.148 C 
ATOM     24  C   UNK A   0      34.388  -7.197 -24.402  0.00  0.00    +0.127 C 
ATOM     25  C   UNK A   0      32.893  -5.529 -25.288  0.00  0.00    +0.204 C 
ATOM     26  H   UNK A   0      32.803  -4.156 -26.791  0.00  0.00    +0.145 HD
ATOM     27  H   UNK A   0      31.422  -4.210 -25.793  0.00  0.00    +0.145 HD
ENDBRANCH  19  23
BRANCH  18  28
ATOM     28  O   UNK A   0      32.825  -8.357 -20.423  0.00  0.00    -0.373 OA
ATOM     29  C   UNK A   0      32.027  -7.586 -19.539  0.00  0.00    +0.288 C 
ENDBRANCH  18  28
ENDBRANCH   3  19
TORSDOF 6
ENDMDL
