MODEL 1
REMARK VINA RESULT:     -10.8      0.000      0.000
REMARK  Name = 24836810
REMARK  6 active torsions:
REMARK  status: ('A' for Active; 'I' for Inactive)
REMARK    1  A    between atoms: C_9  and  C_12
REMARK    2  A    between atoms: C_10  and  C_19
REMARK    3  A    between atoms: C_20  and  C_23
REMARK    4  A    between atoms: C_23  and  C_27
REMARK    5  A    between atoms: C_23  and  O_28
REMARK    6  A    between atoms: C_23  and  O_30
REMARK                            x       y       z     vdW  Elec       q    Type
REMARK                         _______ _______ _______ _____ _____    ______ ____
ROOT
ATOM      1  O   UNL     1      34.357 -11.909 -25.904  0.00  0.00    -0.269 OA
ATOM      2  N   UNL     1      33.455 -14.961 -22.300  0.00  0.00    -0.271 N 
ATOM      3  N   UNL     1      33.261 -12.810 -24.044  0.00  0.00    -0.267 N 
ATOM      4  N   UNL     1      32.558 -13.923 -20.565  0.00  0.00    -0.230 NA
ATOM      5  C   UNL     1      33.929 -15.140 -23.656  0.00  0.00    +0.118 C 
ATOM      6  C   UNL     1      33.228 -14.169 -24.598  0.00  0.00    +0.116 C 
ATOM      7  C   UNL     1      32.629 -12.631 -22.723  0.00  0.00    +0.155 C 
ATOM      8  C   UNL     1      32.870 -13.808 -21.841  0.00  0.00    +0.133 C 
ATOM      9  C   UNL     1      33.523 -15.852 -21.275  0.00  0.00    +0.072 C 
ATOM     10  C   UNL     1      33.828 -11.777 -24.801  0.00  0.00    +0.255 C 
ATOM     11  C   UNL     1      32.962 -15.187 -20.209  0.00  0.00    +0.115 C 
ENDROOT
BRANCH   9  12
ATOM     12  C   UNL     1      34.089 -17.176 -21.357  0.00  0.00    +0.015 C 
ATOM     13  C   UNL     1      33.301 -18.289 -21.063  0.00  0.00    +0.001 C 
ATOM     14  C   UNL     1      35.422 -17.344 -21.731  0.00  0.00    +0.001 C 
ATOM     15  C   UNL     1      33.847 -19.571 -21.141  0.00  0.00    +0.000 C 
ATOM     16  C   UNL     1      35.967 -18.626 -21.810  0.00  0.00    +0.000 C 
ATOM     17  C   UNL     1      35.180 -19.739 -21.515  0.00  0.00    +0.000 C 
ENDBRANCH   9  12
BRANCH  10  19
ATOM     18  S   UNL     1      32.323  -9.818 -23.600  0.00  0.00    -0.082 S 
ATOM     19  C   UNL     1      33.789 -10.413 -24.254  0.00  0.00    +0.083 C 
ATOM     20  C   UNL     1      33.043  -8.313 -23.212  0.00  0.00    +0.066 C 
ATOM     21  C   UNL     1      34.803  -9.484 -24.178  0.00  0.00    +0.011 C 
ATOM     22  C   UNL     1      34.371  -8.267 -23.575  0.00  0.00    +0.008 C 
BRANCH  20  23
ATOM     23  C   UNL     1      32.229  -7.263 -22.561  0.00  0.00    +0.297 C 
BRANCH  23  27
ATOM     24  F   UNL     1      33.496  -7.509 -20.534  0.00  0.00    -0.165 F 
ATOM     25  F   UNL     1      31.689  -6.294 -20.451  0.00  0.00    -0.165 F 
ATOM     26  F   UNL     1      31.541  -8.466 -20.619  0.00  0.00    -0.165 F 
ATOM     27  C   UNL     1      32.241  -7.384 -21.026  0.00  0.00    +0.449 C 
ENDBRANCH  23  27
BRANCH  23  28
ATOM     28  O   UNL     1      32.711  -5.948 -22.906  0.00  0.00    -0.354 OA
ATOM     29  H   UNL     1      32.014  -5.295 -22.740  0.00  0.00    +0.213 HD
ENDBRANCH  23  28
BRANCH  23  30
ATOM     30  O   UNL     1      30.856  -7.331 -22.999  0.00  0.00    -0.354 OA
ATOM     31  H   UNL     1      30.273  -7.035 -22.283  0.00  0.00    +0.213 HD
ENDBRANCH  23  30
ENDBRANCH  20  23
ENDBRANCH  10  19
TORSDOF 6
ENDMDL
MODEL 2
REMARK VINA RESULT:     -10.6      9.591     13.159
REMARK  Name = 24836810
REMARK  6 active torsions:
REMARK  status: ('A' for Active; 'I' for Inactive)
REMARK    1  A    between atoms: C_9  and  C_12
REMARK    2  A    between atoms: C_10  and  C_19
REMARK    3  A    between atoms: C_20  and  C_23
REMARK    4  A    between atoms: C_23  and  C_27
REMARK    5  A    between atoms: C_23  and  O_28
REMARK    6  A    between atoms: C_23  and  O_30
REMARK                            x       y       z     vdW  Elec       q    Type
REMARK                         _______ _______ _______ _____ _____    ______ ____
ROOT
ATOM      1  O   UNL     1      32.093 -22.428 -17.763  0.00  0.00    -0.269 OA
ATOM      2  N   UNL     1      35.027 -19.838 -20.555  0.00  0.00    -0.271 N 
ATOM      3  N   UNL     1      33.964 -21.933 -19.076  0.00  0.00    -0.267 N 
ATOM      4  N   UNL     1      37.145 -20.395 -20.240  0.00  0.00    -0.230 NA
ATOM      5  C   UNL     1      33.587 -19.936 -20.452  0.00  0.00    +0.118 C 
ATOM      6  C   UNL     1      33.168 -21.374 -20.175  0.00  0.00    +0.116 C 
ATOM      7  C   UNL     1      35.425 -21.961 -19.280  0.00  0.00    +0.155 C 
ATOM      8  C   UNL     1      35.896 -20.748 -20.007  0.00  0.00    +0.133 C 
ATOM      9  C   UNL     1      35.749 -18.859 -21.162  0.00  0.00    +0.072 C 
ATOM     10  C   UNL     1      33.309 -22.443 -17.948  0.00  0.00    +0.255 C 
ATOM     11  C   UNL     1      37.060 -19.224 -20.955  0.00  0.00    +0.115 C 
ENDROOT
BRANCH   9  12
ATOM     12  C   UNL     1      35.195 -17.713 -21.840  0.00  0.00    +0.015 C 
ATOM     13  C   UNL     1      34.809 -16.590 -21.105  0.00  0.00    +0.001 C 
ATOM     14  C   UNL     1      35.046 -17.725 -23.226  0.00  0.00    +0.001 C 
ATOM     15  C   UNL     1      34.272 -15.481 -21.759  0.00  0.00    +0.000 C 
ATOM     16  C   UNL     1      34.510 -16.615 -23.879  0.00  0.00    +0.000 C 
ATOM     17  C   UNL     1      34.123 -15.493 -23.146  0.00  0.00    +0.000 C 
ENDBRANCH   9  12
BRANCH  10  19
ATOM     18  S   UNL     1      35.792 -22.686 -16.801  0.00  0.00    -0.082 S 
ATOM     19  C   UNL     1      34.123 -23.058 -16.889  0.00  0.00    +0.083 C 
ATOM     20  C   UNL     1      36.000 -23.699 -15.435  0.00  0.00    +0.066 C 
ATOM     21  C   UNL     1      33.735 -23.934 -15.900  0.00  0.00    +0.011 C 
ATOM     22  C   UNL     1      34.822 -24.305 -15.057  0.00  0.00    +0.008 C 
BRANCH  20  23
ATOM     23  C   UNL     1      37.340 -23.823 -14.818  0.00  0.00    +0.297 C 
BRANCH  23  27
ATOM     24  F   UNL     1      37.013 -25.671 -13.317  0.00  0.00    -0.165 F 
ATOM     25  F   UNL     1      37.333 -26.129 -15.423  0.00  0.00    -0.165 F 
ATOM     26  F   UNL     1      38.993 -25.425 -14.192  0.00  0.00    -0.165 F 
ATOM     27  C   UNL     1      37.672 -25.277 -14.432  0.00  0.00    +0.449 C 
ENDBRANCH  23  27
BRANCH  23  28
ATOM     28  O   UNL     1      38.367 -23.358 -15.718  0.00  0.00    -0.354 OA
ATOM     29  H   UNL     1      39.229 -23.687 -15.422  0.00  0.00    +0.213 HD
ENDBRANCH  23  28
BRANCH  23  30
ATOM     30  O   UNL     1      37.434 -23.015 -13.626  0.00  0.00    -0.354 OA
ATOM     31  H   UNL     1      37.278 -23.571 -12.847  0.00  0.00    +0.213 HD
ENDBRANCH  23  30
ENDBRANCH  20  23
ENDBRANCH  10  19
TORSDOF 6
ENDMDL
MODEL 3
REMARK VINA RESULT:     -10.4      1.377      1.908
REMARK  Name = 24836810
REMARK  6 active torsions:
REMARK  status: ('A' for Active; 'I' for Inactive)
REMARK    1  A    between atoms: C_9  and  C_12
REMARK    2  A    between atoms: C_10  and  C_19
REMARK    3  A    between atoms: C_20  and  C_23
REMARK    4  A    between atoms: C_23  and  C_27
REMARK    5  A    between atoms: C_23  and  O_28
REMARK    6  A    between atoms: C_23  and  O_30
REMARK                            x       y       z     vdW  Elec       q    Type
REMARK                         _______ _______ _______ _____ _____    ______ ____
ROOT
ATOM      1  O   UNL     1      34.364 -11.914 -26.000  0.00  0.00    -0.269 OA
ATOM      2  N   UNL     1      33.482 -14.907 -22.342  0.00  0.00    -0.271 N 
ATOM      3  N   UNL     1      33.291 -12.773 -24.107  0.00  0.00    -0.267 N 
ATOM      4  N   UNL     1      32.642 -13.833 -20.601  0.00  0.00    -0.230 NA
ATOM      5  C   UNL     1      33.923 -15.111 -23.706  0.00  0.00    +0.118 C 
ATOM      6  C   UNL     1      33.221 -14.138 -24.644  0.00  0.00    +0.116 C 
ATOM      7  C   UNL     1      32.691 -12.567 -22.775  0.00  0.00    +0.155 C 
ATOM      8  C   UNL     1      32.929 -13.738 -21.884  0.00  0.00    +0.133 C 
ATOM      9  C   UNL     1      33.555 -15.787 -21.308  0.00  0.00    +0.072 C 
ATOM     10  C   UNL     1      33.861 -11.760 -24.888  0.00  0.00    +0.255 C 
ATOM     11  C   UNL     1      33.029 -15.100 -20.239  0.00  0.00    +0.115 C 
ENDROOT
BRANCH   9  12
ATOM     12  C   UNL     1      34.095 -17.123 -21.387  0.00  0.00    +0.015 C 
ATOM     13  C   UNL     1      35.428 -17.314 -21.750  0.00  0.00    +0.001 C 
ATOM     14  C   UNL     1      33.285 -18.221 -21.099  0.00  0.00    +0.001 C 
ATOM     15  C   UNL     1      35.951 -18.605 -21.827  0.00  0.00    +0.000 C 
ATOM     16  C   UNL     1      33.808 -19.512 -21.176  0.00  0.00    +0.000 C 
ATOM     17  C   UNL     1      35.141 -19.704 -21.539  0.00  0.00    +0.000 C 
ENDBRANCH   9  12
BRANCH  10  19
ATOM     18  S   UNL     1      32.375  -9.681 -23.883  0.00  0.00    -0.082 S 
ATOM     19  C   UNL     1      33.859 -10.389 -24.357  0.00  0.00    +0.083 C 
ATOM     20  C   UNL     1      33.154  -8.226 -23.421  0.00  0.00    +0.066 C 
ATOM     21  C   UNL     1      34.923  -9.535 -24.168  0.00  0.00    +0.011 C 
ATOM     22  C   UNL     1      34.515  -8.282 -23.626  0.00  0.00    +0.008 C 
BRANCH  20  23
ATOM     23  C   UNL     1      32.348  -7.111 -22.876  0.00  0.00    +0.297 C 
BRANCH  23  27
ATOM     24  F   UNL     1      33.284  -5.780 -24.645  0.00  0.00    -0.165 F 
ATOM     25  F   UNL     1      31.152  -6.221 -24.736  0.00  0.00    -0.165 F 
ATOM     26  F   UNL     1      31.912  -4.799 -23.265  0.00  0.00    -0.165 F 
ATOM     27  C   UNL     1      32.175  -5.966 -23.892  0.00  0.00    +0.449 C 
ENDBRANCH  23  27
BRANCH  23  28
ATOM     28  O   UNL     1      31.034  -7.565 -22.490  0.00  0.00    -0.354 OA
ATOM     29  H   UNL     1      30.871  -8.442 -22.868  0.00  0.00    +0.213 HD
ENDBRANCH  23  28
BRANCH  23  30
ATOM     30  O   UNL     1      32.964  -6.563 -21.692  0.00  0.00    -0.354 OA
ATOM     31  H   UNL     1      32.763  -5.616 -21.632  0.00  0.00    +0.213 HD
ENDBRANCH  23  30
ENDBRANCH  20  23
ENDBRANCH  10  19
TORSDOF 6
ENDMDL
MODEL 4
REMARK VINA RESULT:     -10.2      5.645      8.432
REMARK  Name = 24836810
REMARK  6 active torsions:
REMARK  status: ('A' for Active; 'I' for Inactive)
REMARK    1  A    between atoms: C_9  and  C_12
REMARK    2  A    between atoms: C_10  and  C_19
REMARK    3  A    between atoms: C_20  and  C_23
REMARK    4  A    between atoms: C_23  and  C_27
REMARK    5  A    between atoms: C_23  and  O_28
REMARK    6  A    between atoms: C_23  and  O_30
REMARK                            x       y       z     vdW  Elec       q    Type
REMARK                         _______ _______ _______ _____ _____    ______ ____
ROOT
ATOM      1  O   UNL     1      37.777 -19.116 -20.873  0.00  0.00    -0.269 OA
ATOM      2  N   UNL     1      34.842 -22.009 -18.398  0.00  0.00    -0.271 N 
ATOM      3  N   UNL     1      35.990 -20.571 -20.477  0.00  0.00    -0.267 N 
ATOM      4  N   UNL     1      32.778 -21.940 -19.192  0.00  0.00    -0.230 NA
ATOM      5  C   UNL     1      36.269 -21.772 -18.354  0.00  0.00    +0.118 C 
ATOM      6  C   UNL     1      36.816 -21.549 -19.758  0.00  0.00    +0.116 C 
ATOM      7  C   UNL     1      34.565 -20.919 -20.640  0.00  0.00    +0.155 C 
ATOM      8  C   UNL     1      34.032 -21.609 -19.431  0.00  0.00    +0.133 C 
ATOM      9  C   UNL     1      34.074 -22.620 -17.456  0.00  0.00    +0.072 C 
ATOM     10  C   UNL     1      36.592 -19.420 -20.999  0.00  0.00    +0.255 C 
ATOM     11  C   UNL     1      32.799 -22.566 -17.969  0.00  0.00    +0.115 C 
ENDROOT
BRANCH   9  12
ATOM     12  C   UNL     1      34.558 -23.164 -16.212  0.00  0.00    +0.015 C 
ATOM     13  C   UNL     1      33.659 -23.708 -15.293  0.00  0.00    +0.001 C 
ATOM     14  C   UNL     1      35.923 -23.149 -15.926  0.00  0.00    +0.001 C 
ATOM     15  C   UNL     1      34.125 -24.233 -14.088  0.00  0.00    +0.000 C 
ATOM     16  C   UNL     1      36.389 -23.676 -14.721  0.00  0.00    +0.000 C 
ATOM     17  C   UNL     1      35.490 -24.218 -13.802  0.00  0.00    +0.000 C 
ENDBRANCH   9  12
BRANCH  10  19
ATOM     18  S   UNL     1      35.352 -16.971 -21.089  0.00  0.00    -0.082 S 
ATOM     19  C   UNL     1      35.758 -18.488 -21.772  0.00  0.00    +0.083 C 
ATOM     20  C   UNL     1      34.455 -16.525 -22.479  0.00  0.00    +0.066 C 
ATOM     21  C   UNL     1      35.221 -18.649 -23.029  0.00  0.00    +0.011 C 
ATOM     22  C   UNL     1      34.466 -17.512 -23.440  0.00  0.00    +0.008 C 
BRANCH  20  23
ATOM     23  C   UNL     1      33.793 -15.202 -22.524  0.00  0.00    +0.297 C 
BRANCH  23  27
ATOM     24  F   UNL     1      32.122 -16.176 -21.098  0.00  0.00    -0.165 F 
ATOM     25  F   UNL     1      33.375 -14.606 -20.255  0.00  0.00    -0.165 F 
ATOM     26  F   UNL     1      31.833 -14.108 -21.718  0.00  0.00    -0.165 F 
ATOM     27  C   UNL     1      32.770 -15.024 -21.387  0.00  0.00    +0.449 C 
ENDBRANCH  23  27
BRANCH  23  28
ATOM     28  O   UNL     1      34.761 -14.137 -22.422  0.00  0.00    -0.354 OA
ATOM     29  H   UNL     1      34.303 -13.299 -22.259  0.00  0.00    +0.213 HD
ENDBRANCH  23  28
BRANCH  23  30
ATOM     30  O   UNL     1      33.101 -15.016 -23.777  0.00  0.00    -0.354 OA
ATOM     31  H   UNL     1      32.920 -14.072 -23.908  0.00  0.00    +0.213 HD
ENDBRANCH  23  30
ENDBRANCH  20  23
ENDBRANCH  10  19
TORSDOF 6
ENDMDL
MODEL 5
REMARK VINA RESULT:     -10.1      4.957      9.387
REMARK  Name = 24836810
REMARK  6 active torsions:
REMARK  status: ('A' for Active; 'I' for Inactive)
REMARK    1  A    between atoms: C_9  and  C_12
REMARK    2  A    between atoms: C_10  and  C_19
REMARK    3  A    between atoms: C_20  and  C_23
REMARK    4  A    between atoms: C_23  and  C_27
REMARK    5  A    between atoms: C_23  and  O_28
REMARK    6  A    between atoms: C_23  and  O_30
REMARK                            x       y       z     vdW  Elec       q    Type
REMARK                         _______ _______ _______ _____ _____    ______ ____
ROOT
ATOM      1  O   UNL     1      31.660 -14.503 -21.142  0.00  0.00    -0.269 OA
ATOM      2  N   UNL     1      32.896 -10.248 -23.007  0.00  0.00    -0.271 N 
ATOM      3  N   UNL     1      32.392 -12.965 -22.745  0.00  0.00    -0.267 N 
ATOM      4  N   UNL     1      34.489 -10.462 -24.527  0.00  0.00    -0.230 NA
ATOM      5  C   UNL     1      31.864 -10.662 -22.080  0.00  0.00    +0.118 C 
ATOM      6  C   UNL     1      31.301 -12.020 -22.480  0.00  0.00    +0.116 C 
ATOM      7  C   UNL     1      33.341 -12.583 -23.808  0.00  0.00    +0.155 C 
ATOM      8  C   UNL     1      33.603 -11.115 -23.800  0.00  0.00    +0.133 C 
ATOM      9  C   UNL     1      33.348  -8.985 -23.233  0.00  0.00    +0.072 C 
ATOM     10  C   UNL     1      32.442 -14.168 -22.030  0.00  0.00    +0.255 C 
ATOM     11  C   UNL     1      34.335  -9.141 -24.178  0.00  0.00    +0.115 C 
ENDROOT
BRANCH   9  12
ATOM     12  C   UNL     1      32.864  -7.797 -22.575  0.00  0.00    +0.015 C 
ATOM     13  C   UNL     1      32.352  -6.742 -23.333  0.00  0.00    +0.001 C 
ATOM     14  C   UNL     1      32.906  -7.701 -21.185  0.00  0.00    +0.001 C 
ATOM     15  C   UNL     1      31.884  -5.591 -22.699  0.00  0.00    +0.000 C 
ATOM     16  C   UNL     1      32.438  -6.550 -20.551  0.00  0.00    +0.000 C 
ATOM     17  C   UNL     1      31.927  -5.495 -21.307  0.00  0.00    +0.000 C 
ENDBRANCH   9  12
BRANCH  10  19
ATOM     18  S   UNL     1      33.808 -16.434 -21.293  0.00  0.00    -0.082 S 
ATOM     19  C   UNL     1      33.506 -15.129 -22.359  0.00  0.00    +0.083 C 
ATOM     20  C   UNL     1      35.065 -17.030 -22.293  0.00  0.00    +0.066 C 
ATOM     21  C   UNL     1      34.345 -15.148 -23.451  0.00  0.00    +0.011 C 
ATOM     22  C   UNL     1      35.248 -16.249 -23.413  0.00  0.00    +0.008 C 
BRANCH  20  23
ATOM     23  C   UNL     1      35.794 -18.254 -21.893  0.00  0.00    +0.297 C 
BRANCH  23  27
ATOM     24  F   UNL     1      33.698 -19.429 -21.922  0.00  0.00    -0.165 F 
ATOM     25  F   UNL     1      35.092 -19.817 -23.551  0.00  0.00    -0.165 F 
ATOM     26  F   UNL     1      35.499 -20.597 -21.553  0.00  0.00    -0.165 F 
ATOM     27  C   UNL     1      35.011 -19.536 -22.233  0.00  0.00    +0.449 C 
ENDBRANCH  23  27
BRANCH  23  28
ATOM     28  O   UNL     1      37.075 -18.330 -22.552  0.00  0.00    -0.354 OA
ATOM     29  H   UNL     1      37.729 -18.706 -21.944  0.00  0.00    +0.213 HD
ENDBRANCH  23  28
BRANCH  23  30
ATOM     30  O   UNL     1      36.055 -18.257 -20.474  0.00  0.00    -0.354 OA
ATOM     31  H   UNL     1      35.301 -18.650 -20.008  0.00  0.00    +0.213 HD
ENDBRANCH  23  30
ENDBRANCH  20  23
ENDBRANCH  10  19
TORSDOF 6
ENDMDL
MODEL 6
REMARK VINA RESULT:      -9.8      5.701      8.396
REMARK  Name = 24836810
REMARK  6 active torsions:
REMARK  status: ('A' for Active; 'I' for Inactive)
REMARK    1  A    between atoms: C_9  and  C_12
REMARK    2  A    between atoms: C_10  and  C_19
REMARK    3  A    between atoms: C_20  and  C_23
REMARK    4  A    between atoms: C_23  and  C_27
REMARK    5  A    between atoms: C_23  and  O_28
REMARK    6  A    between atoms: C_23  and  O_30
REMARK                            x       y       z     vdW  Elec       q    Type
REMARK                         _______ _______ _______ _____ _____    ______ ____
ROOT
ATOM      1  O   UNL     1      37.766 -18.996 -20.939  0.00  0.00    -0.269 OA
ATOM      2  N   UNL     1      34.867 -21.941 -18.483  0.00  0.00    -0.271 N 
ATOM      3  N   UNL     1      35.962 -20.429 -20.538  0.00  0.00    -0.267 N 
ATOM      4  N   UNL     1      32.774 -21.788 -19.184  0.00  0.00    -0.230 NA
ATOM      5  C   UNL     1      36.300 -21.738 -18.489  0.00  0.00    +0.118 C 
ATOM      6  C   UNL     1      36.794 -21.459 -19.903  0.00  0.00    +0.116 C 
ATOM      7  C   UNL     1      34.524 -20.736 -20.656  0.00  0.00    +0.155 C 
ATOM      8  C   UNL     1      34.025 -21.473 -19.460  0.00  0.00    +0.133 C 
ATOM      9  C   UNL     1      34.125 -22.581 -17.540  0.00  0.00    +0.072 C 
ATOM     10  C   UNL     1      36.570 -19.267 -21.028  0.00  0.00    +0.255 C 
ATOM     11  C   UNL     1      32.831 -22.474 -17.995  0.00  0.00    +0.115 C 
ENDROOT
BRANCH   9  12
ATOM     12  C   UNL     1      34.647 -23.196 -16.345  0.00  0.00    +0.015 C 
ATOM     13  C   UNL     1      36.022 -23.198 -16.106  0.00  0.00    +0.001 C 
ATOM     14  C   UNL     1      33.780 -23.788 -15.428  0.00  0.00    +0.001 C 
ATOM     15  C   UNL     1      36.529 -23.794 -14.951  0.00  0.00    +0.000 C 
ATOM     16  C   UNL     1      34.286 -24.383 -14.272  0.00  0.00    +0.000 C 
ATOM     17  C   UNL     1      35.661 -24.386 -14.034  0.00  0.00    +0.000 C 
ENDBRANCH   9  12
BRANCH  10  19
ATOM     18  S   UNL     1      35.014 -17.013 -20.813  0.00  0.00    -0.082 S 
ATOM     19  C   UNL     1      35.726 -18.280 -21.719  0.00  0.00    +0.083 C 
ATOM     20  C   UNL     1      34.267 -16.362 -22.210  0.00  0.00    +0.066 C 
ATOM     21  C   UNL     1      35.401 -18.206 -23.055  0.00  0.00    +0.011 C 
ATOM     22  C   UNL     1      34.555 -17.095 -23.340  0.00  0.00    +0.008 C 
BRANCH  20  23
ATOM     23  C   UNL     1      33.434 -15.145 -22.089  0.00  0.00    +0.297 C 
BRANCH  23  27
ATOM     24  F   UNL     1      34.418 -13.703 -23.740  0.00  0.00    -0.165 F 
ATOM     25  F   UNL     1      33.060 -15.257 -24.441  0.00  0.00    -0.165 F 
ATOM     26  F   UNL     1      32.276 -13.513 -23.387  0.00  0.00    -0.165 F 
ATOM     27  C   UNL     1      33.298 -14.396 -23.428  0.00  0.00    +0.449 C 
ENDBRANCH  23  27
BRANCH  23  28
ATOM     28  O   UNL     1      32.107 -15.472 -21.627  0.00  0.00    -0.354 OA
ATOM     29  H   UNL     1      31.901 -14.947 -20.839  0.00  0.00    +0.213 HD
ENDBRANCH  23  28
BRANCH  23  30
ATOM     30  O   UNL     1      33.996 -14.231 -21.125  0.00  0.00    -0.354 OA
ATOM     31  H   UNL     1      34.701 -14.676 -20.630  0.00  0.00    +0.213 HD
ENDBRANCH  23  30
ENDBRANCH  20  23
ENDBRANCH  10  19
TORSDOF 6
ENDMDL
MODEL 7
REMARK VINA RESULT:      -9.6      4.948      9.262
REMARK  Name = 24836810
REMARK  6 active torsions:
REMARK  status: ('A' for Active; 'I' for Inactive)
REMARK    1  A    between atoms: C_9  and  C_12
REMARK    2  A    between atoms: C_10  and  C_19
REMARK    3  A    between atoms: C_20  and  C_23
REMARK    4  A    between atoms: C_23  and  C_27
REMARK    5  A    between atoms: C_23  and  O_28
REMARK    6  A    between atoms: C_23  and  O_30
REMARK                            x       y       z     vdW  Elec       q    Type
REMARK                         _______ _______ _______ _____ _____    ______ ____
ROOT
ATOM      1  O   UNL     1      31.935 -14.242 -19.878  0.00  0.00    -0.269 OA
ATOM      2  N   UNL     1      32.678 -10.504 -22.809  0.00  0.00    -0.271 N 
ATOM      3  N   UNL     1      32.305 -13.094 -21.883  0.00  0.00    -0.267 N 
ATOM      4  N   UNL     1      33.952 -11.064 -24.529  0.00  0.00    -0.230 NA
ATOM      5  C   UNL     1      31.856 -10.693 -21.633  0.00  0.00    +0.118 C 
ATOM      6  C   UNL     1      31.261 -12.096 -21.618  0.00  0.00    +0.116 C 
ATOM      7  C   UNL     1      33.019 -12.963 -23.167  0.00  0.00    +0.155 C 
ATOM      8  C   UNL     1      33.241 -11.532 -23.522  0.00  0.00    +0.133 C 
ATOM      9  C   UNL     1      33.046  -9.326 -23.382  0.00  0.00    +0.072 C 
ATOM     10  C   UNL     1      32.522 -14.117 -20.952  0.00  0.00    +0.255 C 
ATOM     11  C   UNL     1      33.835  -9.697 -24.446  0.00  0.00    +0.115 C 
ENDROOT
BRANCH   9  12
ATOM     12  C   UNL     1      32.667  -8.017 -22.911  0.00  0.00    +0.015 C 
ATOM     13  C   UNL     1      32.274  -7.036 -23.823  0.00  0.00    +0.001 C 
ATOM     14  C   UNL     1      32.693  -7.731 -21.547  0.00  0.00    +0.001 C 
ATOM     15  C   UNL     1      31.909  -5.768 -23.369  0.00  0.00    +0.000 C 
ATOM     16  C   UNL     1      32.326  -6.463 -21.093  0.00  0.00    +0.000 C 
ATOM     17  C   UNL     1      31.934  -5.482 -22.004  0.00  0.00    +0.000 C 
ENDBRANCH   9  12
BRANCH  10  19
ATOM     18  S   UNL     1      33.555 -15.824 -22.840  0.00  0.00    -0.082 S 
ATOM     19  C   UNL     1      33.527 -15.143 -21.270  0.00  0.00    +0.083 C 
ATOM     20  C   UNL     1      34.881 -16.832 -22.439  0.00  0.00    +0.066 C 
ATOM     21  C   UNL     1      34.506 -15.673 -20.459  0.00  0.00    +0.011 C 
ATOM     22  C   UNL     1      35.290 -16.652 -21.136  0.00  0.00    +0.008 C 
BRANCH  20  23
ATOM     23  C   UNL     1      35.435 -17.746 -23.461  0.00  0.00    +0.297 C 
BRANCH  23  27
ATOM     24  F   UNL     1      33.621 -18.780 -24.651  0.00  0.00    -0.165 F 
ATOM     25  F   UNL     1      35.285 -20.052 -24.048  0.00  0.00    -0.165 F 
ATOM     26  F   UNL     1      33.878 -19.308 -22.553  0.00  0.00    -0.165 F 
ATOM     27  C   UNL     1      34.544 -18.983 -23.682  0.00  0.00    +0.449 C 
ENDBRANCH  23  27
BRANCH  23  28
ATOM     28  O   UNL     1      35.583 -17.073 -24.729  0.00  0.00    -0.354 OA
ATOM     29  H   UNL     1      34.978 -16.317 -24.766  0.00  0.00    +0.213 HD
ENDBRANCH  23  28
BRANCH  23  30
ATOM     30  O   UNL     1      36.748 -18.208 -23.081  0.00  0.00    -0.354 OA
ATOM     31  H   UNL     1      37.400 -17.896 -23.727  0.00  0.00    +0.213 HD
ENDBRANCH  23  30
ENDBRANCH  20  23
ENDBRANCH  10  19
TORSDOF 6
ENDMDL
MODEL 8
REMARK VINA RESULT:      -9.1      5.260      9.528
REMARK  Name = 24836810
REMARK  6 active torsions:
REMARK  status: ('A' for Active; 'I' for Inactive)
REMARK    1  A    between atoms: C_9  and  C_12
REMARK    2  A    between atoms: C_10  and  C_19
REMARK    3  A    between atoms: C_20  and  C_23
REMARK    4  A    between atoms: C_23  and  C_27
REMARK    5  A    between atoms: C_23  and  O_28
REMARK    6  A    between atoms: C_23  and  O_30
REMARK                            x       y       z     vdW  Elec       q    Type
REMARK                         _______ _______ _______ _____ _____    ______ ____
ROOT
ATOM      1  O   UNL     1      32.279 -14.450 -19.582  0.00  0.00    -0.269 OA
ATOM      2  N   UNL     1      33.042 -11.555 -23.344  0.00  0.00    -0.271 N 
ATOM      3  N   UNL     1      32.507 -13.814 -21.822  0.00  0.00    -0.267 N 
ATOM      4  N   UNL     1      34.009 -12.635 -25.015  0.00  0.00    -0.230 NA
ATOM      5  C   UNL     1      32.367 -11.376 -22.076  0.00  0.00    +0.118 C 
ATOM      6  C   UNL     1      31.626 -12.648 -21.683  0.00  0.00    +0.116 C 
ATOM      7  C   UNL     1      33.057 -14.057 -23.169  0.00  0.00    +0.155 C 
ATOM      8  C   UNL     1      33.388 -12.778 -23.860  0.00  0.00    +0.133 C 
ATOM      9  C   UNL     1      33.461 -10.587 -24.203  0.00  0.00    +0.072 C 
ATOM     10  C   UNL     1      32.730 -14.637 -20.712  0.00  0.00    +0.255 C 
ATOM     11  C   UNL     1      34.057 -11.279 -25.231  0.00  0.00    +0.115 C 
ENDROOT
BRANCH   9  12
ATOM     12  C   UNL     1      33.296  -9.168 -24.004  0.00  0.00    +0.015 C 
ATOM     13  C   UNL     1      34.416  -8.337 -23.956  0.00  0.00    +0.001 C 
ATOM     14  C   UNL     1      32.019  -8.626 -23.861  0.00  0.00    +0.001 C 
ATOM     15  C   UNL     1      34.259  -6.965 -23.762  0.00  0.00    +0.000 C 
ATOM     16  C   UNL     1      31.862  -7.253 -23.669  0.00  0.00    +0.000 C 
ATOM     17  C   UNL     1      32.981  -6.422 -23.619  0.00  0.00    +0.000 C 
ENDBRANCH   9  12
BRANCH  10  19
ATOM     18  S   UNL     1      32.803 -17.354 -21.106  0.00  0.00    -0.082 S 
ATOM     19  C   UNL     1      33.563 -15.836 -20.891  0.00  0.00    +0.083 C 
ATOM     20  C   UNL     1      34.313 -18.153 -21.234  0.00  0.00    +0.066 C 
ATOM     21  C   UNL     1      34.937 -15.937 -20.917  0.00  0.00    +0.011 C 
ATOM     22  C   UNL     1      35.371 -17.279 -21.116  0.00  0.00    +0.008 C 
BRANCH  20  23
ATOM     23  C   UNL     1      34.346 -19.616 -21.451  0.00  0.00    +0.297 C 
BRANCH  23  27
ATOM     24  F   UNL     1      35.810 -21.474 -21.027  0.00  0.00    -0.165 F 
ATOM     25  F   UNL     1      36.385 -19.534 -20.220  0.00  0.00    -0.165 F 
ATOM     26  F   UNL     1      34.726 -20.640 -19.331  0.00  0.00    -0.165 F 
ATOM     27  C   UNL     1      35.327 -20.325 -20.499  0.00  0.00    +0.449 C 
ENDBRANCH  23  27
BRANCH  23  28
ATOM     28  O   UNL     1      33.039 -20.196 -21.255  0.00  0.00    -0.354 OA
ATOM     29  H   UNL     1      32.696 -20.514 -22.103  0.00  0.00    +0.213 HD
ENDBRANCH  23  28
BRANCH  23  30
ATOM     30  O   UNL     1      34.739 -19.927 -22.804  0.00  0.00    -0.354 OA
ATOM     31  H   UNL     1      33.952 -20.150 -23.326  0.00  0.00    +0.213 HD
ENDBRANCH  23  30
ENDBRANCH  20  23
ENDBRANCH  10  19
TORSDOF 6
ENDMDL
MODEL 9
REMARK VINA RESULT:      -7.9      4.912      9.152
REMARK  Name = 24836810
REMARK  6 active torsions:
REMARK  status: ('A' for Active; 'I' for Inactive)
REMARK    1  A    between atoms: C_9  and  C_12
REMARK    2  A    between atoms: C_10  and  C_19
REMARK    3  A    between atoms: C_20  and  C_23
REMARK    4  A    between atoms: C_23  and  C_27
REMARK    5  A    between atoms: C_23  and  O_28
REMARK    6  A    between atoms: C_23  and  O_30
REMARK                            x       y       z     vdW  Elec       q    Type
REMARK                         _______ _______ _______ _____ _____    ______ ____
ROOT
ATOM      1  O   UNL     1      32.157 -14.495 -19.323  0.00  0.00    -0.269 OA
ATOM      2  N   UNL     1      32.987 -11.827 -23.235  0.00  0.00    -0.271 N 
ATOM      3  N   UNL     1      32.214 -13.926 -21.591  0.00  0.00    -0.267 N 
ATOM      4  N   UNL     1      33.492 -13.086 -24.982  0.00  0.00    -0.230 NA
ATOM      5  C   UNL     1      32.532 -11.511 -21.897  0.00  0.00    +0.118 C 
ATOM      6  C   UNL     1      31.609 -12.606 -21.376  0.00  0.00    +0.116 C 
ATOM      7  C   UNL     1      32.524 -14.280 -22.989  0.00  0.00    +0.155 C 
ATOM      8  C   UNL     1      33.011 -13.096 -23.754  0.00  0.00    +0.133 C 
ATOM      9  C   UNL     1      33.475 -10.966 -24.168  0.00  0.00    +0.072 C 
ATOM     10  C   UNL     1      32.410 -14.774 -20.494  0.00  0.00    +0.255 C 
ATOM     11  C   UNL     1      33.782 -11.768 -25.243  0.00  0.00    +0.115 C 
ENDROOT
BRANCH   9  12
ATOM     12  C   UNL     1      33.625  -9.543 -23.992  0.00  0.00    +0.015 C 
ATOM     13  C   UNL     1      32.498  -8.744 -23.792  0.00  0.00    +0.001 C 
ATOM     14  C   UNL     1      34.893  -8.965 -24.021  0.00  0.00    +0.001 C 
ATOM     15  C   UNL     1      32.641  -7.367 -23.622  0.00  0.00    +0.000 C 
ATOM     16  C   UNL     1      35.036  -7.588 -23.850  0.00  0.00    +0.000 C 
ATOM     17  C   UNL     1      33.910  -6.788 -23.651  0.00  0.00    +0.000 C 
ENDBRANCH   9  12
BRANCH  10  19
ATOM     18  S   UNL     1      34.651 -16.313 -20.886  0.00  0.00    -0.082 S 
ATOM     19  C   UNL     1      32.956 -16.116 -20.742  0.00  0.00    +0.083 C 
ATOM     20  C   UNL     1      34.489 -18.000 -21.138  0.00  0.00    +0.066 C 
ATOM     21  C   UNL     1      32.284 -17.310 -20.883  0.00  0.00    +0.011 C 
ATOM     22  C   UNL     1      33.171 -18.401 -21.113  0.00  0.00    +0.008 C 
BRANCH  20  23
ATOM     23  C   UNL     1      35.699 -18.824 -21.344  0.00  0.00    +0.297 C 
BRANCH  23  27
ATOM     24  F   UNL     1      37.803 -18.570 -22.478  0.00  0.00    -0.165 F 
ATOM     25  F   UNL     1      36.087 -19.193 -23.667  0.00  0.00    -0.165 F 
ATOM     26  F   UNL     1      36.230 -17.137 -22.945  0.00  0.00    -0.165 F 
ATOM     27  C   UNL     1      36.465 -18.427 -22.621  0.00  0.00    +0.449 C 
ENDBRANCH  23  27
BRANCH  23  28
ATOM     28  O   UNL     1      36.605 -18.699 -20.228  0.00  0.00    -0.354 OA
ATOM     29  H   UNL     1      37.446 -19.129 -20.444  0.00  0.00    +0.213 HD
ENDBRANCH  23  28
BRANCH  23  30
ATOM     30  O   UNL     1      35.358 -20.222 -21.449  0.00  0.00    -0.354 OA
ATOM     31  H   UNL     1      35.789 -20.602 -22.230  0.00  0.00    +0.213 HD
ENDBRANCH  23  30
ENDBRANCH  20  23
ENDBRANCH  10  19
TORSDOF 6
ENDMDL
