MODEL 1
REMARK VINA RESULT:     -10.8      0.000      0.000
REMARK  Name = 130188
REMARK  8 active torsions:
REMARK  status: ('A' for Active; 'I' for Inactive)
REMARK    1  A    between atoms: C_1  and  C_5
REMARK    2  A    between atoms: C_1  and  C_15
REMARK    3  A    between atoms: C_15  and  C_16
REMARK    4  A    between atoms: C_16  and  O_17
REMARK    5  A    between atoms: O_17  and  C_18
REMARK    6  A    between atoms: C_23  and  C_25
REMARK    7  A    between atoms: C_25  and  O_26
REMARK    8  A    between atoms: O_26  and  C_27
REMARK                            x       y       z     vdW  Elec       q    Type
REMARK                         _______ _______ _______ _____ _____    ______ ____
ROOT
ATOM      1  C   UNL     1      35.903 -21.962 -19.290  0.00  0.00    +0.004 C 
ENDROOT
BRANCH   1   5
ATOM      2  N   UNL     1      34.899 -18.273 -21.275  0.00  0.00    -0.292 N 
ATOM      3  N   UNL     1      35.294 -16.512 -22.814  0.00  0.00    -0.133 NA
ATOM      4  N   UNL     1      34.994 -15.276 -23.295  0.00  0.00    -0.151 NA
ATOM      5  C   UNL     1      35.600 -20.935 -20.378  0.00  0.00    +0.004 C 
ATOM      6  C   UNL     1      36.606 -19.779 -20.333  0.00  0.00    +0.022 C 
ATOM      7  C   UNL     1      34.179 -20.382 -20.226  0.00  0.00    +0.022 C 
ATOM      8  C   UNL     1      36.292 -18.724 -21.394  0.00  0.00    +0.092 C 
ATOM      9  C   UNL     1      33.872 -19.320 -21.283  0.00  0.00    +0.092 C 
ATOM     10  C   UNL     1      34.589 -17.001 -21.772  0.00  0.00    +0.153 C 
ATOM     11  C   UNL     1      33.566 -16.302 -21.163  0.00  0.00    +0.037 C 
ATOM     12  C   UNL     1      33.260 -15.045 -21.653  0.00  0.00    +0.019 C 
ATOM     13  C   UNL     1      33.997 -14.570 -22.720  0.00  0.00    +0.081 C 
ATOM     14  C   UNL     1      33.708 -13.221 -23.285  0.00  0.00    +0.054 C 
ENDBRANCH   1   5
BRANCH   1  15
ATOM     15  C   UNL     1      36.700 -21.341 -18.150  0.00  0.00    +0.047 C 
BRANCH  15  16
ATOM     16  C   UNL     1      36.325 -21.955 -16.809  0.00  0.00    +0.205 C 
BRANCH  16  17
ATOM     17  O   UNL     1      35.579 -23.142 -17.041  0.00  0.00    -0.475 OA
BRANCH  17  18
ATOM     18  C   UNL     1      34.321 -23.197 -16.499  0.00  0.00    +0.139 C 
ATOM     19  C   UNL     1      33.201 -23.125 -17.328  0.00  0.00    +0.037 C 
ATOM     20  C   UNL     1      34.161 -23.323 -15.120  0.00  0.00    +0.037 C 
ATOM     21  C   UNL     1      31.921 -23.178 -16.777  0.00  0.00    +0.010 C 
ATOM     22  C   UNL     1      32.880 -23.377 -14.568  0.00  0.00    +0.010 C 
ATOM     23  C   UNL     1      31.760 -23.305 -15.397  0.00  0.00    +0.076 C 
BRANCH  23  25
ATOM     24  O   UNL     1      30.083 -24.134 -13.919  0.00  0.00    -0.245 OA
ATOM     25  C   UNL     1      30.425 -23.359 -14.823  0.00  0.00    +0.341 C 
BRANCH  25  26
ATOM     26  O   UNL     1      29.590 -22.445 -15.404  0.00  0.00    -0.445 OA
BRANCH  26  27
ATOM     27  C   UNL     1      28.253 -22.875 -15.681  0.00  0.00    +0.209 C 
ATOM     28  C   UNL     1      28.257 -23.722 -16.936  0.00  0.00    +0.051 C 
ENDBRANCH  26  27
ENDBRANCH  25  26
ENDBRANCH  23  25
ENDBRANCH  17  18
ENDBRANCH  16  17
ENDBRANCH  15  16
ENDBRANCH   1  15
TORSDOF 8
ENDMDL
MODEL 2
REMARK VINA RESULT:     -10.6      3.789      6.868
REMARK  Name = 130188
REMARK  8 active torsions:
REMARK  status: ('A' for Active; 'I' for Inactive)
REMARK    1  A    between atoms: C_1  and  C_5
REMARK    2  A    between atoms: C_1  and  C_15
REMARK    3  A    between atoms: C_15  and  C_16
REMARK    4  A    between atoms: C_16  and  O_17
REMARK    5  A    between atoms: O_17  and  C_18
REMARK    6  A    between atoms: C_23  and  C_25
REMARK    7  A    between atoms: C_25  and  O_26
REMARK    8  A    between atoms: O_26  and  C_27
REMARK                            x       y       z     vdW  Elec       q    Type
REMARK                         _______ _______ _______ _____ _____    ______ ____
ROOT
ATOM      1  C   UNL     1      33.638 -15.392 -21.874  0.00  0.00    +0.004 C 
ENDROOT
BRANCH   1   5
ATOM      2  N   UNL     1      32.470 -11.279 -22.398  0.00  0.00    -0.292 N 
ATOM      3  N   UNL     1      31.986  -9.356 -23.700  0.00  0.00    -0.133 NA
ATOM      4  N   UNL     1      31.755  -8.019 -23.789  0.00  0.00    -0.151 NA
ATOM      5  C   UNL     1      32.892 -14.143 -22.334  0.00  0.00    +0.004 C 
ATOM      6  C   UNL     1      33.822 -13.208 -23.117  0.00  0.00    +0.022 C 
ATOM      7  C   UNL     1      32.299 -13.389 -21.139  0.00  0.00    +0.022 C 
ATOM      8  C   UNL     1      33.097 -11.935 -23.552  0.00  0.00    +0.092 C 
ATOM      9  C   UNL     1      31.584 -12.111 -21.578  0.00  0.00    +0.092 C 
ATOM     10  C   UNL     1      32.232  -9.902 -22.490  0.00  0.00    +0.153 C 
ATOM     11  C   UNL     1      32.261  -9.162 -21.325  0.00  0.00    +0.037 C 
ATOM     12  C   UNL     1      32.027  -7.802 -21.416  0.00  0.00    +0.019 C 
ATOM     13  C   UNL     1      31.777  -7.271 -22.666  0.00  0.00    +0.081 C 
ATOM     14  C   UNL     1      31.519  -5.811 -22.818  0.00  0.00    +0.054 C 
ENDBRANCH   1   5
BRANCH   1  15
ATOM     15  C   UNL     1      34.607 -15.882 -22.942  0.00  0.00    +0.047 C 
BRANCH  15  16
ATOM     16  C   UNL     1      34.752 -17.397 -22.909  0.00  0.00    +0.205 C 
BRANCH  16  17
ATOM     17  O   UNL     1      35.398 -17.770 -21.699  0.00  0.00    -0.475 OA
BRANCH  17  18
ATOM     18  C   UNL     1      34.965 -18.923 -21.097  0.00  0.00    +0.139 C 
ATOM     19  C   UNL     1      35.891 -19.833 -20.586  0.00  0.00    +0.037 C 
ATOM     20  C   UNL     1      33.600 -19.186 -20.997  0.00  0.00    +0.037 C 
ATOM     21  C   UNL     1      35.451 -21.007 -19.977  0.00  0.00    +0.010 C 
ATOM     22  C   UNL     1      33.159 -20.361 -20.386  0.00  0.00    +0.010 C 
ATOM     23  C   UNL     1      34.085 -21.271 -19.875  0.00  0.00    +0.076 C 
BRANCH  23  25
ATOM     24  O   UNL     1      34.089 -23.621 -19.473  0.00  0.00    -0.245 OA
ATOM     25  C   UNL     1      33.626 -22.496 -19.240  0.00  0.00    +0.341 C 
BRANCH  25  26
ATOM     26  O   UNL     1      32.618 -22.253 -18.348  0.00  0.00    -0.445 OA
BRANCH  26  27
ATOM     27  C   UNL     1      32.553 -23.104 -17.198  0.00  0.00    +0.209 C 
ATOM     28  C   UNL     1      31.209 -22.922 -16.526  0.00  0.00    +0.051 C 
ENDBRANCH  26  27
ENDBRANCH  25  26
ENDBRANCH  23  25
ENDBRANCH  17  18
ENDBRANCH  16  17
ENDBRANCH  15  16
ENDBRANCH   1  15
TORSDOF 8
ENDMDL
MODEL 3
REMARK VINA RESULT:     -10.6      3.917      7.450
REMARK  Name = 130188
REMARK  8 active torsions:
REMARK  status: ('A' for Active; 'I' for Inactive)
REMARK    1  A    between atoms: C_1  and  C_5
REMARK    2  A    between atoms: C_1  and  C_15
REMARK    3  A    between atoms: C_15  and  C_16
REMARK    4  A    between atoms: C_16  and  O_17
REMARK    5  A    between atoms: O_17  and  C_18
REMARK    6  A    between atoms: C_23  and  C_25
REMARK    7  A    between atoms: C_25  and  O_26
REMARK    8  A    between atoms: O_26  and  C_27
REMARK                            x       y       z     vdW  Elec       q    Type
REMARK                         _______ _______ _______ _____ _____    ______ ____
ROOT
ATOM      1  C   UNL     1      33.637 -15.042 -23.066  0.00  0.00    +0.004 C 
ENDROOT
BRANCH   1   5
ATOM      2  N   UNL     1      32.496 -10.898 -22.778  0.00  0.00    -0.292 N 
ATOM      3  N   UNL     1      32.035  -8.753 -23.679  0.00  0.00    -0.133 NA
ATOM      4  N   UNL     1      31.812  -7.423 -23.505  0.00  0.00    -0.151 NA
ATOM      5  C   UNL     1      32.902 -13.721 -23.277  0.00  0.00    +0.004 C 
ATOM      6  C   UNL     1      33.845 -12.657 -23.852  0.00  0.00    +0.022 C 
ATOM      7  C   UNL     1      32.301 -13.214 -21.963  0.00  0.00    +0.022 C 
ATOM      8  C   UNL     1      33.131 -11.318 -24.034  0.00  0.00    +0.092 C 
ATOM      9  C   UNL     1      31.597 -11.869 -22.147  0.00  0.00    +0.092 C 
ATOM     10  C   UNL     1      32.265  -9.529 -22.599  0.00  0.00    +0.153 C 
ATOM     11  C   UNL     1      32.286  -9.033 -21.310  0.00  0.00    +0.037 C 
ATOM     12  C   UNL     1      32.060  -7.681 -21.133  0.00  0.00    +0.019 C 
ATOM     13  C   UNL     1      31.826  -6.911 -22.256  0.00  0.00    +0.081 C 
ATOM     14  C   UNL     1      31.576  -5.448 -22.118  0.00  0.00    +0.054 C 
ENDBRANCH   1   5
BRANCH   1  15
ATOM     15  C   UNL     1      33.945 -15.274 -21.592  0.00  0.00    +0.047 C 
BRANCH  15  16
ATOM     16  C   UNL     1      34.866 -16.471 -21.398  0.00  0.00    +0.205 C 
BRANCH  16  17
ATOM     17  O   UNL     1      34.251 -17.620 -21.964  0.00  0.00    -0.475 OA
BRANCH  17  18
ATOM     18  C   UNL     1      34.342 -18.785 -21.248  0.00  0.00    +0.139 C 
ATOM     19  C   UNL     1      33.183 -19.424 -20.805  0.00  0.00    +0.037 C 
ATOM     20  C   UNL     1      35.592 -19.332 -20.961  0.00  0.00    +0.037 C 
ATOM     21  C   UNL     1      33.275 -20.608 -20.074  0.00  0.00    +0.010 C 
ATOM     22  C   UNL     1      35.685 -20.517 -20.231  0.00  0.00    +0.010 C 
ATOM     23  C   UNL     1      34.526 -21.155 -19.788  0.00  0.00    +0.076 C 
BRANCH  23  25
ATOM     24  O   UNL     1      33.733 -23.250 -18.972  0.00  0.00    -0.245 OA
ATOM     25  C   UNL     1      34.622 -22.389 -19.025  0.00  0.00    +0.341 C 
BRANCH  25  26
ATOM     26  O   UNL     1      35.820 -22.485 -18.372  0.00  0.00    -0.445 OA
BRANCH  26  27
ATOM     27  C   UNL     1      35.784 -22.427 -16.942  0.00  0.00    +0.209 C 
ATOM     28  C   UNL     1      37.153 -22.031 -16.430  0.00  0.00    +0.051 C 
ENDBRANCH  26  27
ENDBRANCH  25  26
ENDBRANCH  23  25
ENDBRANCH  17  18
ENDBRANCH  16  17
ENDBRANCH  15  16
ENDBRANCH   1  15
TORSDOF 8
ENDMDL
MODEL 4
REMARK VINA RESULT:     -10.4      6.568     12.601
REMARK  Name = 130188
REMARK  8 active torsions:
REMARK  status: ('A' for Active; 'I' for Inactive)
REMARK    1  A    between atoms: C_1  and  C_5
REMARK    2  A    between atoms: C_1  and  C_15
REMARK    3  A    between atoms: C_15  and  C_16
REMARK    4  A    between atoms: C_16  and  O_17
REMARK    5  A    between atoms: O_17  and  C_18
REMARK    6  A    between atoms: C_23  and  C_25
REMARK    7  A    between atoms: C_25  and  O_26
REMARK    8  A    between atoms: O_26  and  C_27
REMARK                            x       y       z     vdW  Elec       q    Type
REMARK                         _______ _______ _______ _____ _____    ______ ____
ROOT
ATOM      1  C   UNL     1      32.969 -13.255 -23.637  0.00  0.00    +0.004 C 
ENDROOT
BRANCH   1   5
ATOM      2  N   UNL     1      34.165 -16.899 -21.675  0.00  0.00    -0.292 N 
ATOM      3  N   UNL     1      35.764 -18.479 -20.918  0.00  0.00    -0.133 NA
ATOM      4  N   UNL     1      36.063 -19.708 -20.418  0.00  0.00    -0.151 NA
ATOM      5  C   UNL     1      33.654 -14.235 -22.689  0.00  0.00    +0.004 C 
ATOM      6  C   UNL     1      34.505 -15.245 -23.468  0.00  0.00    +0.022 C 
ATOM      7  C   UNL     1      32.624 -14.985 -21.839  0.00  0.00    +0.022 C 
ATOM      8  C   UNL     1      35.168 -16.256 -22.534  0.00  0.00    +0.092 C 
ATOM      9  C   UNL     1      33.290 -16.003 -20.913  0.00  0.00    +0.092 C 
ATOM     10  C   UNL     1      34.473 -18.164 -21.159  0.00  0.00    +0.153 C 
ATOM     11  C   UNL     1      33.430 -19.036 -20.920  0.00  0.00    +0.037 C 
ATOM     12  C   UNL     1      33.735 -20.285 -20.411  0.00  0.00    +0.019 C 
ATOM     13  C   UNL     1      35.063 -20.581 -20.174  0.00  0.00    +0.081 C 
ATOM     14  C   UNL     1      35.443 -21.914 -19.626  0.00  0.00    +0.054 C 
ENDBRANCH   1   5
BRANCH   1  15
ATOM     15  C   UNL     1      33.813 -13.007 -24.881  0.00  0.00    +0.047 C 
BRANCH  15  16
ATOM     16  C   UNL     1      33.743 -11.551 -25.319  0.00  0.00    +0.205 C 
BRANCH  16  17
ATOM     17  O   UNL     1      34.604 -10.780 -24.491  0.00  0.00    -0.475 OA
BRANCH  17  18
ATOM     18  C   UNL     1      34.042  -9.714 -23.840  0.00  0.00    +0.139 C 
ATOM     19  C   UNL     1      32.808  -9.856 -23.204  0.00  0.00    +0.037 C 
ATOM     20  C   UNL     1      34.702  -8.486 -23.814  0.00  0.00    +0.037 C 
ATOM     21  C   UNL     1      32.234  -8.770 -22.543  0.00  0.00    +0.010 C 
ATOM     22  C   UNL     1      34.128  -7.399 -23.152  0.00  0.00    +0.010 C 
ATOM     23  C   UNL     1      32.895  -7.542 -22.516  0.00  0.00    +0.076 C 
BRANCH  23  25
ATOM     24  O   UNL     1      31.980  -6.406 -20.631  0.00  0.00    -0.245 OA
ATOM     25  C   UNL     1      32.296  -6.410 -21.828  0.00  0.00    +0.341 C 
BRANCH  25  26
ATOM     26  O   UNL     1      32.126  -5.344 -22.667  0.00  0.00    -0.445 OA
BRANCH  26  27
ATOM     27  C   UNL     1      31.001  -5.390 -23.553  0.00  0.00    +0.209 C 
ATOM     28  C   UNL     1      31.467  -5.078 -24.959  0.00  0.00    +0.051 C 
ENDBRANCH  26  27
ENDBRANCH  25  26
ENDBRANCH  23  25
ENDBRANCH  17  18
ENDBRANCH  16  17
ENDBRANCH  15  16
ENDBRANCH   1  15
TORSDOF 8
ENDMDL
MODEL 5
REMARK VINA RESULT:     -10.3      2.570      4.230
REMARK  Name = 130188
REMARK  8 active torsions:
REMARK  status: ('A' for Active; 'I' for Inactive)
REMARK    1  A    between atoms: C_1  and  C_5
REMARK    2  A    between atoms: C_1  and  C_15
REMARK    3  A    between atoms: C_15  and  C_16
REMARK    4  A    between atoms: C_16  and  O_17
REMARK    5  A    between atoms: O_17  and  C_18
REMARK    6  A    between atoms: C_23  and  C_25
REMARK    7  A    between atoms: C_25  and  O_26
REMARK    8  A    between atoms: O_26  and  C_27
REMARK                            x       y       z     vdW  Elec       q    Type
REMARK                         _______ _______ _______ _____ _____    ______ ____
ROOT
ATOM      1  C   UNL     1      35.472 -23.579 -14.890  0.00  0.00    +0.004 C 
ENDROOT
BRANCH   1   5
ATOM      2  N   UNL     1      35.078 -21.644 -18.719  0.00  0.00    -0.292 N 
ATOM      3  N   UNL     1      35.930 -20.721 -20.731  0.00  0.00    -0.133 NA
ATOM      4  N   UNL     1      35.751 -19.980 -21.858  0.00  0.00    -0.151 NA
ATOM      5  C   UNL     1      35.570 -23.285 -16.384  0.00  0.00    +0.004 C 
ATOM      6  C   UNL     1      36.348 -21.987 -16.636  0.00  0.00    +0.022 C 
ATOM      7  C   UNL     1      34.178 -23.175 -17.013  0.00  0.00    +0.022 C 
ATOM      8  C   UNL     1      36.422 -21.661 -18.127  0.00  0.00    +0.092 C 
ATOM      9  C   UNL     1      34.256 -22.839 -18.503  0.00  0.00    +0.092 C 
ATOM     10  C   UNL     1      34.894 -20.883 -19.879  0.00  0.00    +0.153 C 
ATOM     11  C   UNL     1      33.649 -20.328 -20.098  0.00  0.00    +0.037 C 
ATOM     12  C   UNL     1      33.468 -19.575 -21.244  0.00  0.00    +0.019 C 
ATOM     13  C   UNL     1      34.543 -19.427 -22.097  0.00  0.00    +0.081 C 
ATOM     14  C   UNL     1      34.400 -18.625 -23.345  0.00  0.00    +0.054 C 
ENDBRANCH   1   5
BRANCH   1  15
ATOM     15  C   UNL     1      34.254 -24.438 -14.574  0.00  0.00    +0.047 C 
BRANCH  15  16
ATOM     16  C   UNL     1      33.512 -23.923 -13.349  0.00  0.00    +0.205 C 
BRANCH  16  17
ATOM     17  O   UNL     1      32.286 -24.631 -13.224  0.00  0.00    -0.475 OA
BRANCH  17  18
ATOM     18  C   UNL     1      31.294 -24.309 -14.113  0.00  0.00    +0.139 C 
ATOM     19  C   UNL     1      31.179 -23.002 -14.587  0.00  0.00    +0.037 C 
ATOM     20  C   UNL     1      30.397 -25.288 -14.542  0.00  0.00    +0.037 C 
ATOM     21  C   UNL     1      30.168 -22.673 -15.490  0.00  0.00    +0.010 C 
ATOM     22  C   UNL     1      29.386 -24.959 -15.446  0.00  0.00    +0.010 C 
ATOM     23  C   UNL     1      29.272 -23.652 -15.920  0.00  0.00    +0.076 C 
BRANCH  23  25
ATOM     24  O   UNL     1      27.719 -24.100 -17.672  0.00  0.00    -0.245 OA
ATOM     25  C   UNL     1      28.218 -23.309 -16.861  0.00  0.00    +0.341 C 
BRANCH  25  26
ATOM     26  O   UNL     1      27.841 -22.000 -16.738  0.00  0.00    -0.445 OA
BRANCH  26  27
ATOM     27  C   UNL     1      26.434 -21.731 -16.718  0.00  0.00    +0.209 C 
ATOM     28  C   UNL     1      26.023 -21.163 -18.060  0.00  0.00    +0.051 C 
ENDBRANCH  26  27
ENDBRANCH  25  26
ENDBRANCH  23  25
ENDBRANCH  17  18
ENDBRANCH  16  17
ENDBRANCH  15  16
ENDBRANCH   1  15
TORSDOF 8
ENDMDL
MODEL 6
REMARK VINA RESULT:     -10.3      2.587      4.662
REMARK  Name = 130188
REMARK  8 active torsions:
REMARK  status: ('A' for Active; 'I' for Inactive)
REMARK    1  A    between atoms: C_1  and  C_5
REMARK    2  A    between atoms: C_1  and  C_15
REMARK    3  A    between atoms: C_15  and  C_16
REMARK    4  A    between atoms: C_16  and  O_17
REMARK    5  A    between atoms: O_17  and  C_18
REMARK    6  A    between atoms: C_23  and  C_25
REMARK    7  A    between atoms: C_25  and  O_26
REMARK    8  A    between atoms: O_26  and  C_27
REMARK                            x       y       z     vdW  Elec       q    Type
REMARK                         _______ _______ _______ _____ _____    ______ ____
ROOT
ATOM      1  C   UNL     1      35.053 -22.116 -19.147  0.00  0.00    +0.004 C 
ENDROOT
BRANCH   1   5
ATOM      2  N   UNL     1      34.547 -18.391 -21.251  0.00  0.00    -0.292 N 
ATOM      3  N   UNL     1      35.198 -16.725 -22.808  0.00  0.00    -0.133 NA
ATOM      4  N   UNL     1      35.056 -15.476 -23.329  0.00  0.00    -0.151 NA
ATOM      5  C   UNL     1      34.910 -21.091 -20.269  0.00  0.00    +0.004 C 
ATOM      6  C   UNL     1      36.036 -20.052 -20.205  0.00  0.00    +0.022 C 
ATOM      7  C   UNL     1      33.555 -20.380 -20.190  0.00  0.00    +0.022 C 
ATOM      8  C   UNL     1      35.885 -18.997 -21.300  0.00  0.00    +0.092 C 
ATOM      9  C   UNL     1      33.411 -19.318 -21.281  0.00  0.00    +0.092 C 
ATOM     10  C   UNL     1      34.401 -17.106 -21.787  0.00  0.00    +0.153 C 
ATOM     11  C   UNL     1      33.439 -16.283 -21.238  0.00  0.00    +0.037 C 
ATOM     12  C   UNL     1      33.295 -15.013 -21.767  0.00  0.00    +0.019 C 
ATOM     13  C   UNL     1      34.122 -14.650 -22.812  0.00  0.00    +0.081 C 
ATOM     14  C   UNL     1      34.008 -13.292 -23.417  0.00  0.00    +0.054 C 
ENDBRANCH   1   5
BRANCH   1  15
ATOM     15  C   UNL     1      33.710 -22.407 -18.489  0.00  0.00    +0.047 C 
BRANCH  15  16
ATOM     16  C   UNL     1      33.797 -23.604 -17.553  0.00  0.00    +0.205 C 
BRANCH  16  17
ATOM     17  O   UNL     1      33.522 -23.171 -16.227  0.00  0.00    -0.475 OA
BRANCH  17  18
ATOM     18  C   UNL     1      34.525 -23.327 -15.306  0.00  0.00    +0.139 C 
ATOM     19  C   UNL     1      34.256 -23.934 -14.079  0.00  0.00    +0.037 C 
ATOM     20  C   UNL     1      35.813 -22.877 -15.595  0.00  0.00    +0.037 C 
ATOM     21  C   UNL     1      35.275 -24.090 -13.140  0.00  0.00    +0.010 C 
ATOM     22  C   UNL     1      36.833 -23.034 -14.656  0.00  0.00    +0.010 C 
ATOM     23  C   UNL     1      36.564 -23.641 -13.429  0.00  0.00    +0.076 C 
BRANCH  23  25
ATOM     24  O   UNL     1      37.485 -23.642 -11.230  0.00  0.00    -0.245 OA
ATOM     25  C   UNL     1      37.627 -23.804 -12.450  0.00  0.00    +0.341 C 
BRANCH  25  26
ATOM     26  O   UNL     1      38.807 -24.160 -13.043  0.00  0.00    -0.445 OA
BRANCH  26  27
ATOM     27  C   UNL     1      38.991 -25.550 -13.334  0.00  0.00    +0.209 C 
ATOM     28  C   UNL     1      40.211 -25.712 -14.215  0.00  0.00    +0.051 C 
ENDBRANCH  26  27
ENDBRANCH  25  26
ENDBRANCH  23  25
ENDBRANCH  17  18
ENDBRANCH  16  17
ENDBRANCH  15  16
ENDBRANCH   1  15
TORSDOF 8
ENDMDL
MODEL 7
REMARK VINA RESULT:     -10.2      4.616      9.815
REMARK  Name = 130188
REMARK  8 active torsions:
REMARK  status: ('A' for Active; 'I' for Inactive)
REMARK    1  A    between atoms: C_1  and  C_5
REMARK    2  A    between atoms: C_1  and  C_15
REMARK    3  A    between atoms: C_15  and  C_16
REMARK    4  A    between atoms: C_16  and  O_17
REMARK    5  A    between atoms: O_17  and  C_18
REMARK    6  A    between atoms: C_23  and  C_25
REMARK    7  A    between atoms: C_25  and  O_26
REMARK    8  A    between atoms: O_26  and  C_27
REMARK                            x       y       z     vdW  Elec       q    Type
REMARK                         _______ _______ _______ _____ _____    ______ ____
ROOT
ATOM      1  C   UNL     1      33.972 -19.370 -21.404  0.00  0.00    +0.004 C 
ENDROOT
BRANCH   1   5
ATOM      2  N   UNL     1      35.030 -22.016 -18.174  0.00  0.00    -0.292 N 
ATOM      3  N   UNL     1      34.728 -23.935 -16.813  0.00  0.00    -0.133 NA
ATOM      4  N   UNL     1      35.028 -24.647 -15.693  0.00  0.00    -0.151 NA
ATOM      5  C   UNL     1      34.346 -20.624 -20.619  0.00  0.00    +0.004 C 
ATOM      6  C   UNL     1      33.296 -20.930 -19.545  0.00  0.00    +0.022 C 
ATOM      7  C   UNL     1      35.719 -20.465 -19.958  0.00  0.00    +0.022 C 
ATOM      8  C   UNL     1      33.677 -22.162 -18.726  0.00  0.00    +0.092 C 
ATOM      9  C   UNL     1      36.093 -21.696 -19.132  0.00  0.00    +0.092 C 
ATOM     10  C   UNL     1      35.339 -22.749 -17.022  0.00  0.00    +0.153 C 
ATOM     11  C   UNL     1      36.263 -22.216 -16.145  0.00  0.00    +0.037 C 
ATOM     12  C   UNL     1      36.568 -22.940 -15.007  0.00  0.00    +0.019 C 
ATOM     13  C   UNL     1      35.929 -24.150 -14.819  0.00  0.00    +0.081 C 
ATOM     14  C   UNL     1      36.222 -24.968 -13.608  0.00  0.00    +0.054 C 
ENDBRANCH   1   5
BRANCH   1  15
ATOM     15  C   UNL     1      34.618 -19.368 -22.784  0.00  0.00    +0.047 C 
BRANCH  15  16
ATOM     16  C   UNL     1      35.671 -18.275 -22.904  0.00  0.00    +0.205 C 
BRANCH  16  17
ATOM     17  O   UNL     1      35.548 -17.395 -21.794  0.00  0.00    -0.475 OA
BRANCH  17  18
ATOM     18  C   UNL     1      34.844 -16.237 -22.000  0.00  0.00    +0.139 C 
ATOM     19  C   UNL     1      34.147 -15.648 -20.945  0.00  0.00    +0.037 C 
ATOM     20  C   UNL     1      34.823 -15.649 -23.264  0.00  0.00    +0.037 C 
ATOM     21  C   UNL     1      33.428 -14.471 -21.155  0.00  0.00    +0.010 C 
ATOM     22  C   UNL     1      34.105 -14.471 -23.474  0.00  0.00    +0.010 C 
ATOM     23  C   UNL     1      33.408 -13.882 -22.419  0.00  0.00    +0.076 C 
BRANCH  23  25
ATOM     24  O   UNL     1      32.967 -11.784 -23.461  0.00  0.00    -0.245 OA
ATOM     25  C   UNL     1      32.658 -12.656 -22.638  0.00  0.00    +0.341 C 
BRANCH  25  26
ATOM     26  O   UNL     1      31.564 -12.583 -21.820  0.00  0.00    -0.445 OA
BRANCH  26  27
ATOM     27  C   UNL     1      31.313 -11.324 -21.185  0.00  0.00    +0.209 C 
ATOM     28  C   UNL     1      31.619 -11.449 -19.707  0.00  0.00    +0.051 C 
ENDBRANCH  26  27
ENDBRANCH  25  26
ENDBRANCH  23  25
ENDBRANCH  17  18
ENDBRANCH  16  17
ENDBRANCH  15  16
ENDBRANCH   1  15
TORSDOF 8
ENDMDL
MODEL 8
REMARK VINA RESULT:     -10.1      5.819     11.373
REMARK  Name = 130188
REMARK  8 active torsions:
REMARK  status: ('A' for Active; 'I' for Inactive)
REMARK    1  A    between atoms: C_1  and  C_5
REMARK    2  A    between atoms: C_1  and  C_15
REMARK    3  A    between atoms: C_15  and  C_16
REMARK    4  A    between atoms: C_16  and  O_17
REMARK    5  A    between atoms: O_17  and  C_18
REMARK    6  A    between atoms: C_23  and  C_25
REMARK    7  A    between atoms: C_25  and  O_26
REMARK    8  A    between atoms: O_26  and  C_27
REMARK                            x       y       z     vdW  Elec       q    Type
REMARK                         _______ _______ _______ _____ _____    ______ ____
ROOT
ATOM      1  C   UNL     1      34.966 -15.661 -23.518  0.00  0.00    +0.004 C 
ENDROOT
BRANCH   1   5
ATOM      2  N   UNL     1      34.199 -19.194 -21.176  0.00  0.00    -0.292 N 
ATOM      3  N   UNL     1      32.828 -20.621 -19.868  0.00  0.00    -0.133 NA
ATOM      4  N   UNL     1      32.693 -21.677 -19.022  0.00  0.00    -0.151 NA
ATOM      5  C   UNL     1      34.348 -16.963 -23.015  0.00  0.00    +0.004 C 
ATOM      6  C   UNL     1      33.811 -16.797 -21.589  0.00  0.00    +0.022 C 
ATOM      7  C   UNL     1      35.372 -18.101 -23.045  0.00  0.00    +0.022 C 
ATOM      8  C   UNL     1      33.222 -18.103 -21.058  0.00  0.00    +0.092 C 
ATOM      9  C   UNL     1      34.783 -19.404 -22.505  0.00  0.00    +0.092 C 
ATOM     10  C   UNL     1      34.060 -20.282 -20.306  0.00  0.00    +0.153 C 
ATOM     11  C   UNL     1      35.202 -20.961 -19.932  0.00  0.00    +0.037 C 
ATOM     12  C   UNL     1      35.064 -22.035 -19.072  0.00  0.00    +0.019 C 
ATOM     13  C   UNL     1      33.793 -22.360 -18.641  0.00  0.00    +0.081 C 
ATOM     14  C   UNL     1      33.591 -23.509 -17.712  0.00  0.00    +0.054 C 
ENDBRANCH   1   5
BRANCH   1  15
ATOM     15  C   UNL     1      34.363 -14.453 -22.812  0.00  0.00    +0.047 C 
BRANCH  15  16
ATOM     16  C   UNL     1      33.371 -13.723 -23.706  0.00  0.00    +0.205 C 
BRANCH  16  17
ATOM     17  O   UNL     1      32.222 -13.389 -22.939  0.00  0.00    -0.475 OA
BRANCH  17  18
ATOM     18  C   UNL     1      32.165 -12.116 -22.434  0.00  0.00    +0.139 C 
ATOM     19  C   UNL     1      31.579 -11.885 -21.189  0.00  0.00    +0.037 C 
ATOM     20  C   UNL     1      32.690 -11.051 -23.166  0.00  0.00    +0.037 C 
ATOM     21  C   UNL     1      31.518 -10.589 -20.676  0.00  0.00    +0.010 C 
ATOM     22  C   UNL     1      32.630  -9.755 -22.653  0.00  0.00    +0.010 C 
ATOM     23  C   UNL     1      32.045  -9.525 -21.408  0.00  0.00    +0.076 C 
BRANCH  23  25
ATOM     24  O   UNL     1      32.342  -7.854 -19.733  0.00  0.00    -0.245 OA
ATOM     25  C   UNL     1      31.981  -8.174 -20.873  0.00  0.00    +0.341 C 
BRANCH  25  26
ATOM     26  O   UNL     1      31.473  -7.294 -21.789  0.00  0.00    -0.445 OA
BRANCH  26  27
ATOM     27  C   UNL     1      31.903  -5.932 -21.686  0.00  0.00    +0.209 C 
ATOM     28  C   UNL     1      30.898  -5.043 -22.390  0.00  0.00    +0.051 C 
ENDBRANCH  26  27
ENDBRANCH  25  26
ENDBRANCH  23  25
ENDBRANCH  17  18
ENDBRANCH  16  17
ENDBRANCH  15  16
ENDBRANCH   1  15
TORSDOF 8
ENDMDL
MODEL 9
REMARK VINA RESULT:     -10.1      6.988     13.078
REMARK  Name = 130188
REMARK  8 active torsions:
REMARK  status: ('A' for Active; 'I' for Inactive)
REMARK    1  A    between atoms: C_1  and  C_5
REMARK    2  A    between atoms: C_1  and  C_15
REMARK    3  A    between atoms: C_15  and  C_16
REMARK    4  A    between atoms: C_16  and  O_17
REMARK    5  A    between atoms: O_17  and  C_18
REMARK    6  A    between atoms: C_23  and  C_25
REMARK    7  A    between atoms: C_25  and  O_26
REMARK    8  A    between atoms: O_26  and  C_27
REMARK                            x       y       z     vdW  Elec       q    Type
REMARK                         _______ _______ _______ _____ _____    ______ ____
ROOT
ATOM      1  C   UNL     1      34.028 -14.125 -24.218  0.00  0.00    +0.004 C 
ENDROOT
BRANCH   1   5
ATOM      2  N   UNL     1      34.339 -17.621 -21.722  0.00  0.00    -0.292 N 
ATOM      3  N   UNL     1      35.529 -19.383 -20.669  0.00  0.00    -0.133 NA
ATOM      4  N   UNL     1      35.536 -20.562 -19.993  0.00  0.00    -0.151 NA
ATOM      5  C   UNL     1      34.455 -15.083 -23.110  0.00  0.00    +0.004 C 
ATOM      6  C   UNL     1      35.083 -16.352 -23.697  0.00  0.00    +0.022 C 
ATOM      7  C   UNL     1      33.261 -15.465 -22.229  0.00  0.00    +0.022 C 
ATOM      8  C   UNL     1      35.482 -17.338 -22.599  0.00  0.00    +0.092 C 
ATOM      9  C   UNL     1      33.662 -16.459 -21.138  0.00  0.00    +0.092 C 
ATOM     10  C   UNL     1      34.346 -18.836 -21.025  0.00  0.00    +0.153 C 
ATOM     11  C   UNL     1      33.131 -19.421 -20.732  0.00  0.00    +0.037 C 
ATOM     12  C   UNL     1      33.138 -20.621 -20.044  0.00  0.00    +0.019 C 
ATOM     13  C   UNL     1      34.362 -21.157 -19.693  0.00  0.00    +0.081 C 
ATOM     14  C   UNL     1      34.425 -22.448 -18.951  0.00  0.00    +0.054 C 
ENDBRANCH   1   5
BRANCH   1  15
ATOM     15  C   UNL     1      33.586 -12.782 -23.649  0.00  0.00    +0.047 C 
BRANCH  15  16
ATOM     16  C   UNL     1      33.830 -11.651 -24.638  0.00  0.00    +0.205 C 
BRANCH  16  17
ATOM     17  O   UNL     1      34.521 -10.602 -23.974  0.00  0.00    -0.475 OA
BRANCH  17  18
ATOM     18  C   UNL     1      33.844  -9.420 -23.815  0.00  0.00    +0.139 C 
ATOM     19  C   UNL     1      32.472  -9.430 -23.561  0.00  0.00    +0.037 C 
ATOM     20  C   UNL     1      34.527  -8.208 -23.910  0.00  0.00    +0.037 C 
ATOM     21  C   UNL     1      31.783  -8.228 -23.403  0.00  0.00    +0.010 C 
ATOM     22  C   UNL     1      33.838  -7.005 -23.751  0.00  0.00    +0.010 C 
ATOM     23  C   UNL     1      32.466  -7.016 -23.496  0.00  0.00    +0.076 C 
BRANCH  23  25
ATOM     24  O   UNL     1      31.881  -5.001 -22.365  0.00  0.00    -0.245 OA
ATOM     25  C   UNL     1      31.747  -5.762 -23.332  0.00  0.00    +0.341 C 
BRANCH  25  26
ATOM     26  O   UNL     1      30.904  -5.525 -24.382  0.00  0.00    -0.445 OA
BRANCH  26  27
ATOM     27  C   UNL     1      31.014  -4.251 -25.026  0.00  0.00    +0.209 C 
ATOM     28  C   UNL     1      32.253  -4.245 -25.897  0.00  0.00    +0.051 C 
ENDBRANCH  26  27
ENDBRANCH  25  26
ENDBRANCH  23  25
ENDBRANCH  17  18
ENDBRANCH  16  17
ENDBRANCH  15  16
ENDBRANCH   1  15
TORSDOF 8
ENDMDL
