MODEL 1
REMARK VINA RESULT:      -9.1      0.000      0.000
REMARK  Name = 24180718
REMARK  7 active torsions:
REMARK  status: ('A' for Active; 'I' for Inactive)
REMARK    1  A    between atoms: N_1  and  CA_22
REMARK    2  A    between atoms: C_6  and  C_12
REMARK    3  A    between atoms: C_17  and  C_19
REMARK    4  A    between atoms: C_19  and  O_20
REMARK    5  A    between atoms: CA_22  and  C_23
REMARK    6  A    between atoms: CA_22  and  C_25
REMARK    7  A    between atoms: C_25  and  O_26
REMARK                            x       y       z     vdW  Elec       q    Type
REMARK                         _______ _______ _______ _____ _____    ______ ____
ROOT
ATOM      1  N   UNL     1      33.070 -22.650 -18.490  0.00  0.00    -0.316 N 
ATOM      2  N   UNL     1      33.461 -23.810 -15.209  0.00  0.00    -0.170 N 
ATOM      3  N   UNL     1      33.813 -23.460 -16.475  0.00  0.00    -0.158 NA
ATOM      4  N   UNL     1      32.221 -24.168 -13.392  0.00  0.00    -0.226 NA
ATOM      5  C   UNL     1      32.828 -23.022 -17.223  0.00  0.00    +0.147 C 
ATOM      6  C   UNL     1      34.313 -24.292 -14.249  0.00  0.00    +0.095 C 
ATOM      7  C   UNL     1      32.203 -23.753 -14.642  0.00  0.00    +0.155 C 
ATOM      8  C   UNL     1      31.417 -22.915 -16.718  0.00  0.00    +0.039 C 
ATOM      9  C   UNL     1      31.156 -23.280 -15.458  0.00  0.00    +0.039 C 
ATOM     10  C   UNL     1      33.526 -24.505 -13.143  0.00  0.00    +0.117 C 
ATOM     11  H   UNL     1      32.321 -22.309 -19.032  0.00  0.00    +0.148 HD
ENDROOT
BRANCH   6  12
ATOM     12  C   UNL     1      35.727 -24.503 -14.448  0.00  0.00    +0.017 C 
ATOM     13  C   UNL     1      36.197 -25.760 -14.827  0.00  0.00    +0.002 C 
ATOM     14  C   UNL     1      36.622 -23.450 -14.261  0.00  0.00    +0.002 C 
ATOM     15  C   UNL     1      37.564 -25.964 -15.020  0.00  0.00    +0.006 C 
ATOM     16  C   UNL     1      37.989 -23.654 -14.454  0.00  0.00    +0.006 C 
ATOM     17  C   UNL     1      38.459 -24.911 -14.833  0.00  0.00    +0.075 C 
BRANCH  17  19
ATOM     18  O   UNL     1      40.780 -24.716 -14.286  0.00  0.00    -0.245 OA
ATOM     19  C   UNL     1      39.883 -25.123 -15.033  0.00  0.00    +0.338 C 
BRANCH  19  20
ATOM     20  O   UNL     1      40.151 -25.839 -16.159  0.00  0.00    -0.477 OA
ATOM     21  H   UNL     1      40.983 -25.753 -16.582  0.00  0.00    +0.295 HD
ENDBRANCH  19  20
ENDBRANCH  17  19
ENDBRANCH   6  12
BRANCH   1  22
ATOM     22  CA  UNL     1      34.385 -22.729 -19.095  0.00  0.00    +0.100 C 
BRANCH  22  23
ATOM     23  C   UNL     1      34.840 -21.332 -19.536  0.00  0.00    +0.022 C 
ATOM     24  C   UNL     1      33.747 -20.558 -20.260  0.00  0.00    +0.002 C 
ENDBRANCH  22  23
BRANCH  22  25
ATOM     25  C   UNL     1      34.321 -23.681 -20.289  0.00  0.00    +0.157 C 
BRANCH  25  26
ATOM     26  O   UNL     1      33.819 -24.942 -19.861  0.00  0.00    -0.380 OA
ATOM     27  H   UNL     1      34.261 -25.651 -20.355  0.00  0.00    +0.211 HD
ENDBRANCH  25  26
ENDBRANCH  22  25
ENDBRANCH   1  22
TORSDOF 7
ENDMDL
MODEL 2
REMARK VINA RESULT:      -8.6      1.084      1.662
REMARK  Name = 24180718
REMARK  7 active torsions:
REMARK  status: ('A' for Active; 'I' for Inactive)
REMARK    1  A    between atoms: N_1  and  CA_22
REMARK    2  A    between atoms: C_6  and  C_12
REMARK    3  A    between atoms: C_17  and  C_19
REMARK    4  A    between atoms: C_19  and  O_20
REMARK    5  A    between atoms: CA_22  and  C_23
REMARK    6  A    between atoms: CA_22  and  C_25
REMARK    7  A    between atoms: C_25  and  O_26
REMARK                            x       y       z     vdW  Elec       q    Type
REMARK                         _______ _______ _______ _____ _____    ______ ____
ROOT
ATOM      1  N   UNL     1      33.078 -22.406 -18.456  0.00  0.00    -0.316 N 
ATOM      2  N   UNL     1      33.395 -23.826 -15.269  0.00  0.00    -0.170 N 
ATOM      3  N   UNL     1      33.775 -23.372 -16.493  0.00  0.00    -0.158 NA
ATOM      4  N   UNL     1      32.111 -24.338 -13.521  0.00  0.00    -0.226 NA
ATOM      5  C   UNL     1      32.806 -22.881 -17.229  0.00  0.00    +0.147 C 
ATOM      6  C   UNL     1      34.226 -24.378 -14.330  0.00  0.00    +0.095 C 
ATOM      7  C   UNL     1      32.122 -23.823 -14.734  0.00  0.00    +0.155 C 
ATOM      8  C   UNL     1      31.382 -22.825 -16.755  0.00  0.00    +0.039 C 
ATOM      9  C   UNL     1      31.091 -23.293 -15.536  0.00  0.00    +0.039 C 
ATOM     10  C   UNL     1      33.413 -24.685 -13.265  0.00  0.00    +0.117 C 
ATOM     11  H   UNL     1      32.340 -22.028 -18.988  0.00  0.00    +0.148 HD
ENDROOT
BRANCH   6  12
ATOM     12  C   UNL     1      35.646 -24.562 -14.508  0.00  0.00    +0.017 C 
ATOM     13  C   UNL     1      36.521 -23.501 -14.274  0.00  0.00    +0.002 C 
ATOM     14  C   UNL     1      36.143 -25.800 -14.913  0.00  0.00    +0.002 C 
ATOM     15  C   UNL     1      37.894 -23.678 -14.446  0.00  0.00    +0.006 C 
ATOM     16  C   UNL     1      37.516 -25.978 -15.086  0.00  0.00    +0.006 C 
ATOM     17  C   UNL     1      38.391 -24.917 -14.852  0.00  0.00    +0.075 C 
BRANCH  17  19
ATOM     18  O   UNL     1      40.702 -24.655 -14.289  0.00  0.00    -0.245 OA
ATOM     19  C   UNL     1      39.822 -25.103 -15.032  0.00  0.00    +0.338 C 
BRANCH  19  20
ATOM     20  O   UNL     1      40.116 -25.844 -16.135  0.00  0.00    -0.477 OA
ATOM     21  H   UNL     1      40.087 -26.780 -16.092  0.00  0.00    +0.295 HD
ENDBRANCH  19  20
ENDBRANCH  17  19
ENDBRANCH   6  12
BRANCH   1  22
ATOM     22  CA  UNL     1      34.409 -22.427 -19.030  0.00  0.00    +0.100 C 
BRANCH  22  23
ATOM     23  C   UNL     1      35.457 -22.264 -17.922  0.00  0.00    +0.022 C 
ATOM     24  C   UNL     1      36.672 -21.465 -18.373  0.00  0.00    +0.002 C 
ENDBRANCH  22  23
BRANCH  22  25
ATOM     25  C   UNL     1      34.520 -21.297 -20.053  0.00  0.00    +0.157 C 
BRANCH  25  26
ATOM     26  O   UNL     1      33.337 -20.508 -20.017  0.00  0.00    -0.380 OA
ATOM     27  H   UNL     1      33.053 -20.309 -20.923  0.00  0.00    +0.211 HD
ENDBRANCH  25  26
ENDBRANCH  22  25
ENDBRANCH   1  22
TORSDOF 7
ENDMDL
MODEL 3
REMARK VINA RESULT:      -8.2      3.487      6.215
REMARK  Name = 24180718
REMARK  7 active torsions:
REMARK  status: ('A' for Active; 'I' for Inactive)
REMARK    1  A    between atoms: N_1  and  CA_22
REMARK    2  A    between atoms: C_6  and  C_12
REMARK    3  A    between atoms: C_17  and  C_19
REMARK    4  A    between atoms: C_19  and  O_20
REMARK    5  A    between atoms: CA_22  and  C_23
REMARK    6  A    between atoms: CA_22  and  C_25
REMARK    7  A    between atoms: C_25  and  O_26
REMARK                            x       y       z     vdW  Elec       q    Type
REMARK                         _______ _______ _______ _____ _____    ______ ____
ROOT
ATOM      1  N   UNL     1      32.496 -24.273 -14.190  0.00  0.00    -0.316 N 
ATOM      2  N   UNL     1      35.627 -23.322 -15.440  0.00  0.00    -0.170 N 
ATOM      3  N   UNL     1      34.275 -23.462 -15.394  0.00  0.00    -0.158 NA
ATOM      4  N   UNL     1      37.776 -23.454 -14.869  0.00  0.00    -0.226 NA
ATOM      5  C   UNL     1      33.817 -24.084 -14.332  0.00  0.00    +0.147 C 
ATOM      6  C   UNL     1      36.331 -22.711 -16.445  0.00  0.00    +0.095 C 
ATOM      7  C   UNL     1      36.546 -23.757 -14.507  0.00  0.00    +0.155 C 
ATOM      8  C   UNL     1      34.721 -24.603 -13.249  0.00  0.00    +0.039 C 
ATOM      9  C   UNL     1      36.041 -24.424 -13.373  0.00  0.00    +0.039 C 
ATOM     10  C   UNL     1      37.649 -22.806 -16.070  0.00  0.00    +0.117 C 
ATOM     11  H   UNL     1      32.170 -24.728 -13.380  0.00  0.00    +0.148 HD
ENDROOT
BRANCH   6  12
ATOM     12  C   UNL     1      35.729 -22.120 -17.616  0.00  0.00    +0.017 C 
ATOM     13  C   UNL     1      36.492 -21.310 -18.458  0.00  0.00    +0.002 C 
ATOM     14  C   UNL     1      34.387 -22.359 -17.906  0.00  0.00    +0.002 C 
ATOM     15  C   UNL     1      35.912 -20.739 -19.590  0.00  0.00    +0.006 C 
ATOM     16  C   UNL     1      33.806 -21.787 -19.039  0.00  0.00    +0.006 C 
ATOM     17  C   UNL     1      34.568 -20.977 -19.880  0.00  0.00    +0.075 C 
BRANCH  17  19
ATOM     18  O   UNL     1      34.579 -19.909 -22.021  0.00  0.00    -0.245 OA
ATOM     19  C   UNL     1      33.962 -20.382 -21.060  0.00  0.00    +0.338 C 
BRANCH  19  20
ATOM     20  O   UNL     1      32.602 -20.393 -21.009  0.00  0.00    -0.477 OA
ATOM     21  H   UNL     1      32.155 -19.927 -20.329  0.00  0.00    +0.295 HD
ENDBRANCH  19  20
ENDBRANCH  17  19
ENDBRANCH   6  12
BRANCH   1  22
ATOM     22  CA  UNL     1      31.528 -23.837 -15.178  0.00  0.00    +0.100 C 
BRANCH  22  23
ATOM     23  C   UNL     1      30.832 -22.558 -14.696  0.00  0.00    +0.022 C 
ATOM     24  C   UNL     1      29.376 -22.478 -15.139  0.00  0.00    +0.002 C 
ENDBRANCH  22  23
BRANCH  22  25
ATOM     25  C   UNL     1      30.513 -24.958 -15.401  0.00  0.00    +0.157 C 
BRANCH  25  26
ATOM     26  O   UNL     1      30.435 -25.764 -14.231  0.00  0.00    -0.380 OA
ATOM     27  H   UNL     1      30.046 -26.624 -14.456  0.00  0.00    +0.211 HD
ENDBRANCH  25  26
ENDBRANCH  22  25
ENDBRANCH   1  22
TORSDOF 7
ENDMDL
MODEL 4
REMARK VINA RESULT:      -8.1      6.745     10.124
REMARK  Name = 24180718
REMARK  7 active torsions:
REMARK  status: ('A' for Active; 'I' for Inactive)
REMARK    1  A    between atoms: N_1  and  CA_22
REMARK    2  A    between atoms: C_6  and  C_12
REMARK    3  A    between atoms: C_17  and  C_19
REMARK    4  A    between atoms: C_19  and  O_20
REMARK    5  A    between atoms: CA_22  and  C_23
REMARK    6  A    between atoms: CA_22  and  C_25
REMARK    7  A    between atoms: C_25  and  O_26
REMARK                            x       y       z     vdW  Elec       q    Type
REMARK                         _______ _______ _______ _____ _____    ______ ____
ROOT
ATOM      1  N   UNL     1      32.847 -14.039 -22.085  0.00  0.00    -0.316 N 
ATOM      2  N   UNL     1      34.195 -16.679 -23.951  0.00  0.00    -0.170 N 
ATOM      3  N   UNL     1      33.818 -15.973 -22.852  0.00  0.00    -0.158 NA
ATOM      4  N   UNL     1      34.526 -17.234 -26.083  0.00  0.00    -0.226 NA
ATOM      5  C   UNL     1      33.257 -14.814 -23.103  0.00  0.00    +0.147 C 
ATOM      6  C   UNL     1      34.798 -17.910 -23.939  0.00  0.00    +0.095 C 
ATOM      7  C   UNL     1      34.051 -16.310 -25.273  0.00  0.00    +0.155 C 
ATOM      8  C   UNL     1      33.047 -14.305 -24.501  0.00  0.00    +0.039 C 
ATOM      9  C   UNL     1      33.447 -15.063 -25.528  0.00  0.00    +0.039 C 
ATOM     10  C   UNL     1      34.991 -18.229 -25.262  0.00  0.00    +0.117 C 
ATOM     11  H   UNL     1      32.414 -13.178 -22.293  0.00  0.00    +0.148 HD
ENDROOT
BRANCH   6  12
ATOM     12  C   UNL     1      35.126 -18.644 -22.741  0.00  0.00    +0.017 C 
ATOM     13  C   UNL     1      34.169 -19.464 -22.142  0.00  0.00    +0.002 C 
ATOM     14  C   UNL     1      36.398 -18.532 -22.181  0.00  0.00    +0.002 C 
ATOM     15  C   UNL     1      34.485 -20.174 -20.984  0.00  0.00    +0.006 C 
ATOM     16  C   UNL     1      36.714 -19.242 -21.022  0.00  0.00    +0.006 C 
ATOM     17  C   UNL     1      35.758 -20.062 -20.423  0.00  0.00    +0.075 C 
BRANCH  17  19
ATOM     18  O   UNL     1      36.949 -20.476 -18.390  0.00  0.00    -0.245 OA
ATOM     19  C   UNL     1      36.089 -20.801 -19.216  0.00  0.00    +0.338 C 
BRANCH  19  20
ATOM     20  O   UNL     1      35.337 -21.926 -19.070  0.00  0.00    -0.477 OA
ATOM     21  H   UNL     1      35.208 -22.296 -18.219  0.00  0.00    +0.295 HD
ENDBRANCH  19  20
ENDBRANCH  17  19
ENDBRANCH   6  12
BRANCH   1  22
ATOM     22  CA  UNL     1      33.016 -14.413 -20.695  0.00  0.00    +0.100 C 
BRANCH  22  23
ATOM     23  C   UNL     1      32.334 -13.378 -19.791  0.00  0.00    +0.022 C 
ATOM     24  C   UNL     1      31.862 -12.148 -20.556  0.00  0.00    +0.002 C 
ENDBRANCH  22  23
BRANCH  22  25
ATOM     25  C   UNL     1      34.510 -14.503 -20.387  0.00  0.00    +0.157 C 
BRANCH  25  26
ATOM     26  O   UNL     1      34.875 -15.868 -20.212  0.00  0.00    -0.380 OA
ATOM     27  H   UNL     1      35.457 -15.950 -19.440  0.00  0.00    +0.211 HD
ENDBRANCH  25  26
ENDBRANCH  22  25
ENDBRANCH   1  22
TORSDOF 7
ENDMDL
MODEL 5
REMARK VINA RESULT:      -8.0     13.439     17.134
REMARK  Name = 24180718
REMARK  7 active torsions:
REMARK  status: ('A' for Active; 'I' for Inactive)
REMARK    1  A    between atoms: N_1  and  CA_22
REMARK    2  A    between atoms: C_6  and  C_12
REMARK    3  A    between atoms: C_17  and  C_19
REMARK    4  A    between atoms: C_19  and  O_20
REMARK    5  A    between atoms: CA_22  and  C_23
REMARK    6  A    between atoms: CA_22  and  C_25
REMARK    7  A    between atoms: C_25  and  O_26
REMARK                            x       y       z     vdW  Elec       q    Type
REMARK                         _______ _______ _______ _____ _____    ______ ____
ROOT
ATOM      1  N   UNL     1      32.328 -12.631 -22.764  0.00  0.00    -0.316 N 
ATOM      2  N   UNL     1      32.259  -9.468 -21.262  0.00  0.00    -0.170 N 
ATOM      3  N   UNL     1      32.434 -10.399 -22.237  0.00  0.00    -0.158 NA
ATOM      4  N   UNL     1      31.793  -8.556 -19.283  0.00  0.00    -0.226 NA
ATOM      5  C   UNL     1      32.187 -11.636 -21.874  0.00  0.00    +0.147 C 
ATOM      6  C   UNL     1      32.455  -8.119 -21.403  0.00  0.00    +0.095 C 
ATOM      7  C   UNL     1      31.859  -9.685 -19.958  0.00  0.00    +0.155 C 
ATOM      8  C   UNL     1      31.745 -11.996 -20.483  0.00  0.00    +0.039 C 
ATOM      9  C   UNL     1      31.598 -11.018 -19.582  0.00  0.00    +0.039 C 
ATOM     10  C   UNL     1      32.162  -7.581 -20.173  0.00  0.00    +0.117 C 
ATOM     11  H   UNL     1      32.124 -13.551 -22.477  0.00  0.00    +0.148 HD
ENDROOT
BRANCH   6  12
ATOM     12  C   UNL     1      32.882  -7.483 -22.626  0.00  0.00    +0.017 C 
ATOM     13  C   UNL     1      31.976  -6.734 -23.376  0.00  0.00    +0.002 C 
ATOM     14  C   UNL     1      34.201  -7.618 -23.058  0.00  0.00    +0.002 C 
ATOM     15  C   UNL     1      32.388  -6.119 -24.558  0.00  0.00    +0.006 C 
ATOM     16  C   UNL     1      34.614  -7.004 -24.241  0.00  0.00    +0.006 C 
ATOM     17  C   UNL     1      33.707  -6.255 -24.991  0.00  0.00    +0.075 C 
BRANCH  17  19
ATOM     18  O   UNL     1      35.310  -5.498 -26.598  0.00  0.00    -0.245 OA
ATOM     19  C   UNL     1      34.138  -5.615 -26.223  0.00  0.00    +0.338 C 
BRANCH  19  20
ATOM     20  O   UNL     1      33.095  -5.138 -26.956  0.00  0.00    -0.477 OA
ATOM     21  H   UNL     1      32.472  -5.733 -27.325  0.00  0.00    +0.295 HD
ENDBRANCH  19  20
ENDBRANCH  17  19
ENDBRANCH   6  12
BRANCH   1  22
ATOM     22  CA  UNL     1      32.770 -12.410 -24.127  0.00  0.00    +0.100 C 
BRANCH  22  23
ATOM     23  C   UNL     1      32.734 -13.730 -24.906  0.00  0.00    +0.022 C 
ATOM     24  C   UNL     1      33.546 -14.832 -24.236  0.00  0.00    +0.002 C 
ENDBRANCH  22  23
BRANCH  22  25
ATOM     25  C   UNL     1      34.185 -11.833 -24.098  0.00  0.00    +0.157 C 
BRANCH  25  26
ATOM     26  O   UNL     1      34.204 -10.594 -24.798  0.00  0.00    -0.380 OA
ATOM     27  H   UNL     1      35.082 -10.188 -24.712  0.00  0.00    +0.211 HD
ENDBRANCH  25  26
ENDBRANCH  22  25
ENDBRANCH   1  22
TORSDOF 7
ENDMDL
MODEL 6
REMARK VINA RESULT:      -8.0     13.150     16.781
REMARK  Name = 24180718
REMARK  7 active torsions:
REMARK  status: ('A' for Active; 'I' for Inactive)
REMARK    1  A    between atoms: N_1  and  CA_22
REMARK    2  A    between atoms: C_6  and  C_12
REMARK    3  A    between atoms: C_17  and  C_19
REMARK    4  A    between atoms: C_19  and  O_20
REMARK    5  A    between atoms: CA_22  and  C_23
REMARK    6  A    between atoms: CA_22  and  C_25
REMARK    7  A    between atoms: C_25  and  O_26
REMARK                            x       y       z     vdW  Elec       q    Type
REMARK                         _______ _______ _______ _____ _____    ______ ____
ROOT
ATOM      1  N   UNL     1      33.524 -12.771 -24.562  0.00  0.00    -0.316 N 
ATOM      2  N   UNL     1      32.145 -11.151 -21.779  0.00  0.00    -0.170 N 
ATOM      3  N   UNL     1      32.636 -11.301 -23.038  0.00  0.00    -0.158 NA
ATOM      4  N   UNL     1      31.500 -11.633 -19.702  0.00  0.00    -0.226 NA
ATOM      5  C   UNL     1      33.024 -12.517 -23.342  0.00  0.00    +0.147 C 
ATOM      6  C   UNL     1      31.681  -9.980 -21.239  0.00  0.00    +0.095 C 
ATOM      7  C   UNL     1      32.015 -12.125 -20.810  0.00  0.00    +0.155 C 
ATOM      8  C   UNL     1      32.932 -13.660 -22.370  0.00  0.00    +0.039 C 
ATOM      9  C   UNL     1      32.436 -13.426 -21.149  0.00  0.00    +0.039 C 
ATOM     10  C   UNL     1      31.291 -10.303 -19.961  0.00  0.00    +0.117 C 
ATOM     11  H   UNL     1      33.795 -13.693 -24.777  0.00  0.00    +0.148 HD
ENDROOT
BRANCH   6  12
ATOM     12  C   UNL     1      31.648  -8.718 -21.938  0.00  0.00    +0.017 C 
ATOM     13  C   UNL     1      32.136  -7.566 -21.320  0.00  0.00    +0.002 C 
ATOM     14  C   UNL     1      31.129  -8.650 -23.230  0.00  0.00    +0.002 C 
ATOM     15  C   UNL     1      32.106  -6.346 -21.995  0.00  0.00    +0.006 C 
ATOM     16  C   UNL     1      31.098  -7.430 -23.906  0.00  0.00    +0.006 C 
ATOM     17  C   UNL     1      31.586  -6.278 -23.288  0.00  0.00    +0.075 C 
BRANCH  17  19
ATOM     18  O   UNL     1      32.281  -4.694 -24.941  0.00  0.00    -0.245 OA
ATOM     19  C   UNL     1      31.552  -5.007 -23.993  0.00  0.00    +0.338 C 
BRANCH  19  20
ATOM     20  O   UNL     1      30.610  -4.160 -23.496  0.00  0.00    -0.477 OA
ATOM     21  H   UNL     1      29.787  -4.497 -23.199  0.00  0.00    +0.295 HD
ENDBRANCH  19  20
ENDBRANCH  17  19
ENDBRANCH   6  12
BRANCH   1  22
ATOM     22  CA  UNL     1      33.681 -11.747 -25.576  0.00  0.00    +0.100 C 
BRANCH  22  23
ATOM     23  C   UNL     1      33.540 -12.369 -26.971  0.00  0.00    +0.022 C 
ATOM     24  C   UNL     1      33.177 -13.847 -26.922  0.00  0.00    +0.002 C 
ENDBRANCH  22  23
BRANCH  22  25
ATOM     25  C   UNL     1      35.054 -11.095 -25.407  0.00  0.00    +0.157 C 
BRANCH  25  26
ATOM     26  O   UNL     1      34.992 -10.126 -24.367  0.00  0.00    -0.380 OA
ATOM     27  H   UNL     1      34.693  -9.278 -24.733  0.00  0.00    +0.211 HD
ENDBRANCH  25  26
ENDBRANCH  22  25
ENDBRANCH   1  22
TORSDOF 7
ENDMDL
MODEL 7
REMARK VINA RESULT:      -7.7      3.039      6.906
REMARK  Name = 24180718
REMARK  7 active torsions:
REMARK  status: ('A' for Active; 'I' for Inactive)
REMARK    1  A    between atoms: N_1  and  CA_22
REMARK    2  A    between atoms: C_6  and  C_12
REMARK    3  A    between atoms: C_17  and  C_19
REMARK    4  A    between atoms: C_19  and  O_20
REMARK    5  A    between atoms: CA_22  and  C_23
REMARK    6  A    between atoms: CA_22  and  C_25
REMARK    7  A    between atoms: C_25  and  O_26
REMARK                            x       y       z     vdW  Elec       q    Type
REMARK                         _______ _______ _______ _____ _____    ______ ____
ROOT
ATOM      1  N   UNL     1      37.395 -22.963 -14.973  0.00  0.00    -0.316 N 
ATOM      2  N   UNL     1      34.827 -22.498 -17.309  0.00  0.00    -0.170 N 
ATOM      3  N   UNL     1      35.421 -22.860 -16.141  0.00  0.00    -0.158 NA
ATOM      4  N   UNL     1      34.557 -21.712 -19.377  0.00  0.00    -0.226 NA
ATOM      5  C   UNL     1      36.714 -22.641 -16.085  0.00  0.00    +0.147 C 
ATOM      6  C   UNL     1      33.494 -22.629 -17.600  0.00  0.00    +0.095 C 
ATOM      7  C   UNL     1      35.431 -21.937 -18.417  0.00  0.00    +0.155 C 
ATOM      8  C   UNL     1      37.481 -22.037 -17.227  0.00  0.00    +0.039 C 
ATOM      9  C   UNL     1      36.820 -21.709 -18.343  0.00  0.00    +0.039 C 
ATOM     10  C   UNL     1      33.354 -22.140 -18.876  0.00  0.00    +0.117 C 
ATOM     11  H   UNL     1      38.362 -22.778 -14.943  0.00  0.00    +0.148 HD
ENDROOT
BRANCH   6  12
ATOM     12  C   UNL     1      32.515 -23.180 -16.695  0.00  0.00    +0.017 C 
ATOM     13  C   UNL     1      31.158 -22.925 -16.896  0.00  0.00    +0.002 C 
ATOM     14  C   UNL     1      32.925 -23.967 -15.619  0.00  0.00    +0.002 C 
ATOM     15  C   UNL     1      30.211 -23.457 -16.022  0.00  0.00    +0.006 C 
ATOM     16  C   UNL     1      31.977 -24.499 -14.744  0.00  0.00    +0.006 C 
ATOM     17  C   UNL     1      30.621 -24.244 -14.945  0.00  0.00    +0.075 C 
BRANCH  17  19
ATOM     18  O   UNL     1      28.521 -25.227 -14.355  0.00  0.00    -0.245 OA
ATOM     19  C   UNL     1      29.634 -24.798 -14.032  0.00  0.00    +0.338 C 
BRANCH  19  20
ATOM     20  O   UNL     1      30.064 -24.805 -12.741  0.00  0.00    -0.477 OA
ATOM     21  H   UNL     1      30.961 -24.997 -12.547  0.00  0.00    +0.295 HD
ENDBRANCH  19  20
ENDBRANCH  17  19
ENDBRANCH   6  12
BRANCH   1  22
ATOM     22  CA  UNL     1      36.769 -23.572 -13.816  0.00  0.00    +0.100 C 
BRANCH  22  23
ATOM     23  C   UNL     1      37.407 -23.027 -12.532  0.00  0.00    +0.022 C 
ATOM     24  C   UNL     1      36.719 -23.536 -11.271  0.00  0.00    +0.002 C 
ENDBRANCH  22  23
BRANCH  22  25
ATOM     25  C   UNL     1      36.938 -25.088 -13.906  0.00  0.00    +0.157 C 
BRANCH  25  26
ATOM     26  O   UNL     1      35.747 -25.666 -14.428  0.00  0.00    -0.380 OA
ATOM     27  H   UNL     1      35.668 -26.581 -14.115  0.00  0.00    +0.211 HD
ENDBRANCH  25  26
ENDBRANCH  22  25
ENDBRANCH   1  22
TORSDOF 7
ENDMDL
MODEL 8
REMARK VINA RESULT:      -7.6     13.104     16.613
REMARK  Name = 24180718
REMARK  7 active torsions:
REMARK  status: ('A' for Active; 'I' for Inactive)
REMARK    1  A    between atoms: N_1  and  CA_22
REMARK    2  A    between atoms: C_6  and  C_12
REMARK    3  A    between atoms: C_17  and  C_19
REMARK    4  A    between atoms: C_19  and  O_20
REMARK    5  A    between atoms: CA_22  and  C_23
REMARK    6  A    between atoms: CA_22  and  C_25
REMARK    7  A    between atoms: C_25  and  O_26
REMARK                            x       y       z     vdW  Elec       q    Type
REMARK                         _______ _______ _______ _____ _____    ______ ____
ROOT
ATOM      1  N   UNL     1      33.655 -13.463 -24.436  0.00  0.00    -0.316 N 
ATOM      2  N   UNL     1      32.251 -11.259 -22.103  0.00  0.00    -0.170 N 
ATOM      3  N   UNL     1      32.847 -11.667 -23.255  0.00  0.00    -0.158 NA
ATOM      4  N   UNL     1      31.317 -11.321 -20.081  0.00  0.00    -0.226 NA
ATOM      5  C   UNL     1      33.071 -12.958 -23.337  0.00  0.00    +0.147 C 
ATOM      6  C   UNL     1      31.919  -9.966 -21.792  0.00  0.00    +0.095 C 
ATOM      7  C   UNL     1      31.867 -12.044 -21.035  0.00  0.00    +0.155 C 
ATOM      8  C   UNL     1      32.697 -13.913 -22.239  0.00  0.00    +0.039 C 
ATOM      9  C   UNL     1      32.114 -13.428 -21.137  0.00  0.00    +0.039 C 
ATOM     10  C   UNL     1      31.348 -10.031 -20.545  0.00  0.00    +0.117 C 
ATOM     11  H   UNL     1      33.802 -14.436 -24.485  0.00  0.00    +0.148 HD
ENDROOT
BRANCH   6  12
ATOM     12  C   UNL     1      32.160  -8.834 -22.655  0.00  0.00    +0.017 C 
ATOM     13  C   UNL     1      33.441  -8.291 -22.751  0.00  0.00    +0.002 C 
ATOM     14  C   UNL     1      31.112  -8.285 -23.393  0.00  0.00    +0.002 C 
ATOM     15  C   UNL     1      33.675  -7.198 -23.585  0.00  0.00    +0.006 C 
ATOM     16  C   UNL     1      31.345  -7.190 -24.226  0.00  0.00    +0.006 C 
ATOM     17  C   UNL     1      32.626  -6.647 -24.322  0.00  0.00    +0.075 C 
BRANCH  17  19
ATOM     18  O   UNL     1      32.151  -4.503 -25.273  0.00  0.00    -0.245 OA
ATOM     19  C   UNL     1      32.868  -5.507 -25.191  0.00  0.00    +0.338 C 
BRANCH  19  20
ATOM     20  O   UNL     1      33.999  -5.649 -25.935  0.00  0.00    -0.477 OA
ATOM     21  H   UNL     1      33.942  -5.960 -26.818  0.00  0.00    +0.295 HD
ENDBRANCH  19  20
ENDBRANCH  17  19
ENDBRANCH   6  12
BRANCH   1  22
ATOM     22  CA  UNL     1      34.079 -12.639 -25.550  0.00  0.00    +0.100 C 
BRANCH  22  23
ATOM     23  C   UNL     1      34.076 -11.162 -25.137  0.00  0.00    +0.022 C 
ATOM     24  C   UNL     1      35.288 -10.402 -25.660  0.00  0.00    +0.002 C 
ENDBRANCH  22  23
BRANCH  22  25
ATOM     25  C   UNL     1      33.131 -12.876 -26.726  0.00  0.00    +0.157 C 
BRANCH  25  26
ATOM     26  O   UNL     1      33.850 -13.473 -27.800  0.00  0.00    -0.380 OA
ATOM     27  H   UNL     1      34.585 -12.893 -28.058  0.00  0.00    +0.211 HD
ENDBRANCH  25  26
ENDBRANCH  22  25
ENDBRANCH   1  22
TORSDOF 7
ENDMDL
MODEL 9
REMARK VINA RESULT:      -7.4     13.245     15.852
REMARK  Name = 24180718
REMARK  7 active torsions:
REMARK  status: ('A' for Active; 'I' for Inactive)
REMARK    1  A    between atoms: N_1  and  CA_22
REMARK    2  A    between atoms: C_6  and  C_12
REMARK    3  A    between atoms: C_17  and  C_19
REMARK    4  A    between atoms: C_19  and  O_20
REMARK    5  A    between atoms: CA_22  and  C_23
REMARK    6  A    between atoms: CA_22  and  C_25
REMARK    7  A    between atoms: C_25  and  O_26
REMARK                            x       y       z     vdW  Elec       q    Type
REMARK                         _______ _______ _______ _____ _____    ______ ____
ROOT
ATOM      1  N   UNL     1      32.649  -7.125 -22.511  0.00  0.00    -0.316 N 
ATOM      2  N   UNL     1      32.185 -10.392 -21.336  0.00  0.00    -0.170 N 
ATOM      3  N   UNL     1      32.477  -9.395 -22.213  0.00  0.00    -0.158 NA
ATOM      4  N   UNL     1      31.603 -11.436 -19.455  0.00  0.00    -0.226 NA
ATOM      5  C   UNL     1      32.382  -8.180 -21.725  0.00  0.00    +0.147 C 
ATOM      6  C   UNL     1      32.216 -11.733 -21.615  0.00  0.00    +0.095 C 
ATOM      7  C   UNL     1      31.808 -10.260 -20.014  0.00  0.00    +0.155 C 
ATOM      8  C   UNL     1      31.980  -7.912 -20.302  0.00  0.00    +0.039 C 
ATOM      9  C   UNL     1      31.710  -8.951 -19.504  0.00  0.00    +0.039 C 
ATOM     10  C   UNL     1      31.853 -12.353 -20.443  0.00  0.00    +0.117 C 
ATOM     11  H   UNL     1      32.587  -6.221 -22.123  0.00  0.00    +0.148 HD
ENDROOT
BRANCH   6  12
ATOM     12  C   UNL     1      32.564 -12.289 -22.900  0.00  0.00    +0.017 C 
ATOM     13  C   UNL     1      32.298 -13.630 -23.175  0.00  0.00    +0.002 C 
ATOM     14  C   UNL     1      33.168 -11.485 -23.867  0.00  0.00    +0.002 C 
ATOM     15  C   UNL     1      32.634 -14.169 -24.417  0.00  0.00    +0.006 C 
ATOM     16  C   UNL     1      33.505 -12.023 -25.109  0.00  0.00    +0.006 C 
ATOM     17  C   UNL     1      33.239 -13.365 -25.384  0.00  0.00    +0.075 C 
BRANCH  17  19
ATOM     18  O   UNL     1      33.878 -13.271 -27.687  0.00  0.00    -0.245 OA
ATOM     19  C   UNL     1      33.591 -13.924 -26.678  0.00  0.00    +0.338 C 
BRANCH  19  20
ATOM     20  O   UNL     1      33.576 -15.285 -26.680  0.00  0.00    -0.477 OA
ATOM     21  H   UNL     1      32.763 -15.745 -26.596  0.00  0.00    +0.295 HD
ENDBRANCH  19  20
ENDBRANCH  17  19
ENDBRANCH   6  12
BRANCH   1  22
ATOM     22  CA  UNL     1      33.025  -7.257 -23.905  0.00  0.00    +0.100 C 
BRANCH  22  23
ATOM     23  C   UNL     1      34.553  -7.289 -24.032  0.00  0.00    +0.022 C 
ATOM     24  C   UNL     1      35.088  -8.676 -24.362  0.00  0.00    +0.002 C 
ENDBRANCH  22  23
BRANCH  22  25
ATOM     25  C   UNL     1      32.439  -6.082 -24.686  0.00  0.00    +0.157 C 
BRANCH  25  26
ATOM     26  O   UNL     1      31.068  -5.920 -24.338  0.00  0.00    -0.380 OA
ATOM     27  H   UNL     1      31.001  -5.388 -23.529  0.00  0.00    +0.211 HD
ENDBRANCH  25  26
ENDBRANCH  22  25
ENDBRANCH   1  22
TORSDOF 7
ENDMDL
