MODEL 1
REMARK VINA RESULT:     -10.1      0.000      0.000
REMARK  Name = 65687
REMARK  3 active torsions:
REMARK  status: ('A' for Active; 'I' for Inactive)
REMARK    1  A    between atoms: C_3  and  C_18
REMARK    2  A    between atoms: C_5  and  O_16
REMARK    3  A    between atoms: C_18  and  N_19
REMARK                            x       y       z     vdW  Elec       q    Type
REMARK                         _______ _______ _______ _____ _____    ______ ____
ROOT
ATOM      1  O   UNL     1      35.505 -24.214 -15.779  0.00  0.00    -0.454 OA
ATOM      2  O   UNL     1      34.560 -24.116 -11.799  0.00  0.00    -0.286 OA
ATOM      3  C   UNL     1      33.346 -23.474 -16.361  0.00  0.00    +0.025 C 
ATOM      4  C   UNL     1      34.256 -23.826 -15.361  0.00  0.00    +0.145 A 
ATOM      5  C   UNL     1      32.055 -23.069 -16.017  0.00  0.00    +0.136 C 
ATOM      6  C   UNL     1      33.867 -23.771 -14.023  0.00  0.00    +0.073 A 
ATOM      7  C   UNL     1      31.672 -23.015 -14.677  0.00  0.00    +0.037 C 
ATOM      8  C   UNL     1      32.575 -23.366 -13.675  0.00  0.00    +0.009 C 
ATOM      9  C   UNL     1      34.842 -24.147 -12.987  0.00  0.00    +0.201 A 
ATOM     10  C   UNL     1      36.174 -24.559 -13.456  0.00  0.00    +0.074 A 
ATOM     11  C   UNL     1      36.429 -24.569 -14.827  0.00  0.00    +0.148 A 
ATOM     12  C   UNL     1      37.166 -24.935 -12.547  0.00  0.00    +0.006 C 
ATOM     13  C   UNL     1      37.687 -24.957 -15.293  0.00  0.00    +0.038 C 
ATOM     14  C   UNL     1      38.420 -25.322 -13.018  0.00  0.00    +0.000 C 
ATOM     15  C   UNL     1      38.681 -25.333 -14.390  0.00  0.00    +0.003 C 
ENDROOT
BRANCH   5  16
ATOM     16  O   UNL     1      31.155 -22.721 -16.980  0.00  0.00    -0.472 OA
ATOM     17  C   UNL     1      29.778 -22.726 -16.610  0.00  0.00    +0.252 C 
ENDBRANCH   5  16
BRANCH   3  18
ATOM     18  C   UNL     1      33.745 -23.528 -17.801  0.00  0.00    -0.044 C 
BRANCH  18  19
ATOM     19  N   UNL     1      34.142 -22.239 -18.369  0.00  0.00    +0.390 N 
ATOM     20  C   UNL     1      35.572 -22.246 -18.708  0.00  0.00    -0.077 C 
ATOM     21  C   UNL     1      33.319 -21.918 -19.543  0.00  0.00    -0.077 C 
ATOM     22  C   UNL     1      36.016 -20.890 -19.258  0.00  0.00    -0.023 C 
ATOM     23  C   UNL     1      33.688 -20.552 -20.120  0.00  0.00    -0.023 C 
ATOM     24  C   UNL     1      35.173 -20.476 -20.459  0.00  0.00    -0.004 C 
ATOM     25  H   UNL     1      33.990 -21.512 -17.669  0.00  0.00    -0.079 HD
ENDBRANCH  18  19
ENDBRANCH   3  18
TORSDOF 3
ENDMDL
MODEL 2
REMARK VINA RESULT:      -9.9      6.552     11.531
REMARK  Name = 65687
REMARK  3 active torsions:
REMARK  status: ('A' for Active; 'I' for Inactive)
REMARK    1  A    between atoms: C_3  and  C_18
REMARK    2  A    between atoms: C_5  and  O_16
REMARK    3  A    between atoms: C_18  and  N_19
REMARK                            x       y       z     vdW  Elec       q    Type
REMARK                         _______ _______ _______ _____ _____    ______ ____
ROOT
ATOM      1  O   UNL     1      33.574 -15.126 -21.540  0.00  0.00    -0.454 OA
ATOM      2  O   UNL     1      32.500 -13.332 -25.057  0.00  0.00    -0.286 OA
ATOM      3  C   UNL     1      34.611 -16.894 -22.701  0.00  0.00    +0.025 C 
ATOM      4  C   UNL     1      33.902 -15.692 -22.748  0.00  0.00    +0.145 A 
ATOM      5  C   UNL     1      34.981 -17.532 -23.886  0.00  0.00    +0.136 C 
ATOM      6  C   UNL     1      33.567 -15.135 -23.983  0.00  0.00    +0.073 A 
ATOM      7  C   UNL     1      34.644 -16.971 -25.118  0.00  0.00    +0.037 C 
ATOM      8  C   UNL     1      33.936 -15.771 -25.171  0.00  0.00    +0.009 C 
ATOM      9  C   UNL     1      32.819 -13.869 -24.007  0.00  0.00    +0.201 A 
ATOM     10  C   UNL     1      32.478 -13.279 -22.703  0.00  0.00    +0.074 A 
ATOM     11  C   UNL     1      32.876 -13.944 -21.543  0.00  0.00    +0.148 A 
ATOM     12  C   UNL     1      31.768 -12.078 -22.625  0.00  0.00    +0.006 C 
ATOM     13  C   UNL     1      32.562 -13.402 -20.295  0.00  0.00    +0.038 C 
ATOM     14  C   UNL     1      31.458 -11.543 -21.376  0.00  0.00    +0.000 C 
ATOM     15  C   UNL     1      31.855 -12.203 -20.212  0.00  0.00    +0.003 C 
ENDROOT
BRANCH   5  16
ATOM     16  O   UNL     1      35.674 -18.706 -23.859  0.00  0.00    -0.472 OA
ATOM     17  C   UNL     1      35.089 -19.818 -24.531  0.00  0.00    +0.252 C 
ENDBRANCH   5  16
BRANCH   3  18
ATOM     18  C   UNL     1      34.978 -17.506 -21.387  0.00  0.00    -0.044 C 
BRANCH  18  19
ATOM     19  N   UNL     1      34.612 -18.916 -21.250  0.00  0.00    +0.390 N 
ATOM     20  C   UNL     1      35.610 -19.629 -20.440  0.00  0.00    -0.077 C 
ATOM     21  C   UNL     1      33.268 -19.044 -20.671  0.00  0.00    -0.077 C 
ATOM     22  C   UNL     1      35.268 -21.115 -20.327  0.00  0.00    -0.023 C 
ATOM     23  C   UNL     1      32.849 -20.511 -20.566  0.00  0.00    -0.023 C 
ATOM     24  C   UNL     1      33.865 -21.321 -19.769  0.00  0.00    -0.004 C 
ATOM     25  H   UNL     1      34.597 -19.342 -22.177  0.00  0.00    -0.079 HD
ENDBRANCH  18  19
ENDBRANCH   3  18
TORSDOF 3
ENDMDL
MODEL 3
REMARK VINA RESULT:      -9.4      1.868      5.759
REMARK  Name = 65687
REMARK  3 active torsions:
REMARK  status: ('A' for Active; 'I' for Inactive)
REMARK    1  A    between atoms: C_3  and  C_18
REMARK    2  A    between atoms: C_5  and  O_16
REMARK    3  A    between atoms: C_18  and  N_19
REMARK                            x       y       z     vdW  Elec       q    Type
REMARK                         _______ _______ _______ _____ _____    ______ ____
ROOT
ATOM      1  O   UNL     1      33.986 -23.569 -15.987  0.00  0.00    -0.454 OA
ATOM      2  O   UNL     1      37.665 -21.808 -16.305  0.00  0.00    -0.286 OA
ATOM      3  C   UNL     1      34.433 -24.217 -13.768  0.00  0.00    +0.025 C 
ATOM      4  C   UNL     1      34.865 -23.580 -14.932  0.00  0.00    +0.145 A 
ATOM      5  C   UNL     1      35.268 -24.271 -12.650  0.00  0.00    +0.136 C 
ATOM      6  C   UNL     1      36.133 -23.000 -14.972  0.00  0.00    +0.073 A 
ATOM      7  C   UNL     1      36.535 -23.689 -12.696  0.00  0.00    +0.037 C 
ATOM      8  C   UNL     1      36.973 -23.052 -13.857  0.00  0.00    +0.009 C 
ATOM      9  C   UNL     1      36.567 -22.335 -16.211  0.00  0.00    +0.201 A 
ATOM     10  C   UNL     1      35.610 -22.335 -17.329  0.00  0.00    +0.074 A 
ATOM     11  C   UNL     1      34.373 -22.953 -17.152  0.00  0.00    +0.148 A 
ATOM     12  C   UNL     1      35.933 -21.728 -18.545  0.00  0.00    +0.006 C 
ATOM     13  C   UNL     1      33.450 -22.964 -18.200  0.00  0.00    +0.038 C 
ATOM     14  C   UNL     1      35.008 -21.743 -19.588  0.00  0.00    +0.000 C 
ATOM     15  C   UNL     1      33.767 -22.360 -19.416  0.00  0.00    +0.003 C 
ENDROOT
BRANCH   5  16
ATOM     16  O   UNL     1      34.862 -24.888 -11.505  0.00  0.00    -0.472 OA
ATOM     17  C   UNL     1      35.538 -24.528 -10.302  0.00  0.00    +0.252 C 
ENDBRANCH   5  16
BRANCH   3  18
ATOM     18  C   UNL     1      33.076 -24.844 -13.706  0.00  0.00    -0.044 C 
BRANCH  18  19
ATOM     19  N   UNL     1      32.070 -24.199 -14.550  0.00  0.00    +0.390 N 
ATOM     20  C   UNL     1      31.008 -25.152 -14.902  0.00  0.00    -0.077 C 
ATOM     21  C   UNL     1      31.519 -23.014 -13.880  0.00  0.00    -0.077 C 
ATOM     22  C   UNL     1      29.973 -24.508 -15.825  0.00  0.00    -0.023 C 
ATOM     23  C   UNL     1      30.501 -22.299 -14.769  0.00  0.00    -0.023 C 
ATOM     24  C   UNL     1      29.388 -23.244 -15.206  0.00  0.00    -0.004 C 
ATOM     25  H   UNL     1      32.516 -23.894 -15.415  0.00  0.00    -0.079 HD
ENDBRANCH  18  19
ENDBRANCH   3  18
TORSDOF 3
ENDMDL
MODEL 4
REMARK VINA RESULT:      -9.3     11.074     13.905
REMARK  Name = 65687
REMARK  3 active torsions:
REMARK  status: ('A' for Active; 'I' for Inactive)
REMARK    1  A    between atoms: C_3  and  C_18
REMARK    2  A    between atoms: C_5  and  O_16
REMARK    3  A    between atoms: C_18  and  N_19
REMARK                            x       y       z     vdW  Elec       q    Type
REMARK                         _______ _______ _______ _____ _____    ______ ____
ROOT
ATOM      1  O   UNL     1      32.612 -12.810 -23.802  0.00  0.00    -0.454 OA
ATOM      2  O   UNL     1      33.355 -15.765 -21.071  0.00  0.00    -0.286 OA
ATOM      3  C   UNL     1      31.904 -11.345 -22.099  0.00  0.00    +0.025 C 
ATOM      4  C   UNL     1      32.390 -12.603 -22.462  0.00  0.00    +0.145 A 
ATOM      5  C   UNL     1      31.653 -11.056 -20.756  0.00  0.00    +0.136 C 
ATOM      6  C   UNL     1      32.620 -13.565 -21.479  0.00  0.00    +0.073 A 
ATOM      7  C   UNL     1      31.885 -12.022 -19.777  0.00  0.00    +0.037 C 
ATOM      8  C   UNL     1      32.369 -13.280 -20.134  0.00  0.00    +0.009 C 
ATOM      9  C   UNL     1      33.131 -14.883 -21.886  0.00  0.00    +0.201 A 
ATOM     10  C   UNL     1      33.363 -15.084 -23.325  0.00  0.00    +0.074 A 
ATOM     11  C   UNL     1      33.089 -14.034 -24.201  0.00  0.00    +0.148 A 
ATOM     12  C   UNL     1      33.846 -16.303 -23.808  0.00  0.00    +0.006 C 
ATOM     13  C   UNL     1      33.301 -14.204 -25.571  0.00  0.00    +0.038 C 
ATOM     14  C   UNL     1      34.056 -16.466 -25.176  0.00  0.00    +0.000 C 
ATOM     15  C   UNL     1      33.784 -15.418 -26.057  0.00  0.00    +0.003 C 
ENDROOT
BRANCH   5  16
ATOM     16  O   UNL     1      31.179  -9.833 -20.383  0.00  0.00    -0.472 OA
ATOM     17  C   UNL     1      32.055  -9.006 -19.620  0.00  0.00    +0.252 C 
ENDBRANCH   5  16
BRANCH   3  18
ATOM     18  C   UNL     1      31.651 -10.301 -23.139  0.00  0.00    -0.044 C 
BRANCH  18  19
ATOM     19  N   UNL     1      32.566  -9.160 -23.088  0.00  0.00    +0.390 N 
ATOM     20  C   UNL     1      33.801  -9.459 -23.827  0.00  0.00    -0.077 C 
ATOM     21  C   UNL     1      31.913  -7.953 -23.614  0.00  0.00    -0.077 C 
ATOM     22  C   UNL     1      34.789  -8.296 -23.744  0.00  0.00    -0.023 C 
ATOM     23  C   UNL     1      32.839  -6.740 -23.524  0.00  0.00    -0.023 C 
ATOM     24  C   UNL     1      34.161  -6.998 -24.237  0.00  0.00    -0.004 C 
ATOM     25  H   UNL     1      32.817  -8.984 -22.116  0.00  0.00    -0.079 HD
ENDBRANCH  18  19
ENDBRANCH   3  18
TORSDOF 3
ENDMDL
MODEL 5
REMARK VINA RESULT:      -9.3      2.010      4.750
REMARK  Name = 65687
REMARK  3 active torsions:
REMARK  status: ('A' for Active; 'I' for Inactive)
REMARK    1  A    between atoms: C_3  and  C_18
REMARK    2  A    between atoms: C_5  and  O_16
REMARK    3  A    between atoms: C_18  and  N_19
REMARK                            x       y       z     vdW  Elec       q    Type
REMARK                         _______ _______ _______ _____ _____    ______ ____
ROOT
ATOM      1  O   UNL     1      32.173 -23.530 -16.932  0.00  0.00    -0.454 OA
ATOM      2  O   UNL     1      32.747 -23.830 -12.892  0.00  0.00    -0.286 OA
ATOM      3  C   UNL     1      34.422 -22.911 -17.256  0.00  0.00    +0.025 C 
ATOM      4  C   UNL     1      33.401 -23.274 -16.375  0.00  0.00    +0.145 A 
ATOM      5  C   UNL     1      35.700 -22.634 -16.768  0.00  0.00    +0.136 C 
ATOM      6  C   UNL     1      33.667 -23.356 -15.008  0.00  0.00    +0.073 A 
ATOM      7  C   UNL     1      35.959 -22.719 -15.400  0.00  0.00    +0.037 C 
ATOM      8  C   UNL     1      34.944 -23.079 -14.514  0.00  0.00    +0.009 C 
ATOM      9  C   UNL     1      32.575 -23.738 -14.098  0.00  0.00    +0.201 A 
ATOM     10  C   UNL     1      31.267 -24.009 -14.716  0.00  0.00    +0.074 A 
ATOM     11  C   UNL     1      31.142 -23.889 -16.099  0.00  0.00    +0.148 A 
ATOM     12  C   UNL     1      30.170 -24.378 -13.933  0.00  0.00    +0.006 C 
ATOM     13  C   UNL     1      29.909 -24.140 -16.706  0.00  0.00    +0.038 C 
ATOM     14  C   UNL     1      28.943 -24.628 -14.544  0.00  0.00    +0.000 C 
ATOM     15  C   UNL     1      28.811 -24.510 -15.929  0.00  0.00    +0.003 C 
ENDROOT
BRANCH   5  16
ATOM     16  O   UNL     1      36.708 -22.280 -17.614  0.00  0.00    -0.472 OA
ATOM     17  C   UNL     1      37.478 -21.134 -17.259  0.00  0.00    +0.252 C 
ENDBRANCH   5  16
BRANCH   3  18
ATOM     18  C   UNL     1      34.157 -22.817 -18.725  0.00  0.00    -0.044 C 
BRANCH  18  19
ATOM     19  N   UNL     1      34.162 -21.454 -19.257  0.00  0.00    +0.390 N 
ATOM     20  C   UNL     1      35.287 -21.270 -20.186  0.00  0.00    -0.077 C 
ATOM     21  C   UNL     1      32.881 -21.151 -19.908  0.00  0.00    -0.077 C 
ATOM     22  C   UNL     1      35.336 -19.836 -20.714  0.00  0.00    -0.023 C 
ATOM     23  C   UNL     1      32.851 -19.713 -20.427  0.00  0.00    -0.023 C 
ATOM     24  C   UNL     1      34.018 -19.440 -21.369  0.00  0.00    -0.004 C 
ATOM     25  H   UNL     1      34.284 -20.801 -18.483  0.00  0.00    -0.079 HD
ENDBRANCH  18  19
ENDBRANCH   3  18
TORSDOF 3
ENDMDL
MODEL 6
REMARK VINA RESULT:      -9.2      1.736      5.607
REMARK  Name = 65687
REMARK  3 active torsions:
REMARK  status: ('A' for Active; 'I' for Inactive)
REMARK    1  A    between atoms: C_3  and  C_18
REMARK    2  A    between atoms: C_5  and  O_16
REMARK    3  A    between atoms: C_18  and  N_19
REMARK                            x       y       z     vdW  Elec       q    Type
REMARK                         _______ _______ _______ _____ _____    ______ ____
ROOT
ATOM      1  O   UNL     1      35.363 -22.631 -16.688  0.00  0.00    -0.454 OA
ATOM      2  O   UNL     1      32.327 -22.086 -19.376  0.00  0.00    -0.286 OA
ATOM      3  C   UNL     1      33.880 -23.591 -15.132  0.00  0.00    +0.025 C 
ATOM      4  C   UNL     1      34.080 -23.015 -16.388  0.00  0.00    +0.145 A 
ATOM      5  C   UNL     1      32.603 -24.008 -14.750  0.00  0.00    +0.136 C 
ATOM      6  C   UNL     1      32.999 -22.858 -17.255  0.00  0.00    +0.073 A 
ATOM      7  C   UNL     1      31.526 -23.849 -15.622  0.00  0.00    +0.037 C 
ATOM      8  C   UNL     1      31.719 -23.273 -16.878  0.00  0.00    +0.009 C 
ATOM      9  C   UNL     1      33.233 -22.246 -18.573  0.00  0.00    +0.201 A 
ATOM     10  C   UNL     1      34.615 -21.843 -18.876  0.00  0.00    +0.074 A 
ATOM     11  C   UNL     1      35.602 -22.059 -17.914  0.00  0.00    +0.148 A 
ATOM     12  C   UNL     1      34.935 -21.254 -20.101  0.00  0.00    +0.006 C 
ATOM     13  C   UNL     1      36.920 -21.682 -18.181  0.00  0.00    +0.038 C 
ATOM     14  C   UNL     1      36.253 -20.880 -20.361  0.00  0.00    +0.000 C 
ATOM     15  C   UNL     1      37.245 -21.095 -19.402  0.00  0.00    +0.003 C 
ENDROOT
BRANCH   5  16
ATOM     16  O   UNL     1      32.390 -24.573 -13.529  0.00  0.00    -0.472 OA
ATOM     17  C   UNL     1      31.049 -24.936 -13.209  0.00  0.00    +0.252 C 
ENDBRANCH   5  16
BRANCH   3  18
ATOM     18  C   UNL     1      35.027 -23.767 -14.188  0.00  0.00    -0.044 C 
BRANCH  18  19
ATOM     19  N   UNL     1      36.170 -24.487 -14.750  0.00  0.00    +0.390 N 
ATOM     20  C   UNL     1      37.416 -24.065 -14.094  0.00  0.00    -0.077 C 
ATOM     21  C   UNL     1      35.973 -25.938 -14.630  0.00  0.00    -0.077 C 
ATOM     22  C   UNL     1      38.627 -24.772 -14.703  0.00  0.00    -0.023 C 
ATOM     23  C   UNL     1      37.137 -26.707 -15.256  0.00  0.00    -0.023 C 
ATOM     24  C   UNL     1      38.470 -26.287 -14.648  0.00  0.00    -0.004 C 
ATOM     25  H   UNL     1      36.245 -24.260 -15.741  0.00  0.00    -0.079 HD
ENDBRANCH  18  19
ENDBRANCH   3  18
TORSDOF 3
ENDMDL
MODEL 7
REMARK VINA RESULT:      -9.1      1.844      6.593
REMARK  Name = 65687
REMARK  3 active torsions:
REMARK  status: ('A' for Active; 'I' for Inactive)
REMARK    1  A    between atoms: C_3  and  C_18
REMARK    2  A    between atoms: C_5  and  O_16
REMARK    3  A    between atoms: C_18  and  N_19
REMARK                            x       y       z     vdW  Elec       q    Type
REMARK                         _______ _______ _______ _____ _____    ______ ____
ROOT
ATOM      1  O   UNL     1      36.225 -21.578 -18.186  0.00  0.00    -0.454 OA
ATOM      2  O   UNL     1      32.604 -21.495 -20.089  0.00  0.00    -0.286 OA
ATOM      3  C   UNL     1      35.363 -22.977 -16.500  0.00  0.00    +0.025 C 
ATOM      4  C   UNL     1      35.149 -22.264 -17.681  0.00  0.00    +0.145 A 
ATOM      5  C   UNL     1      34.318 -23.701 -15.922  0.00  0.00    +0.136 C 
ATOM      6  C   UNL     1      33.888 -22.279 -18.277  0.00  0.00    +0.073 A 
ATOM      7  C   UNL     1      33.059 -23.712 -16.523  0.00  0.00    +0.037 C 
ATOM      8  C   UNL     1      32.839 -23.001 -17.702  0.00  0.00    +0.009 C 
ATOM      9  C   UNL     1      33.685 -21.518 -19.520  0.00  0.00    +0.201 A 
ATOM     10  C   UNL     1      34.851 -20.791 -20.045  0.00  0.00    +0.074 A 
ATOM     11  C   UNL     1      36.056 -20.863 -19.346  0.00  0.00    +0.148 A 
ATOM     12  C   UNL     1      34.756 -20.041 -21.220  0.00  0.00    +0.006 C 
ATOM     13  C   UNL     1      37.175 -20.180 -19.827  0.00  0.00    +0.038 C 
ATOM     14  C   UNL     1      35.876 -19.361 -21.695  0.00  0.00    +0.000 C 
ATOM     15  C   UNL     1      37.085 -19.430 -21.000  0.00  0.00    +0.003 C 
ENDROOT
BRANCH   5  16
ATOM     16  O   UNL     1      34.510 -24.403 -14.770  0.00  0.00    -0.472 OA
ATOM     17  C   UNL     1      33.514 -24.272 -13.759  0.00  0.00    +0.252 C 
ENDBRANCH   5  16
BRANCH   3  18
ATOM     18  C   UNL     1      36.708 -22.974 -15.846  0.00  0.00    -0.044 C 
BRANCH  18  19
ATOM     19  N   UNL     1      36.861 -23.949 -14.766  0.00  0.00    +0.390 N 
ATOM     20  C   UNL     1      37.878 -24.950 -15.118  0.00  0.00    -0.077 C 
ATOM     21  C   UNL     1      37.196 -23.272 -13.506  0.00  0.00    -0.077 C 
ATOM     22  C   UNL     1      38.016 -26.006 -14.020  0.00  0.00    -0.023 C 
ATOM     23  C   UNL     1      37.312 -24.273 -12.355  0.00  0.00    -0.023 C 
ATOM     24  C   UNL     1      38.325 -25.367 -12.672  0.00  0.00    -0.004 C 
ATOM     25  H   UNL     1      35.974 -24.435 -14.636  0.00  0.00    -0.079 HD
ENDBRANCH  18  19
ENDBRANCH   3  18
TORSDOF 3
ENDMDL
MODEL 8
REMARK VINA RESULT:      -9.1      1.864      6.221
REMARK  Name = 65687
REMARK  3 active torsions:
REMARK  status: ('A' for Active; 'I' for Inactive)
REMARK    1  A    between atoms: C_3  and  C_18
REMARK    2  A    between atoms: C_5  and  O_16
REMARK    3  A    between atoms: C_18  and  N_19
REMARK                            x       y       z     vdW  Elec       q    Type
REMARK                         _______ _______ _______ _____ _____    ______ ____
ROOT
ATOM      1  O   UNL     1      36.162 -22.359 -16.799  0.00  0.00    -0.454 OA
ATOM      2  O   UNL     1      32.305 -22.906 -18.049  0.00  0.00    -0.286 OA
ATOM      3  C   UNL     1      35.718 -23.480 -14.776  0.00  0.00    +0.025 C 
ATOM      4  C   UNL     1      35.252 -23.018 -16.008  0.00  0.00    +0.145 A 
ATOM      5  C   UNL     1      34.854 -24.159 -13.914  0.00  0.00    +0.136 C 
ATOM      6  C   UNL     1      33.924 -23.238 -16.372  0.00  0.00    +0.073 A 
ATOM      7  C   UNL     1      33.527 -24.377 -14.283  0.00  0.00    +0.037 C 
ATOM      8  C   UNL     1      33.056 -23.917 -15.512  0.00  0.00    +0.009 C 
ATOM      9  C   UNL     1      33.456 -22.741 -17.675  0.00  0.00    +0.201 A 
ATOM     10  C   UNL     1      34.446 -22.038 -18.506  0.00  0.00    +0.074 A 
ATOM     11  C   UNL     1      35.744 -21.888 -18.019  0.00  0.00    +0.148 A 
ATOM     12  C   UNL     1      34.095 -21.530 -19.759  0.00  0.00    +0.006 C 
ATOM     13  C   UNL     1      36.699 -21.224 -18.792  0.00  0.00    +0.038 C 
ATOM     14  C   UNL     1      35.053 -20.868 -20.526  0.00  0.00    +0.000 C 
ATOM     15  C   UNL     1      36.354 -20.715 -20.043  0.00  0.00    +0.003 C 
ENDROOT
BRANCH   5  16
ATOM     16  O   UNL     1      35.292 -24.618 -12.708  0.00  0.00    -0.472 OA
ATOM     17  C   UNL     1      35.297 -23.689 -11.626  0.00  0.00    +0.252 C 
ENDBRANCH   5  16
BRANCH   3  18
ATOM     18  C   UNL     1      37.139 -23.253 -14.369  0.00  0.00    -0.044 C 
BRANCH  18  19
ATOM     19  N   UNL     1      37.992 -24.438 -14.458  0.00  0.00    +0.390 N 
ATOM     20  C   UNL     1      39.079 -24.217 -15.423  0.00  0.00    -0.077 C 
ATOM     21  C   UNL     1      38.522 -24.792 -13.134  0.00  0.00    -0.077 C 
ATOM     22  C   UNL     1      39.953 -25.464 -15.565  0.00  0.00    -0.023 C 
ATOM     23  C   UNL     1      39.377 -26.057 -13.201  0.00  0.00    -0.023 C 
ATOM     24  C   UNL     1      40.504 -25.911 -14.216  0.00  0.00    -0.004 C 
ATOM     25  H   UNL     1      37.431 -25.221 -14.792  0.00  0.00    -0.079 HD
ENDBRANCH  18  19
ENDBRANCH   3  18
TORSDOF 3
ENDMDL
MODEL 9
REMARK VINA RESULT:      -9.0     10.946     15.309
REMARK  Name = 65687
REMARK  3 active torsions:
REMARK  status: ('A' for Active; 'I' for Inactive)
REMARK    1  A    between atoms: C_3  and  C_18
REMARK    2  A    between atoms: C_5  and  O_16
REMARK    3  A    between atoms: C_18  and  N_19
REMARK                            x       y       z     vdW  Elec       q    Type
REMARK                         _______ _______ _______ _____ _____    ______ ____
ROOT
ATOM      1  O   UNL     1      32.615 -10.577 -22.432  0.00  0.00    -0.454 OA
ATOM      2  O   UNL     1      34.714  -7.296 -23.688  0.00  0.00    -0.286 OA
ATOM      3  C   UNL     1      33.393 -11.837 -24.263  0.00  0.00    +0.025 C 
ATOM      4  C   UNL     1      33.379 -10.624 -23.573  0.00  0.00    +0.145 A 
ATOM      5  C   UNL     1      34.146 -11.966 -25.432  0.00  0.00    +0.136 C 
ATOM      6  C   UNL     1      34.118  -9.544 -24.058  0.00  0.00    +0.073 A 
ATOM      7  C   UNL     1      34.883 -10.883 -25.912  0.00  0.00    +0.037 C 
ATOM      8  C   UNL     1      34.871  -9.668 -25.228  0.00  0.00    +0.009 C 
ATOM      9  C   UNL     1      34.086  -8.275 -23.314  0.00  0.00    +0.201 A 
ATOM     10  C   UNL     1      33.262  -8.246 -22.095  0.00  0.00    +0.074 A 
ATOM     11  C   UNL     1      32.574  -9.401 -21.724  0.00  0.00    +0.148 A 
ATOM     12  C   UNL     1      33.170  -7.086 -21.323  0.00  0.00    +0.006 C 
ATOM     13  C   UNL     1      31.786  -9.395 -20.571  0.00  0.00    +0.038 C 
ATOM     14  C   UNL     1      32.382  -7.086 -20.173  0.00  0.00    +0.000 C 
ATOM     15  C   UNL     1      31.691  -8.239 -19.796  0.00  0.00    +0.003 C 
ENDROOT
BRANCH   5  16
ATOM     16  O   UNL     1      34.172 -13.143 -26.119  0.00  0.00    -0.472 OA
ATOM     17  C   UNL     1      33.367 -13.226 -27.292  0.00  0.00    +0.252 C 
ENDBRANCH   5  16
BRANCH   3  18
ATOM     18  C   UNL     1      32.608 -13.006 -23.759  0.00  0.00    -0.044 C 
BRANCH  18  19
ATOM     19  N   UNL     1      33.276 -13.779 -22.711  0.00  0.00    +0.390 N 
ATOM     20  C   UNL     1      32.337 -14.087 -21.623  0.00  0.00    -0.077 C 
ATOM     21  C   UNL     1      33.860 -15.005 -23.270  0.00  0.00    -0.077 C 
ATOM     22  C   UNL     1      33.030 -14.853 -20.496  0.00  0.00    -0.023 C 
ATOM     23  C   UNL     1      34.604 -15.802 -22.198  0.00  0.00    -0.023 C 
ATOM     24  C   UNL     1      33.696 -16.122 -21.016  0.00  0.00    -0.004 C 
ATOM     25  H   UNL     1      34.033 -13.218 -22.322  0.00  0.00    -0.079 HD
ENDBRANCH  18  19
ENDBRANCH   3  18
TORSDOF 3
ENDMDL
