MODEL 1
REMARK VINA RESULT:      -5.1      0.000      0.000
REMARK  Name = 957
REMARK  7 active torsions:
REMARK  status: ('A' for Active; 'I' for Inactive)
REMARK    1  A    between atoms: C_1  and  C_2
REMARK    2  A    between atoms: C_1  and  C_6
REMARK    3  A    between atoms: C_2  and  C_3
REMARK    4  A    between atoms: C_3  and  C_4
REMARK    5  A    between atoms: C_6  and  C_7
REMARK    6  A    between atoms: C_7  and  C_8
REMARK    7  A    between atoms: C_8  and  O_9
REMARK                            x       y       z     vdW  Elec       q    Type
REMARK                         _______ _______ _______ _____ _____    ______ ____
ROOT
ATOM      1  C   UNL     1      35.434 -18.131 -22.651  0.00  0.00    +0.000 C 
ENDROOT
BRANCH   1   2
ATOM      2  C   UNL     1      34.844 -18.477 -21.281  0.00  0.00    +0.000 C 
BRANCH   2   3
ATOM      3  C   UNL     1      35.213 -19.880 -20.795  0.00  0.00    +0.000 C 
BRANCH   3   4
ATOM      4  C   UNL     1      34.007 -20.584 -20.172  0.00  0.00    +0.000 C 
ATOM      5  C   UNL     1      32.700 -19.941 -20.607  0.00  0.00    +0.000 C 
ENDBRANCH   3   4
ENDBRANCH   2   3
ENDBRANCH   1   2
BRANCH   1   6
ATOM      6  C   UNL     1      35.017 -19.104 -23.757  0.00  0.00    +0.003 C 
BRANCH   6   7
ATOM      7  C   UNL     1      34.415 -18.361 -24.949  0.00  0.00    +0.032 C 
BRANCH   7   8
ATOM      8  C   UNL     1      34.750 -16.876 -24.912  0.00  0.00    +0.137 C 
BRANCH   8   9
ATOM      9  O   UNL     1      34.132 -16.239 -26.021  0.00  0.00    -0.382 OA
ATOM     10  H   UNL     1      34.440 -16.652 -26.844  0.00  0.00    +0.210 HD
ENDBRANCH   8   9
ENDBRANCH   7   8
ENDBRANCH   6   7
ENDBRANCH   1   6
TORSDOF 7
ENDMDL
MODEL 2
REMARK VINA RESULT:      -5.0      3.448      5.496
REMARK  Name = 957
REMARK  7 active torsions:
REMARK  status: ('A' for Active; 'I' for Inactive)
REMARK    1  A    between atoms: C_1  and  C_2
REMARK    2  A    between atoms: C_1  and  C_6
REMARK    3  A    between atoms: C_2  and  C_3
REMARK    4  A    between atoms: C_3  and  C_4
REMARK    5  A    between atoms: C_6  and  C_7
REMARK    6  A    between atoms: C_7  and  C_8
REMARK    7  A    between atoms: C_8  and  O_9
REMARK                            x       y       z     vdW  Elec       q    Type
REMARK                         _______ _______ _______ _____ _____    ______ ____
ROOT
ATOM      1  C   UNL     1      33.578 -19.249 -21.001  0.00  0.00    +0.000 C 
ENDROOT
BRANCH   1   2
ATOM      2  C   UNL     1      35.101 -19.135 -21.116  0.00  0.00    +0.000 C 
BRANCH   2   3
ATOM      3  C   UNL     1      35.568 -18.526 -22.439  0.00  0.00    +0.000 C 
BRANCH   3   4
ATOM      4  C   UNL     1      34.832 -19.149 -23.625  0.00  0.00    +0.000 C 
ATOM      5  C   UNL     1      34.602 -18.134 -24.734  0.00  0.00    +0.000 C 
ENDBRANCH   3   4
ENDBRANCH   2   3
ENDBRANCH   1   2
BRANCH   1   6
ATOM      6  C   UNL     1      33.113 -20.536 -20.316  0.00  0.00    +0.003 C 
BRANCH   6   7
ATOM      7  C   UNL     1      34.291 -21.291 -19.701  0.00  0.00    +0.032 C 
BRANCH   7   8
ATOM      8  C   UNL     1      33.822 -22.417 -18.790  0.00  0.00    +0.137 C 
BRANCH   8   9
ATOM      9  O   UNL     1      33.985 -23.655 -19.469  0.00  0.00    -0.382 OA
ATOM     10  H   UNL     1      34.549 -23.524 -20.249  0.00  0.00    +0.210 HD
ENDBRANCH   8   9
ENDBRANCH   7   8
ENDBRANCH   6   7
ENDBRANCH   1   6
TORSDOF 7
ENDMDL
MODEL 3
REMARK VINA RESULT:      -5.0      1.027      1.658
REMARK  Name = 957
REMARK  7 active torsions:
REMARK  status: ('A' for Active; 'I' for Inactive)
REMARK    1  A    between atoms: C_1  and  C_2
REMARK    2  A    between atoms: C_1  and  C_6
REMARK    3  A    between atoms: C_2  and  C_3
REMARK    4  A    between atoms: C_3  and  C_4
REMARK    5  A    between atoms: C_6  and  C_7
REMARK    6  A    between atoms: C_7  and  C_8
REMARK    7  A    between atoms: C_8  and  O_9
REMARK                            x       y       z     vdW  Elec       q    Type
REMARK                         _______ _______ _______ _____ _____    ______ ____
ROOT
ATOM      1  C   UNL     1      34.560 -19.329 -22.451  0.00  0.00    +0.000 C 
ENDROOT
BRANCH   1   2
ATOM      2  C   UNL     1      34.320 -19.440 -20.943  0.00  0.00    +0.000 C 
BRANCH   2   3
ATOM      3  C   UNL     1      33.042 -20.200 -20.583  0.00  0.00    +0.000 C 
BRANCH   3   4
ATOM      4  C   UNL     1      33.314 -21.265 -19.520  0.00  0.00    +0.000 C 
ATOM      5  C   UNL     1      34.788 -21.632 -19.463  0.00  0.00    +0.000 C 
ENDBRANCH   3   4
ENDBRANCH   2   3
ENDBRANCH   1   2
BRANCH   1   6
ATOM      6  C   UNL     1      35.634 -18.305 -22.823  0.00  0.00    +0.003 C 
BRANCH   6   7
ATOM      7  C   UNL     1      35.045 -17.159 -23.644  0.00  0.00    +0.032 C 
BRANCH   7   8
ATOM      8  C   UNL     1      34.516 -17.644 -24.987  0.00  0.00    +0.137 C 
BRANCH   8   9
ATOM      9  O   UNL     1      34.601 -16.580 -25.925  0.00  0.00    -0.382 OA
ATOM     10  H   UNL     1      33.783 -16.059 -25.898  0.00  0.00    +0.210 HD
ENDBRANCH   8   9
ENDBRANCH   7   8
ENDBRANCH   6   7
ENDBRANCH   1   6
TORSDOF 7
ENDMDL
MODEL 4
REMARK VINA RESULT:      -4.9      1.656      2.468
REMARK  Name = 957
REMARK  7 active torsions:
REMARK  status: ('A' for Active; 'I' for Inactive)
REMARK    1  A    between atoms: C_1  and  C_2
REMARK    2  A    between atoms: C_1  and  C_6
REMARK    3  A    between atoms: C_2  and  C_3
REMARK    4  A    between atoms: C_3  and  C_4
REMARK    5  A    between atoms: C_6  and  C_7
REMARK    6  A    between atoms: C_7  and  C_8
REMARK    7  A    between atoms: C_8  and  O_9
REMARK                            x       y       z     vdW  Elec       q    Type
REMARK                         _______ _______ _______ _____ _____    ______ ____
ROOT
ATOM      1  C   UNL     1      34.417 -19.087 -21.222  0.00  0.00    +0.000 C 
ENDROOT
BRANCH   1   2
ATOM      2  C   UNL     1      33.495 -20.074 -20.500  0.00  0.00    +0.000 C 
BRANCH   2   3
ATOM      3  C   UNL     1      34.245 -21.214 -19.809  0.00  0.00    +0.000 C 
BRANCH   3   4
ATOM      4  C   UNL     1      35.754 -20.969 -19.820  0.00  0.00    +0.000 C 
ATOM      5  C   UNL     1      36.425 -21.571 -18.595  0.00  0.00    +0.000 C 
ENDBRANCH   3   4
ENDBRANCH   2   3
ENDBRANCH   1   2
BRANCH   1   6
ATOM      6  C   UNL     1      34.587 -19.392 -22.712  0.00  0.00    +0.003 C 
BRANCH   6   7
ATOM      7  C   UNL     1      35.423 -18.316 -23.405  0.00  0.00    +0.032 C 
BRANCH   7   8
ATOM      8  C   UNL     1      35.357 -16.990 -22.661  0.00  0.00    +0.137 C 
BRANCH   8   9
ATOM      9  O   UNL     1      35.560 -15.933 -23.589  0.00  0.00    -0.382 OA
ATOM     10  H   UNL     1      35.337 -15.086 -23.169  0.00  0.00    +0.210 HD
ENDBRANCH   8   9
ENDBRANCH   7   8
ENDBRANCH   6   7
ENDBRANCH   1   6
TORSDOF 7
ENDMDL
MODEL 5
REMARK VINA RESULT:      -4.8      3.987      6.045
REMARK  Name = 957
REMARK  7 active torsions:
REMARK  status: ('A' for Active; 'I' for Inactive)
REMARK    1  A    between atoms: C_1  and  C_2
REMARK    2  A    between atoms: C_1  and  C_6
REMARK    3  A    between atoms: C_2  and  C_3
REMARK    4  A    between atoms: C_3  and  C_4
REMARK    5  A    between atoms: C_6  and  C_7
REMARK    6  A    between atoms: C_7  and  C_8
REMARK    7  A    between atoms: C_8  and  O_9
REMARK                            x       y       z     vdW  Elec       q    Type
REMARK                         _______ _______ _______ _____ _____    ______ ____
ROOT
ATOM      1  C   UNL     1      34.040 -21.021 -19.878  0.00  0.00    +0.000 C 
ENDROOT
BRANCH   1   2
ATOM      2  C   UNL     1      34.891 -20.001 -20.640  0.00  0.00    +0.000 C 
BRANCH   2   3
ATOM      3  C   UNL     1      34.182 -19.407 -21.859  0.00  0.00    +0.000 C 
BRANCH   3   4
ATOM      4  C   UNL     1      35.189 -18.852 -22.867  0.00  0.00    +0.000 C 
ATOM      5  C   UNL     1      34.701 -19.031 -24.297  0.00  0.00    +0.000 C 
ENDBRANCH   3   4
ENDBRANCH   2   3
ENDBRANCH   1   2
BRANCH   1   6
ATOM      6  C   UNL     1      34.868 -21.994 -19.034  0.00  0.00    +0.003 C 
BRANCH   6   7
ATOM      7  C   UNL     1      36.323 -21.537 -18.932  0.00  0.00    +0.032 C 
BRANCH   7   8
ATOM      8  C   UNL     1      36.915 -21.849 -17.565  0.00  0.00    +0.137 C 
BRANCH   8   9
ATOM      9  O   UNL     1      37.353 -20.637 -16.967  0.00  0.00    -0.382 OA
ATOM     10  H   UNL     1      37.988 -20.197 -17.555  0.00  0.00    +0.210 HD
ENDBRANCH   8   9
ENDBRANCH   7   8
ENDBRANCH   6   7
ENDBRANCH   1   6
TORSDOF 7
ENDMDL
MODEL 6
REMARK VINA RESULT:      -4.8      3.596      5.468
REMARK  Name = 957
REMARK  7 active torsions:
REMARK  status: ('A' for Active; 'I' for Inactive)
REMARK    1  A    between atoms: C_1  and  C_2
REMARK    2  A    between atoms: C_1  and  C_6
REMARK    3  A    between atoms: C_2  and  C_3
REMARK    4  A    between atoms: C_3  and  C_4
REMARK    5  A    between atoms: C_6  and  C_7
REMARK    6  A    between atoms: C_7  and  C_8
REMARK    7  A    between atoms: C_8  and  O_9
REMARK                            x       y       z     vdW  Elec       q    Type
REMARK                         _______ _______ _______ _____ _____    ______ ____
ROOT
ATOM      1  C   UNL     1      34.462 -19.884 -20.883  0.00  0.00    +0.000 C 
ENDROOT
BRANCH   1   2
ATOM      2  C   UNL     1      34.452 -19.231 -22.268  0.00  0.00    +0.000 C 
BRANCH   2   3
ATOM      3  C   UNL     1      35.622 -18.273 -22.498  0.00  0.00    +0.000 C 
BRANCH   3   4
ATOM      4  C   UNL     1      35.140 -16.825 -22.597  0.00  0.00    +0.000 C 
ATOM      5  C   UNL     1      34.785 -16.262 -21.230  0.00  0.00    +0.000 C 
ENDBRANCH   3   4
ENDBRANCH   2   3
ENDBRANCH   1   2
BRANCH   1   6
ATOM      6  C   UNL     1      33.080 -20.351 -20.419  0.00  0.00    +0.003 C 
BRANCH   6   7
ATOM      7  C   UNL     1      33.192 -21.377 -19.292  0.00  0.00    +0.032 C 
BRANCH   7   8
ATOM      8  C   UNL     1      34.432 -22.246 -19.446  0.00  0.00    +0.137 C 
BRANCH   8   9
ATOM      9  O   UNL     1      34.034 -23.610 -19.479  0.00  0.00    -0.382 OA
ATOM     10  H   UNL     1      34.695 -24.151 -19.017  0.00  0.00    +0.210 HD
ENDBRANCH   8   9
ENDBRANCH   7   8
ENDBRANCH   6   7
ENDBRANCH   1   6
TORSDOF 7
ENDMDL
MODEL 7
REMARK VINA RESULT:      -4.7      1.631      2.569
REMARK  Name = 957
REMARK  7 active torsions:
REMARK  status: ('A' for Active; 'I' for Inactive)
REMARK    1  A    between atoms: C_1  and  C_2
REMARK    2  A    between atoms: C_1  and  C_6
REMARK    3  A    between atoms: C_2  and  C_3
REMARK    4  A    between atoms: C_3  and  C_4
REMARK    5  A    between atoms: C_6  and  C_7
REMARK    6  A    between atoms: C_7  and  C_8
REMARK    7  A    between atoms: C_8  and  O_9
REMARK                            x       y       z     vdW  Elec       q    Type
REMARK                         _______ _______ _______ _____ _____    ______ ____
ROOT
ATOM      1  C   UNL     1      34.561 -19.357 -22.556  0.00  0.00    +0.000 C 
ENDROOT
BRANCH   1   2
ATOM      2  C   UNL     1      34.515 -18.665 -21.191  0.00  0.00    +0.000 C 
BRANCH   2   3
ATOM      3  C   UNL     1      35.065 -17.238 -21.213  0.00  0.00    +0.000 C 
BRANCH   3   4
ATOM      4  C   UNL     1      33.934 -16.208 -21.196  0.00  0.00    +0.000 C 
ATOM      5  C   UNL     1      34.413 -14.863 -20.674  0.00  0.00    +0.000 C 
ENDBRANCH   3   4
ENDBRANCH   2   3
ENDBRANCH   1   2
BRANCH   1   6
ATOM      6  C   UNL     1      35.393 -18.601 -23.594  0.00  0.00    +0.003 C 
BRANCH   6   7
ATOM      7  C   UNL     1      34.547 -18.223 -24.810  0.00  0.00    +0.032 C 
BRANCH   7   8
ATOM      8  C   UNL     1      34.611 -16.729 -25.095  0.00  0.00    +0.137 C 
BRANCH   8   9
ATOM      9  O   UNL     1      33.579 -16.392 -26.013  0.00  0.00    -0.382 OA
ATOM     10  H   UNL     1      33.499 -15.426 -26.070  0.00  0.00    +0.210 HD
ENDBRANCH   8   9
ENDBRANCH   7   8
ENDBRANCH   6   7
ENDBRANCH   1   6
TORSDOF 7
ENDMDL
MODEL 8
REMARK VINA RESULT:      -4.7      2.028      2.383
REMARK  Name = 957
REMARK  7 active torsions:
REMARK  status: ('A' for Active; 'I' for Inactive)
REMARK    1  A    between atoms: C_1  and  C_2
REMARK    2  A    between atoms: C_1  and  C_6
REMARK    3  A    between atoms: C_2  and  C_3
REMARK    4  A    between atoms: C_3  and  C_4
REMARK    5  A    between atoms: C_6  and  C_7
REMARK    6  A    between atoms: C_7  and  C_8
REMARK    7  A    between atoms: C_8  and  O_9
REMARK                            x       y       z     vdW  Elec       q    Type
REMARK                         _______ _______ _______ _____ _____    ______ ____
ROOT
ATOM      1  C   UNL     1      34.827 -18.010 -23.743  0.00  0.00    +0.000 C 
ENDROOT
BRANCH   1   2
ATOM      2  C   UNL     1      34.880 -19.289 -22.902  0.00  0.00    +0.000 C 
BRANCH   2   3
ATOM      3  C   UNL     1      35.063 -19.027 -21.406  0.00  0.00    +0.000 C 
BRANCH   3   4
ATOM      4  C   UNL     1      34.350 -20.088 -20.568  0.00  0.00    +0.000 C 
ATOM      5  C   UNL     1      32.839 -19.955 -20.668  0.00  0.00    +0.000 C 
ENDBRANCH   3   4
ENDBRANCH   2   3
ENDBRANCH   1   2
BRANCH   1   6
ATOM      6  C   UNL     1      35.113 -16.740 -22.938  0.00  0.00    +0.003 C 
BRANCH   6   7
ATOM      7  C   UNL     1      34.515 -15.508 -23.617  0.00  0.00    +0.032 C 
BRANCH   7   8
ATOM      8  C   UNL     1      34.319 -14.364 -22.633  0.00  0.00    +0.137 C 
BRANCH   8   9
ATOM      9  O   UNL     1      34.232 -13.144 -23.358  0.00  0.00    -0.382 OA
ATOM     10  H   UNL     1      34.409 -13.314 -24.297  0.00  0.00    +0.210 HD
ENDBRANCH   8   9
ENDBRANCH   7   8
ENDBRANCH   6   7
ENDBRANCH   1   6
TORSDOF 7
ENDMDL
MODEL 9
REMARK VINA RESULT:      -4.7      3.482      4.852
REMARK  Name = 957
REMARK  7 active torsions:
REMARK  status: ('A' for Active; 'I' for Inactive)
REMARK    1  A    between atoms: C_1  and  C_2
REMARK    2  A    between atoms: C_1  and  C_6
REMARK    3  A    between atoms: C_2  and  C_3
REMARK    4  A    between atoms: C_3  and  C_4
REMARK    5  A    between atoms: C_6  and  C_7
REMARK    6  A    between atoms: C_7  and  C_8
REMARK    7  A    between atoms: C_8  and  O_9
REMARK                            x       y       z     vdW  Elec       q    Type
REMARK                         _______ _______ _______ _____ _____    ______ ____
ROOT
ATOM      1  C   UNL     1      35.053 -17.783 -21.418  0.00  0.00    +0.000 C 
ENDROOT
BRANCH   1   2
ATOM      2  C   UNL     1      34.961 -16.771 -22.564  0.00  0.00    +0.000 C 
BRANCH   2   3
ATOM      3  C   UNL     1      34.637 -15.351 -22.097  0.00  0.00    +0.000 C 
BRANCH   3   4
ATOM      4  C   UNL     1      34.296 -15.323 -20.607  0.00  0.00    +0.000 C 
ATOM      5  C   UNL     1      32.824 -15.016 -20.378  0.00  0.00    +0.000 C 
ENDBRANCH   3   4
ENDBRANCH   2   3
ENDBRANCH   1   2
BRANCH   1   6
ATOM      6  C   UNL     1      34.633 -19.199 -21.821  0.00  0.00    +0.003 C 
BRANCH   6   7
ATOM      7  C   UNL     1      34.444 -20.090 -20.594  0.00  0.00    +0.032 C 
BRANCH   7   8
ATOM      8  C   UNL     1      32.971 -20.353 -20.314  0.00  0.00    +0.137 C 
BRANCH   8   9
ATOM      9  O   UNL     1      32.807 -21.722 -19.970  0.00  0.00    -0.382 OA
ATOM     10  H   UNL     1      32.897 -22.269 -20.767  0.00  0.00    +0.210 HD
ENDBRANCH   8   9
ENDBRANCH   7   8
ENDBRANCH   6   7
ENDBRANCH   1   6
TORSDOF 7
ENDMDL
