MODEL 1
REMARK VINA RESULT:      -7.9      0.000      0.000
REMARK  Name = 44141939
REMARK  3 active torsions:
REMARK  status: ('A' for Active; 'I' for Inactive)
REMARK    1  A    between atoms: N_2  and  C_11
REMARK    2  A    between atoms: C_3  and  C_18
REMARK    3  A    between atoms: C_18  and  N_19
REMARK                            x       y       z     vdW  Elec       q    Type
REMARK                         _______ _______ _______ _____ _____    ______ ____
ROOT
ATOM      1  O   UNL     1      35.264 -20.551 -19.674  0.00  0.00    -0.355 OA
ATOM      2  N   UNL     1      34.918 -18.666 -21.729  0.00  0.00    -0.302 N 
ATOM      3  C   UNL     1      34.047 -20.555 -20.428  0.00  0.00    +0.113 C 
ATOM      4  C   UNL     1      33.760 -19.151 -20.967  0.00  0.00    +0.118 C 
ATOM      5  C   UNL     1      36.212 -18.790 -21.044  0.00  0.00    +0.123 C 
ATOM      6  C   UNL     1      36.373 -20.205 -20.502  0.00  0.00    +0.163 C 
ENDROOT
BRANCH   2  11
ATOM      7 BR   UNL     1      34.829 -19.633 -24.742  0.00  0.00    -0.046 Br
ATOM      8  N   UNL     1      34.423 -14.138 -22.556  0.00  0.00    -0.220 N 
ATOM      9  N   UNL     1      34.436 -15.506 -24.551  0.00  0.00    -0.227 NA
ATOM     10  N   UNL     1      34.517 -14.258 -21.220  0.00  0.00    -0.178 NA
ATOM     11  C   UNL     1      34.760 -17.634 -22.658  0.00  0.00    +0.060 C 
ATOM     12  C   UNL     1      34.654 -16.299 -22.244  0.00  0.00    +0.067 C 
ATOM     13  C   UNL     1      34.702 -17.883 -24.028  0.00  0.00    +0.067 C 
ATOM     14  C   UNL     1      34.500 -15.326 -23.220  0.00  0.00    +0.150 C 
ATOM     15  C   UNL     1      34.657 -15.575 -21.035  0.00  0.00    +0.122 C 
ATOM     16  C   UNL     1      34.543 -16.812 -24.901  0.00  0.00    +0.108 C 
ATOM     17  H   UNL     1      34.310 -13.273 -23.013  0.00  0.00    +0.176 HD
ENDBRANCH   2  11
BRANCH   3  18
ATOM     18  C   UNL     1      32.929 -21.028 -19.508  0.00  0.00    -0.054 C 
BRANCH  18  19
ATOM     19  N   UNL     1      33.106 -22.428 -19.148  0.00  0.00    +0.382 N 
ATOM     20  H   UNL     1      32.757 -22.582 -18.201  0.00  0.00    -0.089 HD
ATOM     21  H   UNL     1      34.096 -22.668 -19.188  0.00  0.00    -0.089 HD
ATOM     22  H   UNL     1      32.587 -23.015 -19.800  0.00  0.00    -0.089 HD
ENDBRANCH  18  19
ENDBRANCH   3  18
TORSDOF 3
ENDMDL
MODEL 2
REMARK VINA RESULT:      -7.7      3.853      6.658
REMARK  Name = 44141939
REMARK  3 active torsions:
REMARK  status: ('A' for Active; 'I' for Inactive)
REMARK    1  A    between atoms: N_2  and  C_11
REMARK    2  A    between atoms: C_3  and  C_18
REMARK    3  A    between atoms: C_18  and  N_19
REMARK                            x       y       z     vdW  Elec       q    Type
REMARK                         _______ _______ _______ _____ _____    ______ ____
ROOT
ATOM      1  O   UNL     1      32.430 -11.261 -22.495  0.00  0.00    -0.355 OA
ATOM      2  N   UNL     1      33.314 -13.815 -23.264  0.00  0.00    -0.302 N 
ATOM      3  C   UNL     1      33.145 -11.411 -23.726  0.00  0.00    +0.113 C 
ATOM      4  C   UNL     1      34.080 -12.622 -23.645  0.00  0.00    +0.118 C 
ATOM      5  C   UNL     1      32.445 -13.652 -22.091  0.00  0.00    +0.123 C 
ATOM      6  C   UNL     1      31.599 -12.395 -22.250  0.00  0.00    +0.163 C 
ENDROOT
BRANCH   2  11
ATOM      7 BR   UNL     1      33.030 -14.715 -26.286  0.00  0.00    -0.046 Br
ATOM      8  N   UNL     1      35.393 -17.649 -21.708  0.00  0.00    -0.220 N 
ATOM      9  N   UNL     1      34.876 -17.700 -24.071  0.00  0.00    -0.227 NA
ATOM     10  N   UNL     1      35.271 -16.838 -20.642  0.00  0.00    -0.178 NA
ATOM     11  C   UNL     1      33.825 -15.088 -23.534  0.00  0.00    +0.060 C 
ATOM     12  C   UNL     1      34.404 -15.863 -22.520  0.00  0.00    +0.067 C 
ATOM     13  C   UNL     1      33.781 -15.641 -24.813  0.00  0.00    +0.067 C 
ATOM     14  C   UNL     1      34.891 -17.117 -22.859  0.00  0.00    +0.150 C 
ATOM     15  C   UNL     1      34.670 -15.754 -21.141  0.00  0.00    +0.122 C 
ATOM     16  C   UNL     1      34.307 -16.912 -25.016  0.00  0.00    +0.108 C 
ATOM     17  H   UNL     1      35.805 -18.542 -21.663  0.00  0.00    +0.176 HD
ENDBRANCH   2  11
BRANCH   3  18
ATOM     18  C   UNL     1      33.929 -10.129 -23.970  0.00  0.00    -0.054 C 
BRANCH  18  19
ATOM     19  N   UNL     1      35.206 -10.412 -24.612  0.00  0.00    +0.382 N 
ATOM     20  H   UNL     1      35.106 -11.221 -25.227  0.00  0.00    -0.089 HD
ATOM     21  H   UNL     1      35.909 -10.611 -23.901  0.00  0.00    -0.089 HD
ATOM     22  H   UNL     1      35.497  -9.603 -25.161  0.00  0.00    -0.089 HD
ENDBRANCH  18  19
ENDBRANCH   3  18
TORSDOF 3
ENDMDL
MODEL 3
REMARK VINA RESULT:      -7.4      4.076      6.550
REMARK  Name = 44141939
REMARK  3 active torsions:
REMARK  status: ('A' for Active; 'I' for Inactive)
REMARK    1  A    between atoms: N_2  and  C_11
REMARK    2  A    between atoms: C_3  and  C_18
REMARK    3  A    between atoms: C_18  and  N_19
REMARK                            x       y       z     vdW  Elec       q    Type
REMARK                         _______ _______ _______ _____ _____    ______ ____
ROOT
ATOM      1  O   UNL     1      32.502 -10.598 -23.470  0.00  0.00    -0.355 OA
ATOM      2  N   UNL     1      33.434 -13.247 -23.367  0.00  0.00    -0.302 N 
ATOM      3  C   UNL     1      32.173 -11.410 -22.338  0.00  0.00    +0.113 C 
ATOM      4  C   UNL     1      32.155 -12.888 -22.740  0.00  0.00    +0.118 C 
ATOM      5  C   UNL     1      33.882 -12.342 -24.434  0.00  0.00    +0.123 C 
ATOM      6  C   UNL     1      33.812 -10.900 -23.948  0.00  0.00    +0.163 C 
ENDROOT
BRANCH   2  11
ATOM      7 BR   UNL     1      33.138 -14.559 -26.233  0.00  0.00    -0.046 Br
ATOM      8  N   UNL     1      35.105 -16.976 -21.190  0.00  0.00    -0.220 N 
ATOM      9  N   UNL     1      34.642 -17.332 -23.537  0.00  0.00    -0.227 NA
ATOM     10  N   UNL     1      35.035 -16.007 -20.258  0.00  0.00    -0.178 NA
ATOM     11  C   UNL     1      33.829 -14.586 -23.428  0.00  0.00    +0.060 C 
ATOM     12  C   UNL     1      34.309 -15.250 -22.291  0.00  0.00    +0.067 C 
ATOM     13  C   UNL     1      33.763 -15.317 -24.613  0.00  0.00    +0.067 C 
ATOM     14  C   UNL     1      34.683 -16.579 -22.424  0.00  0.00    +0.150 C 
ATOM     15  C   UNL     1      34.551 -14.960 -20.934  0.00  0.00    +0.122 C 
ATOM     16  C   UNL     1      34.172 -16.647 -24.608  0.00  0.00    +0.108 C 
ATOM     17  H   UNL     1      35.430 -17.885 -20.999  0.00  0.00    +0.176 HD
ENDBRANCH   2  11
BRANCH   3  18
ATOM     18  C   UNL     1      30.811 -10.965 -21.824  0.00  0.00    -0.054 C 
BRANCH  18  19
ATOM     19  N   UNL     1      30.701 -11.174 -20.386  0.00  0.00    +0.382 N 
ATOM     20  H   UNL     1      30.639 -10.271 -19.915  0.00  0.00    -0.089 HD
ATOM     21  H   UNL     1      31.523 -11.676 -20.051  0.00  0.00    -0.089 HD
ATOM     22  H   UNL     1      29.864 -11.720 -20.185  0.00  0.00    -0.089 HD
ENDBRANCH  18  19
ENDBRANCH   3  18
TORSDOF 3
ENDMDL
MODEL 4
REMARK VINA RESULT:      -7.3      6.782      8.833
REMARK  Name = 44141939
REMARK  3 active torsions:
REMARK  status: ('A' for Active; 'I' for Inactive)
REMARK    1  A    between atoms: N_2  and  C_11
REMARK    2  A    between atoms: C_3  and  C_18
REMARK    3  A    between atoms: C_18  and  N_19
REMARK                            x       y       z     vdW  Elec       q    Type
REMARK                         _______ _______ _______ _____ _____    ______ ____
ROOT
ATOM      1  O   UNL     1      37.386 -24.503 -14.031  0.00  0.00    -0.355 OA
ATOM      2  N   UNL     1      35.132 -23.777 -15.544  0.00  0.00    -0.302 N 
ATOM      3  C   UNL     1      36.896 -25.403 -15.030  0.00  0.00    +0.113 C 
ATOM      4  C   UNL     1      35.394 -25.190 -15.238  0.00  0.00    +0.118 C 
ATOM      5  C   UNL     1      35.751 -22.814 -14.624  0.00  0.00    +0.123 C 
ATOM      6  C   UNL     1      37.226 -23.147 -14.448  0.00  0.00    +0.163 C 
ENDROOT
BRANCH   2  11
ATOM      7 BR   UNL     1      32.520 -24.347 -13.848  0.00  0.00    -0.046 Br
ATOM      8  N   UNL     1      33.033 -21.981 -19.259  0.00  0.00    -0.220 N 
ATOM      9  N   UNL     1      31.514 -22.655 -17.502  0.00  0.00    -0.227 NA
ATOM     10  N   UNL     1      34.350 -21.952 -19.532  0.00  0.00    -0.178 NA
ATOM     11  C   UNL     1      33.943 -23.411 -16.181  0.00  0.00    +0.060 C 
ATOM     12  C   UNL     1      33.956 -22.843 -17.462  0.00  0.00    +0.067 C 
ATOM     13  C   UNL     1      32.700 -23.593 -15.577  0.00  0.00    +0.067 C 
ATOM     14  C   UNL     1      32.739 -22.504 -18.035  0.00  0.00    +0.150 C 
ATOM     15  C   UNL     1      34.906 -22.478 -18.435  0.00  0.00    +0.122 C 
ATOM     16  C   UNL     1      31.554 -23.207 -16.264  0.00  0.00    +0.108 C 
ATOM     17  H   UNL     1      32.345 -21.655 -19.884  0.00  0.00    +0.176 HD
ENDBRANCH   2  11
BRANCH   3  18
ATOM     18  C   UNL     1      37.188 -26.823 -14.563  0.00  0.00    -0.054 C 
BRANCH  18  19
ATOM     19  N   UNL     1      37.138 -26.915 -13.110  0.00  0.00    +0.382 N 
ATOM     20  H   UNL     1      37.836 -27.586 -12.787  0.00  0.00    -0.089 HD
ATOM     21  H   UNL     1      36.211 -27.224 -12.820  0.00  0.00    -0.089 HD
ATOM     22  H   UNL     1      37.334 -26.000 -12.704  0.00  0.00    -0.089 HD
ENDBRANCH  18  19
ENDBRANCH   3  18
TORSDOF 3
ENDMDL
MODEL 5
REMARK VINA RESULT:      -7.2      7.797     10.647
REMARK  Name = 44141939
REMARK  3 active torsions:
REMARK  status: ('A' for Active; 'I' for Inactive)
REMARK    1  A    between atoms: N_2  and  C_11
REMARK    2  A    between atoms: C_3  and  C_18
REMARK    3  A    between atoms: C_18  and  N_19
REMARK                            x       y       z     vdW  Elec       q    Type
REMARK                         _______ _______ _______ _____ _____    ______ ____
ROOT
ATOM      1  O   UNL     1      31.938  -6.063 -21.035  0.00  0.00    -0.355 OA
ATOM      2  N   UNL     1      32.326  -8.634 -22.098  0.00  0.00    -0.302 N 
ATOM      3  C   UNL     1      31.145  -6.484 -22.150  0.00  0.00    +0.113 C 
ATOM      4  C   UNL     1      31.908  -7.529 -22.970  0.00  0.00    +0.118 C 
ATOM      5  C   UNL     1      33.008  -8.231 -20.862  0.00  0.00    +0.123 C 
ATOM      6  C   UNL     1      32.195  -7.155 -20.154  0.00  0.00    +0.163 C 
ENDROOT
BRANCH   2  11
ATOM      7 BR   UNL     1      30.598 -11.038 -20.976  0.00  0.00    -0.046 Br
ATOM      8  N   UNL     1      34.919 -11.103 -25.033  0.00  0.00    -0.220 N 
ATOM      9  N   UNL     1      33.310 -12.419 -23.797  0.00  0.00    -0.227 NA
ATOM     10  N   UNL     1      35.334  -9.830 -25.159  0.00  0.00    -0.178 NA
ATOM     11  C   UNL     1      32.644  -9.877 -22.653  0.00  0.00    +0.060 C 
ATOM     12  C   UNL     1      33.651 -10.000 -23.620  0.00  0.00    +0.067 C 
ATOM     13  C   UNL     1      31.981 -11.043 -22.271  0.00  0.00    +0.067 C 
ATOM     14  C   UNL     1      33.914 -11.264 -24.126  0.00  0.00    +0.150 C 
ATOM     15  C   UNL     1      34.559  -9.163 -24.297  0.00  0.00    +0.122 C 
ATOM     16  C   UNL     1      32.345 -12.249 -22.860  0.00  0.00    +0.108 C 
ATOM     17  H   UNL     1      35.305 -11.849 -25.547  0.00  0.00    +0.176 HD
ENDBRANCH   2  11
BRANCH   3  18
ATOM     18  C   UNL     1      30.829  -5.253 -22.989  0.00  0.00    -0.054 C 
BRANCH  18  19
ATOM     19  N   UNL     1      30.424  -4.136 -22.146  0.00  0.00    +0.382 N 
ATOM     20  H   UNL     1      30.460  -3.271 -22.687  0.00  0.00    -0.089 HD
ATOM     21  H   UNL     1      31.056  -4.064 -21.349  0.00  0.00    -0.089 HD
ATOM     22  H   UNL     1      29.472  -4.289 -21.813  0.00  0.00    -0.089 HD
ENDBRANCH  18  19
ENDBRANCH   3  18
TORSDOF 3
ENDMDL
MODEL 6
REMARK VINA RESULT:      -7.2      8.112      9.727
REMARK  Name = 44141939
REMARK  3 active torsions:
REMARK  status: ('A' for Active; 'I' for Inactive)
REMARK    1  A    between atoms: N_2  and  C_11
REMARK    2  A    between atoms: C_3  and  C_18
REMARK    3  A    between atoms: C_18  and  N_19
REMARK                            x       y       z     vdW  Elec       q    Type
REMARK                         _______ _______ _______ _____ _____    ______ ____
ROOT
ATOM      1  O   UNL     1      37.537 -24.398 -14.512  0.00  0.00    -0.355 OA
ATOM      2  N   UNL     1      34.925 -23.880 -15.407  0.00  0.00    -0.302 N 
ATOM      3  C   UNL     1      36.836 -25.410 -15.241  0.00  0.00    +0.113 C 
ATOM      4  C   UNL     1      35.325 -25.246 -15.046  0.00  0.00    +0.118 C 
ATOM      5  C   UNL     1      35.726 -22.812 -14.796  0.00  0.00    +0.123 C 
ATOM      6  C   UNL     1      37.208 -23.099 -15.002  0.00  0.00    +0.163 C 
ENDROOT
BRANCH   2  11
ATOM      7 BR   UNL     1      34.506 -22.635 -18.288  0.00  0.00    -0.046 Br
ATOM      8  N   UNL     1      30.471 -23.932 -14.143  0.00  0.00    -0.220 N 
ATOM      9  N   UNL     1      30.854 -23.047 -16.361  0.00  0.00    -0.227 NA
ATOM     10  N   UNL     1      31.154 -24.439 -13.101  0.00  0.00    -0.178 NA
ATOM     11  C   UNL     1      33.592 -23.606 -15.725  0.00  0.00    +0.060 C 
ATOM     12  C   UNL     1      32.562 -23.875 -14.814  0.00  0.00    +0.067 C 
ATOM     13  C   UNL     1      33.229 -23.054 -16.953  0.00  0.00    +0.067 C 
ATOM     14  C   UNL     1      31.262 -23.577 -15.195  0.00  0.00    +0.150 C 
ATOM     15  C   UNL     1      32.425 -24.403 -13.515  0.00  0.00    +0.122 C 
ATOM     16  C   UNL     1      31.884 -22.804 -17.208  0.00  0.00    +0.108 C 
ATOM     17  H   UNL     1      29.493 -23.826 -14.146  0.00  0.00    +0.176 HD
ENDBRANCH   2  11
BRANCH   3  18
ATOM     18  C   UNL     1      37.310 -26.765 -14.733  0.00  0.00    -0.054 C 
BRANCH  18  19
ATOM     19  N   UNL     1      37.152 -26.866 -13.288  0.00  0.00    +0.382 N 
ATOM     20  H   UNL     1      37.182 -27.847 -13.010  0.00  0.00    -0.089 HD
ATOM     21  H   UNL     1      36.255 -26.463 -13.015  0.00  0.00    -0.089 HD
ATOM     22  H   UNL     1      37.907 -26.358 -12.828  0.00  0.00    -0.089 HD
ENDBRANCH  18  19
ENDBRANCH   3  18
TORSDOF 3
ENDMDL
MODEL 7
REMARK VINA RESULT:      -6.9      7.412     11.008
REMARK  Name = 44141939
REMARK  3 active torsions:
REMARK  status: ('A' for Active; 'I' for Inactive)
REMARK    1  A    between atoms: N_2  and  C_11
REMARK    2  A    between atoms: C_3  and  C_18
REMARK    3  A    between atoms: C_18  and  N_19
REMARK                            x       y       z     vdW  Elec       q    Type
REMARK                         _______ _______ _______ _____ _____    ______ ____
ROOT
ATOM      1  O   UNL     1      35.605 -22.304 -17.549  0.00  0.00    -0.355 OA
ATOM      2  N   UNL     1      36.606 -23.710 -15.331  0.00  0.00    -0.302 N 
ATOM      3  C   UNL     1      34.692 -23.002 -16.695  0.00  0.00    +0.113 C 
ATOM      4  C   UNL     1      35.401 -24.184 -16.024  0.00  0.00    +0.118 C 
ATOM      5  C   UNL     1      37.494 -22.858 -16.133  0.00  0.00    +0.123 C 
ATOM      6  C   UNL     1      36.683 -21.751 -16.795  0.00  0.00    +0.163 C 
ENDROOT
BRANCH   2  11
ATOM      7 BR   UNL     1      34.760 -24.066 -12.784  0.00  0.00    -0.046 Br
ATOM      8  N   UNL     1      40.198 -26.196 -13.797  0.00  0.00    -0.220 N 
ATOM      9  N   UNL     1      38.353 -26.068 -12.238  0.00  0.00    -0.227 NA
ATOM     10  N   UNL     1      40.547 -25.765 -15.023  0.00  0.00    -0.178 NA
ATOM     11  C   UNL     1      37.174 -24.483 -14.314  0.00  0.00    +0.060 C 
ATOM     12  C   UNL     1      38.455 -25.032 -14.455  0.00  0.00    +0.067 C 
ATOM     13  C   UNL     1      36.498 -24.739 -13.122  0.00  0.00    +0.067 C 
ATOM     14  C   UNL     1      38.957 -25.788 -13.406  0.00  0.00    +0.150 C 
ATOM     15  C   UNL     1      39.483 -25.058 -15.418  0.00  0.00    +0.122 C 
ATOM     16  C   UNL     1      37.119 -25.515 -12.149  0.00  0.00    +0.108 C 
ATOM     17  H   UNL     1      40.783 -26.754 -13.235  0.00  0.00    +0.176 HD
ENDBRANCH   2  11
BRANCH   3  18
ATOM     18  C   UNL     1      33.524 -23.477 -17.548  0.00  0.00    -0.054 C 
BRANCH  18  19
ATOM     19  N   UNL     1      33.089 -22.432 -18.466  0.00  0.00    +0.382 N 
ATOM     20  H   UNL     1      33.647 -22.475 -19.319  0.00  0.00    -0.089 HD
ATOM     21  H   UNL     1      33.210 -21.520 -18.026  0.00  0.00    -0.089 HD
ATOM     22  H   UNL     1      32.106 -22.571 -18.696  0.00  0.00    -0.089 HD
ENDBRANCH  18  19
ENDBRANCH   3  18
TORSDOF 3
ENDMDL
MODEL 8
REMARK VINA RESULT:      -6.8      2.207      3.099
REMARK  Name = 44141939
REMARK  3 active torsions:
REMARK  status: ('A' for Active; 'I' for Inactive)
REMARK    1  A    between atoms: N_2  and  C_11
REMARK    2  A    between atoms: C_3  and  C_18
REMARK    3  A    between atoms: C_18  and  N_19
REMARK                            x       y       z     vdW  Elec       q    Type
REMARK                         _______ _______ _______ _____ _____    ______ ____
ROOT
ATOM      1  O   UNL     1      35.221 -19.396 -20.557  0.00  0.00    -0.355 OA
ATOM      2  N   UNL     1      34.199 -17.219 -22.009  0.00  0.00    -0.302 N 
ATOM      3  C   UNL     1      33.921 -19.500 -21.147  0.00  0.00    +0.113 C 
ATOM      4  C   UNL     1      33.291 -18.109 -21.274  0.00  0.00    +0.118 C 
ATOM      5  C   UNL     1      35.586 -17.204 -21.526  0.00  0.00    +0.123 C 
ATOM      6  C   UNL     1      36.096 -18.632 -21.386  0.00  0.00    +0.163 C 
ENDROOT
BRANCH   2  11
ATOM      7 BR   UNL     1      32.879 -15.156 -20.002  0.00  0.00    -0.046 Br
ATOM      8  N   UNL     1      33.507 -14.783 -25.885  0.00  0.00    -0.220 N 
ATOM      9  N   UNL     1      32.682 -13.702 -23.884  0.00  0.00    -0.227 NA
ATOM     10  N   UNL     1      34.130 -15.912 -26.267  0.00  0.00    -0.178 NA
ATOM     11  C   UNL     1      33.700 -16.064 -22.619  0.00  0.00    +0.060 C 
ATOM     12  C   UNL     1      33.799 -15.879 -24.004  0.00  0.00    +0.067 C 
ATOM     13  C   UNL     1      33.086 -15.052 -21.882  0.00  0.00    +0.067 C 
ATOM     14  C   UNL     1      33.283 -14.710 -24.542  0.00  0.00    +0.150 C 
ATOM     15  C   UNL     1      34.305 -16.575 -25.119  0.00  0.00    +0.122 C 
ATOM     16  C   UNL     1      32.611 -13.927 -22.549  0.00  0.00    +0.108 C 
ATOM     17  H   UNL     1      33.237 -14.076 -26.515  0.00  0.00    +0.176 HD
ENDBRANCH   2  11
BRANCH   3  18
ATOM     18  C   UNL     1      33.077 -20.405 -20.262  0.00  0.00    -0.054 C 
BRANCH  18  19
ATOM     19  N   UNL     1      33.910 -21.369 -19.555  0.00  0.00    +0.382 N 
ATOM     20  H   UNL     1      33.323 -22.114 -19.178  0.00  0.00    -0.089 HD
ATOM     21  H   UNL     1      34.398 -20.902 -18.791  0.00  0.00    -0.089 HD
ATOM     22  H   UNL     1      34.591 -21.767 -20.200  0.00  0.00    -0.089 HD
ENDBRANCH  18  19
ENDBRANCH   3  18
TORSDOF 3
ENDMDL
MODEL 9
REMARK VINA RESULT:      -6.8      4.787      6.816
REMARK  Name = 44141939
REMARK  3 active torsions:
REMARK  status: ('A' for Active; 'I' for Inactive)
REMARK    1  A    between atoms: N_2  and  C_11
REMARK    2  A    between atoms: C_3  and  C_18
REMARK    3  A    between atoms: C_18  and  N_19
REMARK                            x       y       z     vdW  Elec       q    Type
REMARK                         _______ _______ _______ _____ _____    ______ ____
ROOT
ATOM      1  O   UNL     1      33.842 -15.395 -25.229  0.00  0.00    -0.355 OA
ATOM      2  N   UNL     1      33.328 -12.869 -24.111  0.00  0.00    -0.302 N 
ATOM      3  C   UNL     1      33.800 -15.257 -23.805  0.00  0.00    +0.113 C 
ATOM      4  C   UNL     1      34.185 -13.829 -23.405  0.00  0.00    +0.118 C 
ATOM      5  C   UNL     1      33.222 -13.075 -25.562  0.00  0.00    +0.123 C 
ATOM      6  C   UNL     1      32.889 -14.533 -25.851  0.00  0.00    +0.163 C 
ENDROOT
BRANCH   2  11
ATOM      7 BR   UNL     1      35.079 -10.703 -25.617  0.00  0.00    -0.046 Br
ATOM      8  N   UNL     1      31.338  -9.998 -21.072  0.00  0.00    -0.220 N 
ATOM      9  N   UNL     1      32.873  -8.910 -22.593  0.00  0.00    -0.227 NA
ATOM     10  N   UNL     1      30.845 -11.219 -20.800  0.00  0.00    -0.178 NA
ATOM     11  C   UNL     1      33.182 -11.569 -23.617  0.00  0.00    +0.060 C 
ATOM     12  C   UNL     1      32.322 -11.296 -22.545  0.00  0.00    +0.067 C 
ATOM     13  C   UNL     1      33.881 -10.494 -24.164  0.00  0.00    +0.067 C 
ATOM     14  C   UNL     1      32.227  -9.984 -22.106  0.00  0.00    +0.150 C 
ATOM     15  C   UNL     1      31.447 -12.005 -21.699  0.00  0.00    +0.122 C 
ATOM     16  C   UNL     1      33.692  -9.225 -23.627  0.00  0.00    +0.108 C 
ATOM     17  H   UNL     1      31.083  -9.189 -20.572  0.00  0.00    +0.176 HD
ENDBRANCH   2  11
BRANCH   3  18
ATOM     18  C   UNL     1      34.765 -16.272 -23.209  0.00  0.00    -0.054 C 
BRANCH  18  19
ATOM     19  N   UNL     1      35.394 -17.071 -24.253  0.00  0.00    +0.382 N 
ATOM     20  H   UNL     1      34.873 -16.964 -25.123  0.00  0.00    -0.089 HD
ATOM     21  H   UNL     1      35.397 -18.052 -23.976  0.00  0.00    -0.089 HD
ATOM     22  H   UNL     1      36.354 -16.753 -24.391  0.00  0.00    -0.089 HD
ENDBRANCH  18  19
ENDBRANCH   3  18
TORSDOF 3
ENDMDL
