MODEL 1
REMARK VINA RESULT:      -8.9      0.000      0.000
REMARK  Name = 46937164
REMARK  8 active torsions:
REMARK  status: ('A' for Active; 'I' for Inactive)
REMARK    1  A    between atoms: CA_1  and  C_5
REMARK    2  A    between atoms: CA_1  and  N_14
REMARK    3  A    between atoms: CA_1  and  C_24
REMARK    4  A    between atoms: CA_4  and  C_10
REMARK    5  A    between atoms: C_10  and  O_11
REMARK    6  A    between atoms: C_15  and  C_17
REMARK    7  A    between atoms: C_17  and  C_19
REMARK    8  A    between atoms: C_24  and  O_25
REMARK                            x       y       z     vdW  Elec       q    Type
REMARK                         _______ _______ _______ _____ _____    ______ ____
ROOT
ATOM      1  CA  UNL     1      34.218 -23.738 -16.125  0.00  0.00    +0.217 C 
ENDROOT
BRANCH   1   5
ATOM      2  S   UNL     1      36.776 -23.187 -15.333  0.00  0.00    -0.093 S 
ATOM      3  N   UNL     1      34.957 -24.776 -14.082  0.00  0.00    -0.253 NA
ATOM      4  CA  UNL     1      35.875 -25.129 -13.005  0.00  0.00    +0.221 C 
ATOM      5  C   UNL     1      35.250 -24.003 -15.062  0.00  0.00    +0.109 C 
ATOM      6  C   UNL     1      37.270 -24.581 -13.096  0.00  0.00    -0.000 C 
ATOM      7  C   UNL     1      37.416 -23.199 -13.647  0.00  0.00    +0.088 C 
ATOM      8  C   UNL     1      38.338 -25.306 -12.721  0.00  0.00    -0.006 C 
BRANCH   4  10
ATOM      9  OXT UNL     1      35.460 -25.057 -10.626  0.00  0.00    -0.248 OA
ATOM     10  C   UNL     1      35.262 -24.604 -11.744  0.00  0.00    +0.340 C 
BRANCH  10  11
ATOM     11  O   UNL     1      34.451 -23.551 -12.009  0.00  0.00    -0.479 OA
ATOM     12  H   UNL     1      34.562 -23.062 -12.800  0.00  0.00    +0.295 HD
ENDBRANCH  10  11
ENDBRANCH   4  10
ENDBRANCH   1   5
BRANCH   1  14
ATOM     13  O   UNL     1      33.872 -23.596 -18.978  0.00  0.00    -0.275 OA
ATOM     14  N   UNL     1      34.858 -22.824 -17.021  0.00  0.00    -0.291 N 
ATOM     15  C   UNL     1      34.631 -22.824 -18.397  0.00  0.00    +0.228 C 
ATOM     16  H   UNL     1      35.486 -22.163 -16.650  0.00  0.00    +0.150 HD
BRANCH  15  17
ATOM     17  C   UNL     1      35.432 -21.748 -19.105  0.00  0.00    +0.118 C 
BRANCH  17  19
ATOM     18  S   UNL     1      35.334 -19.739 -21.026  0.00  0.00    -0.090 S 
ATOM     19  C   UNL     1      34.583 -20.813 -19.926  0.00  0.00    +0.016 C 
ATOM     20  C   UNL     1      33.211 -20.681 -19.927  0.00  0.00    +0.003 C 
ATOM     21  C   UNL     1      32.773 -19.683 -20.845  0.00  0.00    +0.007 C 
ATOM     22  C   UNL     1      33.824 -19.092 -21.510  0.00  0.00    +0.035 C 
ENDBRANCH  17  19
ENDBRANCH  15  17
ENDBRANCH   1  14
BRANCH   1  24
ATOM     23  OXT UNL     1      31.885 -23.147 -16.243  0.00  0.00    -0.248 OA
ATOM     24  C   UNL     1      32.914 -23.222 -15.580  0.00  0.00    +0.338 C 
BRANCH  24  25
ATOM     25  O   UNL     1      32.995 -22.756 -14.310  0.00  0.00    -0.479 OA
ATOM     26  H   UNL     1      32.449 -22.044 -14.036  0.00  0.00    +0.295 HD
ENDBRANCH  24  25
ENDBRANCH   1  24
TORSDOF 8
ENDMDL
MODEL 2
REMARK VINA RESULT:      -8.6      2.441      3.878
REMARK  Name = 46937164
REMARK  8 active torsions:
REMARK  status: ('A' for Active; 'I' for Inactive)
REMARK    1  A    between atoms: CA_1  and  C_5
REMARK    2  A    between atoms: CA_1  and  N_14
REMARK    3  A    between atoms: CA_1  and  C_24
REMARK    4  A    between atoms: CA_4  and  C_10
REMARK    5  A    between atoms: C_10  and  O_11
REMARK    6  A    between atoms: C_15  and  C_17
REMARK    7  A    between atoms: C_17  and  C_19
REMARK    8  A    between atoms: C_24  and  O_25
REMARK                            x       y       z     vdW  Elec       q    Type
REMARK                         _______ _______ _______ _____ _____    ______ ____
ROOT
ATOM      1  CA  UNL     1      35.368 -22.794 -16.052  0.00  0.00    +0.217 C 
ENDROOT
BRANCH   1   5
ATOM      2  S   UNL     1      32.889 -23.048 -17.176  0.00  0.00    -0.093 S 
ATOM      3  N   UNL     1      33.523 -23.068 -14.531  0.00  0.00    -0.253 NA
ATOM      4  CA  UNL     1      32.135 -23.225 -14.109  0.00  0.00    +0.221 C 
ATOM      5  C   UNL     1      33.906 -22.981 -15.751  0.00  0.00    +0.109 C 
ATOM      6  C   UNL     1      31.094 -23.232 -15.192  0.00  0.00    -0.000 C 
ATOM      7  C   UNL     1      31.464 -23.902 -16.476  0.00  0.00    +0.088 C 
ATOM      8  C   UNL     1      29.897 -22.646 -15.022  0.00  0.00    -0.006 C 
BRANCH   4  10
ATOM      9  OXT UNL     1      31.029 -25.081 -13.029  0.00  0.00    -0.248 OA
ATOM     10  C   UNL     1      32.061 -24.541 -13.398  0.00  0.00    +0.340 C 
BRANCH  10  11
ATOM     11  O   UNL     1      33.301 -25.056 -13.216  0.00  0.00    -0.479 OA
ATOM     12  H   UNL     1      33.599 -25.268 -12.353  0.00  0.00    +0.295 HD
ENDBRANCH  10  11
ENDBRANCH   4  10
ENDBRANCH   1   5
BRANCH   1  14
ATOM     13  O   UNL     1      37.002 -20.924 -17.506  0.00  0.00    -0.275 OA
ATOM     14  N   UNL     1      35.420 -22.625 -17.473  0.00  0.00    -0.291 N 
ATOM     15  C   UNL     1      36.245 -21.690 -18.097  0.00  0.00    +0.228 C 
ATOM     16  H   UNL     1      34.848 -23.195 -18.035  0.00  0.00    +0.150 HD
BRANCH  15  17
ATOM     17  C   UNL     1      36.105 -21.728 -19.607  0.00  0.00    +0.118 C 
BRANCH  17  19
ATOM     18  S   UNL     1      35.548 -19.397 -21.018  0.00  0.00    -0.090 S 
ATOM     19  C   UNL     1      35.061 -20.779 -20.134  0.00  0.00    +0.016 C 
ATOM     20  C   UNL     1      33.691 -20.857 -20.007  0.00  0.00    +0.003 C 
ATOM     21  C   UNL     1      33.034 -19.765 -20.645  0.00  0.00    +0.007 C 
ATOM     22  C   UNL     1      33.925 -18.896 -21.235  0.00  0.00    +0.035 C 
ENDBRANCH  17  19
ENDBRANCH  15  17
ENDBRANCH   1  14
BRANCH   1  24
ATOM     23  OXT UNL     1      37.435 -23.811 -15.341  0.00  0.00    -0.248 OA
ATOM     24  C   UNL     1      36.232 -23.922 -15.556  0.00  0.00    +0.338 C 
BRANCH  24  25
ATOM     25  O   UNL     1      35.583 -25.108 -15.456  0.00  0.00    -0.479 OA
ATOM     26  H   UNL     1      35.449 -25.499 -14.614  0.00  0.00    +0.295 HD
ENDBRANCH  24  25
ENDBRANCH   1  24
TORSDOF 8
ENDMDL
MODEL 3
REMARK VINA RESULT:      -8.2      9.347     13.145
REMARK  Name = 46937164
REMARK  8 active torsions:
REMARK  status: ('A' for Active; 'I' for Inactive)
REMARK    1  A    between atoms: CA_1  and  C_5
REMARK    2  A    between atoms: CA_1  and  N_14
REMARK    3  A    between atoms: CA_1  and  C_24
REMARK    4  A    between atoms: CA_4  and  C_10
REMARK    5  A    between atoms: C_10  and  O_11
REMARK    6  A    between atoms: C_15  and  C_17
REMARK    7  A    between atoms: C_17  and  C_19
REMARK    8  A    between atoms: C_24  and  O_25
REMARK                            x       y       z     vdW  Elec       q    Type
REMARK                         _______ _______ _______ _____ _____    ______ ____
ROOT
ATOM      1  CA  UNL     1      33.852 -12.980 -24.045  0.00  0.00    +0.217 C 
ENDROOT
BRANCH   1   5
ATOM      2  S   UNL     1      33.192 -14.415 -21.814  0.00  0.00    -0.093 S 
ATOM      3  N   UNL     1      34.852 -15.159 -23.837  0.00  0.00    -0.253 NA
ATOM      4  CA  UNL     1      35.165 -16.447 -23.226  0.00  0.00    +0.221 C 
ATOM      5  C   UNL     1      34.070 -14.282 -23.324  0.00  0.00    +0.109 C 
ATOM      6  C   UNL     1      34.559 -16.723 -21.879  0.00  0.00    -0.000 C 
ATOM      7  C   UNL     1      33.174 -16.211 -21.647  0.00  0.00    +0.088 C 
ATOM      8  C   UNL     1      35.238 -17.378 -20.923  0.00  0.00    -0.006 C 
BRANCH   4  10
ATOM      9  OXT UNL     1      34.487 -18.668 -23.891  0.00  0.00    -0.248 OA
ATOM     10  C   UNL     1      34.662 -17.492 -24.173  0.00  0.00    +0.340 C 
BRANCH  10  11
ATOM     11  O   UNL     1      34.426 -16.956 -25.395  0.00  0.00    -0.479 OA
ATOM     12  H   UNL     1      34.718 -16.087 -25.590  0.00  0.00    +0.295 HD
ENDBRANCH  10  11
ENDBRANCH   4  10
ENDBRANCH   1   5
BRANCH   1  14
ATOM     13  O   UNL     1      33.637 -10.135 -23.668  0.00  0.00    -0.275 OA
ATOM     14  N   UNL     1      32.880 -12.292 -23.250  0.00  0.00    -0.291 N 
ATOM     15  C   UNL     1      32.848 -10.903 -23.122  0.00  0.00    +0.228 C 
ATOM     16  H   UNL     1      32.204 -12.823 -22.772  0.00  0.00    +0.150 HD
BRANCH  15  17
ATOM     17  C   UNL     1      31.715 -10.442 -22.227  0.00  0.00    +0.118 C 
BRANCH  17  19
ATOM     18  S   UNL     1      31.512  -7.698 -22.634  0.00  0.00    -0.090 S 
ATOM     19  C   UNL     1      31.917  -9.056 -21.674  0.00  0.00    +0.016 C 
ATOM     20  C   UNL     1      32.407  -8.689 -20.440  0.00  0.00    +0.003 C 
ATOM     21  C   UNL     1      32.450  -7.274 -20.281  0.00  0.00    +0.007 C 
ATOM     22  C   UNL     1      31.991  -6.613 -21.399  0.00  0.00    +0.035 C 
ENDBRANCH  17  19
ENDBRANCH  15  17
ENDBRANCH   1  14
BRANCH   1  24
ATOM     23  OXT UNL     1      33.610 -12.300 -26.345  0.00  0.00    -0.248 OA
ATOM     24  C   UNL     1      33.432 -13.151 -25.480  0.00  0.00    +0.338 C 
BRANCH  24  25
ATOM     25  O   UNL     1      32.748 -14.297 -25.719  0.00  0.00    -0.479 OA
ATOM     26  H   UNL     1      33.194 -15.122 -25.693  0.00  0.00    +0.295 HD
ENDBRANCH  24  25
ENDBRANCH   1  24
TORSDOF 8
ENDMDL
MODEL 4
REMARK VINA RESULT:      -8.0      2.535      4.666
REMARK  Name = 46937164
REMARK  8 active torsions:
REMARK  status: ('A' for Active; 'I' for Inactive)
REMARK    1  A    between atoms: CA_1  and  C_5
REMARK    2  A    between atoms: CA_1  and  N_14
REMARK    3  A    between atoms: CA_1  and  C_24
REMARK    4  A    between atoms: CA_4  and  C_10
REMARK    5  A    between atoms: C_10  and  O_11
REMARK    6  A    between atoms: C_15  and  C_17
REMARK    7  A    between atoms: C_17  and  C_19
REMARK    8  A    between atoms: C_24  and  O_25
REMARK                            x       y       z     vdW  Elec       q    Type
REMARK                         _______ _______ _______ _____ _____    ______ ____
ROOT
ATOM      1  CA  UNL     1      34.009 -23.113 -15.765  0.00  0.00    +0.217 C 
ENDROOT
BRANCH   1   5
ATOM      2  S   UNL     1      32.544 -24.295 -13.783  0.00  0.00    -0.093 S 
ATOM      3  N   UNL     1      31.667 -23.441 -16.212  0.00  0.00    -0.253 NA
ATOM      4  CA  UNL     1      30.296 -23.876 -15.968  0.00  0.00    +0.221 C 
ATOM      5  C   UNL     1      32.633 -23.582 -15.381  0.00  0.00    +0.109 C 
ATOM      6  C   UNL     1      30.029 -24.582 -14.669  0.00  0.00    -0.000 C 
ATOM      7  C   UNL     1      30.779 -24.094 -13.472  0.00  0.00    +0.088 C 
ATOM      8  C   UNL     1      29.175 -25.616 -14.592  0.00  0.00    -0.006 C 
BRANCH   4  10
ATOM      9  OXT UNL     1      29.131 -21.989 -15.010  0.00  0.00    -0.248 OA
ATOM     10  C   UNL     1      29.453 -22.639 -15.994  0.00  0.00    +0.340 C 
BRANCH  10  11
ATOM     11  O   UNL     1      29.091 -22.333 -17.264  0.00  0.00    -0.479 OA
ATOM     12  H   UNL     1      29.744 -22.250 -17.930  0.00  0.00    +0.295 HD
ENDBRANCH  10  11
ENDBRANCH   4  10
ENDBRANCH   1   5
BRANCH   1  14
ATOM     13  O   UNL     1      35.989 -21.916 -17.477  0.00  0.00    -0.275 OA
ATOM     14  N   UNL     1      33.971 -23.032 -17.194  0.00  0.00    -0.291 N 
ATOM     15  C   UNL     1      34.979 -22.432 -17.948  0.00  0.00    +0.228 C 
ATOM     16  H   UNL     1      33.199 -23.419 -17.666  0.00  0.00    +0.150 HD
BRANCH  15  17
ATOM     17  C   UNL     1      34.687 -22.493 -19.435  0.00  0.00    +0.118 C 
BRANCH  17  19
ATOM     18  S   UNL     1      35.438 -20.131 -20.699  0.00  0.00    -0.090 S 
ATOM     19  C   UNL     1      34.261 -21.169 -20.015  0.00  0.00    +0.016 C 
ATOM     20  C   UNL     1      32.994 -20.632 -20.084  0.00  0.00    +0.003 C 
ATOM     21  C   UNL     1      32.991 -19.351 -20.707  0.00  0.00    +0.007 C 
ATOM     22  C   UNL     1      34.254 -18.958 -21.091  0.00  0.00    +0.035 C 
ENDBRANCH  17  19
ENDBRANCH  15  17
ENDBRANCH   1  14
BRANCH   1  24
ATOM     23  OXT UNL     1      35.305 -25.141 -15.647  0.00  0.00    -0.248 OA
ATOM     24  C   UNL     1      35.111 -23.997 -15.248  0.00  0.00    +0.338 C 
BRANCH  24  25
ATOM     25  O   UNL     1      35.820 -23.454 -14.229  0.00  0.00    -0.479 OA
ATOM     26  H   UNL     1      36.566 -23.905 -13.883  0.00  0.00    +0.295 HD
ENDBRANCH  24  25
ENDBRANCH   1  24
TORSDOF 8
ENDMDL
MODEL 5
REMARK VINA RESULT:      -7.9      3.277      5.078
REMARK  Name = 46937164
REMARK  8 active torsions:
REMARK  status: ('A' for Active; 'I' for Inactive)
REMARK    1  A    between atoms: CA_1  and  C_5
REMARK    2  A    between atoms: CA_1  and  N_14
REMARK    3  A    between atoms: CA_1  and  C_24
REMARK    4  A    between atoms: CA_4  and  C_10
REMARK    5  A    between atoms: C_10  and  O_11
REMARK    6  A    between atoms: C_15  and  C_17
REMARK    7  A    between atoms: C_17  and  C_19
REMARK    8  A    between atoms: C_24  and  O_25
REMARK                            x       y       z     vdW  Elec       q    Type
REMARK                         _______ _______ _______ _____ _____    ______ ____
ROOT
ATOM      1  CA  UNL     1      34.723 -23.143 -15.241  0.00  0.00    +0.217 C 
ENDROOT
BRANCH   1   5
ATOM      2  S   UNL     1      36.427 -23.421 -13.122  0.00  0.00    -0.093 S 
ATOM      3  N   UNL     1      36.468 -24.783 -15.476  0.00  0.00    -0.253 NA
ATOM      4  CA  UNL     1      37.647 -25.561 -15.108  0.00  0.00    +0.221 C 
ATOM      5  C   UNL     1      35.922 -23.895 -14.731  0.00  0.00    +0.109 C 
ATOM      6  C   UNL     1      38.278 -25.248 -13.781  0.00  0.00    -0.000 C 
ATOM      7  C   UNL     1      37.352 -24.900 -12.661  0.00  0.00    +0.088 C 
ATOM      8  C   UNL     1      39.611 -25.259 -13.615  0.00  0.00    -0.006 C 
BRANCH   4  10
ATOM      9  OXT UNL     1      37.189 -27.698 -14.079  0.00  0.00    -0.248 OA
ATOM     10  C   UNL     1      37.210 -26.993 -15.076  0.00  0.00    +0.340 C 
BRANCH  10  11
ATOM     11  O   UNL     1      36.839 -27.406 -16.313  0.00  0.00    -0.479 OA
ATOM     12  H   UNL     1      37.384 -28.001 -16.791  0.00  0.00    +0.295 HD
ENDBRANCH  10  11
ENDBRANCH   4  10
ENDBRANCH   1   5
BRANCH   1  14
ATOM     13  O   UNL     1      33.136 -23.255 -12.842  0.00  0.00    -0.275 OA
ATOM     14  N   UNL     1      33.619 -24.018 -14.983  0.00  0.00    -0.291 N 
ATOM     15  C   UNL     1      32.902 -24.004 -13.787  0.00  0.00    +0.228 C 
ATOM     16  H   UNL     1      33.353 -24.657 -15.682  0.00  0.00    +0.150 HD
BRANCH  15  17
ATOM     17  C   UNL     1      31.783 -25.028 -13.785  0.00  0.00    +0.118 C 
BRANCH  17  19
ATOM     18  S   UNL     1      30.223 -22.938 -14.751  0.00  0.00    -0.090 S 
ATOM     19  C   UNL     1      30.583 -24.603 -14.590  0.00  0.00    +0.016 C 
ATOM     20  C   UNL     1      29.675 -25.396 -15.257  0.00  0.00    +0.003 C 
ATOM     21  C   UNL     1      28.670 -24.624 -15.909  0.00  0.00    +0.007 C 
ATOM     22  C   UNL     1      28.848 -23.272 -15.716  0.00  0.00    +0.035 C 
ENDBRANCH  17  19
ENDBRANCH  15  17
ENDBRANCH   1  14
BRANCH   1  24
ATOM     23  OXT UNL     1      33.893 -22.748 -17.469  0.00  0.00    -0.248 OA
ATOM     24  C   UNL     1      34.837 -22.739 -16.685  0.00  0.00    +0.338 C 
BRANCH  24  25
ATOM     25  O   UNL     1      36.102 -22.452 -17.077  0.00  0.00    -0.479 OA
ATOM     26  H   UNL     1      36.796 -22.436 -16.446  0.00  0.00    +0.295 HD
ENDBRANCH  24  25
ENDBRANCH   1  24
TORSDOF 8
ENDMDL
MODEL 6
REMARK VINA RESULT:      -7.8      1.869      2.155
REMARK  Name = 46937164
REMARK  8 active torsions:
REMARK  status: ('A' for Active; 'I' for Inactive)
REMARK    1  A    between atoms: CA_1  and  C_5
REMARK    2  A    between atoms: CA_1  and  N_14
REMARK    3  A    between atoms: CA_1  and  C_24
REMARK    4  A    between atoms: CA_4  and  C_10
REMARK    5  A    between atoms: C_10  and  O_11
REMARK    6  A    between atoms: C_15  and  C_17
REMARK    7  A    between atoms: C_17  and  C_19
REMARK    8  A    between atoms: C_24  and  O_25
REMARK                            x       y       z     vdW  Elec       q    Type
REMARK                         _______ _______ _______ _____ _____    ______ ____
ROOT
ATOM      1  CA  UNL     1      34.036 -23.852 -16.026  0.00  0.00    +0.217 C 
ENDROOT
BRANCH   1   5
ATOM      2  S   UNL     1      34.643 -23.893 -13.361  0.00  0.00    -0.093 S 
ATOM      3  N   UNL     1      36.190 -24.747 -15.429  0.00  0.00    -0.253 NA
ATOM      4  CA  UNL     1      37.295 -25.133 -14.559  0.00  0.00    +0.221 C 
ATOM      5  C   UNL     1      35.089 -24.232 -15.021  0.00  0.00    +0.109 C 
ATOM      6  C   UNL     1      37.133 -24.854 -13.092  0.00  0.00    -0.000 C 
ATOM      7  C   UNL     1      35.763 -25.030 -12.521  0.00  0.00    +0.088 C 
ATOM      8  C   UNL     1      38.164 -24.444 -12.335  0.00  0.00    -0.006 C 
BRANCH   4  10
ATOM      9  OXT UNL     1      38.512 -27.220 -14.596  0.00  0.00    -0.248 OA
ATOM     10  C   UNL     1      37.459 -26.612 -14.724  0.00  0.00    +0.340 C 
BRANCH  10  11
ATOM     11  O   UNL     1      36.275 -27.193 -15.039  0.00  0.00    -0.479 OA
ATOM     12  H   UNL     1      35.488 -26.685 -15.032  0.00  0.00    +0.295 HD
ENDBRANCH  10  11
ENDBRANCH   4  10
ENDBRANCH   1   5
BRANCH   1  14
ATOM     13  O   UNL     1      33.855 -23.693 -18.894  0.00  0.00    -0.275 OA
ATOM     14  N   UNL     1      34.682 -22.896 -16.874  0.00  0.00    -0.291 N 
ATOM     15  C   UNL     1      34.538 -22.891 -18.261  0.00  0.00    +0.228 C 
ATOM     16  H   UNL     1      35.253 -22.211 -16.458  0.00  0.00    +0.150 HD
BRANCH  15  17
ATOM     17  C   UNL     1      35.326 -21.769 -18.909  0.00  0.00    +0.118 C 
BRANCH  17  19
ATOM     18  S   UNL     1      35.261 -19.928 -20.993  0.00  0.00    -0.090 S 
ATOM     19  C   UNL     1      34.492 -20.896 -19.810  0.00  0.00    +0.016 C 
ATOM     20  C   UNL     1      33.123 -20.747 -19.829  0.00  0.00    +0.003 C 
ATOM     21  C   UNL     1      32.700 -19.825 -20.830  0.00  0.00    +0.007 C 
ATOM     22  C   UNL     1      33.762 -19.305 -21.537  0.00  0.00    +0.035 C 
ENDBRANCH  17  19
ENDBRANCH  15  17
ENDBRANCH   1  14
BRANCH   1  24
ATOM     23  OXT UNL     1      32.659 -22.206 -14.930  0.00  0.00    -0.248 OA
ATOM     24  C   UNL     1      32.769 -23.333 -15.402  0.00  0.00    +0.338 C 
BRANCH  24  25
ATOM     25  O   UNL     1      31.780 -24.256 -15.318  0.00  0.00    -0.479 OA
ATOM     26  H   UNL     1      31.411 -24.472 -14.483  0.00  0.00    +0.295 HD
ENDBRANCH  24  25
ENDBRANCH   1  24
TORSDOF 8
ENDMDL
MODEL 7
REMARK VINA RESULT:      -7.7      6.826     11.402
REMARK  Name = 46937164
REMARK  8 active torsions:
REMARK  status: ('A' for Active; 'I' for Inactive)
REMARK    1  A    between atoms: CA_1  and  C_5
REMARK    2  A    between atoms: CA_1  and  N_14
REMARK    3  A    between atoms: CA_1  and  C_24
REMARK    4  A    between atoms: CA_4  and  C_10
REMARK    5  A    between atoms: C_10  and  O_11
REMARK    6  A    between atoms: C_15  and  C_17
REMARK    7  A    between atoms: C_17  and  C_19
REMARK    8  A    between atoms: C_24  and  O_25
REMARK                            x       y       z     vdW  Elec       q    Type
REMARK                         _______ _______ _______ _____ _____    ______ ____
ROOT
ATOM      1  CA  UNL     1      33.867 -16.726 -23.433  0.00  0.00    +0.217 C 
ENDROOT
BRANCH   1   5
ATOM      2  S   UNL     1      33.446 -15.464 -21.045  0.00  0.00    -0.093 S 
ATOM      3  N   UNL     1      32.956 -14.501 -23.542  0.00  0.00    -0.253 NA
ATOM      4  CA  UNL     1      32.434 -13.232 -23.046  0.00  0.00    +0.221 C 
ATOM      5  C   UNL     1      33.377 -15.455 -22.796  0.00  0.00    +0.109 C 
ATOM      6  C   UNL     1      32.344 -13.072 -21.555  0.00  0.00    -0.000 C 
ATOM      7  C   UNL     1      33.440 -13.686 -20.745  0.00  0.00    +0.088 C 
ATOM      8  C   UNL     1      31.316 -12.429 -20.976  0.00  0.00    -0.006 C 
BRANCH   4  10
ATOM      9  OXT UNL     1      33.168 -10.967 -23.456  0.00  0.00    -0.248 OA
ATOM     10  C   UNL     1      33.355 -12.170 -23.561  0.00  0.00    +0.340 C 
BRANCH  10  11
ATOM     11  O   UNL     1      34.433 -12.726 -24.167  0.00  0.00    -0.479 OA
ATOM     12  H   UNL     1      35.189 -12.203 -24.350  0.00  0.00    +0.295 HD
ENDBRANCH  10  11
ENDBRANCH   4  10
ENDBRANCH   1   5
BRANCH   1  14
ATOM     13  O   UNL     1      34.747 -19.466 -23.424  0.00  0.00    -0.275 OA
ATOM     14  N   UNL     1      34.589 -17.391 -22.391  0.00  0.00    -0.291 N 
ATOM     15  C   UNL     1      34.979 -18.728 -22.470  0.00  0.00    +0.228 C 
ATOM     16  H   UNL     1      34.822 -16.881 -21.582  0.00  0.00    +0.150 HD
BRANCH  15  17
ATOM     17  C   UNL     1      35.733 -19.173 -21.232  0.00  0.00    +0.118 C 
BRANCH  17  19
ATOM     18  S   UNL     1      35.923 -21.438 -19.629  0.00  0.00    -0.090 S 
ATOM     19  C   UNL     1      35.016 -20.239 -20.446  0.00  0.00    +0.016 C 
ATOM     20  C   UNL     1      33.659 -20.408 -20.273  0.00  0.00    +0.003 C 
ATOM     21  C   UNL     1      33.363 -21.539 -19.457  0.00  0.00    +0.007 C 
ATOM     22  C   UNL     1      34.502 -22.189 -19.039  0.00  0.00    +0.035 C 
ENDBRANCH  17  19
ENDBRANCH  15  17
ENDBRANCH   1  14
BRANCH   1  24
ATOM     23  OXT UNL     1      34.455 -17.037 -25.750  0.00  0.00    -0.248 OA
ATOM     24  C   UNL     1      34.689 -16.497 -24.673  0.00  0.00    +0.338 C 
BRANCH  24  25
ATOM     25  O   UNL     1      35.775 -15.712 -24.475  0.00  0.00    -0.479 OA
ATOM     26  H   UNL     1      36.385 -15.571 -25.173  0.00  0.00    +0.295 HD
ENDBRANCH  24  25
ENDBRANCH   1  24
TORSDOF 8
ENDMDL
MODEL 8
REMARK VINA RESULT:      -7.6      7.422     12.245
REMARK  Name = 46937164
REMARK  8 active torsions:
REMARK  status: ('A' for Active; 'I' for Inactive)
REMARK    1  A    between atoms: CA_1  and  C_5
REMARK    2  A    between atoms: CA_1  and  N_14
REMARK    3  A    between atoms: CA_1  and  C_24
REMARK    4  A    between atoms: CA_4  and  C_10
REMARK    5  A    between atoms: C_10  and  O_11
REMARK    6  A    between atoms: C_15  and  C_17
REMARK    7  A    between atoms: C_17  and  C_19
REMARK    8  A    between atoms: C_24  and  O_25
REMARK                            x       y       z     vdW  Elec       q    Type
REMARK                         _______ _______ _______ _____ _____    ______ ____
ROOT
ATOM      1  CA  UNL     1      33.985 -14.699 -21.555  0.00  0.00    +0.217 C 
ENDROOT
BRANCH   1   5
ATOM      2  S   UNL     1      33.448 -14.828 -24.233  0.00  0.00    -0.093 S 
ATOM      3  N   UNL     1      34.024 -12.615 -22.759  0.00  0.00    -0.253 NA
ATOM      4  CA  UNL     1      33.941 -11.720 -23.908  0.00  0.00    +0.221 C 
ATOM      5  C   UNL     1      33.845 -13.884 -22.812  0.00  0.00    +0.109 C 
ATOM      6  C   UNL     1      33.678 -12.354 -25.244  0.00  0.00    -0.000 C 
ATOM      7  C   UNL     1      32.747 -13.523 -25.262  0.00  0.00    +0.088 C 
ATOM      8  C   UNL     1      34.268 -11.906 -26.365  0.00  0.00    -0.006 C 
BRANCH   4  10
ATOM      9  OXT UNL     1      32.656  -9.690 -24.159  0.00  0.00    -0.248 OA
ATOM     10  C   UNL     1      32.814 -10.776 -23.623  0.00  0.00    +0.340 C 
BRANCH  10  11
ATOM     11  O   UNL     1      31.986 -11.292 -22.682  0.00  0.00    -0.479 OA
ATOM     12  H   UNL     1      31.657 -10.745 -21.996  0.00  0.00    +0.295 HD
ENDBRANCH  10  11
ENDBRANCH   4  10
ENDBRANCH   1   5
BRANCH   1  14
ATOM     13  O   UNL     1      35.435 -16.860 -20.326  0.00  0.00    -0.275 OA
ATOM     14  N   UNL     1      34.061 -16.052 -22.017  0.00  0.00    -0.291 N 
ATOM     15  C   UNL     1      34.790 -17.041 -21.356  0.00  0.00    +0.228 C 
ATOM     16  H   UNL     1      33.576 -16.296 -22.838  0.00  0.00    +0.150 HD
BRANCH  15  17
ATOM     17  C   UNL     1      34.692 -18.382 -22.057  0.00  0.00    +0.118 C 
BRANCH  17  19
ATOM     18  S   UNL     1      35.593 -20.471 -20.457  0.00  0.00    -0.090 S 
ATOM     19  C   UNL     1      34.342 -19.517 -21.131  0.00  0.00    +0.016 C 
ATOM     20  C   UNL     1      33.095 -19.931 -20.717  0.00  0.00    +0.003 C 
ATOM     21  C   UNL     1      33.168 -21.047 -19.835  0.00  0.00    +0.007 C 
ATOM     22  C   UNL     1      34.468 -21.443 -19.607  0.00  0.00    +0.035 C 
ENDBRANCH  17  19
ENDBRANCH  15  17
ENDBRANCH   1  14
BRANCH   1  24
ATOM     23  OXT UNL     1      32.391 -15.359 -19.872  0.00  0.00    -0.248 OA
ATOM     24  C   UNL     1      32.876 -14.470 -20.565  0.00  0.00    +0.338 C 
BRANCH  24  25
ATOM     25  O   UNL     1      32.388 -13.205 -20.569  0.00  0.00    -0.479 OA
ATOM     26  H   UNL     1      31.587 -13.011 -20.122  0.00  0.00    +0.295 HD
ENDBRANCH  24  25
ENDBRANCH   1  24
TORSDOF 8
ENDMDL
MODEL 9
REMARK VINA RESULT:      -7.6      1.670      2.196
REMARK  Name = 46937164
REMARK  8 active torsions:
REMARK  status: ('A' for Active; 'I' for Inactive)
REMARK    1  A    between atoms: CA_1  and  C_5
REMARK    2  A    between atoms: CA_1  and  N_14
REMARK    3  A    between atoms: CA_1  and  C_24
REMARK    4  A    between atoms: CA_4  and  C_10
REMARK    5  A    between atoms: C_10  and  O_11
REMARK    6  A    between atoms: C_15  and  C_17
REMARK    7  A    between atoms: C_17  and  C_19
REMARK    8  A    between atoms: C_24  and  O_25
REMARK                            x       y       z     vdW  Elec       q    Type
REMARK                         _______ _______ _______ _____ _____    ______ ____
ROOT
ATOM      1  CA  UNL     1      33.459 -24.078 -15.879  0.00  0.00    +0.217 C 
ENDROOT
BRANCH   1   5
ATOM      2  S   UNL     1      35.705 -22.538 -15.639  0.00  0.00    -0.093 S 
ATOM      3  N   UNL     1      35.473 -25.215 -15.212  0.00  0.00    -0.253 NA
ATOM      4  CA  UNL     1      36.886 -25.374 -14.883  0.00  0.00    +0.221 C 
ATOM      5  C   UNL     1      34.923 -24.103 -15.536  0.00  0.00    +0.109 C 
ATOM      6  C   UNL     1      37.748 -24.148 -14.985  0.00  0.00    -0.000 C 
ATOM      7  C   UNL     1      37.126 -22.852 -14.575  0.00  0.00    +0.088 C 
ATOM      8  C   UNL     1      39.009 -24.210 -15.443  0.00  0.00    -0.006 C 
BRANCH   4  10
ATOM      9  OXT UNL     1      37.075 -25.123 -12.488  0.00  0.00    -0.248 OA
ATOM     10  C   UNL     1      36.933 -25.846 -13.463  0.00  0.00    +0.340 C 
BRANCH  10  11
ATOM     11  O   UNL     1      36.799 -27.193 -13.402  0.00  0.00    -0.479 OA
ATOM     12  H   UNL     1      37.478 -27.748 -13.733  0.00  0.00    +0.295 HD
ENDBRANCH  10  11
ENDBRANCH   4  10
ENDBRANCH   1   5
BRANCH   1  14
ATOM     13  O   UNL     1      33.685 -24.238 -18.743  0.00  0.00    -0.275 OA
ATOM     14  N   UNL     1      33.330 -22.999 -16.810  0.00  0.00    -0.291 N 
ATOM     15  C   UNL     1      33.455 -23.166 -18.189  0.00  0.00    +0.228 C 
ATOM     16  H   UNL     1      33.144 -22.097 -16.461  0.00  0.00    +0.150 HD
BRANCH  15  17
ATOM     17  C   UNL     1      33.267 -21.861 -18.938  0.00  0.00    +0.118 C 
BRANCH  17  19
ATOM     18  S   UNL     1      34.496 -20.033 -20.637  0.00  0.00    -0.090 S 
ATOM     19  C   UNL     1      34.552 -21.289 -19.476  0.00  0.00    +0.016 C 
ATOM     20  C   UNL     1      35.845 -21.644 -19.159  0.00  0.00    +0.003 C 
ATOM     21  C   UNL     1      36.802 -20.872 -19.879  0.00  0.00    +0.007 C 
ATOM     22  C   UNL     1      36.205 -19.958 -20.719  0.00  0.00    +0.035 C 
ENDBRANCH  17  19
ENDBRANCH  15  17
ENDBRANCH   1  14
BRANCH   1  24
ATOM     23  OXT UNL     1      31.926 -24.869 -14.195  0.00  0.00    -0.248 OA
ATOM     24  C   UNL     1      32.563 -23.938 -14.678  0.00  0.00    +0.338 C 
BRANCH  24  25
ATOM     25  O   UNL     1      32.443 -22.666 -14.228  0.00  0.00    -0.479 OA
ATOM     26  H   UNL     1      31.677 -22.165 -14.435  0.00  0.00    +0.295 HD
ENDBRANCH  24  25
ENDBRANCH   1  24
TORSDOF 8
ENDMDL
