MODEL 1
REMARK VINA RESULT:      -9.8      0.000      0.000
REMARK  Name = 25022354
REMARK  8 active torsions:
REMARK  status: ('A' for Active; 'I' for Inactive)
REMARK    1  A    between atoms: C_5  and  C_11
REMARK    2  A    between atoms: C_9  and  C_17
REMARK    3  A    between atoms: C_11  and  O_12
REMARK    4  A    between atoms: O_12  and  C_13
REMARK    5  A    between atoms: C_17  and  C_18
REMARK    6  A    between atoms: C_18  and  N_19
REMARK    7  A    between atoms: C_18  and  C_23
REMARK    8  A    between atoms: C_23  and  C_27
REMARK                            x       y       z     vdW  Elec       q    Type
REMARK                         _______ _______ _______ _____ _____    ______ ____
ROOT
ATOM      1  O   UNL     1      34.510 -24.844 -14.649  0.00  0.00    -0.273 OA
ATOM      2  O   UNL     1      33.884 -23.414 -19.434  0.00  0.00    -0.275 OA
ATOM      3  N   UNL     1      35.000 -22.650 -17.543  0.00  0.00    -0.269 N 
ATOM      4  N   UNL     1      36.257 -23.481 -15.192  0.00  0.00    -0.301 N 
ATOM      5  C   UNL     1      34.236 -23.524 -16.643  0.00  0.00    +0.182 C 
ATOM      6  C   UNL     1      35.972 -21.765 -16.902  0.00  0.00    +0.115 C 
ATOM      7  C   UNL     1      36.949 -22.612 -16.118  0.00  0.00    +0.111 C 
ATOM      8  C   UNL     1      35.014 -24.025 -15.422  0.00  0.00    +0.243 C 
ATOM      9  C   UNL     1      34.708 -22.660 -18.910  0.00  0.00    +0.224 C 
ATOM     10  H   UNL     1      36.705 -23.698 -14.343  0.00  0.00    +0.150 HD
ENDROOT
BRANCH   5  11
ATOM     11  C   UNL     1      32.956 -22.826 -16.178  0.00  0.00    +0.171 C 
BRANCH  11  12
ATOM     12  O   UNL     1      31.861 -23.681 -16.445  0.00  0.00    -0.356 OA
BRANCH  12  13
ATOM     13  C   UNL     1      30.867 -23.598 -15.429  0.00  0.00    +0.093 C 
ATOM     14  C   UNL     1      29.654 -22.861 -15.994  0.00  0.00    +0.030 C 
ATOM     15  C   UNL     1      31.470 -22.821 -14.260  0.00  0.00    +0.030 C 
ATOM     16  C   UNL     1      30.492 -25.015 -14.998  0.00  0.00    +0.030 C 
ENDBRANCH  12  13
ENDBRANCH  11  12
ENDBRANCH   5  11
BRANCH   9  17
ATOM     17  C   UNL     1      35.463 -21.680 -19.771  0.00  0.00    +0.064 C 
BRANCH  17  18
ATOM     18  C   UNL     1      34.590 -20.489 -20.174  0.00  0.00    -0.052 C 
BRANCH  18  19
ATOM     19  N   UNL     1      33.211 -20.813 -19.788  0.00  0.00    +0.382 N 
ATOM     20  H   UNL     1      32.953 -20.273 -18.961  0.00  0.00    -0.089 HD
ATOM     21  H   UNL     1      33.140 -21.809 -19.580  0.00  0.00    -0.089 HD
ATOM     22  H   UNL     1      32.580 -20.580 -20.555  0.00  0.00    -0.089 HD
ENDBRANCH  18  19
BRANCH  18  23
ATOM     23  C   UNL     1      34.617 -20.195 -21.690  0.00  0.00    +0.007 C 
BRANCH  23  27
ATOM     24  F   UNL     1      34.724 -19.250 -24.361  0.00  0.00    -0.204 F 
ATOM     25  F   UNL     1      34.835 -15.496 -20.384  0.00  0.00    -0.202 F 
ATOM     26  F   UNL     1      34.931 -14.721 -23.005  0.00  0.00    -0.202 F 
ATOM     27  C   UNL     1      34.701 -18.730 -22.045  0.00  0.00    +0.006 C 
ATOM     28  C   UNL     1      34.750 -18.336 -23.381  0.00  0.00    +0.138 C 
ATOM     29  C   UNL     1      34.730 -17.772 -21.032  0.00  0.00    +0.030 C 
ATOM     30  C   UNL     1      34.807 -16.417 -21.357  0.00  0.00    +0.167 C 
ATOM     31  C   UNL     1      34.827 -16.980 -23.705  0.00  0.00    +0.061 C 
ATOM     32  C   UNL     1      34.856 -16.021 -22.693  0.00  0.00    +0.170 C 
ENDBRANCH  23  27
ENDBRANCH  18  23
ENDBRANCH  17  18
ENDBRANCH   9  17
TORSDOF 8
ENDMDL
MODEL 2
REMARK VINA RESULT:      -9.7      5.538      9.598
REMARK  Name = 25022354
REMARK  8 active torsions:
REMARK  status: ('A' for Active; 'I' for Inactive)
REMARK    1  A    between atoms: C_5  and  C_11
REMARK    2  A    between atoms: C_9  and  C_17
REMARK    3  A    between atoms: C_11  and  O_12
REMARK    4  A    between atoms: O_12  and  C_13
REMARK    5  A    between atoms: C_17  and  C_18
REMARK    6  A    between atoms: C_18  and  N_19
REMARK    7  A    between atoms: C_18  and  C_23
REMARK    8  A    between atoms: C_23  and  C_27
REMARK                            x       y       z     vdW  Elec       q    Type
REMARK                         _______ _______ _______ _____ _____    ______ ____
ROOT
ATOM      1  O   UNL     1      33.901 -11.130 -24.677  0.00  0.00    -0.273 OA
ATOM      2  O   UNL     1      35.518 -15.671 -23.228  0.00  0.00    -0.275 OA
ATOM      3  N   UNL     1      33.979 -14.793 -24.734  0.00  0.00    -0.269 N 
ATOM      4  N   UNL     1      33.444 -12.593 -26.367  0.00  0.00    -0.301 N 
ATOM      5  C   UNL     1      34.003 -13.466 -24.105  0.00  0.00    +0.182 C 
ATOM      6  C   UNL     1      33.063 -14.949 -25.863  0.00  0.00    +0.115 C 
ATOM      7  C   UNL     1      33.426 -13.929 -26.919  0.00  0.00    +0.111 C 
ATOM      8  C   UNL     1      33.801 -12.295 -25.072  0.00  0.00    +0.243 C 
ATOM      9  C   UNL     1      34.750 -15.821 -24.183  0.00  0.00    +0.224 C 
ATOM     10  H   UNL     1      33.184 -11.848 -26.957  0.00  0.00    +0.150 HD
ENDROOT
BRANCH   5  11
ATOM     11  C   UNL     1      32.965 -13.384 -22.985  0.00  0.00    +0.171 C 
BRANCH  11  12
ATOM     12  O   UNL     1      32.760 -14.686 -22.471  0.00  0.00    -0.356 OA
BRANCH  12  13
ATOM     13  C   UNL     1      32.820 -14.708 -21.049  0.00  0.00    +0.093 C 
ATOM     14  C   UNL     1      31.943 -15.852 -20.542  0.00  0.00    +0.030 C 
ATOM     15  C   UNL     1      32.293 -13.364 -20.547  0.00  0.00    +0.030 C 
ATOM     16  C   UNL     1      34.274 -14.907 -20.626  0.00  0.00    +0.030 C 
ENDBRANCH  12  13
ENDBRANCH  11  12
ENDBRANCH   5  11
BRANCH   9  17
ATOM     17  C   UNL     1      34.618 -17.182 -24.817  0.00  0.00    +0.064 C 
BRANCH  17  18
ATOM     18  C   UNL     1      34.971 -18.301 -23.834  0.00  0.00    -0.052 C 
BRANCH  18  19
ATOM     19  N   UNL     1      34.568 -19.568 -24.457  0.00  0.00    +0.382 N 
ATOM     20  H   UNL     1      33.837 -19.391 -25.147  0.00  0.00    -0.089 HD
ATOM     21  H   UNL     1      34.213 -20.202 -23.741  0.00  0.00    -0.089 HD
ATOM     22  H   UNL     1      35.373 -19.992 -24.917  0.00  0.00    -0.089 HD
ENDBRANCH  18  19
BRANCH  18  23
ATOM     23  C   UNL     1      34.249 -18.173 -22.475  0.00  0.00    +0.007 C 
BRANCH  23  27
ATOM     24  F   UNL     1      36.937 -18.660 -21.712  0.00  0.00    -0.204 F 
ATOM     25  F   UNL     1      33.075 -21.695 -19.304  0.00  0.00    -0.202 F 
ATOM     26  F   UNL     1      35.707 -22.061 -18.660  0.00  0.00    -0.202 F 
ATOM     27  C   UNL     1      34.642 -19.213 -21.454  0.00  0.00    +0.006 C 
ATOM     28  C   UNL     1      35.985 -19.399 -21.126  0.00  0.00    +0.138 C 
ATOM     29  C   UNL     1      33.659 -19.988 -20.839  0.00  0.00    +0.030 C 
ATOM     30  C   UNL     1      34.020 -20.950 -19.895  0.00  0.00    +0.167 C 
ATOM     31  C   UNL     1      36.344 -20.362 -20.181  0.00  0.00    +0.061 C 
ATOM     32  C   UNL     1      35.362 -21.137 -19.566  0.00  0.00    +0.170 C 
ENDBRANCH  23  27
ENDBRANCH  18  23
ENDBRANCH  17  18
ENDBRANCH   9  17
TORSDOF 8
ENDMDL
MODEL 3
REMARK VINA RESULT:      -9.5      2.682      4.441
REMARK  Name = 25022354
REMARK  8 active torsions:
REMARK  status: ('A' for Active; 'I' for Inactive)
REMARK    1  A    between atoms: C_5  and  C_11
REMARK    2  A    between atoms: C_9  and  C_17
REMARK    3  A    between atoms: C_11  and  O_12
REMARK    4  A    between atoms: O_12  and  C_13
REMARK    5  A    between atoms: C_17  and  C_18
REMARK    6  A    between atoms: C_18  and  N_19
REMARK    7  A    between atoms: C_18  and  C_23
REMARK    8  A    between atoms: C_23  and  C_27
REMARK                            x       y       z     vdW  Elec       q    Type
REMARK                         _______ _______ _______ _____ _____    ______ ____
ROOT
ATOM      1  O   UNL     1      34.557 -24.191 -12.268  0.00  0.00    -0.273 OA
ATOM      2  O   UNL     1      37.066 -22.069 -16.080  0.00  0.00    -0.275 OA
ATOM      3  N   UNL     1      35.074 -23.225 -15.765  0.00  0.00    -0.269 N 
ATOM      4  N   UNL     1      33.045 -23.734 -13.915  0.00  0.00    -0.301 N 
ATOM      5  C   UNL     1      35.477 -23.717 -14.441  0.00  0.00    +0.182 C 
ATOM      6  C   UNL     1      33.768 -23.678 -16.244  0.00  0.00    +0.115 C 
ATOM      7  C   UNL     1      32.718 -23.259 -15.241  0.00  0.00    +0.111 C 
ATOM      8  C   UNL     1      34.328 -23.881 -13.441  0.00  0.00    +0.243 C 
ATOM      9  C   UNL     1      35.967 -22.442 -16.501  0.00  0.00    +0.224 C 
ATOM     10  H   UNL     1      32.302 -23.967 -13.313  0.00  0.00    +0.150 HD
ENDROOT
BRANCH   5  11
ATOM     11  C   UNL     1      36.234 -25.040 -14.568  0.00  0.00    +0.171 C 
BRANCH  11  12
ATOM     12  O   UNL     1      37.621 -24.769 -14.500  0.00  0.00    -0.356 OA
BRANCH  12  13
ATOM     13  C   UNL     1      38.204 -25.298 -13.313  0.00  0.00    +0.093 C 
ATOM     14  C   UNL     1      38.251 -24.193 -12.259  0.00  0.00    +0.030 C 
ATOM     15  C   UNL     1      39.616 -25.765 -13.665  0.00  0.00    +0.030 C 
ATOM     16  C   UNL     1      37.352 -26.473 -12.835  0.00  0.00    +0.030 C 
ENDBRANCH  12  13
ENDBRANCH  11  12
ENDBRANCH   5  11
BRANCH   9  17
ATOM     17  C   UNL     1      35.533 -22.040 -17.887  0.00  0.00    +0.064 C 
BRANCH  17  18
ATOM     18  C   UNL     1      36.722 -21.615 -18.752  0.00  0.00    -0.052 C 
BRANCH  18  19
ATOM     19  N   UNL     1      37.177 -20.310 -18.253  0.00  0.00    +0.382 N 
ATOM     20  H   UNL     1      38.174 -20.203 -18.440  0.00  0.00    -0.089 HD
ATOM     21  H   UNL     1      37.010 -20.253 -17.248  0.00  0.00    -0.089 HD
ATOM     22  H   UNL     1      36.661 -19.568 -18.725  0.00  0.00    -0.089 HD
ENDBRANCH  18  19
BRANCH  18  23
ATOM     23  C   UNL     1      36.371 -21.469 -20.249  0.00  0.00    +0.007 C 
BRANCH  23  27
ATOM     24  F   UNL     1      37.607 -19.102 -21.204  0.00  0.00    -0.204 F 
ATOM     25  F   UNL     1      32.168 -19.012 -20.627  0.00  0.00    -0.202 F 
ATOM     26  F   UNL     1      33.488 -16.798 -21.539  0.00  0.00    -0.202 F 
ATOM     27  C   UNL     1      35.602 -20.217 -20.596  0.00  0.00    +0.006 C 
ATOM     28  C   UNL     1      36.275 -19.088 -21.061  0.00  0.00    +0.138 C 
ATOM     29  C   UNL     1      34.215 -20.192 -20.448  0.00  0.00    +0.030 C 
ATOM     30  C   UNL     1      33.501 -19.037 -20.768  0.00  0.00    +0.167 C 
ATOM     31  C   UNL     1      35.560 -17.933 -21.380  0.00  0.00    +0.061 C 
ATOM     32  C   UNL     1      34.173 -17.907 -21.233  0.00  0.00    +0.170 C 
ENDBRANCH  23  27
ENDBRANCH  18  23
ENDBRANCH  17  18
ENDBRANCH   9  17
TORSDOF 8
ENDMDL
MODEL 4
REMARK VINA RESULT:      -9.4      5.502     10.081
REMARK  Name = 25022354
REMARK  8 active torsions:
REMARK  status: ('A' for Active; 'I' for Inactive)
REMARK    1  A    between atoms: C_5  and  C_11
REMARK    2  A    between atoms: C_9  and  C_17
REMARK    3  A    between atoms: C_11  and  O_12
REMARK    4  A    between atoms: O_12  and  C_13
REMARK    5  A    between atoms: C_17  and  C_18
REMARK    6  A    between atoms: C_18  and  N_19
REMARK    7  A    between atoms: C_18  and  C_23
REMARK    8  A    between atoms: C_23  and  C_27
REMARK                            x       y       z     vdW  Elec       q    Type
REMARK                         _______ _______ _______ _____ _____    ______ ____
ROOT
ATOM      1  O   UNL     1      31.475 -12.906 -22.561  0.00  0.00    -0.273 OA
ATOM      2  O   UNL     1      34.043 -16.553 -24.891  0.00  0.00    -0.275 OA
ATOM      3  N   UNL     1      34.282 -15.220 -23.001  0.00  0.00    -0.269 N 
ATOM      4  N   UNL     1      32.857 -13.864 -21.019  0.00  0.00    -0.301 N 
ATOM      5  C   UNL     1      33.248 -14.274 -23.442  0.00  0.00    +0.182 C 
ATOM      6  C   UNL     1      34.945 -14.898 -21.738  0.00  0.00    +0.115 C 
ATOM      7  C   UNL     1      33.895 -14.802 -20.655  0.00  0.00    +0.111 C 
ATOM      8  C   UNL     1      32.435 -13.638 -22.309  0.00  0.00    +0.243 C 
ATOM      9  C   UNL     1      34.615 -16.297 -23.827  0.00  0.00    +0.224 C 
ATOM     10  H   UNL     1      32.423 -13.355 -20.296  0.00  0.00    +0.150 HD
ENDROOT
BRANCH   5  11
ATOM     11  C   UNL     1      33.863 -13.172 -24.306  0.00  0.00    +0.171 C 
BRANCH  11  12
ATOM     12  O   UNL     1      33.940 -11.990 -23.532  0.00  0.00    -0.356 OA
BRANCH  12  13
ATOM     13  C   UNL     1      33.841 -10.822 -24.342  0.00  0.00    +0.093 C 
ATOM     14  C   UNL     1      32.724  -9.939 -23.787  0.00  0.00    +0.030 C 
ATOM     15  C   UNL     1      33.511 -11.276 -25.763  0.00  0.00    +0.030 C 
ATOM     16  C   UNL     1      35.182 -10.092 -24.308  0.00  0.00    +0.030 C 
ENDBRANCH  12  13
ENDBRANCH  11  12
ENDBRANCH   5  11
BRANCH   9  17
ATOM     17  C   UNL     1      35.742 -17.183 -23.364  0.00  0.00    +0.064 C 
BRANCH  17  18
ATOM     18  C   UNL     1      35.244 -18.578 -22.980  0.00  0.00    -0.052 C 
BRANCH  18  19
ATOM     19  N   UNL     1      34.592 -19.148 -24.166  0.00  0.00    +0.382 N 
ATOM     20  H   UNL     1      34.708 -18.512 -24.956  0.00  0.00    -0.089 HD
ATOM     21  H   UNL     1      33.598 -19.280 -23.978  0.00  0.00    -0.089 HD
ATOM     22  H   UNL     1      35.017 -20.047 -24.389  0.00  0.00    -0.089 HD
ENDBRANCH  18  19
BRANCH  18  23
ATOM     23  C   UNL     1      34.225 -18.568 -21.820  0.00  0.00    +0.007 C 
BRANCH  23  27
ATOM     24  F   UNL     1      31.989 -19.859 -20.647  0.00  0.00    -0.204 F 
ATOM     25  F   UNL     1      36.944 -21.747 -19.301  0.00  0.00    -0.202 F 
ATOM     26  F   UNL     1      34.702 -22.901 -18.243  0.00  0.00    -0.202 F 
ATOM     27  C   UNL     1      34.350 -19.729 -20.862  0.00  0.00    +0.006 C 
ATOM     28  C   UNL     1      33.206 -20.317 -20.323  0.00  0.00    +0.138 C 
ATOM     29  C   UNL     1      35.612 -20.211 -20.517  0.00  0.00    +0.030 C 
ATOM     30  C   UNL     1      35.731 -21.283 -19.633  0.00  0.00    +0.167 C 
ATOM     31  C   UNL     1      33.326 -21.390 -19.438  0.00  0.00    +0.061 C 
ATOM     32  C   UNL     1      34.588 -21.872 -19.093  0.00  0.00    +0.170 C 
ENDBRANCH  23  27
ENDBRANCH  18  23
ENDBRANCH  17  18
ENDBRANCH   9  17
TORSDOF 8
ENDMDL
MODEL 5
REMARK VINA RESULT:      -9.2      1.813      3.459
REMARK  Name = 25022354
REMARK  8 active torsions:
REMARK  status: ('A' for Active; 'I' for Inactive)
REMARK    1  A    between atoms: C_5  and  C_11
REMARK    2  A    between atoms: C_9  and  C_17
REMARK    3  A    between atoms: C_11  and  O_12
REMARK    4  A    between atoms: O_12  and  C_13
REMARK    5  A    between atoms: C_17  and  C_18
REMARK    6  A    between atoms: C_18  and  N_19
REMARK    7  A    between atoms: C_18  and  C_23
REMARK    8  A    between atoms: C_23  and  C_27
REMARK                            x       y       z     vdW  Elec       q    Type
REMARK                         _______ _______ _______ _____ _____    ______ ____
ROOT
ATOM      1  O   UNL     1      33.922 -23.431 -13.645  0.00  0.00    -0.273 OA
ATOM      2  O   UNL     1      36.306 -21.749 -17.746  0.00  0.00    -0.275 OA
ATOM      3  N   UNL     1      34.398 -22.982 -17.251  0.00  0.00    -0.269 N 
ATOM      4  N   UNL     1      32.395 -23.343 -15.338  0.00  0.00    -0.301 N 
ATOM      5  C   UNL     1      34.824 -23.233 -15.867  0.00  0.00    +0.182 C 
ATOM      6  C   UNL     1      33.131 -23.595 -17.650  0.00  0.00    +0.115 C 
ATOM      7  C   UNL     1      32.046 -23.102 -16.720  0.00  0.00    +0.111 C 
ATOM      8  C   UNL     1      33.682 -23.323 -14.850  0.00  0.00    +0.243 C 
ATOM      9  C   UNL     1      35.239 -22.259 -18.101  0.00  0.00    +0.224 C 
ATOM     10  H   UNL     1      31.666 -23.533 -14.705  0.00  0.00    +0.150 HD
ENDROOT
BRANCH   5  11
ATOM     11  C   UNL     1      35.674 -24.503 -15.791  0.00  0.00    +0.171 C 
BRANCH  11  12
ATOM     12  O   UNL     1      36.809 -24.232 -14.991  0.00  0.00    -0.356 OA
BRANCH  12  13
ATOM     13  C   UNL     1      37.354 -25.421 -14.429  0.00  0.00    +0.093 C 
ATOM     14  C   UNL     1      37.056 -25.431 -12.930  0.00  0.00    +0.030 C 
ATOM     15  C   UNL     1      38.862 -25.397 -14.676  0.00  0.00    +0.030 C 
ATOM     16  C   UNL     1      36.715 -26.624 -15.121  0.00  0.00    +0.030 C 
ENDBRANCH  12  13
ENDBRANCH  11  12
ENDBRANCH   5  11
BRANCH   9  17
ATOM     17  C   UNL     1      34.789 -22.108 -19.531  0.00  0.00    +0.064 C 
BRANCH  17  18
ATOM     18  C   UNL     1      34.647 -20.637 -19.928  0.00  0.00    -0.052 C 
BRANCH  18  19
ATOM     19  N   UNL     1      33.266 -20.443 -20.389  0.00  0.00    +0.382 N 
ATOM     20  H   UNL     1      33.190 -20.732 -21.365  0.00  0.00    -0.089 HD
ATOM     21  H   UNL     1      33.013 -19.459 -20.304  0.00  0.00    -0.089 HD
ATOM     22  H   UNL     1      32.636 -21.007 -19.819  0.00  0.00    -0.089 HD
ENDBRANCH  18  19
BRANCH  18  23
ATOM     23  C   UNL     1      35.605 -20.213 -21.063  0.00  0.00    +0.007 C 
BRANCH  23  27
ATOM     24  F   UNL     1      35.033 -19.896 -23.822  0.00  0.00    -0.204 F 
ATOM     25  F   UNL     1      34.942 -15.387 -20.725  0.00  0.00    -0.202 F 
ATOM     26  F   UNL     1      34.408 -15.224 -23.402  0.00  0.00    -0.202 F 
ATOM     27  C   UNL     1      35.284 -18.879 -21.691  0.00  0.00    +0.006 C 
ATOM     28  C   UNL     1      35.012 -18.796 -23.057  0.00  0.00    +0.138 C 
ATOM     29  C   UNL     1      35.261 -17.728 -20.904  0.00  0.00    +0.030 C 
ATOM     30  C   UNL     1      34.965 -16.493 -21.482  0.00  0.00    +0.167 C 
ATOM     31  C   UNL     1      34.715 -17.560 -23.634  0.00  0.00    +0.061 C 
ATOM     32  C   UNL     1      34.692 -16.409 -22.847  0.00  0.00    +0.170 C 
ENDBRANCH  23  27
ENDBRANCH  18  23
ENDBRANCH  17  18
ENDBRANCH   9  17
TORSDOF 8
ENDMDL
MODEL 6
REMARK VINA RESULT:      -9.2      8.127     12.005
REMARK  Name = 25022354
REMARK  8 active torsions:
REMARK  status: ('A' for Active; 'I' for Inactive)
REMARK    1  A    between atoms: C_5  and  C_11
REMARK    2  A    between atoms: C_9  and  C_17
REMARK    3  A    between atoms: C_11  and  O_12
REMARK    4  A    between atoms: O_12  and  C_13
REMARK    5  A    between atoms: C_17  and  C_18
REMARK    6  A    between atoms: C_18  and  N_19
REMARK    7  A    between atoms: C_18  and  C_23
REMARK    8  A    between atoms: C_23  and  C_27
REMARK                            x       y       z     vdW  Elec       q    Type
REMARK                         _______ _______ _______ _____ _____    ______ ____
ROOT
ATOM      1  O   UNL     1      32.826 -15.771 -26.249  0.00  0.00    -0.273 OA
ATOM      2  O   UNL     1      32.075 -12.413 -22.577  0.00  0.00    -0.275 OA
ATOM      3  N   UNL     1      33.364 -12.595 -24.504  0.00  0.00    -0.269 N 
ATOM      4  N   UNL     1      33.434 -13.725 -27.056  0.00  0.00    -0.301 N 
ATOM      5  C   UNL     1      33.149 -14.044 -24.605  0.00  0.00    +0.182 C 
ATOM      6  C   UNL     1      34.233 -12.005 -25.522  0.00  0.00    +0.115 C 
ATOM      7  C   UNL     1      33.648 -12.306 -26.883  0.00  0.00    +0.111 C 
ATOM      8  C   UNL     1      33.100 -14.587 -26.036  0.00  0.00    +0.243 C 
ATOM      9  C   UNL     1      32.807 -11.898 -23.428  0.00  0.00    +0.224 C 
ATOM     10  H   UNL     1      33.533 -14.099 -27.961  0.00  0.00    +0.150 HD
ENDROOT
BRANCH   5  11
ATOM     11  C   UNL     1      34.216 -14.801 -23.811  0.00  0.00    +0.171 C 
BRANCH  11  12
ATOM     12  O   UNL     1      33.576 -15.811 -23.055  0.00  0.00    -0.356 OA
BRANCH  12  13
ATOM     13  C   UNL     1      33.882 -15.707 -21.669  0.00  0.00    +0.093 C 
ATOM     14  C   UNL     1      34.740 -14.461 -21.453  0.00  0.00    +0.030 C 
ATOM     15  C   UNL     1      34.653 -16.966 -21.273  0.00  0.00    +0.030 C 
ATOM     16  C   UNL     1      32.573 -15.610 -20.887  0.00  0.00    +0.030 C 
ENDBRANCH  12  13
ENDBRANCH  11  12
ENDBRANCH   5  11
BRANCH   9  17
ATOM     17  C   UNL     1      33.133 -10.430 -23.329  0.00  0.00    +0.064 C 
BRANCH  17  18
ATOM     18  C   UNL     1      32.340  -9.747 -22.213  0.00  0.00    -0.052 C 
BRANCH  18  19
ATOM     19  N   UNL     1      30.943  -9.668 -22.659  0.00  0.00    +0.382 N 
ATOM     20  H   UNL     1      30.329  -9.610 -21.847  0.00  0.00    -0.089 HD
ATOM     21  H   UNL     1      30.712 -10.500 -23.202  0.00  0.00    -0.089 HD
ATOM     22  H   UNL     1      30.818  -8.839 -23.239  0.00  0.00    -0.089 HD
ENDBRANCH  18  19
BRANCH  18  23
ATOM     23  C   UNL     1      32.832  -8.317 -21.897  0.00  0.00    +0.007 C 
BRANCH  23  27
ATOM     24  F   UNL     1      35.226  -7.913 -23.363  0.00  0.00    -0.204 F 
ATOM     25  F   UNL     1      30.785  -5.198 -25.045  0.00  0.00    -0.202 F 
ATOM     26  F   UNL     1      33.158  -4.900 -26.369  0.00  0.00    -0.202 F 
ATOM     27  C   UNL     1      32.923  -7.404 -23.095  0.00  0.00    +0.006 C 
ATOM     28  C   UNL     1      34.133  -7.252 -23.770  0.00  0.00    +0.138 C 
ATOM     29  C   UNL     1      31.792  -6.710 -23.525  0.00  0.00    +0.030 C 
ATOM     30  C   UNL     1      31.872  -5.864 -24.631  0.00  0.00    +0.167 C 
ATOM     31  C   UNL     1      34.212  -6.406 -24.877  0.00  0.00    +0.061 C 
ATOM     32  C   UNL     1      33.082  -5.712 -25.308  0.00  0.00    +0.170 C 
ENDBRANCH  23  27
ENDBRANCH  18  23
ENDBRANCH  17  18
ENDBRANCH   9  17
TORSDOF 8
ENDMDL
MODEL 7
REMARK VINA RESULT:      -9.1      7.928     11.326
REMARK  Name = 25022354
REMARK  8 active torsions:
REMARK  status: ('A' for Active; 'I' for Inactive)
REMARK    1  A    between atoms: C_5  and  C_11
REMARK    2  A    between atoms: C_9  and  C_17
REMARK    3  A    between atoms: C_11  and  O_12
REMARK    4  A    between atoms: O_12  and  C_13
REMARK    5  A    between atoms: C_17  and  C_18
REMARK    6  A    between atoms: C_18  and  N_19
REMARK    7  A    between atoms: C_18  and  C_23
REMARK    8  A    between atoms: C_23  and  C_27
REMARK                            x       y       z     vdW  Elec       q    Type
REMARK                         _______ _______ _______ _____ _____    ______ ____
ROOT
ATOM      1  O   UNL     1      33.273 -16.136 -26.201  0.00  0.00    -0.273 OA
ATOM      2  O   UNL     1      31.900 -13.347 -22.243  0.00  0.00    -0.275 OA
ATOM      3  N   UNL     1      33.191 -13.094 -24.160  0.00  0.00    -0.269 N 
ATOM      4  N   UNL     1      33.469 -13.944 -26.805  0.00  0.00    -0.301 N 
ATOM      5  C   UNL     1      33.262 -14.542 -24.399  0.00  0.00    +0.182 C 
ATOM      6  C   UNL     1      33.923 -12.254 -25.108  0.00  0.00    +0.115 C 
ATOM      7  C   UNL     1      33.403 -12.533 -26.499  0.00  0.00    +0.111 C 
ATOM      8  C   UNL     1      33.313 -14.947 -25.875  0.00  0.00    +0.243 C 
ATOM      9  C   UNL     1      32.513 -12.623 -23.032  0.00  0.00    +0.224 C 
ATOM     10  H   UNL     1      33.634 -14.205 -27.740  0.00  0.00    +0.150 HD
ENDROOT
BRANCH   5  11
ATOM     11  C   UNL     1      34.459 -15.148 -23.664  0.00  0.00    +0.171 C 
BRANCH  11  12
ATOM     12  O   UNL     1      34.018 -16.296 -22.964  0.00  0.00    -0.356 OA
BRANCH  12  13
ATOM     13  C   UNL     1      34.197 -16.158 -21.559  0.00  0.00    +0.093 C 
ATOM     14  C   UNL     1      35.076 -17.307 -21.066  0.00  0.00    +0.030 C 
ATOM     15  C   UNL     1      32.815 -16.224 -20.911  0.00  0.00    +0.030 C 
ATOM     16  C   UNL     1      34.856 -14.808 -21.282  0.00  0.00    +0.030 C 
ENDBRANCH  12  13
ENDBRANCH  11  12
ENDBRANCH   5  11
BRANCH   9  17
ATOM     17  C   UNL     1      32.549 -11.135 -22.793  0.00  0.00    +0.064 C 
BRANCH  17  18
ATOM     18  C   UNL     1      31.717 -10.738 -21.571  0.00  0.00    -0.052 C 
BRANCH  18  19
ATOM     19  N   UNL     1      30.317 -11.057 -21.876  0.00  0.00    +0.382 N 
ATOM     20  H   UNL     1      29.708 -10.611 -21.189  0.00  0.00    -0.089 HD
ATOM     21  H   UNL     1      30.183 -12.068 -21.845  0.00  0.00    -0.089 HD
ATOM     22  H   UNL     1      30.086 -10.713 -22.808  0.00  0.00    -0.089 HD
ENDBRANCH  18  19
BRANCH  18  23
ATOM     23  C   UNL     1      31.812  -9.236 -21.227  0.00  0.00    +0.007 C 
BRANCH  23  27
ATOM     24  F   UNL     1      30.235  -8.030 -23.251  0.00  0.00    -0.204 F 
ATOM     25  F   UNL     1      35.627  -7.125 -23.424  0.00  0.00    -0.202 F 
ATOM     26  F   UNL     1      33.989  -6.022 -25.316  0.00  0.00    -0.202 F 
ATOM     27  C   UNL     1      32.392  -8.374 -22.322  0.00  0.00    +0.006 C 
ATOM     28  C   UNL     1      31.556  -7.812 -23.287  0.00  0.00    +0.138 C 
ATOM     29  C   UNL     1      33.766  -8.143 -22.368  0.00  0.00    +0.030 C 
ATOM     30  C   UNL     1      34.306  -7.348 -23.380  0.00  0.00    +0.167 C 
ATOM     31  C   UNL     1      32.097  -7.016 -24.298  0.00  0.00    +0.061 C 
ATOM     32  C   UNL     1      33.471  -6.784 -24.345  0.00  0.00    +0.170 C 
ENDBRANCH  23  27
ENDBRANCH  18  23
ENDBRANCH  17  18
ENDBRANCH   9  17
TORSDOF 8
ENDMDL
MODEL 8
REMARK VINA RESULT:      -9.0      6.265     10.876
REMARK  Name = 25022354
REMARK  8 active torsions:
REMARK  status: ('A' for Active; 'I' for Inactive)
REMARK    1  A    between atoms: C_5  and  C_11
REMARK    2  A    between atoms: C_9  and  C_17
REMARK    3  A    between atoms: C_11  and  O_12
REMARK    4  A    between atoms: O_12  and  C_13
REMARK    5  A    between atoms: C_17  and  C_18
REMARK    6  A    between atoms: C_18  and  N_19
REMARK    7  A    between atoms: C_18  and  C_23
REMARK    8  A    between atoms: C_23  and  C_27
REMARK                            x       y       z     vdW  Elec       q    Type
REMARK                         _______ _______ _______ _____ _____    ______ ____
ROOT
ATOM      1  O   UNL     1      34.180 -10.704 -25.332  0.00  0.00    -0.273 OA
ATOM      2  O   UNL     1      34.630 -14.053 -21.603  0.00  0.00    -0.275 OA
ATOM      3  N   UNL     1      33.482 -13.865 -23.616  0.00  0.00    -0.269 N 
ATOM      4  N   UNL     1      33.605 -12.746 -26.171  0.00  0.00    -0.301 N 
ATOM      5  C   UNL     1      33.721 -12.419 -23.707  0.00  0.00    +0.182 C 
ATOM      6  C   UNL     1      32.680 -14.450 -24.691  0.00  0.00    +0.115 C 
ATOM      7  C   UNL     1      33.362 -14.162 -26.008  0.00  0.00    +0.111 C 
ATOM      8  C   UNL     1      33.877 -11.883 -25.134  0.00  0.00    +0.243 C 
ATOM      9  C   UNL     1      33.954 -14.563 -22.501  0.00  0.00    +0.224 C 
ATOM     10  H   UNL     1      33.574 -12.376 -27.083  0.00  0.00    +0.150 HD
ENDROOT
BRANCH   5  11
ATOM     11  C   UNL     1      32.611 -11.646 -22.993  0.00  0.00    +0.171 C 
BRANCH  11  12
ATOM     12  O   UNL     1      33.073 -10.332 -22.742  0.00  0.00    -0.356 OA
BRANCH  12  13
ATOM     13  C   UNL     1      32.070  -9.529 -22.129  0.00  0.00    +0.093 C 
ATOM     14  C   UNL     1      32.755  -8.488 -21.244  0.00  0.00    +0.030 C 
ATOM     15  C   UNL     1      31.192 -10.454 -21.288  0.00  0.00    +0.030 C 
ATOM     16  C   UNL     1      31.247  -8.856 -23.226  0.00  0.00    +0.030 C 
ENDBRANCH  12  13
ENDBRANCH  11  12
ENDBRANCH   5  11
BRANCH   9  17
ATOM     17  C   UNL     1      33.604 -16.027 -22.419  0.00  0.00    +0.064 C 
BRANCH  17  18
ATOM     18  C   UNL     1      34.852 -16.912 -22.468  0.00  0.00    -0.052 C 
BRANCH  18  19
ATOM     19  N   UNL     1      35.703 -16.402 -23.551  0.00  0.00    +0.382 N 
ATOM     20  H   UNL     1      35.170 -16.381 -24.421  0.00  0.00    -0.089 HD
ATOM     21  H   UNL     1      36.514 -17.010 -23.662  0.00  0.00    -0.089 HD
ATOM     22  H   UNL     1      36.015 -15.459 -23.322  0.00  0.00    -0.089 HD
ENDBRANCH  18  19
BRANCH  18  23
ATOM     23  C   UNL     1      34.539 -18.398 -22.751  0.00  0.00    +0.007 C 
BRANCH  23  27
ATOM     24  F   UNL     1      37.149 -18.815 -21.724  0.00  0.00    -0.204 F 
ATOM     25  F   UNL     1      33.069 -21.587 -19.359  0.00  0.00    -0.202 F 
ATOM     26  F   UNL     1      35.635 -21.895 -18.467  0.00  0.00    -0.202 F 
ATOM     27  C   UNL     1      34.835 -19.333 -21.604  0.00  0.00    +0.006 C 
ATOM     28  C   UNL     1      36.144 -19.490 -21.149  0.00  0.00    +0.138 C 
ATOM     29  C   UNL     1      33.796 -20.041 -21.001  0.00  0.00    +0.030 C 
ATOM     30  C   UNL     1      34.067 -20.906 -19.940  0.00  0.00    +0.167 C 
ATOM     31  C   UNL     1      36.414 -20.355 -20.088  0.00  0.00    +0.061 C 
ATOM     32  C   UNL     1      35.375 -21.064 -19.484  0.00  0.00    +0.170 C 
ENDBRANCH  23  27
ENDBRANCH  18  23
ENDBRANCH  17  18
ENDBRANCH   9  17
TORSDOF 8
ENDMDL
MODEL 9
REMARK VINA RESULT:      -9.0      7.926     12.639
REMARK  Name = 25022354
REMARK  8 active torsions:
REMARK  status: ('A' for Active; 'I' for Inactive)
REMARK    1  A    between atoms: C_5  and  C_11
REMARK    2  A    between atoms: C_9  and  C_17
REMARK    3  A    between atoms: C_11  and  O_12
REMARK    4  A    between atoms: O_12  and  C_13
REMARK    5  A    between atoms: C_17  and  C_18
REMARK    6  A    between atoms: C_18  and  N_19
REMARK    7  A    between atoms: C_18  and  C_23
REMARK    8  A    between atoms: C_23  and  C_27
REMARK                            x       y       z     vdW  Elec       q    Type
REMARK                         _______ _______ _______ _____ _____    ______ ____
ROOT
ATOM      1  O   UNL     1      34.944  -7.608 -23.467  0.00  0.00    -0.273 OA
ATOM      2  O   UNL     1      31.798 -10.986 -21.462  0.00  0.00    -0.275 OA
ATOM      3  N   UNL     1      32.945 -10.680 -23.461  0.00  0.00    -0.269 N 
ATOM      4  N   UNL     1      35.258  -9.579 -24.573  0.00  0.00    -0.301 N 
ATOM      5  C   UNL     1      33.224  -9.266 -23.175  0.00  0.00    +0.182 C 
ATOM      6  C   UNL     1      33.424 -11.177 -24.751  0.00  0.00    +0.115 C 
ATOM      7  C   UNL     1      34.919 -10.962 -24.822  0.00  0.00    +0.111 C 
ATOM      8  C   UNL     1      34.555  -8.750 -23.730  0.00  0.00    +0.243 C 
ATOM      9  C   UNL     1      32.194 -11.423 -22.547  0.00  0.00    +0.224 C 
ATOM     10  H   UNL     1      36.044  -9.207 -25.036  0.00  0.00    +0.150 HD
ENDROOT
BRANCH   5  11
ATOM     11  C   UNL     1      32.085  -8.381 -23.684  0.00  0.00    +0.171 C 
BRANCH  11  12
ATOM     12  O   UNL     1      31.405  -7.842 -22.567  0.00  0.00    -0.356 OA
BRANCH  12  13
ATOM     13  C   UNL     1      31.596  -6.435 -22.462  0.00  0.00    +0.093 C 
ATOM     14  C   UNL     1      32.161  -5.921 -23.786  0.00  0.00    +0.030 C 
ATOM     15  C   UNL     1      32.586  -6.190 -21.324  0.00  0.00    +0.030 C 
ATOM     16  C   UNL     1      30.250  -5.782 -22.153  0.00  0.00    +0.030 C 
ENDBRANCH  12  13
ENDBRANCH  11  12
ENDBRANCH   5  11
BRANCH   9  17
ATOM     17  C   UNL     1      31.866 -12.842 -22.935  0.00  0.00    +0.064 C 
BRANCH  17  18
ATOM     18  C   UNL     1      32.588 -13.855 -22.043  0.00  0.00    -0.052 C 
BRANCH  18  19
ATOM     19  N   UNL     1      32.524 -13.344 -20.667  0.00  0.00    +0.382 N 
ATOM     20  H   UNL     1      33.323 -12.734 -20.492  0.00  0.00    -0.089 HD
ATOM     21  H   UNL     1      32.542 -14.126 -20.012  0.00  0.00    -0.089 HD
ATOM     22  H   UNL     1      31.660 -12.816 -20.541  0.00  0.00    -0.089 HD
ENDBRANCH  18  19
BRANCH  18  23
ATOM     23  C   UNL     1      34.072 -14.055 -22.420  0.00  0.00    +0.007 C 
BRANCH  23  27
ATOM     24  F   UNL     1      34.822 -15.931 -20.430  0.00  0.00    -0.204 F 
ATOM     25  F   UNL     1      34.800 -17.674 -25.615  0.00  0.00    -0.202 F 
ATOM     26  F   UNL     1      35.503 -19.380 -23.598  0.00  0.00    -0.202 F 
ATOM     27  C   UNL     1      34.455 -15.481 -22.732  0.00  0.00    +0.006 C 
ATOM     28  C   UNL     1      34.814 -16.351 -21.703  0.00  0.00    +0.138 C 
ATOM     29  C   UNL     1      34.451 -15.927 -24.054  0.00  0.00    +0.030 C 
ATOM     30  C   UNL     1      34.805 -17.245 -24.346  0.00  0.00    +0.167 C 
ATOM     31  C   UNL     1      35.167 -17.669 -21.996  0.00  0.00    +0.061 C 
ATOM     32  C   UNL     1      35.163 -18.116 -23.317  0.00  0.00    +0.170 C 
ENDBRANCH  23  27
ENDBRANCH  18  23
ENDBRANCH  17  18
ENDBRANCH   9  17
TORSDOF 8
ENDMDL
