MODEL 1
REMARK VINA RESULT:      -6.9      0.000      0.000
REMARK  Name = 6258
REMARK  0 active torsions:
REMARK  status: ('A' for Active; 'I' for Inactive)
REMARK                            x       y       z     vdW  Elec       q    Type
REMARK                         _______ _______ _______ _____ _____    ______ ____
ROOT
ATOM      1 CL   UNL     1      35.779 -17.797 -22.712  0.00  0.00    -0.082 Cl
ATOM      2  S   UNL     1      36.389 -21.635 -18.761  0.00  0.00    -0.010 S 
ATOM      3  O   UNL     1      32.648 -22.327 -18.762  0.00  0.00    -0.267 OA
ATOM      4  N   UNL     1      34.932 -22.380 -18.285  0.00  0.00    -0.292 N 
ATOM      5  C   UNL     1      34.149 -20.896 -19.914  0.00  0.00    +0.064 A 
ATOM      6  C   UNL     1      35.517 -20.630 -19.927  0.00  0.00    +0.051 A 
ATOM      7  C   UNL     1      33.266 -20.227 -20.747  0.00  0.00    +0.006 C 
ATOM      8  C   UNL     1      33.792 -21.939 -18.937  0.00  0.00    +0.264 A 
ATOM      9  C   UNL     1      36.040 -19.675 -20.785  0.00  0.00    +0.019 C 
ATOM     10  C   UNL     1      33.786 -19.264 -21.614  0.00  0.00    +0.012 C 
ATOM     11  C   UNL     1      35.164 -18.990 -21.632  0.00  0.00    +0.058 C 
ATOM     12  H   UNL     1      34.902 -23.079 -17.592  0.00  0.00    +0.177 HD
ENDROOT
TORSDOF 0
ENDMDL
MODEL 2
REMARK VINA RESULT:      -6.9      6.048      6.891
REMARK  Name = 6258
REMARK  0 active torsions:
REMARK  status: ('A' for Active; 'I' for Inactive)
REMARK                            x       y       z     vdW  Elec       q    Type
REMARK                         _______ _______ _______ _____ _____    ______ ____
ROOT
ATOM      1 CL   UNL     1      36.069 -18.667 -21.220  0.00  0.00    -0.082 Cl
ATOM      2  S   UNL     1      33.787 -14.049 -23.264  0.00  0.00    -0.010 S 
ATOM      3  O   UNL     1      33.341 -15.695 -26.665  0.00  0.00    -0.267 OA
ATOM      4  N   UNL     1      33.330 -14.166 -24.902  0.00  0.00    -0.292 N 
ATOM      5  C   UNL     1      34.207 -16.304 -24.542  0.00  0.00    +0.064 A 
ATOM      6  C   UNL     1      34.378 -15.717 -23.289  0.00  0.00    +0.051 A 
ATOM      7  C   UNL     1      34.599 -17.609 -24.797  0.00  0.00    +0.006 C 
ATOM      8  C   UNL     1      33.582 -15.385 -25.509  0.00  0.00    +0.264 A 
ATOM      9  C   UNL     1      34.952 -16.431 -22.250  0.00  0.00    +0.019 C 
ATOM     10  C   UNL     1      35.177 -18.334 -23.754  0.00  0.00    +0.012 C 
ATOM     11  C   UNL     1      35.352 -17.749 -22.489  0.00  0.00    +0.058 C 
ATOM     12  H   UNL     1      32.913 -13.417 -25.385  0.00  0.00    +0.177 HD
ENDROOT
TORSDOF 0
ENDMDL
MODEL 3
REMARK VINA RESULT:      -6.7      4.507      5.341
REMARK  Name = 6258
REMARK  0 active torsions:
REMARK  status: ('A' for Active; 'I' for Inactive)
REMARK                            x       y       z     vdW  Elec       q    Type
REMARK                         _______ _______ _______ _____ _____    ______ ____
ROOT
ATOM      1 CL   UNL     1      33.196 -14.929 -26.313  0.00  0.00    -0.082 Cl
ATOM      2  S   UNL     1      34.388 -15.572 -20.939  0.00  0.00    -0.010 S 
ATOM      3  O   UNL     1      36.028 -18.933 -21.637  0.00  0.00    -0.267 OA
ATOM      4  N   UNL     1      35.203 -17.025 -20.577  0.00  0.00    -0.292 N 
ATOM      5  C   UNL     1      34.944 -17.237 -22.892  0.00  0.00    +0.064 A 
ATOM      6  C   UNL     1      34.340 -16.004 -22.655  0.00  0.00    +0.051 A 
ATOM      7  C   UNL     1      35.024 -17.779 -24.165  0.00  0.00    +0.006 C 
ATOM      8  C   UNL     1      35.462 -17.853 -21.658  0.00  0.00    +0.264 A 
ATOM      9  C   UNL     1      33.793 -15.275 -23.700  0.00  0.00    +0.019 C 
ATOM     10  C   UNL     1      34.476 -17.050 -25.222  0.00  0.00    +0.012 C 
ATOM     11  C   UNL     1      33.865 -15.807 -24.990  0.00  0.00    +0.058 C 
ATOM     12  H   UNL     1      35.472 -17.261 -19.660  0.00  0.00    +0.177 HD
ENDROOT
TORSDOF 0
ENDMDL
MODEL 4
REMARK VINA RESULT:      -6.6      5.821      6.499
REMARK  Name = 6258
REMARK  0 active torsions:
REMARK  status: ('A' for Active; 'I' for Inactive)
REMARK                            x       y       z     vdW  Elec       q    Type
REMARK                         _______ _______ _______ _____ _____    ______ ____
ROOT
ATOM      1 CL   UNL     1      32.302 -13.140 -20.683  0.00  0.00    -0.082 Cl
ATOM      2  S   UNL     1      35.345 -17.520 -22.187  0.00  0.00    -0.010 S 
ATOM      3  O   UNL     1      34.802 -16.719 -25.866  0.00  0.00    -0.267 OA
ATOM      4  N   UNL     1      35.490 -17.720 -23.874  0.00  0.00    -0.292 N 
ATOM      5  C   UNL     1      34.158 -15.800 -23.776  0.00  0.00    +0.064 A 
ATOM      6  C   UNL     1      34.347 -16.079 -22.423  0.00  0.00    +0.051 A 
ATOM      7  C   UNL     1      33.407 -14.715 -24.201  0.00  0.00    +0.006 C 
ATOM      8  C   UNL     1      34.837 -16.775 -24.648  0.00  0.00    +0.264 A 
ATOM      9  C   UNL     1      33.781 -15.268 -21.453  0.00  0.00    +0.019 C 
ATOM     10  C   UNL     1      32.835 -13.894 -23.228  0.00  0.00    +0.012 C 
ATOM     11  C   UNL     1      33.020 -14.169 -21.863  0.00  0.00    +0.058 C 
ATOM     12  H   UNL     1      36.004 -18.459 -24.272  0.00  0.00    +0.177 HD
ENDROOT
TORSDOF 0
ENDMDL
MODEL 5
REMARK VINA RESULT:      -6.5      4.949      5.689
REMARK  Name = 6258
REMARK  0 active torsions:
REMARK  status: ('A' for Active; 'I' for Inactive)
REMARK                            x       y       z     vdW  Elec       q    Type
REMARK                         _______ _______ _______ _____ _____    ______ ____
ROOT
ATOM      1 CL   UNL     1      33.250 -14.913 -26.514  0.00  0.00    -0.082 Cl
ATOM      2  S   UNL     1      35.259 -18.281 -22.598  0.00  0.00    -0.010 S 
ATOM      3  O   UNL     1      34.867 -15.563 -19.965  0.00  0.00    -0.267 OA
ATOM      4  N   UNL     1      35.341 -17.575 -21.049  0.00  0.00    -0.292 N 
ATOM      5  C   UNL     1      34.457 -15.800 -22.290  0.00  0.00    +0.064 A 
ATOM      6  C   UNL     1      34.594 -16.784 -23.267  0.00  0.00    +0.051 A 
ATOM      7  C   UNL     1      33.955 -14.542 -22.584  0.00  0.00    +0.006 C 
ATOM      8  C   UNL     1      34.901 -16.264 -20.963  0.00  0.00    +0.264 A 
ATOM      9  C   UNL     1      34.226 -16.528 -24.579  0.00  0.00    +0.019 C 
ATOM     10  C   UNL     1      33.582 -14.278 -23.903  0.00  0.00    +0.012 C 
ATOM     11  C   UNL     1      33.717 -15.265 -24.893  0.00  0.00    +0.058 C 
ATOM     12  H   UNL     1      35.679 -18.066 -20.266  0.00  0.00    +0.177 HD
ENDROOT
TORSDOF 0
ENDMDL
MODEL 6
REMARK VINA RESULT:      -6.4      5.147      5.904
REMARK  Name = 6258
REMARK  0 active torsions:
REMARK  status: ('A' for Active; 'I' for Inactive)
REMARK                            x       y       z     vdW  Elec       q    Type
REMARK                         _______ _______ _______ _____ _____    ______ ____
ROOT
ATOM      1 CL   UNL     1      31.940 -12.592 -22.196  0.00  0.00    -0.082 Cl
ATOM      2  S   UNL     1      34.864 -16.786 -24.334  0.00  0.00    -0.010 S 
ATOM      3  O   UNL     1      35.786 -18.007 -20.851  0.00  0.00    -0.267 OA
ATOM      4  N   UNL     1      35.594 -17.791 -23.166  0.00  0.00    -0.292 N 
ATOM      5  C   UNL     1      34.519 -16.235 -21.791  0.00  0.00    +0.064 A 
ATOM      6  C   UNL     1      34.172 -15.774 -23.059  0.00  0.00    +0.051 A 
ATOM      7  C   UNL     1      34.088 -15.598 -20.637  0.00  0.00    +0.006 C 
ATOM      8  C   UNL     1      35.367 -17.439 -21.846  0.00  0.00    +0.264 A 
ATOM      9  C   UNL     1      33.375 -14.649 -23.205  0.00  0.00    +0.019 C 
ATOM     10  C   UNL     1      33.286 -14.464 -20.777  0.00  0.00    +0.012 C 
ATOM     11  C   UNL     1      32.932 -13.993 -22.052  0.00  0.00    +0.058 C 
ATOM     12  H   UNL     1      36.140 -18.572 -23.414  0.00  0.00    +0.177 HD
ENDROOT
TORSDOF 0
ENDMDL
MODEL 7
REMARK VINA RESULT:      -6.4      5.048      5.722
REMARK  Name = 6258
REMARK  0 active torsions:
REMARK  status: ('A' for Active; 'I' for Inactive)
REMARK                            x       y       z     vdW  Elec       q    Type
REMARK                         _______ _______ _______ _____ _____    ______ ____
ROOT
ATOM      1 CL   UNL     1      34.978 -20.039 -24.892  0.00  0.00    -0.082 Cl
ATOM      2  S   UNL     1      34.159 -14.694 -23.679  0.00  0.00    -0.010 S 
ATOM      3  O   UNL     1      34.823 -15.360 -19.992  0.00  0.00    -0.267 OA
ATOM      4  N   UNL     1      34.332 -14.322 -22.025  0.00  0.00    -0.292 N 
ATOM      5  C   UNL     1      34.764 -16.621 -22.001  0.00  0.00    +0.064 A 
ATOM      6  C   UNL     1      34.524 -16.395 -23.355  0.00  0.00    +0.051 A 
ATOM      7  C   UNL     1      35.070 -17.881 -21.513  0.00  0.00    +0.006 C 
ATOM      8  C   UNL     1      34.651 -15.389 -21.200  0.00  0.00    +0.264 A 
ATOM      9  C   UNL     1      34.585 -17.439 -24.264  0.00  0.00    +0.019 C 
ATOM     10  C   UNL     1      35.134 -18.938 -22.424  0.00  0.00    +0.012 C 
ATOM     11  C   UNL     1      34.893 -18.718 -23.789  0.00  0.00    +0.058 C 
ATOM     12  H   UNL     1      34.212 -13.409 -21.677  0.00  0.00    +0.177 HD
ENDROOT
TORSDOF 0
ENDMDL
MODEL 8
REMARK VINA RESULT:      -6.4      3.498      4.061
REMARK  Name = 6258
REMARK  0 active torsions:
REMARK  status: ('A' for Active; 'I' for Inactive)
REMARK                            x       y       z     vdW  Elec       q    Type
REMARK                         _______ _______ _______ _____ _____    ______ ____
ROOT
ATOM      1 CL   UNL     1      33.530 -22.883 -18.380  0.00  0.00    -0.082 Cl
ATOM      2  S   UNL     1      37.122 -19.525 -20.935  0.00  0.00    -0.010 S 
ATOM      3  O   UNL     1      34.269 -17.516 -22.451  0.00  0.00    -0.267 OA
ATOM      4  N   UNL     1      36.388 -18.298 -21.863  0.00  0.00    -0.292 N 
ATOM      5  C   UNL     1      34.502 -19.398 -21.025  0.00  0.00    +0.064 A 
ATOM      6  C   UNL     1      35.534 -20.145 -20.461  0.00  0.00    +0.051 A 
ATOM      7  C   UNL     1      33.169 -19.700 -20.792  0.00  0.00    +0.006 C 
ATOM      8  C   UNL     1      35.002 -18.294 -21.863  0.00  0.00    +0.264 A 
ATOM      9  C   UNL     1      35.254 -21.226 -19.641  0.00  0.00    +0.019 C 
ATOM     10  C   UNL     1      32.880 -20.788 -19.967  0.00  0.00    +0.012 C 
ATOM     11  C   UNL     1      33.915 -21.545 -19.395  0.00  0.00    +0.058 C 
ATOM     12  H   UNL     1      36.914 -17.636 -22.367  0.00  0.00    +0.177 HD
ENDROOT
TORSDOF 0
ENDMDL
MODEL 9
REMARK VINA RESULT:      -6.3      3.802      4.579
REMARK  Name = 6258
REMARK  0 active torsions:
REMARK  status: ('A' for Active; 'I' for Inactive)
REMARK                            x       y       z     vdW  Elec       q    Type
REMARK                         _______ _______ _______ _____ _____    ______ ____
ROOT
ATOM      1 CL   UNL     1      33.105 -22.694 -18.360  0.00  0.00    -0.082 Cl
ATOM      2  S   UNL     1      34.223 -18.472 -21.772  0.00  0.00    -0.010 S 
ATOM      3  O   UNL     1      37.962 -19.027 -21.342  0.00  0.00    -0.267 OA
ATOM      4  N   UNL     1      35.888 -18.191 -22.007  0.00  0.00    -0.292 N 
ATOM      5  C   UNL     1      35.958 -20.010 -20.539  0.00  0.00    +0.064 A 
ATOM      6  C   UNL     1      34.584 -19.821 -20.685  0.00  0.00    +0.051 A 
ATOM      7  C   UNL     1      36.476 -21.012 -19.733  0.00  0.00    +0.006 C 
ATOM      8  C   UNL     1      36.742 -19.041 -21.325  0.00  0.00    +0.264 A 
ATOM      9  C   UNL     1      33.687 -20.641 -20.020  0.00  0.00    +0.019 C 
ATOM     10  C   UNL     1      35.577 -21.841 -19.060  0.00  0.00    +0.012 C 
ATOM     11  C   UNL     1      34.193 -21.656 -19.203  0.00  0.00    +0.058 C 
ATOM     12  H   UNL     1      36.220 -17.470 -22.590  0.00  0.00    +0.177 HD
ENDROOT
TORSDOF 0
ENDMDL
