MODEL 1
REMARK VINA RESULT:      -9.0      0.000      0.000
REMARK  Name = 13314
REMARK  2 active torsions:
REMARK  status: ('A' for Active; 'I' for Inactive)
REMARK    1  A    between atoms: C_7  and  C_16
REMARK    2  A    between atoms: C_8  and  O_22
REMARK                            x       y       z     vdW  Elec       q    Type
REMARK                         _______ _______ _______ _____ _____    ______ ____
ROOT
ATOM      1 CL   UNL     1      35.942 -21.725 -18.811  0.00  0.00    -0.082 Cl
ATOM      2  O   UNL     1      30.830 -24.427 -13.139  0.00  0.00    -0.270 OA
ATOM      3  N   UNL     1      31.716 -24.032 -15.253  0.00  0.00    -0.253 N 
ATOM      4  N   UNL     1      33.970 -23.784 -13.244  0.00  0.00    -0.235 NA
ATOM      5  C   UNL     1      34.107 -23.422 -15.670  0.00  0.00    +0.032 C 
ATOM      6  C   UNL     1      32.764 -23.515 -16.089  0.00  0.00    +0.055 C 
ATOM      7  C   UNL     1      34.576 -23.974 -14.366  0.00  0.00    +0.081 C 
ATOM      8  C   UNL     1      32.748 -22.998 -13.245  0.00  0.00    +0.296 C 
ATOM      9  C   UNL     1      31.686 -23.902 -13.857  0.00  0.00    +0.281 C 
ATOM     10  C   UNL     1      35.080 -22.851 -16.511  0.00  0.00    +0.014 C 
ATOM     11  C   UNL     1      32.459 -23.089 -17.397  0.00  0.00    +0.016 C 
ATOM     12  C   UNL     1      30.578 -24.681 -15.905  0.00  0.00    +0.120 C 
ATOM     13  C   UNL     1      34.742 -22.411 -17.786  0.00  0.00    +0.058 C 
ATOM     14  C   UNL     1      33.434 -22.542 -18.234  0.00  0.00    +0.013 C 
ENDROOT
BRANCH   7  16
ATOM     15 CL   UNL     1      36.939 -23.022 -12.617  0.00  0.00    -0.082 Cl
ATOM     16  C   UNL     1      35.809 -24.812 -14.339  0.00  0.00    +0.028 C 
ATOM     17  C   UNL     1      36.918 -24.458 -13.578  0.00  0.00    +0.059 C 
ATOM     18  C   UNL     1      35.821 -25.975 -15.104  0.00  0.00    +0.002 C 
ATOM     19  C   UNL     1      38.050 -25.273 -13.582  0.00  0.00    +0.011 C 
ATOM     20  C   UNL     1      36.953 -26.789 -15.108  0.00  0.00    +0.000 C 
ATOM     21  C   UNL     1      38.068 -26.440 -14.346  0.00  0.00    +0.001 C 
ENDBRANCH   7  16
BRANCH   8  22
ATOM     22  O   UNL     1      32.285 -22.613 -11.952  0.00  0.00    -0.357 OA
ATOM     23  H   UNL     1      32.367 -21.652 -11.852  0.00  0.00    +0.213 HD
ENDBRANCH   8  22
TORSDOF 2
ENDMDL
MODEL 2
REMARK VINA RESULT:      -8.5     12.439     14.844
REMARK  Name = 13314
REMARK  2 active torsions:
REMARK  status: ('A' for Active; 'I' for Inactive)
REMARK    1  A    between atoms: C_7  and  C_16
REMARK    2  A    between atoms: C_8  and  O_22
REMARK                            x       y       z     vdW  Elec       q    Type
REMARK                         _______ _______ _______ _____ _____    ______ ____
ROOT
ATOM      1 CL   UNL     1      30.447 -11.361 -20.488  0.00  0.00    -0.082 Cl
ATOM      2  O   UNL     1      35.285 -11.497 -26.983  0.00  0.00    -0.270 OA
ATOM      3  N   UNL     1      34.366 -10.767 -24.975  0.00  0.00    -0.253 N 
ATOM      4  N   UNL     1      33.722 -13.712 -25.270  0.00  0.00    -0.235 NA
ATOM      5  C   UNL     1      33.017 -12.221 -23.449  0.00  0.00    +0.032 C 
ATOM      6  C   UNL     1      33.452 -10.952 -23.882  0.00  0.00    +0.055 C 
ATOM      7  C   UNL     1      33.571 -13.488 -24.009  0.00  0.00    +0.081 C 
ATOM      8  C   UNL     1      33.345 -12.666 -26.206  0.00  0.00    +0.296 C 
ATOM      9  C   UNL     1      34.437 -11.611 -26.093  0.00  0.00    +0.281 C 
ATOM     10  C   UNL     1      32.074 -12.339 -22.411  0.00  0.00    +0.014 C 
ATOM     11  C   UNL     1      32.968  -9.826 -23.186  0.00  0.00    +0.016 C 
ATOM     12  C   UNL     1      35.233  -9.589 -24.950  0.00  0.00    +0.120 C 
ATOM     13  C   UNL     1      31.591 -11.206 -21.764  0.00  0.00    +0.058 C 
ATOM     14  C   UNL     1      32.048  -9.951 -22.143  0.00  0.00    +0.013 C 
ENDROOT
BRANCH   7  16
ATOM     15 CL   UNL     1      33.982 -16.328 -25.155  0.00  0.00    -0.082 Cl
ATOM     16  C   UNL     1      33.996 -14.566 -23.071  0.00  0.00    +0.028 C 
ATOM     17  C   UNL     1      34.206 -15.871 -23.504  0.00  0.00    +0.059 C 
ATOM     18  C   UNL     1      34.184 -14.227 -21.734  0.00  0.00    +0.002 C 
ATOM     19  C   UNL     1      34.605 -16.848 -22.591  0.00  0.00    +0.011 C 
ATOM     20  C   UNL     1      34.583 -15.203 -20.822  0.00  0.00    +0.000 C 
ATOM     21  C   UNL     1      34.795 -16.514 -21.250  0.00  0.00    +0.001 C 
ENDBRANCH   7  16
BRANCH   8  22
ATOM     22  O   UNL     1      33.292 -13.078 -27.570  0.00  0.00    -0.357 OA
ATOM     23  H   UNL     1      34.063 -13.631 -27.772  0.00  0.00    +0.213 HD
ENDBRANCH   8  22
TORSDOF 2
ENDMDL
MODEL 3
REMARK VINA RESULT:      -8.0      2.509      5.407
REMARK  Name = 13314
REMARK  2 active torsions:
REMARK  status: ('A' for Active; 'I' for Inactive)
REMARK    1  A    between atoms: C_7  and  C_16
REMARK    2  A    between atoms: C_8  and  O_22
REMARK                            x       y       z     vdW  Elec       q    Type
REMARK                         _______ _______ _______ _____ _____    ______ ____
ROOT
ATOM      1 CL   UNL     1      36.862 -27.773 -16.572  0.00  0.00    -0.082 Cl
ATOM      2  O   UNL     1      36.875 -22.716 -10.245  0.00  0.00    -0.270 OA
ATOM      3  N   UNL     1      37.578 -23.727 -12.219  0.00  0.00    -0.253 N 
ATOM      4  N   UNL     1      34.611 -24.260 -11.912  0.00  0.00    -0.235 NA
ATOM      5  C   UNL     1      36.082 -25.077 -13.703  0.00  0.00    +0.032 C 
ATOM      6  C   UNL     1      37.365 -24.670 -13.281  0.00  0.00    +0.055 C 
ATOM      7  C   UNL     1      34.834 -24.462 -13.166  0.00  0.00    +0.081 C 
ATOM      8  C   UNL     1      35.642 -24.640 -10.960  0.00  0.00    +0.296 C 
ATOM      9  C   UNL     1      36.734 -23.589 -11.107  0.00  0.00    +0.281 C 
ATOM     10  C   UNL     1      35.935 -26.050 -14.709  0.00  0.00    +0.014 C 
ATOM     11  C   UNL     1      38.475 -25.215 -13.956  0.00  0.00    +0.016 C 
ATOM     12  C   UNL     1      38.785 -22.901 -12.269  0.00  0.00    +0.120 C 
ATOM     13  C   UNL     1      37.053 -26.592 -15.335  0.00  0.00    +0.058 C 
ATOM     14  C   UNL     1      38.322 -26.166 -14.968  0.00  0.00    +0.013 C 
ENDROOT
BRANCH   7  16
ATOM     15 CL   UNL     1      35.645 -22.593 -15.490  0.00  0.00    -0.082 Cl
ATOM     16  C   UNL     1      33.773 -24.032 -14.122  0.00  0.00    +0.028 C 
ATOM     17  C   UNL     1      34.052 -23.193 -15.196  0.00  0.00    +0.059 C 
ATOM     18  C   UNL     1      32.479 -24.500 -13.910  0.00  0.00    +0.002 C 
ATOM     19  C   UNL     1      33.028 -22.818 -16.066  0.00  0.00    +0.011 C 
ATOM     20  C   UNL     1      31.456 -24.125 -14.779  0.00  0.00    +0.000 C 
ATOM     21  C   UNL     1      31.729 -23.284 -15.859  0.00  0.00    +0.001 C 
ENDBRANCH   7  16
BRANCH   8  22
ATOM     22  O   UNL     1      35.225 -24.633  -9.597  0.00  0.00    -0.357 OA
ATOM     23  H   UNL     1      34.441 -24.071  -9.501  0.00  0.00    +0.213 HD
ENDBRANCH   8  22
TORSDOF 2
ENDMDL
MODEL 4
REMARK VINA RESULT:      -8.0      2.497      5.014
REMARK  Name = 13314
REMARK  2 active torsions:
REMARK  status: ('A' for Active; 'I' for Inactive)
REMARK    1  A    between atoms: C_7  and  C_16
REMARK    2  A    between atoms: C_8  and  O_22
REMARK                            x       y       z     vdW  Elec       q    Type
REMARK                         _______ _______ _______ _____ _____    ______ ____
ROOT
ATOM      1 CL   UNL     1      35.657 -20.899 -19.462  0.00  0.00    -0.082 Cl
ATOM      2  O   UNL     1      36.913 -25.538 -12.943  0.00  0.00    -0.270 OA
ATOM      3  N   UNL     1      37.042 -23.691 -14.351  0.00  0.00    -0.253 N 
ATOM      4  N   UNL     1      34.580 -25.278 -15.127  0.00  0.00    -0.235 NA
ATOM      5  C   UNL     1      35.429 -23.243 -16.212  0.00  0.00    +0.032 C 
ATOM      6  C   UNL     1      36.660 -23.017 -15.561  0.00  0.00    +0.055 C 
ATOM      7  C   UNL     1      34.365 -24.108 -15.627  0.00  0.00    +0.081 C 
ATOM      8  C   UNL     1      35.943 -25.782 -15.118  0.00  0.00    +0.296 C 
ATOM      9  C   UNL     1      36.656 -25.000 -14.023  0.00  0.00    +0.281 C 
ATOM     10  C   UNL     1      35.134 -22.598 -17.427  0.00  0.00    +0.014 C 
ATOM     11  C   UNL     1      37.534 -22.071 -16.132  0.00  0.00    +0.016 C 
ATOM     12  C   UNL     1      37.942 -22.992 -13.433  0.00  0.00    +0.120 C 
ATOM     13  C   UNL     1      36.032 -21.691 -17.981  0.00  0.00    +0.058 C 
ATOM     14  C   UNL     1      37.226 -21.418 -17.328  0.00  0.00    +0.013 C 
ENDROOT
BRANCH   7  16
ATOM     15 CL   UNL     1      33.055 -23.647 -12.866  0.00  0.00    -0.082 Cl
ATOM     16  C   UNL     1      32.962 -23.603 -15.593  0.00  0.00    +0.028 C 
ATOM     17  C   UNL     1      32.298 -23.366 -14.394  0.00  0.00    +0.059 C 
ATOM     18  C   UNL     1      32.326 -23.368 -16.809  0.00  0.00    +0.002 C 
ATOM     19  C   UNL     1      30.986 -22.892 -14.410  0.00  0.00    +0.011 C 
ATOM     20  C   UNL     1      31.015 -22.894 -16.825  0.00  0.00    +0.000 C 
ATOM     21  C   UNL     1      30.345 -22.655 -15.625  0.00  0.00    +0.001 C 
ENDBRANCH   7  16
BRANCH   8  22
ATOM     22  O   UNL     1      36.064 -27.167 -14.798  0.00  0.00    -0.357 OA
ATOM     23  H   UNL     1      35.622 -27.696 -15.480  0.00  0.00    +0.213 HD
ENDBRANCH   8  22
TORSDOF 2
ENDMDL
MODEL 5
REMARK VINA RESULT:      -7.5     12.481     15.153
REMARK  Name = 13314
REMARK  2 active torsions:
REMARK  status: ('A' for Active; 'I' for Inactive)
REMARK    1  A    between atoms: C_7  and  C_16
REMARK    2  A    between atoms: C_8  and  O_22
REMARK                            x       y       z     vdW  Elec       q    Type
REMARK                         _______ _______ _______ _____ _____    ______ ____
ROOT
ATOM      1 CL   UNL     1      34.991 -15.797 -20.479  0.00  0.00    -0.082 Cl
ATOM      2  O   UNL     1      33.066 -12.580 -27.659  0.00  0.00    -0.270 OA
ATOM      3  N   UNL     1      33.172 -14.140 -25.937  0.00  0.00    -0.253 N 
ATOM      4  N   UNL     1      33.701 -11.406 -24.743  0.00  0.00    -0.235 NA
ATOM      5  C   UNL     1      33.730 -13.563 -23.566  0.00  0.00    +0.032 C 
ATOM      6  C   UNL     1      33.575 -14.503 -24.606  0.00  0.00    +0.055 C 
ATOM      7  C   UNL     1      33.363 -12.127 -23.728  0.00  0.00    +0.081 C 
ATOM      8  C   UNL     1      34.475 -12.031 -25.803  0.00  0.00    +0.296 C 
ATOM      9  C   UNL     1      33.491 -12.920 -26.551  0.00  0.00    +0.281 C 
ATOM     10  C   UNL     1      34.186 -13.968 -22.298  0.00  0.00    +0.014 C 
ATOM     11  C   UNL     1      33.817 -15.857 -24.301  0.00  0.00    +0.016 C 
ATOM     12  C   UNL     1      32.436 -15.131 -26.722  0.00  0.00    +0.120 C 
ATOM     13  C   UNL     1      34.445 -15.310 -22.036  0.00  0.00    +0.058 C 
ATOM     14  C   UNL     1      34.249 -16.255 -23.034  0.00  0.00    +0.013 C 
ENDROOT
BRANCH   7  16
ATOM     15 CL   UNL     1      33.646  -9.071 -23.365  0.00  0.00    -0.082 Cl
ATOM     16  C   UNL     1      32.542 -11.469 -22.672  0.00  0.00    +0.028 C 
ATOM     17  C   UNL     1      32.607 -10.098 -22.443  0.00  0.00    +0.059 C 
ATOM     18  C   UNL     1      31.695 -12.271 -21.912  0.00  0.00    +0.002 C 
ATOM     19  C   UNL     1      31.819  -9.525 -21.444  0.00  0.00    +0.011 C 
ATOM     20  C   UNL     1      30.908 -11.698 -20.915  0.00  0.00    +0.000 C 
ATOM     21  C   UNL     1      30.968 -10.324 -20.680  0.00  0.00    +0.001 C 
ENDBRANCH   7  16
BRANCH   8  22
ATOM     22  O   UNL     1      35.031 -11.121 -26.751  0.00  0.00    -0.357 OA
ATOM     23  H   UNL     1      35.615 -11.602 -27.357  0.00  0.00    +0.213 HD
ENDBRANCH   8  22
TORSDOF 2
ENDMDL
MODEL 6
REMARK VINA RESULT:      -7.5     14.982     17.221
REMARK  Name = 13314
REMARK  2 active torsions:
REMARK  status: ('A' for Active; 'I' for Inactive)
REMARK    1  A    between atoms: C_7  and  C_16
REMARK    2  A    between atoms: C_8  and  O_22
REMARK                            x       y       z     vdW  Elec       q    Type
REMARK                         _______ _______ _______ _____ _____    ______ ____
ROOT
ATOM      1 CL   UNL     1      31.671 -13.477 -20.688  0.00  0.00    -0.082 Cl
ATOM      2  O   UNL     1      31.788  -5.466 -21.870  0.00  0.00    -0.270 OA
ATOM      3  N   UNL     1      32.123  -7.509 -20.811  0.00  0.00    -0.253 N 
ATOM      4  N   UNL     1      31.829  -8.042 -23.779  0.00  0.00    -0.235 NA
ATOM      5  C   UNL     1      32.124  -9.711 -22.000  0.00  0.00    +0.032 C 
ATOM      6  C   UNL     1      32.051  -8.944 -20.819  0.00  0.00    +0.055 C 
ATOM      7  C   UNL     1      32.412  -9.102 -23.331  0.00  0.00    +0.081 C 
ATOM      8  C   UNL     1      30.842  -7.390 -22.935  0.00  0.00    +0.296 C 
ATOM      9  C   UNL     1      31.642  -6.691 -21.844  0.00  0.00    +0.281 C 
ATOM     10  C   UNL     1      31.988 -11.111 -21.953  0.00  0.00    +0.014 C 
ATOM     11  C   UNL     1      31.917  -9.637 -19.600  0.00  0.00    +0.016 C 
ATOM     12  C   UNL     1      32.675  -6.859 -19.623  0.00  0.00    +0.120 C 
ATOM     13  C   UNL     1      31.825 -11.764 -20.736  0.00  0.00    +0.058 C 
ATOM     14  C   UNL     1      31.803 -11.029 -19.558  0.00  0.00    +0.013 C 
ENDROOT
BRANCH   7  16
ATOM     15 CL   UNL     1      35.145  -7.685 -23.599  0.00  0.00    -0.082 Cl
ATOM     16  C   UNL     1      33.443  -9.731 -24.204  0.00  0.00    +0.028 C 
ATOM     17  C   UNL     1      34.700  -9.161 -24.380  0.00  0.00    +0.059 C 
ATOM     18  C   UNL     1      33.113 -10.921 -24.847  0.00  0.00    +0.002 C 
ATOM     19  C   UNL     1      35.635  -9.785 -25.205  0.00  0.00    +0.011 C 
ATOM     20  C   UNL     1      34.048 -11.545 -25.672  0.00  0.00    +0.000 C 
ATOM     21  C   UNL     1      35.310 -10.978 -25.851  0.00  0.00    +0.001 C 
ENDBRANCH   7  16
BRANCH   8  22
ATOM     22  O   UNL     1      30.060  -6.395 -23.593  0.00  0.00    -0.357 OA
ATOM     23  H   UNL     1      30.497  -6.132 -24.417  0.00  0.00    +0.213 HD
ENDBRANCH   8  22
TORSDOF 2
ENDMDL
MODEL 7
REMARK VINA RESULT:      -6.9     16.426     18.584
REMARK  Name = 13314
REMARK  2 active torsions:
REMARK  status: ('A' for Active; 'I' for Inactive)
REMARK    1  A    between atoms: C_7  and  C_16
REMARK    2  A    between atoms: C_8  and  O_22
REMARK                            x       y       z     vdW  Elec       q    Type
REMARK                         _______ _______ _______ _____ _____    ______ ____
ROOT
ATOM      1 CL   UNL     1      34.782  -5.039 -27.136  0.00  0.00    -0.082 Cl
ATOM      2  O   UNL     1      31.149  -7.081 -20.190  0.00  0.00    -0.270 OA
ATOM      3  N   UNL     1      31.399  -6.243 -22.346  0.00  0.00    -0.253 N 
ATOM      4  N   UNL     1      33.684  -8.164 -21.830  0.00  0.00    -0.235 NA
ATOM      5  C   UNL     1      33.311  -6.820 -23.853  0.00  0.00    +0.032 C 
ATOM      6  C   UNL     1      32.214  -6.006 -23.505  0.00  0.00    +0.055 C 
ATOM      7  C   UNL     1      33.639  -8.074 -23.116  0.00  0.00    +0.081 C 
ATOM      8  C   UNL     1      33.383  -6.978 -21.046  0.00  0.00    +0.296 C 
ATOM      9  C   UNL     1      31.874  -6.798 -21.148  0.00  0.00    +0.281 C 
ATOM     10  C   UNL     1      34.111  -6.504 -24.967  0.00  0.00    +0.014 C 
ATOM     11  C   UNL     1      31.911  -4.923 -24.355  0.00  0.00    +0.016 C 
ATOM     12  C   UNL     1      29.999  -5.821 -22.396  0.00  0.00    +0.120 C 
ATOM     13  C   UNL     1      33.804  -5.410 -25.769  0.00  0.00    +0.058 C 
ATOM     14  C   UNL     1      32.697  -4.628 -25.471  0.00  0.00    +0.013 C 
ENDROOT
BRANCH   7  16
ATOM     15 CL   UNL     1      31.755 -10.492 -22.720  0.00  0.00    -0.082 Cl
ATOM     16  C   UNL     1      33.920  -9.315 -23.893  0.00  0.00    +0.028 C 
ATOM     17  C   UNL     1      33.122 -10.449 -23.776  0.00  0.00    +0.059 C 
ATOM     18  C   UNL     1      35.015  -9.310 -24.752  0.00  0.00    +0.002 C 
ATOM     19  C   UNL     1      33.421 -11.587 -24.525  0.00  0.00    +0.011 C 
ATOM     20  C   UNL     1      35.314 -10.448 -25.500  0.00  0.00    +0.000 C 
ATOM     21  C   UNL     1      34.517 -11.588 -25.387  0.00  0.00    +0.001 C 
ENDBRANCH   7  16
BRANCH   8  22
ATOM     22  O   UNL     1      33.706  -7.081 -19.661  0.00  0.00    -0.357 OA
ATOM     23  H   UNL     1      34.355  -6.399 -19.428  0.00  0.00    +0.213 HD
ENDBRANCH   8  22
TORSDOF 2
ENDMDL
MODEL 8
REMARK VINA RESULT:      -6.9     16.357     18.940
REMARK  Name = 13314
REMARK  2 active torsions:
REMARK  status: ('A' for Active; 'I' for Inactive)
REMARK    1  A    between atoms: C_7  and  C_16
REMARK    2  A    between atoms: C_8  and  O_22
REMARK                            x       y       z     vdW  Elec       q    Type
REMARK                         _______ _______ _______ _____ _____    ______ ____
ROOT
ATOM      1 CL   UNL     1      32.458  -6.000 -19.090  0.00  0.00    -0.082 Cl
ATOM      2  O   UNL     1      33.533 -11.552 -24.888  0.00  0.00    -0.270 OA
ATOM      3  N   UNL     1      32.603 -10.503 -23.032  0.00  0.00    -0.253 N 
ATOM      4  N   UNL     1      34.109  -8.409 -24.621  0.00  0.00    -0.235 NA
ATOM      5  C   UNL     1      32.934  -8.083 -22.488  0.00  0.00    +0.032 C 
ATOM      6  C   UNL     1      32.552  -9.390 -22.125  0.00  0.00    +0.055 C 
ATOM      7  C   UNL     1      33.304  -7.719 -23.886  0.00  0.00    +0.081 C 
ATOM      8  C   UNL     1      34.684  -9.621 -24.063  0.00  0.00    +0.296 C 
ATOM      9  C   UNL     1      33.551 -10.639 -24.058  0.00  0.00    +0.281 C 
ATOM     10  C   UNL     1      32.920  -7.044 -21.539  0.00  0.00    +0.014 C 
ATOM     11  C   UNL     1      32.086  -9.591 -20.810  0.00  0.00    +0.016 C 
ATOM     12  C   UNL     1      31.647 -11.592 -22.834  0.00  0.00    +0.120 C 
ATOM     13  C   UNL     1      32.483  -7.280 -20.240  0.00  0.00    +0.058 C 
ATOM     14  C   UNL     1      32.054  -8.550 -19.879  0.00  0.00    +0.013 C 
ENDROOT
BRANCH   7  16
ATOM     15 CL   UNL     1      35.014  -6.115 -25.899  0.00  0.00    -0.082 Cl
ATOM     16  C   UNL     1      32.705  -6.498 -24.497  0.00  0.00    +0.028 C 
ATOM     17  C   UNL     1      33.404  -5.719 -25.413  0.00  0.00    +0.059 C 
ATOM     18  C   UNL     1      31.409  -6.154 -24.123  0.00  0.00    +0.002 C 
ATOM     19  C   UNL     1      32.803  -4.585 -25.960  0.00  0.00    +0.011 C 
ATOM     20  C   UNL     1      30.808  -5.021 -24.670  0.00  0.00    +0.000 C 
ATOM     21  C   UNL     1      31.504  -4.236 -25.589  0.00  0.00    +0.001 C 
ENDBRANCH   7  16
BRANCH   8  22
ATOM     22  O   UNL     1      35.753 -10.179 -24.823  0.00  0.00    -0.357 OA
ATOM     23  H   UNL     1      35.595 -11.126 -24.958  0.00  0.00    +0.213 HD
ENDBRANCH   8  22
TORSDOF 2
ENDMDL
MODEL 9
REMARK VINA RESULT:      -6.8      2.269      5.126
REMARK  Name = 13314
REMARK  2 active torsions:
REMARK  status: ('A' for Active; 'I' for Inactive)
REMARK    1  A    between atoms: C_7  and  C_16
REMARK    2  A    between atoms: C_8  and  O_22
REMARK                            x       y       z     vdW  Elec       q    Type
REMARK                         _______ _______ _______ _____ _____    ______ ____
ROOT
ATOM      1 CL   UNL     1      40.302 -25.829 -15.410  0.00  0.00    -0.082 Cl
ATOM      2  O   UNL     1      33.199 -23.639 -12.192  0.00  0.00    -0.270 OA
ATOM      3  N   UNL     1      35.499 -23.928 -12.384  0.00  0.00    -0.253 N 
ATOM      4  N   UNL     1      34.318 -24.021 -15.173  0.00  0.00    -0.235 NA
ATOM      5  C   UNL     1      36.676 -24.335 -14.555  0.00  0.00    +0.032 C 
ATOM      6  C   UNL     1      36.643 -24.345 -13.145  0.00  0.00    +0.055 C 
ATOM      7  C   UNL     1      35.567 -23.766 -15.374  0.00  0.00    +0.081 C 
ATOM      8  C   UNL     1      33.964 -24.905 -14.075  0.00  0.00    +0.296 C 
ATOM      9  C   UNL     1      34.171 -24.081 -12.811  0.00  0.00    +0.281 C 
ATOM     10  C   UNL     1      37.804 -24.812 -15.248  0.00  0.00    +0.014 C 
ATOM     11  C   UNL     1      37.804 -24.775 -12.471  0.00  0.00    +0.016 C 
ATOM     12  C   UNL     1      35.730 -23.366 -11.054  0.00  0.00    +0.120 C 
ATOM     13  C   UNL     1      38.923 -25.258 -14.553  0.00  0.00    +0.058 C 
ATOM     14  C   UNL     1      38.928 -25.228 -13.165  0.00  0.00    +0.013 C 
ENDROOT
BRANCH   7  16
ATOM     15 CL   UNL     1      33.655 -23.662 -17.799  0.00  0.00    -0.082 Cl
ATOM     16  C   UNL     1      35.898 -22.830 -16.486  0.00  0.00    +0.028 C 
ATOM     17  C   UNL     1      35.091 -22.720 -17.614  0.00  0.00    +0.059 C 
ATOM     18  C   UNL     1      37.050 -22.058 -16.365  0.00  0.00    +0.002 C 
ATOM     19  C   UNL     1      35.439 -21.830 -18.631  0.00  0.00    +0.011 C 
ATOM     20  C   UNL     1      37.397 -21.169 -17.381  0.00  0.00    +0.000 C 
ATOM     21  C   UNL     1      36.592 -21.053 -18.514  0.00  0.00    +0.001 C 
ENDBRANCH   7  16
BRANCH   8  22
ATOM     22  O   UNL     1      32.608 -25.346 -14.078  0.00  0.00    -0.357 OA
ATOM     23  H   UNL     1      32.548 -26.206 -14.522  0.00  0.00    +0.213 HD
ENDBRANCH   8  22
TORSDOF 2
ENDMDL
