MODEL 1
REMARK VINA RESULT:      -8.0      0.000      0.000
REMARK  Name = 445314
REMARK  5 active torsions:
REMARK  status: ('A' for Active; 'I' for Inactive)
REMARK    1  A    between atoms: C_2  and  C_13
REMARK    2  A    between atoms: C_6  and  C_17
REMARK    3  A    between atoms: C_7  and  O_10
REMARK    4  A    between atoms: C_13  and  O_14
REMARK    5  A    between atoms: C_17  and  O_18
REMARK                            x       y       z     vdW  Elec       q    Type
REMARK                         _______ _______ _______ _____ _____    ______ ____
ROOT
ATOM      1  O   UNL     1      35.521 -23.480 -13.090  0.00  0.00    -0.345 OA
ATOM      2  C   UNL     1      37.206 -25.240 -14.469  0.00  0.00    +0.113 C 
ATOM      3  C   UNL     1      35.712 -25.245 -14.822  0.00  0.00    +0.047 C 
ATOM      4  C   UNL     1      35.166 -23.866 -14.429  0.00  0.00    +0.148 C 
ATOM      5  C   UNL     1      37.352 -25.118 -12.940  0.00  0.00    +0.056 C 
ATOM      6  C   UNL     1      36.097 -24.510 -12.296  0.00  0.00    +0.214 C 
ATOM      7  C   UNL     1      35.762 -22.797 -15.368  0.00  0.00    +0.159 C 
ATOM      8  C   UNL     1      37.901 -24.087 -15.165  0.00  0.00    -0.018 C 
ATOM      9  C   UNL     1      37.238 -22.998 -15.593  0.00  0.00    +0.001 C 
ENDROOT
BRANCH   7  10
ATOM     10  O   UNL     1      35.122 -22.846 -16.638  0.00  0.00    -0.378 OA
ATOM     11  H   UNL     1      35.774 -23.070 -17.320  0.00  0.00    +0.211 HD
ENDBRANCH   7  10
BRANCH   2  13
ATOM     12  O   UNL     1      38.884 -26.984 -14.535  0.00  0.00    -0.250 OA
ATOM     13  C   UNL     1      37.853 -26.498 -14.976  0.00  0.00    +0.317 C 
BRANCH  13  14
ATOM     14  O   UNL     1      37.137 -27.026 -15.998  0.00  0.00    -0.480 OA
ATOM     15  H   UNL     1      36.343 -26.613 -16.277  0.00  0.00    +0.295 HD
ENDBRANCH  13  14
ENDBRANCH   2  13
BRANCH   6  17
ATOM     16  O   UNL     1      36.031 -24.180  -9.907  0.00  0.00    -0.248 OA
ATOM     17  C   UNL     1      36.448 -23.845 -11.006  0.00  0.00    +0.341 C 
BRANCH  17  18
ATOM     18  O   UNL     1      37.299 -22.812 -11.217  0.00  0.00    -0.479 OA
ATOM     19  H   UNL     1      37.748 -22.734 -12.035  0.00  0.00    +0.295 HD
ENDBRANCH  17  18
ENDBRANCH   6  17
TORSDOF 5
ENDMDL
MODEL 2
REMARK VINA RESULT:      -7.7      1.370      4.154
REMARK  Name = 445314
REMARK  5 active torsions:
REMARK  status: ('A' for Active; 'I' for Inactive)
REMARK    1  A    between atoms: C_2  and  C_13
REMARK    2  A    between atoms: C_6  and  C_17
REMARK    3  A    between atoms: C_7  and  O_10
REMARK    4  A    between atoms: C_13  and  O_14
REMARK    5  A    between atoms: C_17  and  O_18
REMARK                            x       y       z     vdW  Elec       q    Type
REMARK                         _______ _______ _______ _____ _____    ______ ____
ROOT
ATOM      1  O   UNL     1      35.836 -25.024 -15.422  0.00  0.00    -0.345 OA
ATOM      2  C   UNL     1      36.470 -23.991 -12.898  0.00  0.00    +0.113 C 
ATOM      3  C   UNL     1      36.272 -23.002 -14.055  0.00  0.00    +0.047 C 
ATOM      4  C   UNL     1      35.376 -23.704 -15.083  0.00  0.00    +0.148 C 
ATOM      5  C   UNL     1      37.255 -25.210 -13.420  0.00  0.00    +0.056 C 
ATOM      6  C   UNL     1      37.135 -25.354 -14.945  0.00  0.00    +0.214 C 
ATOM      7  C   UNL     1      33.959 -23.869 -14.495  0.00  0.00    +0.159 C 
ATOM      8  C   UNL     1      35.125 -24.419 -12.345  0.00  0.00    -0.018 C 
ATOM      9  C   UNL     1      33.991 -24.337 -13.062  0.00  0.00    +0.001 C 
ENDROOT
BRANCH   7  10
ATOM     10  O   UNL     1      33.266 -22.627 -14.528  0.00  0.00    -0.378 OA
ATOM     11  H   UNL     1      32.458 -22.723 -15.057  0.00  0.00    +0.211 HD
ENDBRANCH   7  10
BRANCH   2  13
ATOM     12  O   UNL     1      38.044 -22.443 -11.904  0.00  0.00    -0.250 OA
ATOM     13  C   UNL     1      37.201 -23.318 -11.772  0.00  0.00    +0.317 C 
BRANCH  13  14
ATOM     14  O   UNL     1      36.798 -23.815 -10.576  0.00  0.00    -0.480 OA
ATOM     15  H   UNL     1      35.887 -23.963 -10.413  0.00  0.00    +0.295 HD
ENDBRANCH  13  14
ENDBRANCH   2  13
BRANCH   6  17
ATOM     16  O   UNL     1      36.684 -27.369 -16.193  0.00  0.00    -0.248 OA
ATOM     17  C   UNL     1      37.338 -26.777 -15.347  0.00  0.00    +0.341 C 
BRANCH  17  18
ATOM     18  O   UNL     1      38.354 -27.333 -14.642  0.00  0.00    -0.479 OA
ATOM     19  H   UNL     1      38.198 -27.668 -13.781  0.00  0.00    +0.295 HD
ENDBRANCH  17  18
ENDBRANCH   6  17
TORSDOF 5
ENDMDL
MODEL 3
REMARK VINA RESULT:      -7.7      1.678      4.221
REMARK  Name = 445314
REMARK  5 active torsions:
REMARK  status: ('A' for Active; 'I' for Inactive)
REMARK    1  A    between atoms: C_2  and  C_13
REMARK    2  A    between atoms: C_6  and  C_17
REMARK    3  A    between atoms: C_7  and  O_10
REMARK    4  A    between atoms: C_13  and  O_14
REMARK    5  A    between atoms: C_17  and  O_18
REMARK                            x       y       z     vdW  Elec       q    Type
REMARK                         _______ _______ _______ _____ _____    ______ ____
ROOT
ATOM      1  O   UNL     1      38.347 -26.015 -13.320  0.00  0.00    -0.345 OA
ATOM      2  C   UNL     1      37.029 -23.977 -14.717  0.00  0.00    +0.113 C 
ATOM      3  C   UNL     1      36.260 -25.276 -14.438  0.00  0.00    +0.047 C 
ATOM      4  C   UNL     1      36.916 -25.917 -13.209  0.00  0.00    +0.148 C 
ATOM      5  C   UNL     1      38.475 -24.335 -15.113  0.00  0.00    +0.056 C 
ATOM      6  C   UNL     1      38.874 -25.730 -14.610  0.00  0.00    +0.214 C 
ATOM      7  C   UNL     1      36.630 -25.048 -11.967  0.00  0.00    +0.159 C 
ATOM      8  C   UNL     1      37.017 -23.092 -13.486  0.00  0.00    -0.018 C 
ATOM      9  C   UNL     1      36.810 -23.578 -12.250  0.00  0.00    +0.001 C 
ENDROOT
BRANCH   7  10
ATOM     10  O   UNL     1      35.290 -25.242 -11.530  0.00  0.00    -0.378 OA
ATOM     11  H   UNL     1      35.233 -25.070 -10.576  0.00  0.00    +0.211 HD
ENDBRANCH   7  10
BRANCH   2  13
ATOM     12  O   UNL     1      35.151 -22.940 -15.838  0.00  0.00    -0.250 OA
ATOM     13  C   UNL     1      36.344 -23.203 -15.806  0.00  0.00    +0.317 C 
BRANCH  13  14
ATOM     14  O   UNL     1      37.233 -22.831 -16.760  0.00  0.00    -0.480 OA
ATOM     15  H   UNL     1      37.478 -23.435 -17.433  0.00  0.00    +0.295 HD
ENDBRANCH  13  14
ENDBRANCH   2  13
BRANCH   6  17
ATOM     16  O   UNL     1      41.017 -26.836 -14.546  0.00  0.00    -0.248 OA
ATOM     17  C   UNL     1      40.356 -25.814 -14.443  0.00  0.00    +0.341 C 
BRANCH  17  18
ATOM     18  O   UNL     1      40.875 -24.595 -14.159  0.00  0.00    -0.479 OA
ATOM     19  H   UNL     1      41.611 -24.522 -13.583  0.00  0.00    +0.295 HD
ENDBRANCH  17  18
ENDBRANCH   6  17
TORSDOF 5
ENDMDL
MODEL 4
REMARK VINA RESULT:      -7.7      1.656      3.927
REMARK  Name = 445314
REMARK  5 active torsions:
REMARK  status: ('A' for Active; 'I' for Inactive)
REMARK    1  A    between atoms: C_2  and  C_13
REMARK    2  A    between atoms: C_6  and  C_17
REMARK    3  A    between atoms: C_7  and  O_10
REMARK    4  A    between atoms: C_13  and  O_14
REMARK    5  A    between atoms: C_17  and  O_18
REMARK                            x       y       z     vdW  Elec       q    Type
REMARK                         _______ _______ _______ _____ _____    ______ ____
ROOT
ATOM      1  O   UNL     1      38.673 -24.202 -15.183  0.00  0.00    -0.345 OA
ATOM      2  C   UNL     1      36.945 -24.642 -13.025  0.00  0.00    +0.113 C 
ATOM      3  C   UNL     1      37.237 -23.191 -13.432  0.00  0.00    +0.047 C 
ATOM      4  C   UNL     1      37.652 -23.227 -14.909  0.00  0.00    +0.148 C 
ATOM      5  C   UNL     1      38.254 -25.450 -13.104  0.00  0.00    +0.056 C 
ATOM      6  C   UNL     1      39.278 -24.784 -14.035  0.00  0.00    +0.214 C 
ATOM      7  C   UNL     1      36.432 -23.612 -15.771  0.00  0.00    +0.159 C 
ATOM      8  C   UNL     1      35.894 -25.237 -13.941  0.00  0.00    -0.018 C 
ATOM      9  C   UNL     1      35.649 -24.750 -15.169  0.00  0.00    +0.001 C 
ENDROOT
BRANCH   7  10
ATOM     10  O   UNL     1      35.551 -22.502 -15.899  0.00  0.00    -0.378 OA
ATOM     11  H   UNL     1      35.966 -21.714 -15.514  0.00  0.00    +0.211 HD
ENDBRANCH   7  10
BRANCH   2  13
ATOM     12  O   UNL     1      36.962 -24.334 -10.623  0.00  0.00    -0.250 OA
ATOM     13  C   UNL     1      36.371 -24.676 -11.637  0.00  0.00    +0.317 C 
BRANCH  13  14
ATOM     14  O   UNL     1      35.098 -25.141 -11.657  0.00  0.00    -0.480 OA
ATOM     15  H   UNL     1      34.800 -25.661 -12.378  0.00  0.00    +0.295 HD
ENDBRANCH  13  14
ENDBRANCH   2  13
BRANCH   6  17
ATOM     16  O   UNL     1      40.904 -26.562 -13.903  0.00  0.00    -0.248 OA
ATOM     17  C   UNL     1      40.223 -25.805 -14.579  0.00  0.00    +0.341 C 
BRANCH  17  18
ATOM     18  O   UNL     1      40.226 -25.781 -15.934  0.00  0.00    -0.479 OA
ATOM     19  H   UNL     1      40.131 -24.967 -16.388  0.00  0.00    +0.295 HD
ENDBRANCH  17  18
ENDBRANCH   6  17
TORSDOF 5
ENDMDL
MODEL 5
REMARK VINA RESULT:      -7.5      1.938      3.956
REMARK  Name = 445314
REMARK  5 active torsions:
REMARK  status: ('A' for Active; 'I' for Inactive)
REMARK    1  A    between atoms: C_2  and  C_13
REMARK    2  A    between atoms: C_6  and  C_17
REMARK    3  A    between atoms: C_7  and  O_10
REMARK    4  A    between atoms: C_13  and  O_14
REMARK    5  A    between atoms: C_17  and  O_18
REMARK                            x       y       z     vdW  Elec       q    Type
REMARK                         _______ _______ _______ _____ _____    ______ ____
ROOT
ATOM      1  O   UNL     1      36.770 -23.513 -14.096  0.00  0.00    -0.345 OA
ATOM      2  C   UNL     1      38.854 -25.322 -14.568  0.00  0.00    +0.113 C 
ATOM      3  C   UNL     1      38.764 -24.670 -13.182  0.00  0.00    +0.047 C 
ATOM      4  C   UNL     1      37.299 -24.259 -12.986  0.00  0.00    +0.148 C 
ATOM      5  C   UNL     1      38.538 -24.257 -15.636  0.00  0.00    +0.056 C 
ATOM      6  C   UNL     1      37.732 -23.088 -15.053  0.00  0.00    +0.214 C 
ATOM      7  C   UNL     1      36.430 -25.526 -12.851  0.00  0.00    +0.159 C 
ATOM      8  C   UNL     1      37.878 -26.478 -14.662  0.00  0.00    -0.018 C 
ATOM      9  C   UNL     1      36.800 -26.578 -13.866  0.00  0.00    +0.001 C 
ENDROOT
BRANCH   7  10
ATOM     10  O   UNL     1      36.591 -26.098 -11.559  0.00  0.00    -0.378 OA
ATOM     11  H   UNL     1      37.408 -25.763 -11.157  0.00  0.00    +0.211 HD
ENDBRANCH   7  10
BRANCH   2  13
ATOM     12  O   UNL     1      40.968 -26.278 -13.876  0.00  0.00    -0.250 OA
ATOM     13  C   UNL     1      40.225 -25.903 -14.770  0.00  0.00    +0.317 C 
BRANCH  13  14
ATOM     14  O   UNL     1      40.532 -25.955 -16.090  0.00  0.00    -0.480 OA
ATOM     15  H   UNL     1      41.413 -25.811 -16.372  0.00  0.00    +0.295 HD
ENDBRANCH  13  14
ENDBRANCH   2  13
BRANCH   6  17
ATOM     16  O   UNL     1      35.955 -22.908 -16.675  0.00  0.00    -0.248 OA
ATOM     17  C   UNL     1      36.934 -22.424 -16.126  0.00  0.00    +0.341 C 
BRANCH  17  18
ATOM     18  O   UNL     1      37.444 -21.203 -16.416  0.00  0.00    -0.479 OA
ATOM     19  H   UNL     1      37.542 -20.936 -17.309  0.00  0.00    +0.295 HD
ENDBRANCH  17  18
ENDBRANCH   6  17
TORSDOF 5
ENDMDL
MODEL 6
REMARK VINA RESULT:      -7.5      1.531      4.279
REMARK  Name = 445314
REMARK  5 active torsions:
REMARK  status: ('A' for Active; 'I' for Inactive)
REMARK    1  A    between atoms: C_2  and  C_13
REMARK    2  A    between atoms: C_6  and  C_17
REMARK    3  A    between atoms: C_7  and  O_10
REMARK    4  A    between atoms: C_13  and  O_14
REMARK    5  A    between atoms: C_17  and  O_18
REMARK                            x       y       z     vdW  Elec       q    Type
REMARK                         _______ _______ _______ _____ _____    ______ ____
ROOT
ATOM      1  O   UNL     1      36.042 -24.367 -15.835  0.00  0.00    -0.345 OA
ATOM      2  C   UNL     1      37.396 -24.112 -13.398  0.00  0.00    +0.113 C 
ATOM      3  C   UNL     1      36.034 -24.818 -13.397  0.00  0.00    +0.047 C 
ATOM      4  C   UNL     1      35.819 -25.358 -14.817  0.00  0.00    +0.148 C 
ATOM      5  C   UNL     1      37.319 -22.891 -14.336  0.00  0.00    +0.056 C 
ATOM      6  C   UNL     1      36.184 -23.033 -15.361  0.00  0.00    +0.214 C 
ATOM      7  C   UNL     1      36.824 -26.497 -15.085  0.00  0.00    +0.159 C 
ATOM      8  C   UNL     1      38.478 -25.069 -13.857  0.00  0.00    -0.018 C 
ATOM      9  C   UNL     1      38.209 -26.159 -14.596  0.00  0.00    +0.001 C 
ENDROOT
BRANCH   7  10
ATOM     10  O   UNL     1      36.409 -27.685 -14.418  0.00  0.00    -0.378 OA
ATOM     11  H   UNL     1      37.066 -27.923 -13.745  0.00  0.00    +0.211 HD
ENDBRANCH   7  10
BRANCH   2  13
ATOM     12  O   UNL     1      38.596 -22.858 -11.710  0.00  0.00    -0.250 OA
ATOM     13  C   UNL     1      37.757 -23.698 -12.000  0.00  0.00    +0.317 C 
BRANCH  13  14
ATOM     14  O   UNL     1      37.024 -24.388 -11.092  0.00  0.00    -0.480 OA
ATOM     15  H   UNL     1      37.395 -24.609 -10.261  0.00  0.00    +0.295 HD
ENDBRANCH  13  14
ENDBRANCH   2  13
BRANCH   6  17
ATOM     16  O   UNL     1      35.950 -22.371 -17.670  0.00  0.00    -0.248 OA
ATOM     17  C   UNL     1      36.486 -22.226 -16.581  0.00  0.00    +0.341 C 
BRANCH  17  18
ATOM     18  O   UNL     1      37.443 -21.302 -16.318  0.00  0.00    -0.479 OA
ATOM     19  H   UNL     1      37.202 -20.462 -15.979  0.00  0.00    +0.295 HD
ENDBRANCH  17  18
ENDBRANCH   6  17
TORSDOF 5
ENDMDL
MODEL 7
REMARK VINA RESULT:      -7.4      1.453      3.414
REMARK  Name = 445314
REMARK  5 active torsions:
REMARK  status: ('A' for Active; 'I' for Inactive)
REMARK    1  A    between atoms: C_2  and  C_13
REMARK    2  A    between atoms: C_6  and  C_17
REMARK    3  A    between atoms: C_7  and  O_10
REMARK    4  A    between atoms: C_13  and  O_14
REMARK    5  A    between atoms: C_17  and  O_18
REMARK                            x       y       z     vdW  Elec       q    Type
REMARK                         _______ _______ _______ _____ _____    ______ ____
ROOT
ATOM      1  O   UNL     1      35.678 -23.117 -13.590  0.00  0.00    -0.345 OA
ATOM      2  C   UNL     1      36.953 -25.522 -14.244  0.00  0.00    +0.113 C 
ATOM      3  C   UNL     1      37.725 -24.214 -14.461  0.00  0.00    +0.047 C 
ATOM      4  C   UNL     1      37.112 -23.181 -13.506  0.00  0.00    +0.148 C 
ATOM      5  C   UNL     1      35.492 -25.313 -14.685  0.00  0.00    +0.056 C 
ATOM      6  C   UNL     1      35.104 -23.827 -14.681  0.00  0.00    +0.214 C 
ATOM      7  C   UNL     1      37.450 -23.569 -12.052  0.00  0.00    +0.159 C 
ATOM      8  C   UNL     1      37.017 -25.927 -12.784  0.00  0.00    -0.018 C 
ATOM      9  C   UNL     1      37.268 -25.045 -11.802  0.00  0.00    +0.001 C 
ENDROOT
BRANCH   7  10
ATOM     10  O   UNL     1      38.805 -23.246 -11.759  0.00  0.00    -0.378 OA
ATOM     11  H   UNL     1      39.364 -23.479 -12.517  0.00  0.00    +0.211 HD
ENDBRANCH   7  10
BRANCH   2  13
ATOM     12  O   UNL     1      38.687 -27.129 -14.766  0.00  0.00    -0.250 OA
ATOM     13  C   UNL     1      37.601 -26.631 -15.023  0.00  0.00    +0.317 C 
BRANCH  13  14
ATOM     14  O   UNL     1      36.814 -27.011 -16.059  0.00  0.00    -0.480 OA
ATOM     15  H   UNL     1      36.247 -26.388 -16.469  0.00  0.00    +0.295 HD
ENDBRANCH  13  14
ENDBRANCH   2  13
BRANCH   6  17
ATOM     16  O   UNL     1      32.804 -23.696 -15.400  0.00  0.00    -0.248 OA
ATOM     17  C   UNL     1      33.629 -23.678 -14.498  0.00  0.00    +0.341 C 
BRANCH  17  18
ATOM     18  O   UNL     1      33.323 -23.518 -13.188  0.00  0.00    -0.479 OA
ATOM     19  H   UNL     1      33.836 -22.944 -12.654  0.00  0.00    +0.295 HD
ENDBRANCH  17  18
ENDBRANCH   6  17
TORSDOF 5
ENDMDL
MODEL 8
REMARK VINA RESULT:      -7.1      1.462      4.300
REMARK  Name = 445314
REMARK  5 active torsions:
REMARK  status: ('A' for Active; 'I' for Inactive)
REMARK    1  A    between atoms: C_2  and  C_13
REMARK    2  A    between atoms: C_6  and  C_17
REMARK    3  A    between atoms: C_7  and  O_10
REMARK    4  A    between atoms: C_13  and  O_14
REMARK    5  A    between atoms: C_17  and  O_18
REMARK                            x       y       z     vdW  Elec       q    Type
REMARK                         _______ _______ _______ _____ _____    ______ ____
ROOT
ATOM      1  O   UNL     1      36.145 -25.196 -15.606  0.00  0.00    -0.345 OA
ATOM      2  C   UNL     1      36.476 -24.697 -12.871  0.00  0.00    +0.113 C 
ATOM      3  C   UNL     1      36.485 -26.156 -13.345  0.00  0.00    +0.047 C 
ATOM      4  C   UNL     1      36.901 -26.134 -14.821  0.00  0.00    +0.148 C 
ATOM      5  C   UNL     1      35.377 -23.936 -13.637  0.00  0.00    +0.056 C 
ATOM      6  C   UNL     1      35.011 -24.637 -14.954  0.00  0.00    +0.214 C 
ATOM      7  C   UNL     1      38.380 -25.705 -14.926  0.00  0.00    +0.159 C 
ATOM      8  C   UNL     1      37.831 -24.063 -13.114  0.00  0.00    -0.018 C 
ATOM      9  C   UNL     1      38.697 -24.540 -14.025  0.00  0.00    +0.001 C 
ENDROOT
BRANCH   7  10
ATOM     10  O   UNL     1      39.232 -26.782 -14.555  0.00  0.00    -0.378 OA
ATOM     11  H   UNL     1      40.150 -26.558 -14.774  0.00  0.00    +0.211 HD
ENDBRANCH   7  10
BRANCH   2  13
ATOM     12  O   UNL     1      35.287 -25.146 -10.811  0.00  0.00    -0.250 OA
ATOM     13  C   UNL     1      36.239 -24.643 -11.389  0.00  0.00    +0.317 C 
BRANCH  13  14
ATOM     14  O   UNL     1      37.229 -23.955 -10.770  0.00  0.00    -0.480 OA
ATOM     15  H   UNL     1      37.933 -24.416 -10.357  0.00  0.00    +0.295 HD
ENDBRANCH  13  14
ENDBRANCH   2  13
BRANCH   6  17
ATOM     16  O   UNL     1      33.277 -23.362 -16.043  0.00  0.00    -0.248 OA
ATOM     17  C   UNL     1      34.459 -23.650 -15.929  0.00  0.00    +0.341 C 
BRANCH  17  18
ATOM     18  O   UNL     1      35.451 -23.113 -16.680  0.00  0.00    -0.479 OA
ATOM     19  H   UNL     1      36.341 -23.177 -16.395  0.00  0.00    +0.295 HD
ENDBRANCH  17  18
ENDBRANCH   6  17
TORSDOF 5
ENDMDL
MODEL 9
REMARK VINA RESULT:      -7.1      2.017      4.069
REMARK  Name = 445314
REMARK  5 active torsions:
REMARK  status: ('A' for Active; 'I' for Inactive)
REMARK    1  A    between atoms: C_2  and  C_13
REMARK    2  A    between atoms: C_6  and  C_17
REMARK    3  A    between atoms: C_7  and  O_10
REMARK    4  A    between atoms: C_13  and  O_14
REMARK    5  A    between atoms: C_17  and  O_18
REMARK                            x       y       z     vdW  Elec       q    Type
REMARK                         _______ _______ _______ _____ _____    ______ ____
ROOT
ATOM      1  O   UNL     1      34.353 -24.371 -12.695  0.00  0.00    -0.345 OA
ATOM      2  C   UNL     1      36.242 -23.884 -14.704  0.00  0.00    +0.113 C 
ATOM      3  C   UNL     1      36.363 -23.096 -13.393  0.00  0.00    +0.047 C 
ATOM      4  C   UNL     1      35.669 -23.936 -12.312  0.00  0.00    +0.148 C 
ATOM      5  C   UNL     1      34.753 -23.974 -15.090  0.00  0.00    +0.056 C 
ATOM      6  C   UNL     1      33.836 -23.769 -13.875  0.00  0.00    +0.214 C 
ATOM      7  C   UNL     1      36.496 -25.212 -12.051  0.00  0.00    +0.159 C 
ATOM      8  C   UNL     1      36.833 -25.269 -14.534  0.00  0.00    -0.018 C 
ATOM      9  C   UNL     1      36.970 -25.852 -13.331  0.00  0.00    +0.001 C 
ENDROOT
BRANCH   7  10
ATOM     10  O   UNL     1      37.646 -24.902 -11.273  0.00  0.00    -0.378 OA
ATOM     11  H   UNL     1      38.239 -25.670 -11.252  0.00  0.00    +0.211 HD
ENDBRANCH   7  10
BRANCH   2  13
ATOM     12  O   UNL     1      38.254 -23.059 -15.768  0.00  0.00    -0.250 OA
ATOM     13  C   UNL     1      37.041 -23.207 -15.781  0.00  0.00    +0.317 C 
BRANCH  13  14
ATOM     14  O   UNL     1      36.231 -22.777 -16.779  0.00  0.00    -0.480 OA
ATOM     15  H   UNL     1      35.866 -23.391 -17.384  0.00  0.00    +0.295 HD
ENDBRANCH  13  14
ENDBRANCH   2  13
BRANCH   6  17
ATOM     16  O   UNL     1      31.783 -24.234 -15.053  0.00  0.00    -0.248 OA
ATOM     17  C   UNL     1      32.521 -24.439 -14.101  0.00  0.00    +0.341 C 
BRANCH  17  18
ATOM     18  O   UNL     1      32.251 -25.312 -13.101  0.00  0.00    -0.479 OA
ATOM     19  H   UNL     1      32.421 -25.072 -12.211  0.00  0.00    +0.295 HD
ENDBRANCH  17  18
ENDBRANCH   6  17
TORSDOF 5
ENDMDL
