MODEL 1
REMARK VINA RESULT:      -9.3      0.000      0.000
REMARK  Name = 25195253
REMARK  3 active torsions:
REMARK  status: ('A' for Active; 'I' for Inactive)
REMARK    1  A    between atoms: N_3  and  C_20
REMARK    2  A    between atoms: C_6  and  C_18
REMARK    3  A    between atoms: C_20  and  C_24
REMARK                            x       y       z     vdW  Elec       q    Type
REMARK                         _______ _______ _______ _____ _____    ______ ____
ROOT
ATOM      1 CL   UNL     1      34.487 -18.330 -25.069  0.00  0.00    -0.082 Cl
ATOM      2  O   UNL     1      35.874 -20.144 -20.729  0.00  0.00    -0.270 OA
ATOM      3  N   UNL     1      33.545 -13.385 -23.257  0.00  0.00    -0.323 N 
ATOM      4  N   UNL     1      35.297 -17.921 -20.648  0.00  0.00    -0.280 N 
ATOM      5  C   UNL     1      34.121 -15.563 -23.283  0.00  0.00    +0.015 A 
ATOM      6  C   UNL     1      33.388 -13.802 -24.543  0.00  0.00    +0.033 A 
ATOM      7  C   UNL     1      33.985 -14.426 -22.469  0.00  0.00    +0.060 A 
ATOM      8  C   UNL     1      33.734 -15.132 -24.593  0.00  0.00    -0.009 A 
ATOM      9  C   UNL     1      34.569 -16.772 -22.678  0.00  0.00    +0.025 C 
ATOM     10  C   UNL     1      34.267 -14.417 -21.100  0.00  0.00    +0.018 C 
ATOM     11  C   UNL     1      34.851 -16.752 -21.291  0.00  0.00    +0.051 C 
ATOM     12  C   UNL     1      33.652 -15.831 -25.889  0.00  0.00    +0.032 C 
ATOM     13  C   UNL     1      34.703 -15.601 -20.520  0.00  0.00    +0.016 C 
ATOM     14  C   UNL     1      34.760 -18.048 -23.397  0.00  0.00    +0.063 C 
ATOM     15  C   UNL     1      35.188 -19.138 -22.743  0.00  0.00    +0.069 C 
ATOM     16  C   UNL     1      35.485 -19.122 -21.290  0.00  0.00    +0.250 C 
ATOM     17  H   UNL     1      35.486 -17.876 -19.682  0.00  0.00    +0.155 HD
ENDROOT
BRANCH   6  18
ATOM     18  C   UNL     1      32.923 -12.888 -25.609  0.00  0.00    +0.043 C 
ATOM     19  C   UNL     1      34.023 -11.944 -26.103  0.00  0.00    +0.007 C 
ENDBRANCH   6  18
BRANCH   3  20
ATOM     20  C   UNL     1      33.285 -12.040 -22.783  0.00  0.00    +0.210 C 
BRANCH  20  24
ATOM     21  F   UNL     1      31.223 -13.049 -22.262  0.00  0.00    -0.168 F 
ATOM     22  F   UNL     1      31.228 -10.886 -22.521  0.00  0.00    -0.168 F 
ATOM     23  F   UNL     1      32.117 -11.778 -20.734  0.00  0.00    -0.168 F 
ATOM     24  C   UNL     1      31.955 -11.929 -22.066  0.00  0.00    +0.418 C 
ENDBRANCH  20  24
ENDBRANCH   3  20
TORSDOF 3
ENDMDL
MODEL 2
REMARK VINA RESULT:      -9.2      4.649      7.060
REMARK  Name = 25195253
REMARK  3 active torsions:
REMARK  status: ('A' for Active; 'I' for Inactive)
REMARK    1  A    between atoms: N_3  and  C_20
REMARK    2  A    between atoms: C_6  and  C_18
REMARK    3  A    between atoms: C_20  and  C_24
REMARK                            x       y       z     vdW  Elec       q    Type
REMARK                         _______ _______ _______ _____ _____    ______ ____
ROOT
ATOM      1 CL   UNL     1      34.195  -8.496 -24.577  0.00  0.00    -0.082 Cl
ATOM      2  O   UNL     1      32.042  -5.817 -21.079  0.00  0.00    -0.270 OA
ATOM      3  N   UNL     1      32.633 -13.220 -22.610  0.00  0.00    -0.323 N 
ATOM      4  N   UNL     1      31.740  -8.079 -20.813  0.00  0.00    -0.280 N 
ATOM      5  C   UNL     1      32.900 -10.994 -22.825  0.00  0.00    +0.015 A 
ATOM      6  C   UNL     1      33.383 -13.037 -23.731  0.00  0.00    +0.033 A 
ATOM      7  C   UNL     1      32.326 -12.005 -22.037  0.00  0.00    +0.060 A 
ATOM      8  C   UNL     1      33.563 -11.683 -23.892  0.00  0.00    -0.009 A 
ATOM      9  C   UNL     1      32.712  -9.640 -22.423  0.00  0.00    +0.025 C 
ATOM     10  C   UNL     1      31.581 -11.756 -20.882  0.00  0.00    +0.018 C 
ATOM     11  C   UNL     1      31.955  -9.399 -21.252  0.00  0.00    +0.051 C 
ATOM     12  C   UNL     1      34.349 -11.211 -25.048  0.00  0.00    +0.032 C 
ATOM     13  C   UNL     1      31.403 -10.433 -20.499  0.00  0.00    +0.016 C 
ATOM     14  C   UNL     1      33.252  -8.469 -23.143  0.00  0.00    +0.063 C 
ATOM     15  C   UNL     1      33.021  -7.228 -22.689  0.00  0.00    +0.069 C 
ATOM     16  C   UNL     1      32.229  -6.970 -21.461  0.00  0.00    +0.250 C 
ATOM     17  H   UNL     1      31.210  -7.943 -19.995  0.00  0.00    +0.155 HD
ENDROOT
BRANCH   6  18
ATOM     18  C   UNL     1      33.857 -14.175 -24.549  0.00  0.00    +0.043 C 
ATOM     19  C   UNL     1      32.931 -14.483 -25.728  0.00  0.00    +0.007 C 
ENDBRANCH   6  18
BRANCH   3  20
ATOM     20  C   UNL     1      32.219 -14.508 -22.090  0.00  0.00    +0.210 C 
BRANCH  20  24
ATOM     21  F   UNL     1      33.292 -16.311 -21.024  0.00  0.00    -0.168 F 
ATOM     22  F   UNL     1      32.524 -14.722 -19.747  0.00  0.00    -0.168 F 
ATOM     23  F   UNL     1      34.306 -14.383 -20.968  0.00  0.00    -0.168 F 
ATOM     24  C   UNL     1      33.093 -14.976 -20.945  0.00  0.00    +0.418 C 
ENDBRANCH  20  24
ENDBRANCH   3  20
TORSDOF 3
ENDMDL
MODEL 3
REMARK VINA RESULT:      -9.1     10.056     13.145
REMARK  Name = 25195253
REMARK  3 active torsions:
REMARK  status: ('A' for Active; 'I' for Inactive)
REMARK    1  A    between atoms: N_3  and  C_20
REMARK    2  A    between atoms: C_6  and  C_18
REMARK    3  A    between atoms: C_20  and  C_24
REMARK                            x       y       z     vdW  Elec       q    Type
REMARK                         _______ _______ _______ _____ _____    ______ ____
ROOT
ATOM      1 CL   UNL     1      31.858 -23.790 -15.701  0.00  0.00    -0.082 Cl
ATOM      2  O   UNL     1      33.050 -21.668 -19.958  0.00  0.00    -0.270 OA
ATOM      3  N   UNL     1      36.850 -23.868 -13.777  0.00  0.00    -0.323 N 
ATOM      4  N   UNL     1      34.850 -22.011 -18.573  0.00  0.00    -0.280 N 
ATOM      5  C   UNL     1      35.117 -23.511 -15.172  0.00  0.00    +0.015 A 
ATOM      6  C   UNL     1      35.744 -24.337 -13.134  0.00  0.00    +0.033 A 
ATOM      7  C   UNL     1      36.506 -23.364 -15.012  0.00  0.00    +0.060 A 
ATOM      8  C   UNL     1      34.666 -24.131 -13.962  0.00  0.00    -0.009 A 
ATOM      9  C   UNL     1      34.530 -23.053 -16.387  0.00  0.00    +0.025 C 
ATOM     10  C   UNL     1      37.339 -22.794 -15.977  0.00  0.00    +0.018 C 
ATOM     11  C   UNL     1      35.383 -22.478 -17.357  0.00  0.00    +0.051 C 
ATOM     12  C   UNL     1      33.332 -24.554 -13.496  0.00  0.00    +0.032 C 
ATOM     13  C   UNL     1      36.756 -22.351 -17.157  0.00  0.00    +0.016 C 
ATOM     14  C   UNL     1      33.089 -23.138 -16.704  0.00  0.00    +0.063 C 
ATOM     15  C   UNL     1      32.625 -22.679 -17.876  0.00  0.00    +0.069 C 
ATOM     16  C   UNL     1      33.516 -22.075 -18.897  0.00  0.00    +0.250 C 
ATOM     17  H   UNL     1      35.469 -21.615 -19.229  0.00  0.00    +0.155 HD
ENDROOT
BRANCH   6  18
ATOM     18  C   UNL     1      35.821 -24.937 -11.784  0.00  0.00    +0.043 C 
ATOM     19  C   UNL     1      35.833 -23.887 -10.669  0.00  0.00    +0.007 C 
ENDBRANCH   6  18
BRANCH   3  20
ATOM     20  C   UNL     1      38.196 -23.898 -13.240  0.00  0.00    +0.210 C 
BRANCH  20  24
ATOM     21  F   UNL     1      38.725 -26.074 -12.518  0.00  0.00    -0.168 F 
ATOM     22  F   UNL     1      40.236 -25.024 -13.684  0.00  0.00    -0.168 F 
ATOM     23  F   UNL     1      38.433 -25.785 -14.658  0.00  0.00    -0.168 F 
ATOM     24  C   UNL     1      38.906 -25.202 -13.536  0.00  0.00    +0.418 C 
ENDBRANCH  20  24
ENDBRANCH   3  20
TORSDOF 3
ENDMDL
MODEL 4
REMARK VINA RESULT:      -9.0      3.821      5.983
REMARK  Name = 25195253
REMARK  3 active torsions:
REMARK  status: ('A' for Active; 'I' for Inactive)
REMARK    1  A    between atoms: N_3  and  C_20
REMARK    2  A    between atoms: C_6  and  C_18
REMARK    3  A    between atoms: C_20  and  C_24
REMARK                            x       y       z     vdW  Elec       q    Type
REMARK                         _______ _______ _______ _____ _____    ______ ____
ROOT
ATOM      1 CL   UNL     1      33.421 -13.399 -25.324  0.00  0.00    -0.082 Cl
ATOM      2  O   UNL     1      31.263 -10.507 -22.004  0.00  0.00    -0.270 OA
ATOM      3  N   UNL     1      34.436 -17.393 -21.911  0.00  0.00    -0.323 N 
ATOM      4  N   UNL     1      31.981 -12.510 -21.140  0.00  0.00    -0.280 N 
ATOM      5  C   UNL     1      33.713 -15.414 -22.709  0.00  0.00    +0.015 A 
ATOM      6  C   UNL     1      34.756 -17.380 -23.234  0.00  0.00    +0.033 A 
ATOM      7  C   UNL     1      33.806 -16.218 -21.561  0.00  0.00    +0.060 A 
ATOM      8  C   UNL     1      34.325 -16.181 -23.752  0.00  0.00    -0.009 A 
ATOM      9  C   UNL     1      33.091 -14.138 -22.586  0.00  0.00    +0.025 C 
ATOM     10  C   UNL     1      33.322 -15.836 -20.307  0.00  0.00    +0.018 C 
ATOM     11  C   UNL     1      32.604 -13.760 -21.312  0.00  0.00    +0.051 C 
ATOM     12  C   UNL     1      34.551 -15.913 -25.185  0.00  0.00    +0.032 C 
ATOM     13  C   UNL     1      32.717 -14.590 -20.199  0.00  0.00    +0.016 C 
ATOM     14  C   UNL     1      32.919 -13.179 -23.697  0.00  0.00    +0.063 C 
ATOM     15  C   UNL     1      32.318 -11.998 -23.486  0.00  0.00    +0.069 C 
ATOM     16  C   UNL     1      31.806 -11.599 -22.153  0.00  0.00    +0.250 C 
ATOM     17  H   UNL     1      31.652 -12.276 -20.242  0.00  0.00    +0.155 HD
ENDROOT
BRANCH   6  18
ATOM     18  C   UNL     1      35.443 -18.518 -23.883  0.00  0.00    +0.043 C 
ATOM     19  C   UNL     1      34.510 -19.344 -24.772  0.00  0.00    +0.007 C 
ENDBRANCH   6  18
BRANCH   3  20
ATOM     20  C   UNL     1      34.719 -18.484 -21.000  0.00  0.00    +0.210 C 
BRANCH  20  24
ATOM     21  F   UNL     1      33.799 -20.340 -19.884  0.00  0.00    -0.168 F 
ATOM     22  F   UNL     1      33.300 -20.107 -21.991  0.00  0.00    -0.168 F 
ATOM     23  F   UNL     1      32.417 -18.773 -20.502  0.00  0.00    -0.168 F 
ATOM     24  C   UNL     1      33.544 -19.429 -20.849  0.00  0.00    +0.418 C 
ENDBRANCH  20  24
ENDBRANCH   3  20
TORSDOF 3
ENDMDL
MODEL 5
REMARK VINA RESULT:      -8.8      8.490     11.778
REMARK  Name = 25195253
REMARK  3 active torsions:
REMARK  status: ('A' for Active; 'I' for Inactive)
REMARK    1  A    between atoms: N_3  and  C_20
REMARK    2  A    between atoms: C_6  and  C_18
REMARK    3  A    between atoms: C_20  and  C_24
REMARK                            x       y       z     vdW  Elec       q    Type
REMARK                         _______ _______ _______ _____ _____    ______ ____
ROOT
ATOM      1 CL   UNL     1      37.863 -22.063 -16.717  0.00  0.00    -0.082 Cl
ATOM      2  O   UNL     1      35.765 -20.568 -20.890  0.00  0.00    -0.270 OA
ATOM      3  N   UNL     1      33.398 -24.163 -14.647  0.00  0.00    -0.323 N 
ATOM      4  N   UNL     1      34.306 -21.618 -19.459  0.00  0.00    -0.280 N 
ATOM      5  C   UNL     1      34.788 -23.127 -16.085  0.00  0.00    +0.015 A 
ATOM      6  C   UNL     1      34.621 -24.150 -14.047  0.00  0.00    +0.033 A 
ATOM      7  C   UNL     1      33.465 -23.551 -15.879  0.00  0.00    +0.060 A 
ATOM      8  C   UNL     1      35.495 -23.523 -14.904  0.00  0.00    -0.009 A 
ATOM      9  C   UNL     1      35.098 -22.461 -17.307  0.00  0.00    +0.025 C 
ATOM     10  C   UNL     1      32.437 -23.356 -16.806  0.00  0.00    +0.018 C 
ATOM     11  C   UNL     1      34.050 -22.269 -18.238  0.00  0.00    +0.051 C 
ATOM     12  C   UNL     1      36.903 -23.378 -14.488  0.00  0.00    +0.032 C 
ATOM     13  C   UNL     1      32.750 -22.706 -17.994  0.00  0.00    +0.016 C 
ATOM     14  C   UNL     1      36.438 -21.956 -17.669  0.00  0.00    +0.063 C 
ATOM     15  C   UNL     1      36.636 -21.341 -18.845  0.00  0.00    +0.069 C 
ATOM     16  C   UNL     1      35.541 -21.138 -19.824  0.00  0.00    +0.250 C 
ATOM     17  H   UNL     1      33.557 -21.499 -20.087  0.00  0.00    +0.155 HD
ENDROOT
BRANCH   6  18
ATOM     18  C   UNL     1      34.841 -24.741 -12.710  0.00  0.00    +0.043 C 
ATOM     19  C   UNL     1      35.330 -23.717 -11.682  0.00  0.00    +0.007 C 
ENDBRANCH   6  18
BRANCH   3  20
ATOM     20  C   UNL     1      32.198 -24.736 -14.071  0.00  0.00    +0.210 C 
BRANCH  20  24
ATOM     21  F   UNL     1      30.424 -24.245 -12.605  0.00  0.00    -0.168 F 
ATOM     22  F   UNL     1      30.532 -23.090 -14.449  0.00  0.00    -0.168 F 
ATOM     23  F   UNL     1      31.965 -22.722 -12.839  0.00  0.00    -0.168 F 
ATOM     24  C   UNL     1      31.277 -23.683 -13.491  0.00  0.00    +0.418 C 
ENDBRANCH  20  24
ENDBRANCH   3  20
TORSDOF 3
ENDMDL
MODEL 6
REMARK VINA RESULT:      -8.7      3.579      5.599
REMARK  Name = 25195253
REMARK  3 active torsions:
REMARK  status: ('A' for Active; 'I' for Inactive)
REMARK    1  A    between atoms: N_3  and  C_20
REMARK    2  A    between atoms: C_6  and  C_18
REMARK    3  A    between atoms: C_20  and  C_24
REMARK                            x       y       z     vdW  Elec       q    Type
REMARK                         _______ _______ _______ _____ _____    ______ ____
ROOT
ATOM      1 CL   UNL     1      32.063 -13.589 -20.318  0.00  0.00    -0.082 Cl
ATOM      2  O   UNL     1      33.971 -16.609 -23.677  0.00  0.00    -0.270 OA
ATOM      3  N   UNL     1      32.699  -9.147 -23.233  0.00  0.00    -0.323 N 
ATOM      4  N   UNL     1      33.944 -14.409 -24.337  0.00  0.00    -0.280 N 
ATOM      5  C   UNL     1      32.749 -11.318 -22.632  0.00  0.00    +0.015 A 
ATOM      6  C   UNL     1      32.160  -9.206 -21.984  0.00  0.00    +0.033 A 
ATOM      7  C   UNL     1      33.066 -10.407 -23.653  0.00  0.00    +0.060 A 
ATOM      8  C   UNL     1      32.175 -10.523 -21.588  0.00  0.00    -0.009 A 
ATOM      9  C   UNL     1      33.042 -12.696 -22.846  0.00  0.00    +0.025 C 
ATOM     10  C   UNL     1      33.653 -10.778 -24.866  0.00  0.00    +0.018 C 
ATOM     11  C   UNL     1      33.636 -13.061 -24.078  0.00  0.00    +0.051 C 
ATOM     12  C   UNL     1      31.639 -10.862 -20.256  0.00  0.00    +0.032 C 
ATOM     13  C   UNL     1      33.934 -12.124 -25.065  0.00  0.00    +0.016 C 
ATOM     14  C   UNL     1      32.770 -13.772 -21.871  0.00  0.00    +0.063 C 
ATOM     15  C   UNL     1      33.080 -15.044 -22.162  0.00  0.00    +0.069 C 
ATOM     16  C   UNL     1      33.703 -15.432 -23.451  0.00  0.00    +0.250 C 
ATOM     17  H   UNL     1      34.356 -14.633 -25.203  0.00  0.00    +0.155 HD
ENDROOT
BRANCH   6  18
ATOM     18  C   UNL     1      31.678  -7.996 -21.283  0.00  0.00    +0.043 C 
ATOM     19  C   UNL     1      32.705  -7.433 -20.297  0.00  0.00    +0.007 C 
ENDBRANCH   6  18
BRANCH   3  20
ATOM     20  C   UNL     1      32.864  -7.935 -24.009  0.00  0.00    +0.210 C 
BRANCH  20  24
ATOM     21  F   UNL     1      34.374  -6.200 -24.507  0.00  0.00    -0.168 F 
ATOM     22  F   UNL     1      35.046  -8.237 -24.890  0.00  0.00    -0.168 F 
ATOM     23  F   UNL     1      34.882  -7.505 -22.837  0.00  0.00    -0.168 F 
ATOM     24  C   UNL     1      34.306  -7.473 -24.057  0.00  0.00    +0.418 C 
ENDBRANCH  20  24
ENDBRANCH   3  20
TORSDOF 3
ENDMDL
MODEL 7
REMARK VINA RESULT:      -8.6      3.933      6.162
REMARK  Name = 25195253
REMARK  3 active torsions:
REMARK  status: ('A' for Active; 'I' for Inactive)
REMARK    1  A    between atoms: N_3  and  C_20
REMARK    2  A    between atoms: C_6  and  C_18
REMARK    3  A    between atoms: C_20  and  C_24
REMARK                            x       y       z     vdW  Elec       q    Type
REMARK                         _______ _______ _______ _____ _____    ______ ____
ROOT
ATOM      1 CL   UNL     1      31.642 -13.062 -20.849  0.00  0.00    -0.082 Cl
ATOM      2  O   UNL     1      33.689 -15.836 -24.337  0.00  0.00    -0.270 OA
ATOM      3  N   UNL     1      32.940  -8.391 -23.111  0.00  0.00    -0.323 N 
ATOM      4  N   UNL     1      33.903 -13.581 -24.720  0.00  0.00    -0.280 N 
ATOM      5  C   UNL     1      32.757 -10.612 -22.781  0.00  0.00    +0.015 A 
ATOM      6  C   UNL     1      32.259  -8.544 -21.942  0.00  0.00    +0.033 A 
ATOM      7  C   UNL     1      33.257  -9.621 -23.643  0.00  0.00    +0.060 A 
ATOM      8  C   UNL     1      32.130  -9.894 -21.712  0.00  0.00    -0.009 A 
ATOM      9  C   UNL     1      32.969 -11.976 -23.132  0.00  0.00    +0.025 C 
ATOM     10  C   UNL     1      33.949  -9.902 -24.824  0.00  0.00    +0.018 C 
ATOM     11  C   UNL     1      33.670 -12.249 -24.330  0.00  0.00    +0.051 C 
ATOM     12  C   UNL     1      31.421 -10.334 -20.495  0.00  0.00    +0.032 C 
ATOM     13  C   UNL     1      34.149 -11.235 -25.157  0.00  0.00    +0.016 C 
ATOM     14  C   UNL     1      32.506 -13.128 -22.331  0.00  0.00    +0.063 C 
ATOM     15  C   UNL     1      32.751 -14.382 -22.742  0.00  0.00    +0.069 C 
ATOM     16  C   UNL     1      33.485 -14.672 -23.997  0.00  0.00    +0.250 C 
ATOM     17  H   UNL     1      34.394 -13.739 -25.559  0.00  0.00    +0.155 HD
ENDROOT
BRANCH   6  18
ATOM     18  C   UNL     1      31.793  -7.384 -21.151  0.00  0.00    +0.043 C 
ATOM     19  C   UNL     1      32.784  -6.974 -20.059  0.00  0.00    +0.007 C 
ENDBRANCH   6  18
BRANCH   3  20
ATOM     20  C   UNL     1      33.284  -7.116 -23.710  0.00  0.00    +0.210 C 
BRANCH  20  24
ATOM     21  F   UNL     1      31.555  -5.522 -23.622  0.00  0.00    -0.168 F 
ATOM     22  F   UNL     1      31.140  -7.373 -24.694  0.00  0.00    -0.168 F 
ATOM     23  F   UNL     1      32.476  -5.877 -25.564  0.00  0.00    -0.168 F 
ATOM     24  C   UNL     1      32.106  -6.472 -24.411  0.00  0.00    +0.418 C 
ENDBRANCH  20  24
ENDBRANCH   3  20
TORSDOF 3
ENDMDL
MODEL 8
REMARK VINA RESULT:      -8.4      4.606      7.379
REMARK  Name = 25195253
REMARK  3 active torsions:
REMARK  status: ('A' for Active; 'I' for Inactive)
REMARK    1  A    between atoms: N_3  and  C_20
REMARK    2  A    between atoms: C_6  and  C_18
REMARK    3  A    between atoms: C_20  and  C_24
REMARK                            x       y       z     vdW  Elec       q    Type
REMARK                         _______ _______ _______ _____ _____    ______ ____
ROOT
ATOM      1 CL   UNL     1      31.290 -10.060 -20.100  0.00  0.00    -0.082 Cl
ATOM      2  O   UNL     1      32.307  -6.084 -22.784  0.00  0.00    -0.270 OA
ATOM      3  N   UNL     1      33.524 -13.533 -23.501  0.00  0.00    -0.323 N 
ATOM      4  N   UNL     1      33.041  -8.041 -23.737  0.00  0.00    -0.280 N 
ATOM      5  C   UNL     1      32.824 -11.587 -22.610  0.00  0.00    +0.015 A 
ATOM      6  C   UNL     1      32.920 -13.854 -22.324  0.00  0.00    +0.033 A 
ATOM      7  C   UNL     1      33.482 -12.172 -23.705  0.00  0.00    +0.060 A 
ATOM      8  C   UNL     1      32.480 -12.682 -21.753  0.00  0.00    -0.009 A 
ATOM      9  C   UNL     1      32.662 -10.171 -22.602  0.00  0.00    +0.025 C 
ATOM     10  C   UNL     1      33.986 -11.441 -24.784  0.00  0.00    +0.018 C 
ATOM     11  C   UNL     1      33.176  -9.441 -23.699  0.00  0.00    +0.051 C 
ATOM     12  C   UNL     1      31.784 -12.752 -20.454  0.00  0.00    +0.032 C 
ATOM     13  C   UNL     1      33.823 -10.062 -24.766  0.00  0.00    +0.016 C 
ATOM     14  C   UNL     1      31.993  -9.411 -21.526  0.00  0.00    +0.063 C 
ATOM     15  C   UNL     1      31.888  -8.076 -21.604  0.00  0.00    +0.069 C 
ATOM     16  C   UNL     1      32.425  -7.307 -22.752  0.00  0.00    +0.250 C 
ATOM     17  H   UNL     1      33.409  -7.560 -24.514  0.00  0.00    +0.155 HD
ENDROOT
BRANCH   6  18
ATOM     18  C   UNL     1      32.819 -15.252 -21.852  0.00  0.00    +0.043 C 
ATOM     19  C   UNL     1      33.987 -15.658 -20.950  0.00  0.00    +0.007 C 
ENDBRANCH   6  18
BRANCH   3  20
ATOM     20  C   UNL     1      34.125 -14.488 -24.412  0.00  0.00    +0.210 C 
BRANCH  20  24
ATOM     21  F   UNL     1      33.167 -16.077 -25.860  0.00  0.00    -0.168 F 
ATOM     22  F   UNL     1      33.776 -14.178 -26.738  0.00  0.00    -0.168 F 
ATOM     23  F   UNL     1      32.006 -14.277 -25.459  0.00  0.00    -0.168 F 
ATOM     24  C   UNL     1      33.260 -14.748 -25.628  0.00  0.00    +0.418 C 
ENDBRANCH  20  24
ENDBRANCH   3  20
TORSDOF 3
ENDMDL
MODEL 9
REMARK VINA RESULT:      -8.4      9.196     12.292
REMARK  Name = 25195253
REMARK  3 active torsions:
REMARK  status: ('A' for Active; 'I' for Inactive)
REMARK    1  A    between atoms: N_3  and  C_20
REMARK    2  A    between atoms: C_6  and  C_18
REMARK    3  A    between atoms: C_20  and  C_24
REMARK                            x       y       z     vdW  Elec       q    Type
REMARK                         _______ _______ _______ _____ _____    ______ ____
ROOT
ATOM      1 CL   UNL     1      37.131 -21.625 -18.647  0.00  0.00    -0.082 Cl
ATOM      2  O   UNL     1      32.527 -21.329 -20.310  0.00  0.00    -0.270 OA
ATOM      3  N   UNL     1      35.861 -24.227 -14.147  0.00  0.00    -0.323 N 
ATOM      4  N   UNL     1      32.700 -22.401 -18.286  0.00  0.00    -0.280 N 
ATOM      5  C   UNL     1      35.639 -23.183 -16.131  0.00  0.00    +0.015 A 
ATOM      6  C   UNL     1      37.117 -23.858 -14.523  0.00  0.00    +0.033 A 
ATOM      7  C   UNL     1      34.944 -23.832 -15.096  0.00  0.00    +0.060 A 
ATOM      8  C   UNL     1      37.015 -23.217 -15.735  0.00  0.00    -0.009 A 
ATOM      9  C   UNL     1      34.887 -22.684 -17.234  0.00  0.00    +0.025 C 
ATOM     10  C   UNL     1      33.559 -24.016 -15.091  0.00  0.00    +0.018 C 
ATOM     11  C   UNL     1      33.486 -22.875 -17.219  0.00  0.00    +0.051 C 
ATOM     12  C   UNL     1      38.248 -22.714 -16.370  0.00  0.00    +0.032 C 
ATOM     13  C   UNL     1      32.836 -23.526 -16.172  0.00  0.00    +0.016 C 
ATOM     14  C   UNL     1      35.470 -21.980 -18.395  0.00  0.00    +0.063 C 
ATOM     15  C   UNL     1      34.682 -21.546 -19.390  0.00  0.00    +0.069 C 
ATOM     16  C   UNL     1      33.213 -21.744 -19.378  0.00  0.00    +0.250 C 
ATOM     17  H   UNL     1      31.727 -22.549 -18.247  0.00  0.00    +0.155 HD
ENDROOT
BRANCH   6  18
ATOM     18  C   UNL     1      38.301 -24.155 -13.688  0.00  0.00    +0.043 C 
ATOM     19  C   UNL     1      38.972 -25.480 -14.061  0.00  0.00    +0.007 C 
ENDBRANCH   6  18
BRANCH   3  20
ATOM     20  C   UNL     1      35.535 -24.932 -12.924  0.00  0.00    +0.210 C 
BRANCH  20  24
ATOM     21  F   UNL     1      34.077 -23.409 -11.879  0.00  0.00    -0.168 F 
ATOM     22  F   UNL     1      36.211 -23.001 -11.722  0.00  0.00    -0.168 F 
ATOM     23  F   UNL     1      35.321 -24.638 -10.579  0.00  0.00    -0.168 F 
ATOM     24  C   UNL     1      35.292 -23.990 -11.763  0.00  0.00    +0.418 C 
ENDBRANCH  20  24
ENDBRANCH   3  20
TORSDOF 3
ENDMDL
