MODEL 1
REMARK VINA RESULT:     -12.4      0.000      0.000
REMARK  Name = 68289010
REMARK  3 active torsions:
REMARK  status: ('A' for Active; 'I' for Inactive)
REMARK    1  A    between atoms: N_1  and  C_16
REMARK    2  A    between atoms: C_8  and  C_12
REMARK    3  A    between atoms: C_16  and  C_20
REMARK                            x       y       z     vdW  Elec       q    Type
REMARK                         _______ _______ _______ _____ _____    ______ ____
ROOT
ATOM      1  N   UNL     1      34.860 -17.401 -23.234  0.00  0.00    -0.165 N 
ATOM      2  N   UNL     1      34.955 -18.443 -24.084  0.00  0.00    -0.033 NA
ATOM      3  N   UNL     1      34.115 -15.078 -23.373  0.00  0.00    -0.378 NA
ATOM      4  N   UNL     1      34.519 -18.036 -25.277  0.00  0.00    -0.086 NA
ATOM      5  N   UNL     1      33.650 -15.905 -26.110  0.00  0.00    -0.208 NA
ATOM      6  C   UNL     1      34.361 -16.303 -23.860  0.00  0.00    +0.267 C 
ATOM      7  C   UNL     1      34.150 -16.728 -25.158  0.00  0.00    +0.098 C 
ATOM      8  C   UNL     1      33.615 -14.266 -24.333  0.00  0.00    +0.140 C 
ATOM      9  C   UNL     1      33.392 -14.662 -25.644  0.00  0.00    +0.195 C 
ENDROOT
BRANCH   8  12
ATOM     10  N   UNL     1      32.442 -11.245 -22.830  0.00  0.00    -0.208 N 
ATOM     11  N   UNL     1      33.246 -10.650 -23.729  0.00  0.00    -0.176 NA
ATOM     12  C   UNL     1      33.315 -12.925 -23.919  0.00  0.00    +0.064 C 
ATOM     13  C   UNL     1      32.448 -12.607 -22.904  0.00  0.00    +0.088 C 
ATOM     14  C   UNL     1      33.776 -11.681 -24.391  0.00  0.00    +0.121 C 
ATOM     15  C   UNL     1      31.677 -10.439 -21.910  0.00  0.00    +0.140 C 
ENDBRANCH   8  12
BRANCH   1  16
ATOM     16  C   UNL     1      35.282 -17.546 -21.782  0.00  0.00    +0.122 C 
ATOM     17  C   UNL     1      34.956 -16.283 -20.977  0.00  0.00    +0.028 C 
BRANCH  16  20
ATOM     18  N   UNL     1      34.792 -20.867 -20.066  0.00  0.00    -0.247 N 
ATOM     19  N   UNL     1      33.068 -22.128 -19.403  0.00  0.00    -0.227 NA
ATOM     20  C   UNL     1      34.695 -18.766 -21.149  0.00  0.00    +0.013 C 
ATOM     21  C   UNL     1      35.432 -19.770 -20.636  0.00  0.00    +0.068 C 
ATOM     22  C   UNL     1      33.240 -18.872 -21.084  0.00  0.00    +0.002 C 
ATOM     23  C   UNL     1      33.409 -20.998 -19.989  0.00  0.00    +0.139 C 
ATOM     24  C   UNL     1      32.629 -19.937 -20.530  0.00  0.00    +0.035 C 
ATOM     25  C   UNL     1      35.331 -21.990 -19.491  0.00  0.00    +0.092 C 
ATOM     26  C   UNL     1      34.253 -22.746 -19.092  0.00  0.00    +0.117 C 
ENDBRANCH  16  20
ENDBRANCH   1  16
TORSDOF 3
ENDMDL
MODEL 2
REMARK VINA RESULT:     -12.0      0.765      1.361
REMARK  Name = 68289010
REMARK  3 active torsions:
REMARK  status: ('A' for Active; 'I' for Inactive)
REMARK    1  A    between atoms: N_1  and  C_16
REMARK    2  A    between atoms: C_8  and  C_12
REMARK    3  A    between atoms: C_16  and  C_20
REMARK                            x       y       z     vdW  Elec       q    Type
REMARK                         _______ _______ _______ _____ _____    ______ ____
ROOT
ATOM      1  N   UNL     1      34.949 -17.261 -23.145  0.00  0.00    -0.165 N 
ATOM      2  N   UNL     1      34.953 -18.399 -23.868  0.00  0.00    -0.033 NA
ATOM      3  N   UNL     1      34.285 -14.939 -23.519  0.00  0.00    -0.378 NA
ATOM      4  N   UNL     1      34.460 -18.116 -25.075  0.00  0.00    -0.086 NA
ATOM      5  N   UNL     1      33.624 -16.060 -26.108  0.00  0.00    -0.208 NA
ATOM      6  C   UNL     1      34.455 -16.223 -23.869  0.00  0.00    +0.267 C 
ATOM      7  C   UNL     1      34.150 -16.788 -25.093  0.00  0.00    +0.098 C 
ATOM      8  C   UNL     1      33.760 -14.224 -24.540  0.00  0.00    +0.140 C 
ATOM      9  C   UNL     1      33.442 -14.761 -25.780  0.00  0.00    +0.195 C 
ENDROOT
BRANCH   8  12
ATOM     10  N   UNL     1      32.835 -10.997 -23.318  0.00  0.00    -0.208 N 
ATOM     11  N   UNL     1      33.530 -10.551 -24.380  0.00  0.00    -0.176 NA
ATOM     12  C   UNL     1      33.536 -12.832 -24.274  0.00  0.00    +0.064 C 
ATOM     13  C   UNL     1      32.809 -12.357 -23.211  0.00  0.00    +0.088 C 
ATOM     14  C   UNL     1      33.955 -11.676 -24.959  0.00  0.00    +0.121 C 
ATOM     15  C   UNL     1      32.206 -10.054 -22.426  0.00  0.00    +0.140 C 
ENDBRANCH   8  12
BRANCH   1  16
ATOM     16  C   UNL     1      35.452 -17.254 -21.712  0.00  0.00    +0.122 C 
ATOM     17  C   UNL     1      34.720 -16.204 -20.868  0.00  0.00    +0.028 C 
BRANCH  16  20
ATOM     18  N   UNL     1      34.256 -20.497 -20.208  0.00  0.00    -0.247 N 
ATOM     19  N   UNL     1      35.182 -22.348 -19.361  0.00  0.00    -0.227 NA
ATOM     20  C   UNL     1      35.378 -18.609 -21.086  0.00  0.00    +0.013 C 
ATOM     21  C   UNL     1      34.221 -19.233 -20.791  0.00  0.00    +0.068 C 
ATOM     22  C   UNL     1      36.632 -19.292 -20.780  0.00  0.00    +0.002 C 
ATOM     23  C   UNL     1      35.433 -21.174 -19.904  0.00  0.00    +0.139 C 
ATOM     24  C   UNL     1      36.656 -20.516 -20.216  0.00  0.00    +0.035 C 
ATOM     25  C   UNL     1      33.219 -21.310 -19.826  0.00  0.00    +0.092 C 
ATOM     26  C   UNL     1      33.814 -22.438 -19.310  0.00  0.00    +0.117 C 
ENDBRANCH  16  20
ENDBRANCH   1  16
TORSDOF 3
ENDMDL
MODEL 3
REMARK VINA RESULT:     -11.1      2.583      9.132
REMARK  Name = 68289010
REMARK  3 active torsions:
REMARK  status: ('A' for Active; 'I' for Inactive)
REMARK    1  A    between atoms: N_1  and  C_16
REMARK    2  A    between atoms: C_8  and  C_12
REMARK    3  A    between atoms: C_16  and  C_20
REMARK                            x       y       z     vdW  Elec       q    Type
REMARK                         _______ _______ _______ _____ _____    ______ ____
ROOT
ATOM      1  N   UNL     1      34.400 -19.907 -20.570  0.00  0.00    -0.165 N 
ATOM      2  N   UNL     1      33.204 -19.963 -21.189  0.00  0.00    -0.033 NA
ATOM      3  N   UNL     1      35.494 -21.105 -18.742  0.00  0.00    -0.378 NA
ATOM      4  N   UNL     1      32.492 -20.932 -20.614  0.00  0.00    -0.086 NA
ATOM      5  N   UNL     1      32.950 -22.491 -18.783  0.00  0.00    -0.208 NA
ATOM      6  C   UNL     1      34.484 -20.838 -19.583  0.00  0.00    +0.267 C 
ATOM      7  C   UNL     1      33.260 -21.479 -19.628  0.00  0.00    +0.098 C 
ATOM      8  C   UNL     1      35.171 -22.117 -17.904  0.00  0.00    +0.140 C 
ATOM      9  C   UNL     1      33.953 -22.782 -17.924  0.00  0.00    +0.195 C 
ENDROOT
BRANCH   8  12
ATOM     10  N   UNL     1      37.175 -23.426 -15.252  0.00  0.00    -0.208 N 
ATOM     11  N   UNL     1      38.151 -22.692 -15.815  0.00  0.00    -0.176 NA
ATOM     12  C   UNL     1      36.184 -22.488 -16.958  0.00  0.00    +0.064 C 
ATOM     13  C   UNL     1      35.977 -23.337 -15.899  0.00  0.00    +0.088 C 
ATOM     14  C   UNL     1      37.540 -22.122 -16.856  0.00  0.00    +0.121 C 
ATOM     15  C   UNL     1      37.455 -24.206 -14.071  0.00  0.00    +0.140 C 
ENDBRANCH   8  12
BRANCH   1  16
ATOM     16  C   UNL     1      35.448 -18.896 -21.001  0.00  0.00    +0.122 C 
ATOM     17  C   UNL     1      36.841 -19.533 -21.077  0.00  0.00    +0.028 C 
BRANCH  16  20
ATOM     18  N   UNL     1      34.335 -16.414 -23.611  0.00  0.00    -0.247 N 
ATOM     19  N   UNL     1      34.077 -16.380 -25.832  0.00  0.00    -0.227 NA
ATOM     20  C   UNL     1      35.082 -18.224 -22.285  0.00  0.00    +0.013 C 
ATOM     21  C   UNL     1      34.651 -16.951 -22.366  0.00  0.00    +0.068 C 
ATOM     22  C   UNL     1      35.201 -18.996 -23.520  0.00  0.00    +0.002 C 
ATOM     23  C   UNL     1      34.437 -17.122 -24.804  0.00  0.00    +0.139 C 
ATOM     24  C   UNL     1      34.892 -18.468 -24.720  0.00  0.00    +0.035 C 
ATOM     25  C   UNL     1      33.884 -15.159 -23.930  0.00  0.00    +0.092 C 
ATOM     26  C   UNL     1      33.734 -15.163 -25.297  0.00  0.00    +0.117 C 
ENDBRANCH  16  20
ENDBRANCH   1  16
TORSDOF 3
ENDMDL
MODEL 4
REMARK VINA RESULT:     -10.9      1.599      8.330
REMARK  Name = 68289010
REMARK  3 active torsions:
REMARK  status: ('A' for Active; 'I' for Inactive)
REMARK    1  A    between atoms: N_1  and  C_16
REMARK    2  A    between atoms: C_8  and  C_12
REMARK    3  A    between atoms: C_16  and  C_20
REMARK                            x       y       z     vdW  Elec       q    Type
REMARK                         _______ _______ _______ _____ _____    ______ ____
ROOT
ATOM      1  N   UNL     1      33.064 -14.401 -24.391  0.00  0.00    -0.165 N 
ATOM      2  N   UNL     1      32.951 -14.067 -25.693  0.00  0.00    -0.033 NA
ATOM      3  N   UNL     1      33.982 -16.281 -23.130  0.00  0.00    -0.378 NA
ATOM      4  N   UNL     1      33.494 -15.048 -26.414  0.00  0.00    -0.086 NA
ATOM      5  N   UNL     1      34.568 -17.168 -25.826  0.00  0.00    -0.208 NA
ATOM      6  C   UNL     1      33.682 -15.602 -24.247  0.00  0.00    +0.267 C 
ATOM      7  C   UNL     1      33.947 -15.997 -25.545  0.00  0.00    +0.098 C 
ATOM      8  C   UNL     1      34.601 -17.448 -23.424  0.00  0.00    +0.140 C 
ATOM      9  C   UNL     1      34.883 -17.872 -24.715  0.00  0.00    +0.195 C 
ENDROOT
BRANCH   8  12
ATOM     10  N   UNL     1      34.901 -19.793 -20.746  0.00  0.00    -0.208 N 
ATOM     11  N   UNL     1      36.068 -19.167 -20.514  0.00  0.00    -0.176 NA
ATOM     12  C   UNL     1      34.970 -18.258 -22.298  0.00  0.00    +0.064 C 
ATOM     13  C   UNL     1      34.205 -19.286 -21.805  0.00  0.00    +0.088 C 
ATOM     14  C   UNL     1      36.104 -18.230 -21.465  0.00  0.00    +0.121 C 
ATOM     15  C   UNL     1      34.497 -20.892 -19.903  0.00  0.00    +0.140 C 
ENDBRANCH   8  12
BRANCH   1  16
ATOM     16  C   UNL     1      32.537 -13.477 -23.307  0.00  0.00    +0.122 C 
ATOM     17  C   UNL     1      32.850 -14.022 -21.908  0.00  0.00    +0.028 C 
BRANCH  16  20
ATOM     18  N   UNL     1      33.083  -9.758 -23.012  0.00  0.00    -0.247 N 
ATOM     19  N   UNL     1      34.417  -8.222 -23.940  0.00  0.00    -0.227 NA
ATOM     20  C   UNL     1      33.035 -12.078 -23.474  0.00  0.00    +0.013 C 
ATOM     21  C   UNL     1      32.552 -11.025 -22.786  0.00  0.00    +0.068 C 
ATOM     22  C   UNL     1      34.107 -11.843 -24.438  0.00  0.00    +0.002 C 
ATOM     23  C   UNL     1      34.103  -9.501 -23.923  0.00  0.00    +0.139 C 
ATOM     24  C   UNL     1      34.615 -10.613 -24.650  0.00  0.00    +0.035 C 
ATOM     25  C   UNL     1      32.752  -8.558 -22.437  0.00  0.00    +0.092 C 
ATOM     26  C   UNL     1      33.584  -7.633 -23.022  0.00  0.00    +0.117 C 
ENDBRANCH  16  20
ENDBRANCH   1  16
TORSDOF 3
ENDMDL
MODEL 5
REMARK VINA RESULT:     -10.9      1.591      8.232
REMARK  Name = 68289010
REMARK  3 active torsions:
REMARK  status: ('A' for Active; 'I' for Inactive)
REMARK    1  A    between atoms: N_1  and  C_16
REMARK    2  A    between atoms: C_8  and  C_12
REMARK    3  A    between atoms: C_16  and  C_20
REMARK                            x       y       z     vdW  Elec       q    Type
REMARK                         _______ _______ _______ _____ _____    ______ ____
ROOT
ATOM      1  N   UNL     1      32.995 -14.436 -24.009  0.00  0.00    -0.165 N 
ATOM      2  N   UNL     1      32.859 -14.007 -25.280  0.00  0.00    -0.033 NA
ATOM      3  N   UNL     1      34.000 -16.368 -22.901  0.00  0.00    -0.378 NA
ATOM      4  N   UNL     1      33.438 -14.905 -26.077  0.00  0.00    -0.086 NA
ATOM      5  N   UNL     1      34.605 -17.016 -25.660  0.00  0.00    -0.208 NA
ATOM      6  C   UNL     1      33.664 -15.617 -23.961  0.00  0.00    +0.267 C 
ATOM      7  C   UNL     1      33.937 -15.898 -25.286  0.00  0.00    +0.098 C 
ATOM      8  C   UNL     1      34.666 -17.480 -23.287  0.00  0.00    +0.140 C 
ATOM      9  C   UNL     1      34.957 -17.791 -24.609  0.00  0.00    +0.195 C 
ENDROOT
BRANCH   8  12
ATOM     10  N   UNL     1      35.033 -19.938 -20.721  0.00  0.00    -0.208 N 
ATOM     11  N   UNL     1      36.268 -19.422 -20.598  0.00  0.00    -0.176 NA
ATOM     12  C   UNL     1      35.076 -18.359 -22.230  0.00  0.00    +0.064 C 
ATOM     13  C   UNL     1      34.279 -19.336 -21.686  0.00  0.00    +0.088 C 
ATOM     14  C   UNL     1      36.289 -18.458 -21.521  0.00  0.00    +0.121 C 
ATOM     15  C   UNL     1      34.623 -21.029 -19.870  0.00  0.00    +0.140 C 
ENDBRANCH   8  12
BRANCH   1  16
ATOM     16  C   UNL     1      32.437 -13.622 -22.854  0.00  0.00    +0.122 C 
ATOM     17  C   UNL     1      32.928 -14.159 -21.504  0.00  0.00    +0.028 C 
BRANCH  16  20
ATOM     18  N   UNL     1      33.964 -10.303 -23.780  0.00  0.00    -0.247 N 
ATOM     19  N   UNL     1      33.527  -8.141 -23.411  0.00  0.00    -0.227 NA
ATOM     20  C   UNL     1      32.729 -12.165 -23.004  0.00  0.00    +0.013 C 
ATOM     21  C   UNL     1      33.777 -11.679 -23.698  0.00  0.00    +0.068 C 
ATOM     22  C   UNL     1      31.825 -11.215 -22.359  0.00  0.00    +0.002 C 
ATOM     23  C   UNL     1      33.123  -9.373 -23.178  0.00  0.00    +0.139 C 
ATOM     24  C   UNL     1      32.015  -9.884 -22.444  0.00  0.00    +0.035 C 
ATOM     25  C   UNL     1      34.947  -9.593 -24.422  0.00  0.00    +0.092 C 
ATOM     26  C   UNL     1      34.656  -8.271 -24.181  0.00  0.00    +0.117 C 
ENDBRANCH  16  20
ENDBRANCH   1  16
TORSDOF 3
ENDMDL
MODEL 6
REMARK VINA RESULT:     -10.6      4.421      8.297
REMARK  Name = 68289010
REMARK  3 active torsions:
REMARK  status: ('A' for Active; 'I' for Inactive)
REMARK    1  A    between atoms: N_1  and  C_16
REMARK    2  A    between atoms: C_8  and  C_12
REMARK    3  A    between atoms: C_16  and  C_20
REMARK                            x       y       z     vdW  Elec       q    Type
REMARK                         _______ _______ _______ _____ _____    ______ ____
ROOT
ATOM      1  N   UNL     1      35.460 -22.708 -17.257  0.00  0.00    -0.165 N 
ATOM      2  N   UNL     1      34.534 -23.512 -16.697  0.00  0.00    -0.033 NA
ATOM      3  N   UNL     1      35.535 -21.157 -19.145  0.00  0.00    -0.378 NA
ATOM      4  N   UNL     1      33.405 -23.380 -17.394  0.00  0.00    -0.086 NA
ATOM      5  N   UNL     1      32.783 -22.042 -19.347  0.00  0.00    -0.208 NA
ATOM      6  C   UNL     1      34.947 -22.042 -18.325  0.00  0.00    +0.267 C 
ATOM      7  C   UNL     1      33.639 -22.483 -18.395  0.00  0.00    +0.098 C 
ATOM      8  C   UNL     1      34.670 -20.724 -20.091  0.00  0.00    +0.140 C 
ATOM      9  C   UNL     1      33.351 -21.147 -20.187  0.00  0.00    +0.195 C 
ENDROOT
BRANCH   8  12
ATOM     10  N   UNL     1      35.378 -18.478 -22.776  0.00  0.00    -0.208 N 
ATOM     11  N   UNL     1      36.513 -18.242 -22.094  0.00  0.00    -0.176 NA
ATOM     12  C   UNL     1      35.195 -19.771 -21.025  0.00  0.00    +0.064 C 
ATOM     13  C   UNL     1      34.555 -19.386 -22.177  0.00  0.00    +0.088 C 
ATOM     14  C   UNL     1      36.395 -19.034 -21.026  0.00  0.00    +0.121 C 
ATOM     15  C   UNL     1      35.134 -17.790 -24.020  0.00  0.00    +0.140 C 
ENDBRANCH   8  12
BRANCH   1  16
ATOM     16  C   UNL     1      36.865 -22.630 -16.685  0.00  0.00    +0.122 C 
ATOM     17  C   UNL     1      37.372 -21.183 -16.646  0.00  0.00    +0.028 C 
BRANCH  16  20
ATOM     18  N   UNL     1      36.240 -23.742 -13.138  0.00  0.00    -0.247 N 
ATOM     19  N   UNL     1      37.228 -25.081 -11.645  0.00  0.00    -0.227 NA
ATOM     20  C   UNL     1      36.959 -23.280 -15.343  0.00  0.00    +0.013 C 
ATOM     21  C   UNL     1      36.065 -23.089 -14.355  0.00  0.00    +0.068 C 
ATOM     22  C   UNL     1      38.087 -24.174 -15.094  0.00  0.00    +0.002 C 
ATOM     23  C   UNL     1      37.302 -24.598 -12.869  0.00  0.00    +0.139 C 
ATOM     24  C   UNL     1      38.249 -24.802 -13.913  0.00  0.00    +0.035 C 
ATOM     25  C   UNL     1      35.467 -23.698 -12.005  0.00  0.00    +0.092 C 
ATOM     26  C   UNL     1      36.094 -24.528 -11.106  0.00  0.00    +0.117 C 
ENDBRANCH  16  20
ENDBRANCH   1  16
TORSDOF 3
ENDMDL
MODEL 7
REMARK VINA RESULT:     -10.6      4.147     11.073
REMARK  Name = 68289010
REMARK  3 active torsions:
REMARK  status: ('A' for Active; 'I' for Inactive)
REMARK    1  A    between atoms: N_1  and  C_16
REMARK    2  A    between atoms: C_8  and  C_12
REMARK    3  A    between atoms: C_16  and  C_20
REMARK                            x       y       z     vdW  Elec       q    Type
REMARK                         _______ _______ _______ _____ _____    ______ ____
ROOT
ATOM      1  N   UNL     1      33.440 -22.932 -17.905  0.00  0.00    -0.165 N 
ATOM      2  N   UNL     1      32.148 -22.570 -18.030  0.00  0.00    -0.033 NA
ATOM      3  N   UNL     1      34.864 -23.788 -16.112  0.00  0.00    -0.378 NA
ATOM      4  N   UNL     1      31.559 -22.746 -16.846  0.00  0.00    -0.086 NA
ATOM      5  N   UNL     1      32.359 -23.547 -14.676  0.00  0.00    -0.208 NA
ATOM      6  C   UNL     1      33.712 -23.350 -16.641  0.00  0.00    +0.267 C 
ATOM      7  C   UNL     1      32.502 -23.224 -15.983  0.00  0.00    +0.098 C 
ATOM      8  C   UNL     1      34.708 -24.107 -14.807  0.00  0.00    +0.140 C 
ATOM      9  C   UNL     1      33.508 -23.993 -14.119  0.00  0.00    +0.195 C 
ENDROOT
BRANCH   8  12
ATOM     10  N   UNL     1      37.935 -25.250 -13.786  0.00  0.00    -0.208 N 
ATOM     11  N   UNL     1      37.360 -25.357 -12.576  0.00  0.00    -0.176 NA
ATOM     12  C   UNL     1      35.883 -24.589 -14.139  0.00  0.00    +0.064 C 
ATOM     13  C   UNL     1      37.092 -24.793 -14.757  0.00  0.00    +0.088 C 
ATOM     14  C   UNL     1      36.107 -24.953 -12.798  0.00  0.00    +0.121 C 
ATOM     15  C   UNL     1      39.323 -25.606 -13.954  0.00  0.00    +0.140 C 
ENDBRANCH   8  12
BRANCH   1  16
ATOM     16  C   UNL     1      34.385 -22.849 -19.091  0.00  0.00    +0.122 C 
ATOM     17  C   UNL     1      34.130 -23.985 -20.089  0.00  0.00    +0.028 C 
BRANCH  16  20
ATOM     18  N   UNL     1      35.268 -19.574 -20.736  0.00  0.00    -0.247 N 
ATOM     19  N   UNL     1      34.170 -17.826 -21.595  0.00  0.00    -0.227 NA
ATOM     20  C   UNL     1      34.331 -21.512 -19.757  0.00  0.00    +0.013 C 
ATOM     21  C   UNL     1      35.423 -20.813 -20.120  0.00  0.00    +0.068 C 
ATOM     22  C   UNL     1      33.016 -20.935 -20.028  0.00  0.00    +0.002 C 
ATOM     23  C   UNL     1      34.032 -18.997 -21.008  0.00  0.00    +0.139 C 
ATOM     24  C   UNL     1      32.876 -19.735 -20.625  0.00  0.00    +0.035 C 
ATOM     25  C   UNL     1      36.223 -18.698 -21.186  0.00  0.00    +0.092 C 
ATOM     26  C   UNL     1      35.524 -17.635 -21.708  0.00  0.00    +0.117 C 
ENDBRANCH  16  20
ENDBRANCH   1  16
TORSDOF 3
ENDMDL
MODEL 8
REMARK VINA RESULT:     -10.4      3.285      9.816
REMARK  Name = 68289010
REMARK  3 active torsions:
REMARK  status: ('A' for Active; 'I' for Inactive)
REMARK    1  A    between atoms: N_1  and  C_16
REMARK    2  A    between atoms: C_8  and  C_12
REMARK    3  A    between atoms: C_16  and  C_20
REMARK                            x       y       z     vdW  Elec       q    Type
REMARK                         _______ _______ _______ _____ _____    ______ ____
ROOT
ATOM      1  N   UNL     1      34.806 -21.142 -19.579  0.00  0.00    -0.165 N 
ATOM      2  N   UNL     1      33.623 -21.149 -20.225  0.00  0.00    -0.033 NA
ATOM      3  N   UNL     1      35.712 -22.162 -17.552  0.00  0.00    -0.378 NA
ATOM      4  N   UNL     1      32.786 -21.923 -19.534  0.00  0.00    -0.086 NA
ATOM      5  N   UNL     1      33.015 -23.220 -17.470  0.00  0.00    -0.208 NA
ATOM      6  C   UNL     1      34.757 -21.910 -18.459  0.00  0.00    +0.267 C 
ATOM      7  C   UNL     1      33.464 -22.398 -18.449  0.00  0.00    +0.098 C 
ATOM      8  C   UNL     1      35.251 -22.983 -16.580  0.00  0.00    +0.140 C 
ATOM      9  C   UNL     1      33.960 -23.491 -16.541  0.00  0.00    +0.195 C 
ENDROOT
BRANCH   8  12
ATOM     10  N   UNL     1      37.019 -23.940 -13.626  0.00  0.00    -0.208 N 
ATOM     11  N   UNL     1      38.112 -23.716 -14.377  0.00  0.00    -0.176 NA
ATOM     12  C   UNL     1      36.194 -23.320 -15.552  0.00  0.00    +0.064 C 
ATOM     13  C   UNL     1      35.845 -23.717 -14.285  0.00  0.00    +0.088 C 
ATOM     14  C   UNL     1      37.602 -23.338 -15.551  0.00  0.00    +0.121 C 
ATOM     15  C   UNL     1      37.165 -24.374 -12.258  0.00  0.00    +0.140 C 
ENDBRANCH   8  12
BRANCH   1  16
ATOM     16  C   UNL     1      35.979 -20.345 -20.123  0.00  0.00    +0.122 C 
ATOM     17  C   UNL     1      37.100 -21.268 -20.616  0.00  0.00    +0.028 C 
BRANCH  16  20
ATOM     18  N   UNL     1      34.894 -18.764 -23.369  0.00  0.00    -0.247 N 
ATOM     19  N   UNL     1      34.392 -16.712 -24.102  0.00  0.00    -0.227 NA
ATOM     20  C   UNL     1      35.557 -19.381 -21.184  0.00  0.00    +0.013 C 
ATOM     21  C   UNL     1      35.281 -19.738 -22.452  0.00  0.00    +0.068 C 
ATOM     22  C   UNL     1      35.438 -17.971 -20.819  0.00  0.00    +0.002 C 
ATOM     23  C   UNL     1      34.772 -17.415 -23.054  0.00  0.00    +0.139 C 
ATOM     24  C   UNL     1      35.063 -17.035 -21.713  0.00  0.00    +0.035 C 
ATOM     25  C   UNL     1      34.569 -18.895 -24.695  0.00  0.00    +0.092 C 
ATOM     26  C   UNL     1      34.264 -17.623 -25.121  0.00  0.00    +0.117 C 
ENDBRANCH  16  20
ENDBRANCH   1  16
TORSDOF 3
ENDMDL
MODEL 9
REMARK VINA RESULT:     -10.2      2.692      9.412
REMARK  Name = 68289010
REMARK  3 active torsions:
REMARK  status: ('A' for Active; 'I' for Inactive)
REMARK    1  A    between atoms: N_1  and  C_16
REMARK    2  A    between atoms: C_8  and  C_12
REMARK    3  A    between atoms: C_16  and  C_20
REMARK                            x       y       z     vdW  Elec       q    Type
REMARK                         _______ _______ _______ _____ _____    ______ ____
ROOT
ATOM      1  N   UNL     1      35.123 -20.967 -19.930  0.00  0.00    -0.165 N 
ATOM      2  N   UNL     1      36.397 -20.650 -20.235  0.00  0.00    -0.033 NA
ATOM      3  N   UNL     1      33.989 -22.153 -18.119  0.00  0.00    -0.378 NA
ATOM      4  N   UNL     1      37.179 -21.133 -19.269  0.00  0.00    -0.086 NA
ATOM      5  N   UNL     1      36.732 -22.386 -17.215  0.00  0.00    -0.208 NA
ATOM      6  C   UNL     1      35.057 -21.659 -18.763  0.00  0.00    +0.267 C 
ATOM      7  C   UNL     1      36.375 -21.754 -18.358  0.00  0.00    +0.098 C 
ATOM      8  C   UNL     1      34.358 -22.782 -16.979  0.00  0.00    +0.140 C 
ATOM      9  C   UNL     1      35.671 -22.893 -16.545  0.00  0.00    +0.195 C 
ENDROOT
BRANCH   8  12
ATOM     10  N   UNL     1      31.288 -23.976 -15.597  0.00  0.00    -0.208 N 
ATOM     11  N   UNL     1      32.068 -24.390 -14.583  0.00  0.00    -0.176 NA
ATOM     12  C   UNL     1      33.289 -23.350 -16.208  0.00  0.00    +0.064 C 
ATOM     13  C   UNL     1      31.972 -23.348 -16.596  0.00  0.00    +0.088 C 
ATOM     14  C   UNL     1      33.289 -24.005 -14.962  0.00  0.00    +0.121 C 
ATOM     15  C   UNL     1      29.866 -24.217 -15.551  0.00  0.00    +0.140 C 
ENDBRANCH   8  12
BRANCH   1  16
ATOM     16  C   UNL     1      33.983 -20.552 -20.843  0.00  0.00    +0.122 C 
ATOM     17  C   UNL     1      32.657 -20.466 -20.077  0.00  0.00    +0.028 C 
BRANCH  16  20
ATOM     18  N   UNL     1      34.347 -16.927 -21.813  0.00  0.00    -0.247 N 
ATOM     19  N   UNL     1      35.108 -15.772 -23.570  0.00  0.00    -0.227 NA
ATOM     20  C   UNL     1      34.281 -19.279 -21.567  0.00  0.00    +0.013 C 
ATOM     21  C   UNL     1      34.033 -18.055 -21.061  0.00  0.00    +0.068 C 
ATOM     22  C   UNL     1      34.875 -19.371 -22.898  0.00  0.00    +0.002 C 
ATOM     23  C   UNL     1      34.913 -16.981 -23.083  0.00  0.00    +0.139 C 
ATOM     24  C   UNL     1      35.176 -18.273 -23.619  0.00  0.00    +0.035 C 
ATOM     25  C   UNL     1      34.185 -15.601 -21.505  0.00  0.00    +0.092 C 
ATOM     26  C   UNL     1      34.660 -14.914 -22.598  0.00  0.00    +0.117 C 
ENDBRANCH  16  20
ENDBRANCH   1  16
TORSDOF 3
ENDMDL
