MODEL 1
REMARK VINA RESULT:     -12.9      0.000      0.000
REMARK  Name = 23656870
REMARK  4 active torsions:
REMARK  status: ('A' for Active; 'I' for Inactive)
REMARK    1  A    between atoms: N_2  and  C_25
REMARK    2  A    between atoms: N_3  and  C_14
REMARK    3  A    between atoms: C_10  and  C_32
REMARK    4  A    between atoms: C_16  and  N_21
REMARK                            x       y       z     vdW  Elec       q    Type
REMARK                         _______ _______ _______ _____ _____    ______ ____
ROOT
ATOM      1  N   UNL     1      32.026 -23.494 -15.232  0.00  0.00    -0.123 N 
ATOM      2  N   UNL     1      34.319 -23.843 -14.798  0.00  0.00    -0.274 N 
ATOM      3  N   UNL     1      32.753 -22.215 -18.955  0.00  0.00    -0.238 N 
ATOM      4  N   UNL     1      33.541 -23.028 -16.883  0.00  0.00    -0.295 NA
ATOM      5  N   UNL     1      31.211 -22.687 -17.287  0.00  0.00    -0.314 NA
ATOM      6  N   UNL     1      31.665 -23.906 -14.003  0.00  0.00    -0.170 NA
ATOM      7  C   UNL     1      33.340 -23.448 -15.668  0.00  0.00    +0.279 C 
ATOM      8  C   UNL     1      30.980 -23.122 -16.027  0.00  0.00    +0.219 C 
ATOM      9  C   UNL     1      32.465 -22.650 -17.683  0.00  0.00    +0.207 C 
ATOM     10  C   UNL     1      29.852 -23.304 -15.260  0.00  0.00    +0.203 C 
ATOM     11  C   UNL     1      30.334 -23.787 -14.027  0.00  0.00    +0.116 C 
ATOM     12  H   UNL     1      34.014 -24.137 -13.910  0.00  0.00    +0.156 HD
ATOM     13  H   UNL     1      32.062 -22.383 -19.635  0.00  0.00    +0.166 HD
ENDROOT
BRANCH   3  14
ATOM     14  C   UNL     1      33.902 -21.565 -19.400  0.00  0.00    +0.060 C 
ATOM     15  C   UNL     1      33.800 -20.509 -20.306  0.00  0.00    +0.030 C 
ATOM     16  C   UNL     1      34.950 -19.858 -20.750  0.00  0.00    +0.052 C 
ATOM     17  C   UNL     1      35.155 -21.969 -18.939  0.00  0.00    +0.015 C 
ATOM     18  C   UNL     1      36.203 -20.262 -20.290  0.00  0.00    +0.015 C 
ATOM     19  C   UNL     1      36.306 -21.318 -19.383  0.00  0.00    +0.003 C 
BRANCH  16  21
ATOM     20  O   UNL     1      35.309 -16.895 -20.352  0.00  0.00    -0.275 OA
ATOM     21  N   UNL     1      34.849 -18.803 -21.658  0.00  0.00    -0.284 N 
ATOM     22  C   UNL     1      35.026 -17.434 -21.417  0.00  0.00    +0.227 C 
ATOM     23  C   UNL     1      34.828 -16.615 -22.669  0.00  0.00    +0.095 C 
ATOM     24  H   UNL     1      34.625 -19.051 -22.585  0.00  0.00    +0.155 HD
ENDBRANCH  16  21
ENDBRANCH   3  14
BRANCH   2  25
ATOM     25  C   UNL     1      35.700 -23.884 -15.011  0.00  0.00    +0.051 C 
ATOM     26  C   UNL     1      36.352 -22.788 -15.575  0.00  0.00    +0.015 C 
ATOM     27  C   UNL     1      36.427 -25.022 -14.659  0.00  0.00    +0.015 C 
ATOM     28  C   UNL     1      37.730 -22.828 -15.787  0.00  0.00    +0.001 C 
ATOM     29  C   UNL     1      37.805 -25.062 -14.870  0.00  0.00    +0.001 C 
ATOM     30  C   UNL     1      38.457 -23.965 -15.435  0.00  0.00    +0.000 C 
ENDBRANCH   2  25
BRANCH  10  32
ATOM     31  N   UNL     1      27.412 -22.847 -15.968  0.00  0.00    -0.195 NA
ATOM     32  C   UNL     1      28.509 -23.053 -15.649  0.00  0.00    +0.087 C 
ENDBRANCH  10  32
TORSDOF 4
ENDMDL
