MODEL 1
REMARK VINA RESULT:      -8.0      0.000      0.000
REMARK  Name = 604519
REMARK  1 active torsions:
REMARK  status: ('A' for Active; 'I' for Inactive)
REMARK    1  A    between atoms: C_12  and  N_14
REMARK                            x       y       z     vdW  Elec       q    Type
REMARK                         _______ _______ _______ _____ _____    ______ ____
ROOT
ATOM      1  N   UNL     1      33.807 -16.125 -25.961  0.00  0.00    -0.415 NA
ATOM      2  C   UNL     1      33.856 -14.134 -24.585  0.00  0.00    +0.012 C 
ATOM      3  C   UNL     1      34.594 -16.206 -23.654  0.00  0.00    +0.083 C 
ATOM      4  C   UNL     1      33.482 -12.694 -24.690  0.00  0.00    +0.030 C 
ATOM      5  C   UNL     1      33.605 -14.812 -25.768  0.00  0.00    +0.105 C 
ATOM      6  C   UNL     1      34.298 -16.809 -24.892  0.00  0.00    +0.091 C 
ATOM      7  C   UNL     1      35.096 -17.003 -22.479  0.00  0.00    +0.012 C 
ATOM      8  C   UNL     1      33.416 -12.521 -26.217  0.00  0.00    +0.012 C 
ATOM      9  C   UNL     1      33.027 -13.887 -26.799  0.00  0.00    +0.059 C 
ATOM     10  C   UNL     1      35.649 -18.372 -22.869  0.00  0.00    +0.001 C 
ATOM     11  C   UNL     1      34.568 -18.273 -25.124  0.00  0.00    +0.055 C 
ATOM     12  C   UNL     1      34.347 -14.835 -23.503  0.00  0.00    +0.023 C 
ATOM     13  C   UNL     1      34.701 -19.076 -23.833  0.00  0.00    +0.007 C 
ENDROOT
BRANCH  12  14
ATOM     14  N   UNL     1      34.598 -14.168 -22.287  0.00  0.00    -0.360 N 
ATOM     15  H   UNL     1      35.462 -13.718 -22.142  0.00  0.00    +0.142 HD
ATOM     16  H   UNL     1      33.911 -14.153 -21.583  0.00  0.00    +0.142 HD
ENDBRANCH  12  14
TORSDOF 1
ENDMDL
MODEL 2
REMARK VINA RESULT:      -8.0      6.620      9.251
REMARK  Name = 604519
REMARK  1 active torsions:
REMARK  status: ('A' for Active; 'I' for Inactive)
REMARK    1  A    between atoms: C_12  and  N_14
REMARK                            x       y       z     vdW  Elec       q    Type
REMARK                         _______ _______ _______ _____ _____    ______ ____
ROOT
ATOM      1  N   UNL     1      31.247  -9.431 -22.810  0.00  0.00    -0.415 NA
ATOM      2  C   UNL     1      32.009  -9.300 -20.516  0.00  0.00    +0.012 C 
ATOM      3  C   UNL     1      31.945  -7.308 -21.832  0.00  0.00    +0.083 C 
ATOM      4  C   UNL     1      32.256 -10.219 -19.367  0.00  0.00    +0.030 C 
ATOM      5  C   UNL     1      31.526  -9.986 -21.620  0.00  0.00    +0.105 C 
ATOM      6  C   UNL     1      31.467  -8.091 -22.901  0.00  0.00    +0.091 C 
ATOM      7  C   UNL     1      32.218  -5.835 -21.983  0.00  0.00    +0.012 C 
ATOM      8  C   UNL     1      31.423 -11.441 -19.787  0.00  0.00    +0.012 C 
ATOM      9  C   UNL     1      31.399 -11.452 -21.323  0.00  0.00    +0.059 C 
ATOM     10  C   UNL     1      31.539  -5.216 -23.203  0.00  0.00    +0.001 C 
ATOM     11  C   UNL     1      31.109  -7.461 -24.222  0.00  0.00    +0.055 C 
ATOM     12  C   UNL     1      32.237  -7.944 -20.618  0.00  0.00    +0.023 C 
ATOM     13  C   UNL     1      31.750  -6.092 -24.433  0.00  0.00    +0.007 C 
ENDROOT
BRANCH  12  14
ATOM     14  N   UNL     1      32.740  -7.229 -19.512  0.00  0.00    -0.360 N 
ATOM     15  H   UNL     1      32.317  -7.328 -18.629  0.00  0.00    +0.142 HD
ATOM     16  H   UNL     1      33.513  -6.630 -19.623  0.00  0.00    +0.142 HD
ENDBRANCH  12  14
TORSDOF 1
ENDMDL
MODEL 3
REMARK VINA RESULT:      -7.7      6.262      9.194
REMARK  Name = 604519
REMARK  1 active torsions:
REMARK  status: ('A' for Active; 'I' for Inactive)
REMARK    1  A    between atoms: C_12  and  N_14
REMARK                            x       y       z     vdW  Elec       q    Type
REMARK                         _______ _______ _______ _____ _____    ______ ____
ROOT
ATOM      1  N   UNL     1      32.726 -21.632 -19.121  0.00  0.00    -0.415 NA
ATOM      2  C   UNL     1      34.536 -22.503 -17.768  0.00  0.00    +0.012 C 
ATOM      3  C   UNL     1      35.042 -21.005 -19.558  0.00  0.00    +0.083 C 
ATOM      4  C   UNL     1      34.724 -23.446 -16.628  0.00  0.00    +0.030 C 
ATOM      5  C   UNL     1      33.198 -22.381 -18.111  0.00  0.00    +0.105 C 
ATOM      6  C   UNL     1      33.663 -20.953 -19.837  0.00  0.00    +0.091 C 
ATOM      7  C   UNL     1      36.054 -20.274 -20.400  0.00  0.00    +0.012 C 
ATOM      8  C   UNL     1      33.298 -23.501 -16.056  0.00  0.00    +0.012 C 
ATOM      9  C   UNL     1      32.342 -23.244 -17.229  0.00  0.00    +0.059 C 
ATOM     10  C   UNL     1      35.440 -19.173 -21.263  0.00  0.00    +0.001 C 
ATOM     11  C   UNL     1      33.129 -20.076 -20.940  0.00  0.00    +0.055 C 
ATOM     12  C   UNL     1      35.480 -21.818 -18.503  0.00  0.00    +0.023 C 
ATOM     13  C   UNL     1      34.187 -19.682 -21.966  0.00  0.00    +0.007 C 
ENDROOT
BRANCH  12  14
ATOM     14  N   UNL     1      36.847 -21.935 -18.180  0.00  0.00    -0.360 N 
ATOM     15  H   UNL     1      37.334 -21.162 -17.816  0.00  0.00    +0.142 HD
ATOM     16  H   UNL     1      37.313 -22.791 -18.318  0.00  0.00    +0.142 HD
ENDBRANCH  12  14
TORSDOF 1
ENDMDL
MODEL 4
REMARK VINA RESULT:      -7.6      1.712      5.302
REMARK  Name = 604519
REMARK  1 active torsions:
REMARK  status: ('A' for Active; 'I' for Inactive)
REMARK    1  A    between atoms: C_12  and  N_14
REMARK                            x       y       z     vdW  Elec       q    Type
REMARK                         _______ _______ _______ _____ _____    ______ ____
ROOT
ATOM      1  N   UNL     1      33.556 -16.469 -21.168  0.00  0.00    -0.415 NA
ATOM      2  C   UNL     1      34.678 -17.606 -22.988  0.00  0.00    +0.012 C 
ATOM      3  C   UNL     1      33.934 -15.359 -23.306  0.00  0.00    +0.083 C 
ATOM      4  C   UNL     1      35.259 -18.949 -23.277  0.00  0.00    +0.030 C 
ATOM      5  C   UNL     1      34.171 -17.538 -21.699  0.00  0.00    +0.105 C 
ATOM      6  C   UNL     1      33.441 -15.389 -21.987  0.00  0.00    +0.091 C 
ATOM      7  C   UNL     1      33.751 -14.160 -24.198  0.00  0.00    +0.012 C 
ATOM      8  C   UNL     1      35.442 -19.500 -21.853  0.00  0.00    +0.012 C 
ATOM      9  C   UNL     1      34.359 -18.845 -20.984  0.00  0.00    +0.059 C 
ATOM     10  C   UNL     1      33.397 -12.886 -23.434  0.00  0.00    +0.001 C 
ATOM     11  C   UNL     1      32.793 -14.174 -21.375  0.00  0.00    +0.055 C 
ATOM     12  C   UNL     1      34.552 -16.509 -23.815  0.00  0.00    +0.023 C 
ATOM     13  C   UNL     1      32.303 -13.164 -22.409  0.00  0.00    +0.007 C 
ENDROOT
BRANCH  12  14
ATOM     14  N   UNL     1      35.049 -16.560 -25.132  0.00  0.00    -0.360 N 
ATOM     15  H   UNL     1      35.436 -15.753 -25.543  0.00  0.00    +0.142 HD
ATOM     16  H   UNL     1      35.009 -17.401 -25.642  0.00  0.00    +0.142 HD
ENDBRANCH  12  14
TORSDOF 1
ENDMDL
MODEL 5
REMARK VINA RESULT:      -7.6      1.986      4.521
REMARK  Name = 604519
REMARK  1 active torsions:
REMARK  status: ('A' for Active; 'I' for Inactive)
REMARK    1  A    between atoms: C_12  and  N_14
REMARK                            x       y       z     vdW  Elec       q    Type
REMARK                         _______ _______ _______ _____ _____    ______ ____
ROOT
ATOM      1  N   UNL     1      33.545 -15.477 -24.296  0.00  0.00    -0.415 NA
ATOM      2  C   UNL     1      34.736 -17.054 -22.896  0.00  0.00    +0.012 C 
ATOM      3  C   UNL     1      33.677 -15.169 -21.880  0.00  0.00    +0.083 C 
ATOM      4  C   UNL     1      35.549 -18.294 -23.053  0.00  0.00    +0.030 C 
ATOM      5  C   UNL     1      34.272 -16.592 -24.118  0.00  0.00    +0.105 C 
ATOM      6  C   UNL     1      33.261 -14.775 -23.166  0.00  0.00    +0.091 C 
ATOM      7  C   UNL     1      33.380 -14.342 -20.657  0.00  0.00    +0.012 C 
ATOM      8  C   UNL     1      35.116 -18.751 -24.456  0.00  0.00    +0.012 C 
ATOM      9  C   UNL     1      34.734 -17.484 -25.234  0.00  0.00    +0.059 C 
ATOM     10  C   UNL     1      32.261 -13.325 -20.872  0.00  0.00    +0.001 C 
ATOM     11  C   UNL     1      32.405 -13.549 -23.361  0.00  0.00    +0.055 C 
ATOM     12  C   UNL     1      34.449 -16.332 -21.756  0.00  0.00    +0.023 C 
ATOM     13  C   UNL     1      32.463 -12.577 -22.185  0.00  0.00    +0.007 C 
ENDROOT
BRANCH  12  14
ATOM     14  N   UNL     1      34.921 -16.776 -20.504  0.00  0.00    -0.360 N 
ATOM     15  H   UNL     1      34.892 -17.733 -20.279  0.00  0.00    +0.142 HD
ATOM     16  H   UNL     1      35.278 -16.128 -19.855  0.00  0.00    +0.142 HD
ENDBRANCH  12  14
TORSDOF 1
ENDMDL
MODEL 6
REMARK VINA RESULT:      -7.6      0.898      4.467
REMARK  Name = 604519
REMARK  1 active torsions:
REMARK  status: ('A' for Active; 'I' for Inactive)
REMARK    1  A    between atoms: C_12  and  N_14
REMARK                            x       y       z     vdW  Elec       q    Type
REMARK                         _______ _______ _______ _____ _____    ______ ____
ROOT
ATOM      1  N   UNL     1      34.026 -17.056 -25.356  0.00  0.00    -0.415 NA
ATOM      2  C   UNL     1      34.779 -17.135 -23.057  0.00  0.00    +0.012 C 
ATOM      3  C   UNL     1      34.038 -15.054 -23.964  0.00  0.00    +0.083 C 
ATOM      4  C   UNL     1      35.343 -18.130 -22.100  0.00  0.00    +0.030 C 
ATOM      5  C   UNL     1      34.506 -17.711 -24.288  0.00  0.00    +0.105 C 
ATOM      6  C   UNL     1      33.802 -15.726 -25.179  0.00  0.00    +0.091 C 
ATOM      7  C   UNL     1      33.819 -13.571 -23.818  0.00  0.00    +0.012 C 
ATOM      8  C   UNL     1      34.934 -19.449 -22.776  0.00  0.00    +0.012 C 
ATOM      9  C   UNL     1      34.866 -19.169 -24.284  0.00  0.00    +0.059 C 
ATOM     10  C   UNL     1      32.939 -12.978 -24.916  0.00  0.00    +0.001 C 
ATOM     11  C   UNL     1      33.219 -15.000 -26.364  0.00  0.00    +0.055 C 
ATOM     12  C   UNL     1      34.556 -15.785 -22.887  0.00  0.00    +0.023 C 
ATOM     13  C   UNL     1      33.380 -13.484 -26.285  0.00  0.00    +0.007 C 
ENDROOT
BRANCH  12  14
ATOM     14  N   UNL     1      34.839 -15.175 -21.648  0.00  0.00    -0.360 N 
ATOM     15  H   UNL     1      35.734 -15.261 -21.250  0.00  0.00    +0.142 HD
ATOM     16  H   UNL     1      34.139 -14.662 -21.181  0.00  0.00    +0.142 HD
ENDBRANCH  12  14
TORSDOF 1
ENDMDL
MODEL 7
REMARK VINA RESULT:      -7.5      1.901      3.388
REMARK  Name = 604519
REMARK  1 active torsions:
REMARK  status: ('A' for Active; 'I' for Inactive)
REMARK    1  A    between atoms: C_12  and  N_14
REMARK                            x       y       z     vdW  Elec       q    Type
REMARK                         _______ _______ _______ _____ _____    ______ ____
ROOT
ATOM      1  N   UNL     1      33.972 -15.647 -20.880  0.00  0.00    -0.415 NA
ATOM      2  C   UNL     1      33.162 -14.341 -22.751  0.00  0.00    +0.012 C 
ATOM      3  C   UNL     1      34.350 -16.368 -23.179  0.00  0.00    +0.083 C 
ATOM      4  C   UNL     1      32.444 -13.056 -22.988  0.00  0.00    +0.030 C 
ATOM      5  C   UNL     1      33.331 -14.587 -21.397  0.00  0.00    +0.105 C 
ATOM      6  C   UNL     1      34.480 -16.526 -21.786  0.00  0.00    +0.091 C 
ATOM      7  C   UNL     1      34.964 -17.340 -24.152  0.00  0.00    +0.012 C 
ATOM      8  C   UNL     1      31.812 -12.816 -21.607  0.00  0.00    +0.012 C 
ATOM      9  C   UNL     1      32.739 -13.477 -20.577  0.00  0.00    +0.059 C 
ATOM     10  C   UNL     1      35.334 -18.679 -23.517  0.00  0.00    +0.001 C 
ATOM     11  C   UNL     1      35.159 -17.740 -21.204  0.00  0.00    +0.055 C 
ATOM     12  C   UNL     1      33.686 -15.233 -23.663  0.00  0.00    +0.023 C 
ATOM     13  C   UNL     1      36.066 -18.460 -22.198  0.00  0.00    +0.007 C 
ENDROOT
BRANCH  12  14
ATOM     14  N   UNL     1      33.537 -14.997 -25.045  0.00  0.00    -0.360 N 
ATOM     15  H   UNL     1      33.487 -15.756 -25.670  0.00  0.00    +0.142 HD
ATOM     16  H   UNL     1      33.484 -14.075 -25.384  0.00  0.00    +0.142 HD
ENDBRANCH  12  14
TORSDOF 1
ENDMDL
MODEL 8
REMARK VINA RESULT:      -7.4      3.911      6.035
REMARK  Name = 604519
REMARK  1 active torsions:
REMARK  status: ('A' for Active; 'I' for Inactive)
REMARK    1  A    between atoms: C_12  and  N_14
REMARK                            x       y       z     vdW  Elec       q    Type
REMARK                         _______ _______ _______ _____ _____    ______ ____
ROOT
ATOM      1  N   UNL     1      32.228  -9.801 -22.254  0.00  0.00    -0.415 NA
ATOM      2  C   UNL     1      33.944  -9.022 -23.774  0.00  0.00    +0.012 C 
ATOM      3  C   UNL     1      33.500 -11.364 -23.627  0.00  0.00    +0.083 C 
ATOM      4  C   UNL     1      34.583  -7.734 -24.171  0.00  0.00    +0.030 C 
ATOM      5  C   UNL     1      32.951  -8.825 -22.826  0.00  0.00    +0.105 C 
ATOM      6  C   UNL     1      32.519 -11.066 -22.663  0.00  0.00    +0.091 C 
ATOM      7  C   UNL     1      33.825 -12.780 -24.024  0.00  0.00    +0.012 C 
ATOM      8  C   UNL     1      33.532  -6.724 -23.683  0.00  0.00    +0.012 C 
ATOM      9  C   UNL     1      32.824  -7.369 -22.483  0.00  0.00    +0.059 C 
ATOM     10  C   UNL     1      32.738 -13.781 -23.634  0.00  0.00    +0.001 C 
ATOM     11  C   UNL     1      31.674 -12.156 -22.056  0.00  0.00    +0.055 C 
ATOM     12  C   UNL     1      34.238 -10.307 -24.178  0.00  0.00    +0.023 C 
ATOM     13  C   UNL     1      32.287 -13.547 -22.197  0.00  0.00    +0.007 C 
ENDROOT
BRANCH  12  14
ATOM     14  N   UNL     1      35.251 -10.532 -25.132  0.00  0.00    -0.360 N 
ATOM     15  H   UNL     1      36.194 -10.555 -24.851  0.00  0.00    +0.142 HD
ATOM     16  H   UNL     1      35.016 -10.665 -26.078  0.00  0.00    +0.142 HD
ENDBRANCH  12  14
TORSDOF 1
ENDMDL
MODEL 9
REMARK VINA RESULT:      -7.4      7.398      9.810
REMARK  Name = 604519
REMARK  1 active torsions:
REMARK  status: ('A' for Active; 'I' for Inactive)
REMARK    1  A    between atoms: C_12  and  N_14
REMARK                            x       y       z     vdW  Elec       q    Type
REMARK                         _______ _______ _______ _____ _____    ______ ____
ROOT
ATOM      1  N   UNL     1      36.565 -21.724 -18.109  0.00  0.00    -0.415 NA
ATOM      2  C   UNL     1      34.297 -21.764 -18.955  0.00  0.00    +0.012 C 
ATOM      3  C   UNL     1      34.790 -22.883 -16.904  0.00  0.00    +0.083 C 
ATOM      4  C   UNL     1      33.540 -21.277 -20.145  0.00  0.00    +0.030 C 
ATOM      5  C   UNL     1      35.633 -21.397 -19.018  0.00  0.00    +0.105 C 
ATOM      6  C   UNL     1      36.128 -22.471 -17.060  0.00  0.00    +0.091 C 
ATOM      7  C   UNL     1      34.351 -23.747 -15.751  0.00  0.00    +0.012 C 
ATOM      8  C   UNL     1      34.494 -20.193 -20.674  0.00  0.00    +0.012 C 
ATOM      9  C   UNL     1      35.913 -20.620 -20.272  0.00  0.00    +0.059 C 
ATOM     10  C   UNL     1      35.345 -23.760 -14.592  0.00  0.00    +0.001 C 
ATOM     11  C   UNL     1      37.164 -22.798 -16.016  0.00  0.00    +0.055 C 
ATOM     12  C   UNL     1      33.863 -22.528 -17.893  0.00  0.00    +0.023 C 
ATOM     13  C   UNL     1      36.765 -23.958 -15.109  0.00  0.00    +0.007 C 
ENDROOT
BRANCH  12  14
ATOM     14  N   UNL     1      32.512 -22.923 -17.815  0.00  0.00    -0.360 N 
ATOM     15  H   UNL     1      32.274 -23.875 -17.877  0.00  0.00    +0.142 HD
ATOM     16  H   UNL     1      31.807 -22.245 -17.699  0.00  0.00    +0.142 HD
ENDBRANCH  12  14
TORSDOF 1
ENDMDL
