MODEL 1
REMARK VINA RESULT:      -6.4      0.000      0.000
REMARK  Name = 666418
REMARK  4 active torsions:
REMARK  status: ('A' for Active; 'I' for Inactive)
REMARK    1  A    between atoms: C_2  and  C_12
REMARK    2  A    between atoms: C_4  and  C_8
REMARK    3  A    between atoms: C_8  and  N_9
REMARK    4  A    between atoms: C_12  and  C_13
REMARK                            x       y       z     vdW  Elec       q    Type
REMARK                         _______ _______ _______ _____ _____    ______ ____
ROOT
ATOM      1  N   UNL     1      34.853 -16.882 -23.861  0.00  0.00    -0.248 NA
ATOM      2  C   UNL     1      34.700 -16.537 -22.564  0.00  0.00    +0.059 C 
ATOM      3  C   UNL     1      34.630 -17.448 -21.521  0.00  0.00    +0.016 C 
ATOM      4  C   UNL     1      34.725 -18.800 -21.831  0.00  0.00    +0.022 C 
ATOM      5  C   UNL     1      34.883 -19.194 -23.155  0.00  0.00    +0.022 C 
ATOM      6  C   UNL     1      34.941 -18.205 -24.124  0.00  0.00    +0.099 C 
ENDROOT
BRANCH   4   8
ATOM      7  S   UNL     1      33.242 -20.562 -20.250  0.00  0.00    -0.035 S 
ATOM      8  C   UNL     1      34.658 -19.797 -20.776  0.00  0.00    +0.078 C 
BRANCH   8   9
ATOM      9  N   UNL     1      35.862 -20.136 -20.173  0.00  0.00    -0.352 N 
ATOM     10  H   UNL     1      35.866 -20.564 -19.287  0.00  0.00    +0.143 HD
ATOM     11  H   UNL     1      36.712 -19.948 -20.632  0.00  0.00    +0.143 HD
ENDBRANCH   8   9
ENDBRANCH   4   8
BRANCH   2  12
ATOM     12  C   UNL     1      34.605 -15.077 -22.269  0.00  0.00    +0.046 C 
BRANCH  12  13
ATOM     13  C   UNL     1      34.251 -14.802 -20.801  0.00  0.00    +0.006 C 
ATOM     14  C   UNL     1      32.808 -14.350 -20.640  0.00  0.00    +0.000 C 
ENDBRANCH  12  13
ENDBRANCH   2  12
TORSDOF 4
ENDMDL
MODEL 2
REMARK VINA RESULT:      -6.4      2.761      5.393
REMARK  Name = 666418
REMARK  4 active torsions:
REMARK  status: ('A' for Active; 'I' for Inactive)
REMARK    1  A    between atoms: C_2  and  C_12
REMARK    2  A    between atoms: C_4  and  C_8
REMARK    3  A    between atoms: C_8  and  N_9
REMARK    4  A    between atoms: C_12  and  C_13
REMARK                            x       y       z     vdW  Elec       q    Type
REMARK                         _______ _______ _______ _____ _____    ______ ____
ROOT
ATOM      1  N   UNL     1      34.216 -21.206 -19.661  0.00  0.00    -0.248 NA
ATOM      2  C   UNL     1      35.492 -20.818 -19.879  0.00  0.00    +0.059 C 
ATOM      3  C   UNL     1      35.853 -19.761 -20.700  0.00  0.00    +0.016 C 
ATOM      4  C   UNL     1      34.837 -19.055 -21.337  0.00  0.00    +0.022 C 
ATOM      5  C   UNL     1      33.512 -19.424 -21.138  0.00  0.00    +0.022 C 
ATOM      6  C   UNL     1      33.257 -20.497 -20.298  0.00  0.00    +0.099 C 
ENDROOT
BRANCH   4   8
ATOM      7  S   UNL     1      34.651 -16.341 -21.970  0.00  0.00    -0.035 S 
ATOM      8  C   UNL     1      35.161 -17.938 -22.208  0.00  0.00    +0.078 C 
BRANCH   8   9
ATOM      9  N   UNL     1      35.956 -18.228 -23.310  0.00  0.00    -0.352 N 
ATOM     10  H   UNL     1      36.734 -18.822 -23.213  0.00  0.00    +0.143 HD
ATOM     11  H   UNL     1      35.740 -17.837 -24.188  0.00  0.00    +0.143 HD
ENDBRANCH   8   9
ENDBRANCH   4   8
BRANCH   2  12
ATOM     12  C   UNL     1      36.554 -21.596 -19.176  0.00  0.00    +0.046 C 
BRANCH  12  13
ATOM     13  C   UNL     1      36.147 -21.972 -17.745  0.00  0.00    +0.006 C 
ATOM     14  C   UNL     1      37.220 -21.605 -16.733  0.00  0.00    +0.000 C 
ENDBRANCH  12  13
ENDBRANCH   2  12
TORSDOF 4
ENDMDL
MODEL 3
REMARK VINA RESULT:      -6.4      2.849      4.892
REMARK  Name = 666418
REMARK  4 active torsions:
REMARK  status: ('A' for Active; 'I' for Inactive)
REMARK    1  A    between atoms: C_2  and  C_12
REMARK    2  A    between atoms: C_4  and  C_8
REMARK    3  A    between atoms: C_8  and  N_9
REMARK    4  A    between atoms: C_12  and  C_13
REMARK                            x       y       z     vdW  Elec       q    Type
REMARK                         _______ _______ _______ _____ _____    ______ ____
ROOT
ATOM      1  N   UNL     1      35.015 -16.360 -20.350  0.00  0.00    -0.248 NA
ATOM      2  C   UNL     1      35.052 -17.240 -21.375  0.00  0.00    +0.059 C 
ATOM      3  C   UNL     1      34.678 -16.934 -22.674  0.00  0.00    +0.016 C 
ATOM      4  C   UNL     1      34.239 -15.641 -22.938  0.00  0.00    +0.022 C 
ATOM      5  C   UNL     1      34.187 -14.708 -21.909  0.00  0.00    +0.022 C 
ATOM      6  C   UNL     1      34.583 -15.113 -20.645  0.00  0.00    +0.099 C 
ENDROOT
BRANCH   4   8
ATOM      7  S   UNL     1      33.217 -13.756 -24.728  0.00  0.00    -0.035 S 
ATOM      8  C   UNL     1      33.835 -15.268 -24.283  0.00  0.00    +0.078 C 
BRANCH   8   9
ATOM      9  N   UNL     1      33.983 -16.242 -25.262  0.00  0.00    -0.352 N 
ATOM     10  H   UNL     1      33.192 -16.705 -25.620  0.00  0.00    +0.143 HD
ATOM     11  H   UNL     1      34.881 -16.470 -25.597  0.00  0.00    +0.143 HD
ENDBRANCH   8   9
ENDBRANCH   4   8
BRANCH   2  12
ATOM     12  C   UNL     1      35.531 -18.617 -21.054  0.00  0.00    +0.046 C 
BRANCH  12  13
ATOM     13  C   UNL     1      34.582 -19.700 -21.583  0.00  0.00    +0.006 C 
ATOM     14  C   UNL     1      33.405 -19.931 -20.648  0.00  0.00    +0.000 C 
ENDBRANCH  12  13
ENDBRANCH   2  12
TORSDOF 4
ENDMDL
MODEL 4
REMARK VINA RESULT:      -6.3      2.645      4.450
REMARK  Name = 666418
REMARK  4 active torsions:
REMARK  status: ('A' for Active; 'I' for Inactive)
REMARK    1  A    between atoms: C_2  and  C_12
REMARK    2  A    between atoms: C_4  and  C_8
REMARK    3  A    between atoms: C_8  and  N_9
REMARK    4  A    between atoms: C_12  and  C_13
REMARK                            x       y       z     vdW  Elec       q    Type
REMARK                         _______ _______ _______ _____ _____    ______ ____
ROOT
ATOM      1  N   UNL     1      34.955 -19.081 -23.281  0.00  0.00    -0.248 NA
ATOM      2  C   UNL     1      34.746 -18.741 -21.990  0.00  0.00    +0.059 C 
ATOM      3  C   UNL     1      34.548 -17.441 -21.552  0.00  0.00    +0.016 C 
ATOM      4  C   UNL     1      34.566 -16.424 -22.501  0.00  0.00    +0.022 C 
ATOM      5  C   UNL     1      34.778 -16.735 -23.839  0.00  0.00    +0.022 C 
ATOM      6  C   UNL     1      34.966 -18.066 -24.174  0.00  0.00    +0.099 C 
ENDROOT
BRANCH   4   8
ATOM      7  S   UNL     1      33.928 -13.779 -23.134  0.00  0.00    -0.035 S 
ATOM      8  C   UNL     1      34.364 -15.044 -22.095  0.00  0.00    +0.078 C 
BRANCH   8   9
ATOM      9  N   UNL     1      34.542 -14.767 -20.745  0.00  0.00    -0.352 N 
ATOM     10  H   UNL     1      35.447 -14.619 -20.389  0.00  0.00    +0.143 HD
ATOM     11  H   UNL     1      33.762 -14.720 -20.147  0.00  0.00    +0.143 HD
ENDBRANCH   8   9
ENDBRANCH   4   8
BRANCH   2  12
ATOM     12  C   UNL     1      34.730 -19.858 -21.000  0.00  0.00    +0.046 C 
BRANCH  12  13
ATOM     13  C   UNL     1      33.312 -20.181 -20.512  0.00  0.00    +0.006 C 
ATOM     14  C   UNL     1      33.302 -21.321 -19.505  0.00  0.00    +0.000 C 
ENDBRANCH  12  13
ENDBRANCH   2  12
TORSDOF 4
ENDMDL
MODEL 5
REMARK VINA RESULT:      -6.3      2.894      5.206
REMARK  Name = 666418
REMARK  4 active torsions:
REMARK  status: ('A' for Active; 'I' for Inactive)
REMARK    1  A    between atoms: C_2  and  C_12
REMARK    2  A    between atoms: C_4  and  C_8
REMARK    3  A    between atoms: C_8  and  N_9
REMARK    4  A    between atoms: C_12  and  C_13
REMARK                            x       y       z     vdW  Elec       q    Type
REMARK                         _______ _______ _______ _____ _____    ______ ____
ROOT
ATOM      1  N   UNL     1      35.061 -16.462 -20.704  0.00  0.00    -0.248 NA
ATOM      2  C   UNL     1      35.180 -16.874 -21.985  0.00  0.00    +0.059 C 
ATOM      3  C   UNL     1      34.804 -16.115 -23.082  0.00  0.00    +0.016 C 
ATOM      4  C   UNL     1      34.272 -14.852 -22.849  0.00  0.00    +0.022 C 
ATOM      5  C   UNL     1      34.134 -14.393 -21.544  0.00  0.00    +0.022 C 
ATOM      6  C   UNL     1      34.540 -15.228 -20.516  0.00  0.00    +0.099 C 
ENDROOT
BRANCH   4   8
ATOM      7  S   UNL     1      33.142 -14.580 -25.389  0.00  0.00    -0.035 S 
ATOM      8  C   UNL     1      33.861 -14.015 -23.964  0.00  0.00    +0.078 C 
BRANCH   8   9
ATOM      9  N   UNL     1      34.080 -12.651 -23.823  0.00  0.00    -0.352 N 
ATOM     10  H   UNL     1      34.853 -12.228 -24.261  0.00  0.00    +0.143 HD
ATOM     11  H   UNL     1      33.462 -12.107 -23.283  0.00  0.00    +0.143 HD
ENDBRANCH   8   9
ENDBRANCH   4   8
BRANCH   2  12
ATOM     12  C   UNL     1      35.759 -18.233 -22.197  0.00  0.00    +0.046 C 
BRANCH  12  13
ATOM     13  C   UNL     1      34.674 -19.308 -22.349  0.00  0.00    +0.006 C 
ATOM     14  C   UNL     1      34.181 -19.814 -21.003  0.00  0.00    +0.000 C 
ENDBRANCH  12  13
ENDBRANCH   2  12
TORSDOF 4
ENDMDL
MODEL 6
REMARK VINA RESULT:      -6.2      2.569      5.197
REMARK  Name = 666418
REMARK  4 active torsions:
REMARK  status: ('A' for Active; 'I' for Inactive)
REMARK    1  A    between atoms: C_2  and  C_12
REMARK    2  A    between atoms: C_4  and  C_8
REMARK    3  A    between atoms: C_8  and  N_9
REMARK    4  A    between atoms: C_12  and  C_13
REMARK                            x       y       z     vdW  Elec       q    Type
REMARK                         _______ _______ _______ _____ _____    ______ ____
ROOT
ATOM      1  N   UNL     1      35.776 -20.545 -19.863  0.00  0.00    -0.248 NA
ATOM      2  C   UNL     1      34.536 -20.368 -20.372  0.00  0.00    +0.059 C 
ATOM      3  C   UNL     1      34.229 -19.457 -21.370  0.00  0.00    +0.016 C 
ATOM      4  C   UNL     1      35.262 -18.677 -21.879  0.00  0.00    +0.022 C 
ATOM      5  C   UNL     1      36.551 -18.829 -21.381  0.00  0.00    +0.022 C 
ATOM      6  C   UNL     1      36.753 -19.769 -20.382  0.00  0.00    +0.099 C 
ENDROOT
BRANCH   4   8
ATOM      7  S   UNL     1      34.650 -18.086 -24.540  0.00  0.00    -0.035 S 
ATOM      8  C   UNL     1      34.995 -17.705 -22.926  0.00  0.00    +0.078 C 
BRANCH   8   9
ATOM      9  N   UNL     1      35.023 -16.369 -22.548  0.00  0.00    -0.352 N 
ATOM     10  H   UNL     1      34.370 -16.029 -21.896  0.00  0.00    +0.143 HD
ATOM     11  H   UNL     1      35.697 -15.763 -22.932  0.00  0.00    +0.143 HD
ENDBRANCH   8   9
ENDBRANCH   4   8
BRANCH   2  12
ATOM     12  C   UNL     1      33.454 -21.225 -19.804  0.00  0.00    +0.046 C 
BRANCH  12  13
ATOM     13  C   UNL     1      34.003 -22.516 -19.180  0.00  0.00    +0.006 C 
ATOM     14  C   UNL     1      33.280 -22.878 -17.893  0.00  0.00    +0.000 C 
ENDBRANCH  12  13
ENDBRANCH   2  12
TORSDOF 4
ENDMDL
MODEL 7
REMARK VINA RESULT:      -6.2      5.336      7.663
REMARK  Name = 666418
REMARK  4 active torsions:
REMARK  status: ('A' for Active; 'I' for Inactive)
REMARK    1  A    between atoms: C_2  and  C_12
REMARK    2  A    between atoms: C_4  and  C_8
REMARK    3  A    between atoms: C_8  and  N_9
REMARK    4  A    between atoms: C_12  and  C_13
REMARK                            x       y       z     vdW  Elec       q    Type
REMARK                         _______ _______ _______ _____ _____    ______ ____
ROOT
ATOM      1  N   UNL     1      34.948 -22.966 -17.191  0.00  0.00    -0.248 NA
ATOM      2  C   UNL     1      33.926 -22.638 -18.012  0.00  0.00    +0.059 C 
ATOM      3  C   UNL     1      32.588 -22.753 -17.669  0.00  0.00    +0.016 C 
ATOM      4  C   UNL     1      32.280 -23.233 -16.401  0.00  0.00    +0.022 C 
ATOM      5  C   UNL     1      33.304 -23.580 -15.528  0.00  0.00    +0.022 C 
ATOM      6  C   UNL     1      34.610 -23.429 -15.967  0.00  0.00    +0.099 C 
ENDROOT
BRANCH   4   8
ATOM      7  S   UNL     1      30.362 -24.240 -14.636  0.00  0.00    -0.035 S 
ATOM      8  C   UNL     1      30.893 -23.373 -15.990  0.00  0.00    +0.078 C 
BRANCH   8   9
ATOM      9  N   UNL     1      29.949 -22.731 -16.783  0.00  0.00    -0.352 N 
ATOM     10  H   UNL     1      29.046 -22.562 -16.433  0.00  0.00    +0.143 HD
ATOM     11  H   UNL     1      30.186 -22.446 -17.695  0.00  0.00    +0.143 HD
ENDBRANCH   8   9
ENDBRANCH   4   8
BRANCH   2  12
ATOM     12  C   UNL     1      34.295 -22.123 -19.363  0.00  0.00    +0.046 C 
BRANCH  12  13
ATOM     13  C   UNL     1      33.337 -21.027 -19.848  0.00  0.00    +0.006 C 
ATOM     14  C   UNL     1      34.044 -19.994 -20.711  0.00  0.00    +0.000 C 
ENDBRANCH  12  13
ENDBRANCH   2  12
TORSDOF 4
ENDMDL
MODEL 8
REMARK VINA RESULT:      -6.2      3.918      6.589
REMARK  Name = 666418
REMARK  4 active torsions:
REMARK  status: ('A' for Active; 'I' for Inactive)
REMARK    1  A    between atoms: C_2  and  C_12
REMARK    2  A    between atoms: C_4  and  C_8
REMARK    3  A    between atoms: C_8  and  N_9
REMARK    4  A    between atoms: C_12  and  C_13
REMARK                            x       y       z     vdW  Elec       q    Type
REMARK                         _______ _______ _______ _____ _____    ______ ____
ROOT
ATOM      1  N   UNL     1      35.700 -22.444 -17.939  0.00  0.00    -0.248 NA
ATOM      2  C   UNL     1      34.362 -22.481 -18.124  0.00  0.00    +0.059 C 
ATOM      3  C   UNL     1      33.691 -21.744 -19.088  0.00  0.00    +0.016 C 
ATOM      4  C   UNL     1      34.443 -20.917 -19.915  0.00  0.00    +0.022 C 
ATOM      5  C   UNL     1      35.822 -20.851 -19.755  0.00  0.00    +0.022 C 
ATOM      6  C   UNL     1      36.397 -21.627 -18.761  0.00  0.00    +0.099 C 
ENDROOT
BRANCH   4   8
ATOM      7  S   UNL     1      34.587 -19.280 -22.174  0.00  0.00    -0.035 S 
ATOM      8  C   UNL     1      33.789 -20.123 -20.941  0.00  0.00    +0.078 C 
BRANCH   8   9
ATOM      9  N   UNL     1      32.402 -20.072 -20.889  0.00  0.00    -0.352 N 
ATOM     10  H   UNL     1      31.946 -19.968 -20.024  0.00  0.00    +0.143 HD
ATOM     11  H   UNL     1      31.876 -20.142 -21.718  0.00  0.00    +0.143 HD
ENDBRANCH   8   9
ENDBRANCH   4   8
BRANCH   2  12
ATOM     12  C   UNL     1      33.589 -23.383 -17.221  0.00  0.00    +0.046 C 
BRANCH  12  13
ATOM     13  C   UNL     1      32.129 -22.938 -17.067  0.00  0.00    +0.006 C 
ATOM     14  C   UNL     1      31.538 -23.375 -15.736  0.00  0.00    +0.000 C 
ENDBRANCH  12  13
ENDBRANCH   2  12
TORSDOF 4
ENDMDL
MODEL 9
REMARK VINA RESULT:      -6.1      2.560      4.453
REMARK  Name = 666418
REMARK  4 active torsions:
REMARK  status: ('A' for Active; 'I' for Inactive)
REMARK    1  A    between atoms: C_2  and  C_12
REMARK    2  A    between atoms: C_4  and  C_8
REMARK    3  A    between atoms: C_8  and  N_9
REMARK    4  A    between atoms: C_12  and  C_13
REMARK                            x       y       z     vdW  Elec       q    Type
REMARK                         _______ _______ _______ _____ _____    ______ ____
ROOT
ATOM      1  N   UNL     1      35.311 -18.317 -23.400  0.00  0.00    -0.248 NA
ATOM      2  C   UNL     1      35.168 -17.801 -22.159  0.00  0.00    +0.059 C 
ATOM      3  C   UNL     1      34.667 -16.535 -21.898  0.00  0.00    +0.016 C 
ATOM      4  C   UNL     1      34.288 -15.749 -22.981  0.00  0.00    +0.022 C 
ATOM      5  C   UNL     1      34.420 -16.245 -24.272  0.00  0.00    +0.022 C 
ATOM      6  C   UNL     1      34.932 -17.523 -24.427  0.00  0.00    +0.099 C 
ENDROOT
BRANCH   4   8
ATOM      7  S   UNL     1      32.658 -13.992 -21.545  0.00  0.00    -0.035 S 
ATOM      8  C   UNL     1      33.757 -14.414 -22.762  0.00  0.00    +0.078 C 
BRANCH   8   9
ATOM      9  N   UNL     1      34.206 -13.425 -23.628  0.00  0.00    -0.352 N 
ATOM     10  H   UNL     1      34.975 -12.864 -23.378  0.00  0.00    +0.143 HD
ATOM     11  H   UNL     1      33.754 -13.284 -24.491  0.00  0.00    +0.143 HD
ENDBRANCH   8   9
ENDBRANCH   4   8
BRANCH   2  12
ATOM     12  C   UNL     1      35.582 -18.675 -21.022  0.00  0.00    +0.046 C 
BRANCH  12  13
ATOM     13  C   UNL     1      34.796 -19.993 -20.988  0.00  0.00    +0.006 C 
ATOM     14  C   UNL     1      33.315 -19.766 -20.734  0.00  0.00    +0.000 C 
ENDBRANCH  12  13
ENDBRANCH   2  12
TORSDOF 4
ENDMDL
