MODEL 1
REMARK VINA RESULT:      -8.9      0.000      0.000
REMARK  Name = 242332
REMARK  2 active torsions:
REMARK  status: ('A' for Active; 'I' for Inactive)
REMARK    1  A    between atoms: C_11  and  O_20
REMARK    2  A    between atoms: C_19  and  O_22
REMARK                            x       y       z     vdW  Elec       q    Type
REMARK                         _______ _______ _______ _____ _____    ______ ____
ROOT
ATOM      1  C   UNL     1      34.556 -24.503 -14.631  0.00  0.00    +0.000 C 
ATOM      2  C   UNL     1      34.027 -23.291 -15.466  0.00  0.00    +0.000 C 
ATOM      3  C   UNL     1      32.605 -23.611 -15.939  0.00  0.00    +0.002 C 
ATOM      4  C   UNL     1      36.038 -24.281 -14.149  0.00  0.00    +0.000 C 
ATOM      5  C   UNL     1      31.630 -23.859 -14.771  0.00  0.00    +0.025 C 
ATOM      6  C   UNL     1      36.906 -24.004 -15.420  0.00  0.00    +0.002 C 
ATOM      7  C   UNL     1      33.568 -24.910 -13.505  0.00  0.00    +0.000 C 
ATOM      8  C   UNL     1      32.120 -25.090 -13.995  0.00  0.00    +0.002 C 
ATOM      9  C   UNL     1      34.955 -22.980 -16.649  0.00  0.00    +0.000 C 
ATOM     10  C   UNL     1      31.865 -22.600 -16.813  0.00  0.00    +0.003 C 
ATOM     11  C   UNL     1      30.333 -24.079 -15.576  0.00  0.00    +0.110 C 
ATOM     12  C   UNL     1      36.407 -22.793 -16.216  0.00  0.00    +0.000 C 
ATOM     13  C   UNL     1      36.592 -25.567 -13.471  0.00  0.00    +0.002 C 
ATOM     14  C   UNL     1      30.384 -23.003 -16.677  0.00  0.00    +0.029 C 
ATOM     15  C   UNL     1      38.403 -23.892 -15.107  0.00  0.00    +0.029 C 
ATOM     16  C   UNL     1      36.116 -23.118 -13.127  0.00  0.00    +0.000 C 
ATOM     17  C   UNL     1      31.475 -22.664 -13.797  0.00  0.00    +0.002 C 
ATOM     18  C   UNL     1      38.092 -25.504 -13.176  0.00  0.00    +0.029 C 
ATOM     19  C   UNL     1      38.915 -25.153 -14.413  0.00  0.00    +0.111 C 
ENDROOT
BRANCH  11  20
ATOM     20  O   UNL     1      29.151 -24.000 -14.802  0.00  0.00    -0.384 OA
ATOM     21  H   UNL     1      29.368 -23.677 -13.913  0.00  0.00    +0.210 HD
ENDBRANCH  11  20
BRANCH  19  22
ATOM     22  O   UNL     1      40.270 -24.968 -14.019  0.00  0.00    -0.384 OA
ATOM     23  H   UNL     1      40.633 -24.189 -14.470  0.00  0.00    +0.210 HD
ENDBRANCH  19  22
TORSDOF 2
ENDMDL
MODEL 2
REMARK VINA RESULT:      -8.5      3.510      6.119
REMARK  Name = 242332
REMARK  2 active torsions:
REMARK  status: ('A' for Active; 'I' for Inactive)
REMARK    1  A    between atoms: C_11  and  O_20
REMARK    2  A    between atoms: C_19  and  O_22
REMARK                            x       y       z     vdW  Elec       q    Type
REMARK                         _______ _______ _______ _____ _____    ______ ____
ROOT
ATOM      1  C   UNL     1      34.429 -22.229 -17.212  0.00  0.00    +0.000 C 
ATOM      2  C   UNL     1      35.836 -22.764 -16.784  0.00  0.00    +0.000 C 
ATOM      3  C   UNL     1      35.846 -22.939 -15.262  0.00  0.00    +0.002 C 
ATOM      4  C   UNL     1      34.349 -21.969 -18.762  0.00  0.00    +0.000 C 
ATOM      5  C   UNL     1      34.776 -23.933 -14.769  0.00  0.00    +0.025 C 
ATOM      6  C   UNL     1      35.505 -20.982 -19.131  0.00  0.00    +0.002 C 
ATOM      7  C   UNL     1      33.277 -23.101 -16.646  0.00  0.00    +0.000 C 
ATOM      8  C   UNL     1      33.396 -23.369 -15.135  0.00  0.00    +0.002 C 
ATOM      9  C   UNL     1      36.957 -21.824 -17.248  0.00  0.00    +0.000 C 
ATOM     10  C   UNL     1      37.122 -23.419 -14.574  0.00  0.00    +0.003 C 
ATOM     11  C   UNL     1      35.099 -23.915 -13.261  0.00  0.00    +0.110 C 
ATOM     12  C   UNL     1      36.884 -21.526 -18.744  0.00  0.00    +0.000 C 
ATOM     13  C   UNL     1      33.005 -21.280 -19.133  0.00  0.00    +0.002 C 
ATOM     14  C   UNL     1      36.639 -23.931 -13.204  0.00  0.00    +0.029 C 
ATOM     15  C   UNL     1      35.467 -20.541 -20.599  0.00  0.00    +0.029 C 
ATOM     16  C   UNL     1      34.449 -23.300 -19.550  0.00  0.00    +0.000 C 
ATOM     17  C   UNL     1      34.915 -25.366 -15.342  0.00  0.00    +0.002 C 
ATOM     18  C   UNL     1      32.946 -20.795 -20.583  0.00  0.00    +0.029 C 
ATOM     19  C   UNL     1      34.125 -19.898 -20.946  0.00  0.00    +0.111 C 
ENDROOT
BRANCH  11  20
ATOM     20  O   UNL     1      34.523 -24.984 -12.532  0.00  0.00    -0.384 OA
ATOM     21  H   UNL     1      34.495 -25.776 -13.090  0.00  0.00    +0.210 HD
ENDBRANCH  11  20
BRANCH  19  22
ATOM     22  O   UNL     1      34.072 -19.620 -22.341  0.00  0.00    -0.384 OA
ATOM     23  H   UNL     1      34.975 -19.560 -22.692  0.00  0.00    +0.210 HD
ENDBRANCH  19  22
TORSDOF 2
ENDMDL
MODEL 3
REMARK VINA RESULT:      -7.7      1.464      6.522
REMARK  Name = 242332
REMARK  2 active torsions:
REMARK  status: ('A' for Active; 'I' for Inactive)
REMARK    1  A    between atoms: C_11  and  O_20
REMARK    2  A    between atoms: C_19  and  O_22
REMARK                            x       y       z     vdW  Elec       q    Type
REMARK                         _______ _______ _______ _____ _____    ______ ____
ROOT
ATOM      1  C   UNL     1      32.937 -23.386 -14.698  0.00  0.00    +0.000 C 
ATOM      2  C   UNL     1      33.925 -23.456 -15.909  0.00  0.00    +0.000 C 
ATOM      3  C   UNL     1      35.316 -23.034 -15.426  0.00  0.00    +0.002 C 
ATOM      4  C   UNL     1      31.466 -23.753 -15.120  0.00  0.00    +0.000 C 
ATOM      5  C   UNL     1      35.858 -23.941 -14.303  0.00  0.00    +0.025 C 
ATOM      6  C   UNL     1      31.059 -22.790 -16.283  0.00  0.00    +0.002 C 
ATOM      7  C   UNL     1      33.468 -24.169 -13.467  0.00  0.00    +0.000 C 
ATOM      8  C   UNL     1      34.919 -23.816 -13.095  0.00  0.00    +0.002 C 
ATOM      9  C   UNL     1      33.445 -22.577 -17.073  0.00  0.00    +0.000 C 
ATOM     10  C   UNL     1      36.469 -22.979 -16.427  0.00  0.00    +0.003 C 
ATOM     11  C   UNL     1      37.244 -23.294 -14.111  0.00  0.00    +0.110 C 
ATOM     12  C   UNL     1      32.007 -22.888 -17.482  0.00  0.00    +0.000 C 
ATOM     13  C   UNL     1      30.481 -23.510 -13.941  0.00  0.00    +0.002 C 
ATOM     14  C   UNL     1      37.731 -23.010 -15.545  0.00  0.00    +0.029 C 
ATOM     15  C   UNL     1      29.595 -22.954 -16.709  0.00  0.00    +0.029 C 
ATOM     16  C   UNL     1      31.368 -25.242 -15.539  0.00  0.00    +0.000 C 
ATOM     17  C   UNL     1      35.999 -25.434 -14.694  0.00  0.00    +0.002 C 
ATOM     18  C   UNL     1      29.009 -23.632 -14.339  0.00  0.00    +0.029 C 
ATOM     19  C   UNL     1      28.651 -22.743 -15.527  0.00  0.00    +0.111 C 
ENDROOT
BRANCH  11  20
ATOM     20  O   UNL     1      38.158 -24.090 -13.381  0.00  0.00    -0.384 OA
ATOM     21  H   UNL     1      38.470 -24.819 -13.939  0.00  0.00    +0.210 HD
ENDBRANCH  11  20
BRANCH  19  22
ATOM     22  O   UNL     1      27.314 -23.031 -15.922  0.00  0.00    -0.384 OA
ATOM     23  H   UNL     1      26.855 -23.486 -15.199  0.00  0.00    +0.210 HD
ENDBRANCH  19  22
TORSDOF 2
ENDMDL
MODEL 4
REMARK VINA RESULT:      -7.6      1.300      2.726
REMARK  Name = 242332
REMARK  2 active torsions:
REMARK  status: ('A' for Active; 'I' for Inactive)
REMARK    1  A    between atoms: C_11  and  O_20
REMARK    2  A    between atoms: C_19  and  O_22
REMARK                            x       y       z     vdW  Elec       q    Type
REMARK                         _______ _______ _______ _____ _____    ______ ____
ROOT
ATOM      1  C   UNL     1      34.182 -23.404 -15.231  0.00  0.00    +0.000 C 
ATOM      2  C   UNL     1      32.997 -23.848 -14.310  0.00  0.00    +0.000 C 
ATOM      3  C   UNL     1      31.754 -23.038 -14.693  0.00  0.00    +0.002 C 
ATOM      4  C   UNL     1      35.518 -24.151 -14.867  0.00  0.00    +0.000 C 
ATOM      5  C   UNL     1      31.334 -23.250 -16.162  0.00  0.00    +0.025 C 
ATOM      6  C   UNL     1      35.804 -23.886 -13.353  0.00  0.00    +0.002 C 
ATOM      7  C   UNL     1      33.802 -23.461 -16.736  0.00  0.00    +0.000 C 
ATOM      8  C   UNL     1      32.475 -22.752 -17.060  0.00  0.00    +0.002 C 
ATOM      9  C   UNL     1      33.347 -23.670 -12.826  0.00  0.00    +0.000 C 
ATOM     10  C   UNL     1      30.456 -23.251 -13.917  0.00  0.00    +0.003 C 
ATOM     11  C   UNL     1      30.067 -22.372 -16.184  0.00  0.00    +0.110 C 
ATOM     12  C   UNL     1      34.658 -24.356 -12.451  0.00  0.00    +0.000 C 
ATOM     13  C   UNL     1      36.710 -23.570 -15.681  0.00  0.00    +0.002 C 
ATOM     14  C   UNL     1      29.368 -22.683 -14.847  0.00  0.00    +0.029 C 
ATOM     15  C   UNL     1      37.151 -24.455 -12.892  0.00  0.00    +0.029 C 
ATOM     16  C   UNL     1      35.406 -25.665 -15.181  0.00  0.00    +0.000 C 
ATOM     17  C   UNL     1      30.993 -24.716 -16.528  0.00  0.00    +0.002 C 
ATOM     18  C   UNL     1      38.074 -24.090 -15.224  0.00  0.00    +0.029 C 
ATOM     19  C   UNL     1      38.301 -23.894 -13.728  0.00  0.00    +0.111 C 
ENDROOT
BRANCH  11  20
ATOM     20  O   UNL     1      29.223 -22.602 -17.297  0.00  0.00    -0.384 OA
ATOM     21  H   UNL     1      28.407 -22.089 -17.195  0.00  0.00    +0.210 HD
ENDBRANCH  11  20
BRANCH  19  22
ATOM     22  O   UNL     1      39.517 -24.537 -13.364  0.00  0.00    -0.384 OA
ATOM     23  H   UNL     1      39.344 -25.181 -12.659  0.00  0.00    +0.210 HD
ENDBRANCH  19  22
TORSDOF 2
ENDMDL
MODEL 5
REMARK VINA RESULT:      -7.3     19.695     21.852
REMARK  Name = 242332
REMARK  2 active torsions:
REMARK  status: ('A' for Active; 'I' for Inactive)
REMARK    1  A    between atoms: C_11  and  O_20
REMARK    2  A    between atoms: C_19  and  O_22
REMARK                            x       y       z     vdW  Elec       q    Type
REMARK                         _______ _______ _______ _____ _____    ______ ____
ROOT
ATOM      1  C   UNL     1      33.244  -5.431 -24.625  0.00  0.00    +0.000 C 
ATOM      2  C   UNL     1      32.177  -4.420 -25.161  0.00  0.00    +0.000 C 
ATOM      3  C   UNL     1      32.871  -3.437 -26.109  0.00  0.00    +0.002 C 
ATOM      4  C   UNL     1      32.623  -6.448 -23.597  0.00  0.00    +0.000 C 
ATOM      5  C   UNL     1      33.528  -4.136 -27.316  0.00  0.00    +0.025 C 
ATOM      6  C   UNL     1      31.962  -5.612 -22.454  0.00  0.00    +0.002 C 
ATOM      7  C   UNL     1      34.051  -6.090 -25.776  0.00  0.00    +0.000 C 
ATOM      8  C   UNL     1      34.619  -5.077 -26.786  0.00  0.00    +0.002 C 
ATOM      9  C   UNL     1      31.473  -3.688 -24.010  0.00  0.00    +0.000 C 
ATOM     10  C   UNL     1      32.056  -2.314 -26.748  0.00  0.00    +0.003 C 
ATOM     11  C   UNL     1      34.057  -2.894 -28.062  0.00  0.00    +0.110 C 
ATOM     12  C   UNL     1      30.890  -4.650 -22.978  0.00  0.00    +0.000 C 
ATOM     13  C   UNL     1      33.736  -7.326 -22.956  0.00  0.00    +0.002 C 
ATOM     14  C   UNL     1      32.910  -1.870 -27.950  0.00  0.00    +0.029 C 
ATOM     15  C   UNL     1      31.424  -6.483 -21.312  0.00  0.00    +0.029 C 
ATOM     16  C   UNL     1      31.605  -7.385 -24.296  0.00  0.00    +0.000 C 
ATOM     17  C   UNL     1      32.547  -4.936 -28.209  0.00  0.00    +0.002 C 
ATOM     18  C   UNL     1      33.241  -8.183 -21.789  0.00  0.00    +0.029 C 
ATOM     19  C   UNL     1      32.528  -7.359 -20.722  0.00  0.00    +0.111 C 
ENDROOT
BRANCH  11  20
ATOM     20  O   UNL     1      34.428  -3.140 -29.405  0.00  0.00    -0.384 OA
ATOM     21  H   UNL     1      34.987  -3.932 -29.446  0.00  0.00    +0.210 HD
ENDBRANCH  11  20
BRANCH  19  22
ATOM     22  O   UNL     1      31.973  -8.247 -19.758  0.00  0.00    -0.384 OA
ATOM     23  H   UNL     1      31.593  -9.017 -20.210  0.00  0.00    +0.210 HD
ENDBRANCH  19  22
TORSDOF 2
ENDMDL
MODEL 6
REMARK VINA RESULT:      -7.3      1.134      6.801
REMARK  Name = 242332
REMARK  2 active torsions:
REMARK  status: ('A' for Active; 'I' for Inactive)
REMARK    1  A    between atoms: C_11  and  O_20
REMARK    2  A    between atoms: C_19  and  O_22
REMARK                            x       y       z     vdW  Elec       q    Type
REMARK                         _______ _______ _______ _____ _____    ______ ____
ROOT
ATOM      1  C   UNL     1      33.211 -23.803 -15.588  0.00  0.00    +0.000 C 
ATOM      2  C   UNL     1      33.840 -24.332 -14.257  0.00  0.00    +0.000 C 
ATOM      3  C   UNL     1      35.257 -24.833 -14.555  0.00  0.00    +0.002 C 
ATOM      4  C   UNL     1      31.728 -23.317 -15.382  0.00  0.00    +0.000 C 
ATOM      5  C   UNL     1      36.173 -23.728 -15.121  0.00  0.00    +0.025 C 
ATOM      6  C   UNL     1      30.925 -24.512 -14.772  0.00  0.00    +0.002 C 
ATOM      7  C   UNL     1      34.132 -22.775 -16.299  0.00  0.00    +0.000 C 
ATOM      8  C   UNL     1      35.584 -23.261 -16.459  0.00  0.00    +0.002 C 
ATOM      9  C   UNL     1      32.976 -25.435 -13.630  0.00  0.00    +0.000 C 
ATOM     10  C   UNL     1      36.087 -25.440 -13.426  0.00  0.00    +0.003 C 
ATOM     11  C   UNL     1      37.483 -24.533 -15.241  0.00  0.00    +0.110 C 
ATOM     12  C   UNL     1      31.523 -25.003 -13.449  0.00  0.00    +0.000 C 
ATOM     13  C   UNL     1      31.075 -22.958 -16.747  0.00  0.00    +0.002 C 
ATOM     14  C   UNL     1      37.536 -25.365 -13.945  0.00  0.00    +0.029 C 
ATOM     15  C   UNL     1      29.427 -24.216 -14.635  0.00  0.00    +0.029 C 
ATOM     16  C   UNL     1      31.681 -22.062 -14.473  0.00  0.00    +0.000 C 
ATOM     17  C   UNL     1      36.362 -22.508 -14.186  0.00  0.00    +0.002 C 
ATOM     18  C   UNL     1      29.571 -22.690 -16.653  0.00  0.00    +0.029 C 
ATOM     19  C   UNL     1      28.816 -23.834 -15.983  0.00  0.00    +0.111 C 
ENDROOT
BRANCH  11  20
ATOM     20  O   UNL     1      38.639 -23.734 -15.414  0.00  0.00    -0.384 OA
ATOM     21  H   UNL     1      39.158 -24.074 -16.159  0.00  0.00    +0.210 HD
ENDBRANCH  11  20
BRANCH  19  22
ATOM     22  O   UNL     1      27.461 -23.440 -15.802  0.00  0.00    -0.384 OA
ATOM     23  H   UNL     1      27.415 -22.474 -15.715  0.00  0.00    +0.210 HD
ENDBRANCH  19  22
TORSDOF 2
ENDMDL
MODEL 7
REMARK VINA RESULT:      -7.0     14.038     16.271
REMARK  Name = 242332
REMARK  2 active torsions:
REMARK  status: ('A' for Active; 'I' for Inactive)
REMARK    1  A    between atoms: C_11  and  O_20
REMARK    2  A    between atoms: C_19  and  O_22
REMARK                            x       y       z     vdW  Elec       q    Type
REMARK                         _______ _______ _______ _____ _____    ______ ____
ROOT
ATOM      1  C   UNL     1      32.701 -10.499 -22.330  0.00  0.00    +0.000 C 
ATOM      2  C   UNL     1      31.827  -9.561 -21.433  0.00  0.00    +0.000 C 
ATOM      3  C   UNL     1      32.307  -8.118 -21.627  0.00  0.00    +0.002 C 
ATOM      4  C   UNL     1      32.310 -12.012 -22.150  0.00  0.00    +0.000 C 
ATOM      5  C   UNL     1      32.189  -7.642 -23.088  0.00  0.00    +0.025 C 
ATOM      6  C   UNL     1      32.435 -12.350 -20.629  0.00  0.00    +0.002 C 
ATOM      7  C   UNL     1      32.748 -10.017 -23.805  0.00  0.00    +0.000 C 
ATOM      8  C   UNL     1      33.101  -8.525 -23.952  0.00  0.00    +0.002 C 
ATOM      9  C   UNL     1      31.890  -9.980 -19.958  0.00  0.00    +0.000 C 
ATOM     10  C   UNL     1      31.640  -6.997 -20.832  0.00  0.00    +0.003 C 
ATOM     11  C   UNL     1      32.678  -6.190 -22.914  0.00  0.00    +0.110 C 
ATOM     12  C   UNL     1      31.548 -11.454 -19.757  0.00  0.00    +0.000 C 
ATOM     13  C   UNL     1      33.304 -12.930 -22.919  0.00  0.00    +0.002 C 
ATOM     14  C   UNL     1      32.006  -5.719 -21.609  0.00  0.00    +0.029 C 
ATOM     15  C   UNL     1      32.202 -13.835 -20.326  0.00  0.00    +0.029 C 
ATOM     16  C   UNL     1      30.881 -12.279 -22.689  0.00  0.00    +0.000 C 
ATOM     17  C   UNL     1      30.750  -7.672 -23.661  0.00  0.00    +0.002 C 
ATOM     18  C   UNL     1      33.122 -14.418 -22.614  0.00  0.00    +0.029 C 
ATOM     19  C   UNL     1      33.167 -14.715 -21.118  0.00  0.00    +0.111 C 
ENDROOT
BRANCH  11  20
ATOM     20  O   UNL     1      32.379  -5.343 -24.008  0.00  0.00    -0.384 OA
ATOM     21  H   UNL     1      31.474  -5.515 -24.312  0.00  0.00    +0.210 HD
ENDBRANCH  11  20
BRANCH  19  22
ATOM     22  O   UNL     1      32.842 -16.086 -20.917  0.00  0.00    -0.384 OA
ATOM     23  H   UNL     1      32.669 -16.243 -19.975  0.00  0.00    +0.210 HD
ENDBRANCH  19  22
TORSDOF 2
ENDMDL
MODEL 8
REMARK VINA RESULT:      -6.8     14.748     17.230
REMARK  Name = 242332
REMARK  2 active torsions:
REMARK  status: ('A' for Active; 'I' for Inactive)
REMARK    1  A    between atoms: C_11  and  O_20
REMARK    2  A    between atoms: C_19  and  O_22
REMARK                            x       y       z     vdW  Elec       q    Type
REMARK                         _______ _______ _______ _____ _____    ______ ____
ROOT
ATOM      1  C   UNL     1      32.324  -9.631 -23.161  0.00  0.00    +0.000 C 
ATOM      2  C   UNL     1      32.523 -10.493 -21.870  0.00  0.00    +0.000 C 
ATOM      3  C   UNL     1      32.168 -11.947 -22.197  0.00  0.00    +0.002 C 
ATOM      4  C   UNL     1      32.616  -8.108 -22.899  0.00  0.00    +0.000 C 
ATOM      5  C   UNL     1      33.048 -12.538 -23.317  0.00  0.00    +0.025 C 
ATOM      6  C   UNL     1      31.692  -7.650 -21.724  0.00  0.00    +0.002 C 
ATOM      7  C   UNL     1      33.074 -10.230 -24.381  0.00  0.00    +0.000 C 
ATOM      8  C   UNL     1      32.797 -11.729 -24.597  0.00  0.00    +0.002 C 
ATOM      9  C   UNL     1      31.679  -9.957 -20.705  0.00  0.00    +0.000 C 
ATOM     10  C   UNL     1      32.242 -13.000 -21.093  0.00  0.00    +0.003 C 
ATOM     11  C   UNL     1      32.483 -13.973 -23.342  0.00  0.00    +0.110 C 
ATOM     12  C   UNL     1      31.916  -8.471 -20.449  0.00  0.00    +0.000 C 
ATOM     13  C   UNL     1      32.247  -7.256 -24.147  0.00  0.00    +0.002 C 
ATOM     14  C   UNL     1      32.308 -14.337 -21.855  0.00  0.00    +0.029 C 
ATOM     15  C   UNL     1      31.783  -6.145 -21.444  0.00  0.00    +0.029 C 
ATOM     16  C   UNL     1      34.117  -7.881 -22.580  0.00  0.00    +0.000 C 
ATOM     17  C   UNL     1      34.565 -12.552 -23.004  0.00  0.00    +0.002 C 
ATOM     18  C   UNL     1      32.294  -5.748 -23.894  0.00  0.00    +0.029 C 
ATOM     19  C   UNL     1      31.449  -5.332 -22.694  0.00  0.00    +0.111 C 
ENDROOT
BRANCH  11  20
ATOM     20  O   UNL     1      33.297 -14.904 -24.030  0.00  0.00    -0.384 OA
ATOM     21  H   UNL     1      33.389 -15.709 -23.498  0.00  0.00    +0.210 HD
ENDBRANCH  11  20
BRANCH  19  22
ATOM     22  O   UNL     1      31.669  -3.949 -22.441  0.00  0.00    -0.384 OA
ATOM     23  H   UNL     1      31.001  -3.626 -21.815  0.00  0.00    +0.210 HD
ENDBRANCH  19  22
TORSDOF 2
ENDMDL
MODEL 9
REMARK VINA RESULT:      -6.7     10.414     12.839
REMARK  Name = 242332
REMARK  2 active torsions:
REMARK  status: ('A' for Active; 'I' for Inactive)
REMARK    1  A    between atoms: C_11  and  O_20
REMARK    2  A    between atoms: C_19  and  O_22
REMARK                            x       y       z     vdW  Elec       q    Type
REMARK                         _______ _______ _______ _____ _____    ______ ____
ROOT
ATOM      1  C   UNL     1      34.511 -15.448 -22.863  0.00  0.00    +0.000 C 
ATOM      2  C   UNL     1      34.120 -16.787 -23.571  0.00  0.00    +0.000 C 
ATOM      3  C   UNL     1      34.958 -17.918 -22.967  0.00  0.00    +0.002 C 
ATOM      4  C   UNL     1      33.733 -14.219 -23.463  0.00  0.00    +0.000 C 
ATOM      5  C   UNL     1      34.730 -18.085 -21.452  0.00  0.00    +0.025 C 
ATOM      6  C   UNL     1      34.018 -14.190 -25.000  0.00  0.00    +0.002 C 
ATOM      7  C   UNL     1      34.437 -15.563 -21.317  0.00  0.00    +0.000 C 
ATOM      8  C   UNL     1      35.178 -16.791 -20.757  0.00  0.00    +0.002 C 
ATOM      9  C   UNL     1      34.316 -16.693 -25.091  0.00  0.00    +0.000 C 
ATOM     10  C   UNL     1      34.798 -19.337 -23.510  0.00  0.00    +0.003 C 
ATOM     11  C   UNL     1      35.644 -19.301 -21.197  0.00  0.00    +0.110 C 
ATOM     12  C   UNL     1      33.600 -15.489 -25.697  0.00  0.00    +0.000 C 
ATOM     13  C   UNL     1      34.264 -12.886 -22.861  0.00  0.00    +0.002 C 
ATOM     14  C   UNL     1      35.379 -20.230 -22.398  0.00  0.00    +0.029 C 
ATOM     15  C   UNL     1      33.419 -12.962 -25.696  0.00  0.00    +0.029 C 
ATOM     16  C   UNL     1      32.217 -14.324 -23.156  0.00  0.00    +0.000 C 
ATOM     17  C   UNL     1      33.268 -18.405 -21.052  0.00  0.00    +0.002 C 
ATOM     18  C   UNL     1      33.712 -11.639 -23.555  0.00  0.00    +0.029 C 
ATOM     19  C   UNL     1      33.931 -11.668 -25.064  0.00  0.00    +0.111 C 
ENDROOT
BRANCH  11  20
ATOM     20  O   UNL     1      35.418 -19.946 -19.958  0.00  0.00    -0.384 OA
ATOM     21  H   UNL     1      35.995 -20.722 -19.888  0.00  0.00    +0.210 HD
ENDBRANCH  11  20
BRANCH  19  22
ATOM     22  O   UNL     1      33.259 -10.554 -25.642  0.00  0.00    -0.384 OA
ATOM     23  H   UNL     1      32.300 -10.675 -25.556  0.00  0.00    +0.210 HD
ENDBRANCH  19  22
TORSDOF 2
ENDMDL
