MODEL 1
REMARK VINA RESULT:      -6.2      0.000      0.000
REMARK  Name = 6488
REMARK  3 active torsions:
REMARK  status: ('A' for Active; 'I' for Inactive)
REMARK    1  A    between atoms: C_5  and  C_11
REMARK    2  A    between atoms: C_11  and  C_12
REMARK    3  A    between atoms: C_11  and  C_14
REMARK                            x       y       z     vdW  Elec       q    Type
REMARK                         _______ _______ _______ _____ _____    ______ ____
ROOT
ATOM      1  O   UNL     1      35.161 -16.629 -20.242  0.00  0.00    -0.274 OA
ATOM      2  O   UNL     1      34.351 -14.201 -21.354  0.00  0.00    -0.253 OA
ATOM      3  N   UNL     1      34.779 -16.199 -22.486  0.00  0.00    -0.239 N 
ATOM      4  N   UNL     1      34.111 -14.320 -23.636  0.00  0.00    -0.313 N 
ATOM      5  C   UNL     1      35.134 -17.016 -21.411  0.00  0.00    +0.238 C 
ATOM      6  C   UNL     1      34.412 -14.853 -22.394  0.00  0.00    +0.303 C 
ATOM      7  H   UNL     1      34.788 -16.605 -23.383  0.00  0.00    +0.159 HD
ATOM      8  H   UNL     1      33.836 -13.377 -23.713  0.00  0.00    +0.146 HD
ATOM      9  H   UNL     1      34.171 -14.882 -24.441  0.00  0.00    +0.146 HD
ENDROOT
BRANCH   5  11
ATOM     10 BR   UNL     1      33.842 -19.492 -21.370  0.00  0.00    -0.073 Br
ATOM     11  C   UNL     1      35.493 -18.467 -21.798  0.00  0.00    +0.117 C 
BRANCH  11  12
ATOM     12  C   UNL     1      35.716 -18.569 -23.327  0.00  0.00    +0.019 C 
ATOM     13  C   UNL     1      34.714 -19.421 -24.101  0.00  0.00    +0.001 C 
ENDBRANCH  11  12
BRANCH  11  14
ATOM     14  C   UNL     1      36.641 -19.053 -20.953  0.00  0.00    +0.019 C 
ATOM     15  C   UNL     1      36.284 -20.365 -20.262  0.00  0.00    +0.001 C 
ENDBRANCH  11  14
ENDBRANCH   5  11
TORSDOF 3
ENDMDL
MODEL 2
REMARK VINA RESULT:      -6.2      3.764      5.146
REMARK  Name = 6488
REMARK  3 active torsions:
REMARK  status: ('A' for Active; 'I' for Inactive)
REMARK    1  A    between atoms: C_5  and  C_11
REMARK    2  A    between atoms: C_11  and  C_12
REMARK    3  A    between atoms: C_11  and  C_14
REMARK                            x       y       z     vdW  Elec       q    Type
REMARK                         _______ _______ _______ _____ _____    ______ ____
ROOT
ATOM      1  O   UNL     1      32.446 -20.131 -20.989  0.00  0.00    -0.274 OA
ATOM      2  O   UNL     1      32.813 -22.144 -19.090  0.00  0.00    -0.253 OA
ATOM      3  N   UNL     1      34.453 -20.762 -20.018  0.00  0.00    -0.239 N 
ATOM      4  N   UNL     1      35.011 -22.355 -18.452  0.00  0.00    -0.313 N 
ATOM      5  C   UNL     1      33.664 -19.992 -20.875  0.00  0.00    +0.238 C 
ATOM      6  C   UNL     1      33.985 -21.782 -19.185  0.00  0.00    +0.303 C 
ATOM      7  H   UNL     1      35.418 -20.570 -20.000  0.00  0.00    +0.159 HD
ATOM      8  H   UNL     1      34.817 -23.088 -17.824  0.00  0.00    +0.146 HD
ATOM      9  H   UNL     1      35.934 -22.029 -18.560  0.00  0.00    +0.146 HD
ENDROOT
BRANCH   5  11
ATOM     10 BR   UNL     1      36.280 -19.013 -20.924  0.00  0.00    -0.073 Br
ATOM     11  C   UNL     1      34.442 -18.929 -21.681  0.00  0.00    +0.117 C 
BRANCH  11  12
ATOM     12  C   UNL     1      34.536 -19.354 -23.167  0.00  0.00    +0.019 C 
ATOM     13  C   UNL     1      34.872 -18.252 -24.166  0.00  0.00    +0.001 C 
ENDBRANCH  11  12
BRANCH  11  14
ATOM     14  C   UNL     1      33.911 -17.498 -21.467  0.00  0.00    +0.019 C 
ATOM     15  C   UNL     1      34.921 -16.562 -20.811  0.00  0.00    +0.001 C 
ENDBRANCH  11  14
ENDBRANCH   5  11
TORSDOF 3
ENDMDL
MODEL 3
REMARK VINA RESULT:      -6.1      1.218      2.213
REMARK  Name = 6488
REMARK  3 active torsions:
REMARK  status: ('A' for Active; 'I' for Inactive)
REMARK    1  A    between atoms: C_5  and  C_11
REMARK    2  A    between atoms: C_11  and  C_12
REMARK    3  A    between atoms: C_11  and  C_14
REMARK                            x       y       z     vdW  Elec       q    Type
REMARK                         _______ _______ _______ _____ _____    ______ ____
ROOT
ATOM      1  O   UNL     1      35.238 -16.810 -20.300  0.00  0.00    -0.274 OA
ATOM      2  O   UNL     1      34.579 -14.229 -21.136  0.00  0.00    -0.253 OA
ATOM      3  N   UNL     1      34.666 -16.160 -22.449  0.00  0.00    -0.239 N 
ATOM      4  N   UNL     1      34.085 -14.135 -23.378  0.00  0.00    -0.313 N 
ATOM      5  C   UNL     1      35.044 -17.094 -21.482  0.00  0.00    +0.238 C 
ATOM      6  C   UNL     1      34.458 -14.796 -22.220  0.00  0.00    +0.303 C 
ATOM      7  H   UNL     1      34.535 -16.490 -23.367  0.00  0.00    +0.159 HD
ATOM      8  H   UNL     1      33.907 -13.167 -23.356  0.00  0.00    +0.146 HD
ATOM      9  H   UNL     1      33.998 -14.633 -24.223  0.00  0.00    +0.146 HD
ENDROOT
BRANCH   5  11
ATOM     10 BR   UNL     1      36.662 -19.292 -20.891  0.00  0.00    -0.073 Br
ATOM     11  C   UNL     1      35.201 -18.537 -22.010  0.00  0.00    +0.117 C 
BRANCH  11  12
ATOM     12  C   UNL     1      33.920 -19.354 -21.710  0.00  0.00    +0.019 C 
ATOM     13  C   UNL     1      33.962 -20.244 -20.472  0.00  0.00    +0.001 C 
ENDBRANCH  11  12
BRANCH  11  14
ATOM     14  C   UNL     1      35.658 -18.597 -23.481  0.00  0.00    +0.019 C 
ATOM     15  C   UNL     1      34.600 -19.154 -24.428  0.00  0.00    +0.001 C 
ENDBRANCH  11  14
ENDBRANCH   5  11
TORSDOF 3
ENDMDL
MODEL 4
REMARK VINA RESULT:      -6.1      8.723     10.494
REMARK  Name = 6488
REMARK  3 active torsions:
REMARK  status: ('A' for Active; 'I' for Inactive)
REMARK    1  A    between atoms: C_5  and  C_11
REMARK    2  A    between atoms: C_11  and  C_12
REMARK    3  A    between atoms: C_11  and  C_14
REMARK                            x       y       z     vdW  Elec       q    Type
REMARK                         _______ _______ _______ _____ _____    ______ ____
ROOT
ATOM      1  O   UNL     1      32.877  -7.497 -19.810  0.00  0.00    -0.274 OA
ATOM      2  O   UNL     1      32.037  -9.888 -18.641  0.00  0.00    -0.253 OA
ATOM      3  N   UNL     1      32.016  -9.343 -20.913  0.00  0.00    -0.239 N 
ATOM      4  N   UNL     1      31.271 -11.399 -20.194  0.00  0.00    -0.313 N 
ATOM      5  C   UNL     1      32.542  -8.051 -20.857  0.00  0.00    +0.238 C 
ATOM      6  C   UNL     1      31.797 -10.176 -19.812  0.00  0.00    +0.303 C 
ATOM      7  H   UNL     1      31.780  -9.696 -21.802  0.00  0.00    +0.159 HD
ATOM      8  H   UNL     1      31.069 -12.082 -19.513  0.00  0.00    +0.146 HD
ATOM      9  H   UNL     1      31.098 -11.586 -21.145  0.00  0.00    +0.146 HD
ENDROOT
BRANCH   5  11
ATOM     10 BR   UNL     1      31.389  -8.330 -23.386  0.00  0.00    -0.073 Br
ATOM     11  C   UNL     1      32.680  -7.354 -22.229  0.00  0.00    +0.117 C 
BRANCH  11  12
ATOM     12  C   UNL     1      32.194  -5.887 -22.130  0.00  0.00    +0.019 C 
ATOM     13  C   UNL     1      30.683  -5.673 -22.157  0.00  0.00    +0.001 C 
ENDBRANCH  11  12
BRANCH  11  14
ATOM     14  C   UNL     1      34.081  -7.514 -22.851  0.00  0.00    +0.019 C 
ATOM     15  C   UNL     1      34.184  -6.977 -24.275  0.00  0.00    +0.001 C 
ENDBRANCH  11  14
ENDBRANCH   5  11
TORSDOF 3
ENDMDL
MODEL 5
REMARK VINA RESULT:      -6.1      2.688      2.933
REMARK  Name = 6488
REMARK  3 active torsions:
REMARK  status: ('A' for Active; 'I' for Inactive)
REMARK    1  A    between atoms: C_5  and  C_11
REMARK    2  A    between atoms: C_11  and  C_12
REMARK    3  A    between atoms: C_11  and  C_14
REMARK                            x       y       z     vdW  Elec       q    Type
REMARK                         _______ _______ _______ _____ _____    ______ ____
ROOT
ATOM      1  O   UNL     1      35.291 -19.293 -24.048  0.00  0.00    -0.274 OA
ATOM      2  O   UNL     1      34.611 -17.330 -25.912  0.00  0.00    -0.253 OA
ATOM      3  N   UNL     1      34.496 -17.167 -23.584  0.00  0.00    -0.239 N 
ATOM      4  N   UNL     1      33.880 -15.393 -24.916  0.00  0.00    -0.313 N 
ATOM      5  C   UNL     1      34.955 -18.436 -23.229  0.00  0.00    +0.238 C 
ATOM      6  C   UNL     1      34.353 -16.694 -24.892  0.00  0.00    +0.303 C 
ATOM      7  H   UNL     1      34.253 -16.554 -22.853  0.00  0.00    +0.159 HD
ATOM      8  H   UNL     1      33.734 -14.938 -25.778  0.00  0.00    +0.146 HD
ATOM      9  H   UNL     1      33.690 -14.922 -24.073  0.00  0.00    +0.146 HD
ENDROOT
BRANCH   5  11
ATOM     10 BR   UNL     1      34.240 -17.043 -20.917  0.00  0.00    -0.073 Br
ATOM     11  C   UNL     1      35.017 -18.694 -21.707  0.00  0.00    +0.117 C 
BRANCH  11  12
ATOM     12  C   UNL     1      34.083 -19.870 -21.330  0.00  0.00    +0.019 C 
ATOM     13  C   UNL     1      32.759 -19.497 -20.673  0.00  0.00    +0.001 C 
ENDBRANCH  11  12
BRANCH  11  14
ATOM     14  C   UNL     1      36.457 -18.836 -21.176  0.00  0.00    +0.019 C 
ATOM     15  C   UNL     1      36.666 -20.063 -20.294  0.00  0.00    +0.001 C 
ENDBRANCH  11  14
ENDBRANCH   5  11
TORSDOF 3
ENDMDL
MODEL 6
REMARK VINA RESULT:      -6.1      1.371      1.981
REMARK  Name = 6488
REMARK  3 active torsions:
REMARK  status: ('A' for Active; 'I' for Inactive)
REMARK    1  A    between atoms: C_5  and  C_11
REMARK    2  A    between atoms: C_11  and  C_12
REMARK    3  A    between atoms: C_11  and  C_14
REMARK                            x       y       z     vdW  Elec       q    Type
REMARK                         _______ _______ _______ _____ _____    ______ ____
ROOT
ATOM      1  O   UNL     1      35.117 -16.631 -20.371  0.00  0.00    -0.274 OA
ATOM      2  O   UNL     1      34.636 -14.350 -21.906  0.00  0.00    -0.253 OA
ATOM      3  N   UNL     1      34.378 -16.576 -22.566  0.00  0.00    -0.239 N 
ATOM      4  N   UNL     1      33.907 -14.859 -24.025  0.00  0.00    -0.313 N 
ATOM      5  C   UNL     1      34.765 -17.224 -21.392  0.00  0.00    +0.238 C 
ATOM      6  C   UNL     1      34.338 -15.191 -22.752  0.00  0.00    +0.303 C 
ATOM      7  H   UNL     1      34.113 -17.142 -23.327  0.00  0.00    +0.159 HD
ATOM      8  H   UNL     1      33.832 -13.912 -24.287  0.00  0.00    +0.146 HD
ATOM      9  H   UNL     1      33.676 -15.567 -24.668  0.00  0.00    +0.146 HD
ENDROOT
BRANCH   5  11
ATOM     10 BR   UNL     1      34.852 -19.154 -23.408  0.00  0.00    -0.073 Br
ATOM     11  C   UNL     1      34.714 -18.766 -21.462  0.00  0.00    +0.117 C 
BRANCH  11  12
ATOM     12  C   UNL     1      35.968 -19.369 -20.782  0.00  0.00    +0.019 C 
ATOM     13  C   UNL     1      37.307 -19.077 -21.452  0.00  0.00    +0.001 C 
ENDBRANCH  11  12
BRANCH  11  14
ATOM     14  C   UNL     1      33.380 -19.351 -20.960  0.00  0.00    +0.019 C 
ATOM     15  C   UNL     1      33.542 -20.622 -20.132  0.00  0.00    +0.001 C 
ENDBRANCH  11  14
ENDBRANCH   5  11
TORSDOF 3
ENDMDL
MODEL 7
REMARK VINA RESULT:      -6.0      8.974     10.204
REMARK  Name = 6488
REMARK  3 active torsions:
REMARK  status: ('A' for Active; 'I' for Inactive)
REMARK    1  A    between atoms: C_5  and  C_11
REMARK    2  A    between atoms: C_11  and  C_12
REMARK    3  A    between atoms: C_11  and  C_14
REMARK                            x       y       z     vdW  Elec       q    Type
REMARK                         _______ _______ _______ _____ _____    ______ ____
ROOT
ATOM      1  O   UNL     1      32.980  -7.584 -19.991  0.00  0.00    -0.274 OA
ATOM      2  O   UNL     1      32.185  -9.876 -18.611  0.00  0.00    -0.253 OA
ATOM      3  N   UNL     1      31.991  -9.470 -20.903  0.00  0.00    -0.239 N 
ATOM      4  N   UNL     1      31.261 -11.457 -19.999  0.00  0.00    -0.313 N 
ATOM      5  C   UNL     1      32.548  -8.192 -20.971  0.00  0.00    +0.238 C 
ATOM      6  C   UNL     1      31.844 -10.229 -19.738  0.00  0.00    +0.303 C 
ATOM      7  H   UNL     1      31.674  -9.869 -21.746  0.00  0.00    +0.159 HD
ATOM      8  H   UNL     1      31.101 -12.092 -19.263  0.00  0.00    +0.146 HD
ATOM      9  H   UNL     1      31.007 -11.697 -20.919  0.00  0.00    +0.146 HD
ENDROOT
BRANCH   5  11
ATOM     10 BR   UNL     1      31.866  -5.747 -22.138  0.00  0.00    -0.073 Br
ATOM     11  C   UNL     1      32.588  -7.584 -22.390  0.00  0.00    +0.117 C 
BRANCH  11  12
ATOM     12  C   UNL     1      34.056  -7.441 -22.864  0.00  0.00    +0.019 C 
ATOM     13  C   UNL     1      34.556  -8.499 -23.843  0.00  0.00    +0.001 C 
ENDBRANCH  11  12
BRANCH  11  14
ATOM     14  C   UNL     1      31.671  -8.315 -23.389  0.00  0.00    +0.019 C 
ATOM     15  C   UNL     1      30.870  -7.377 -24.286  0.00  0.00    +0.001 C 
ENDBRANCH  11  14
ENDBRANCH   5  11
TORSDOF 3
ENDMDL
MODEL 8
REMARK VINA RESULT:      -5.9      8.313     10.252
REMARK  Name = 6488
REMARK  3 active torsions:
REMARK  status: ('A' for Active; 'I' for Inactive)
REMARK    1  A    between atoms: C_5  and  C_11
REMARK    2  A    between atoms: C_11  and  C_12
REMARK    3  A    between atoms: C_11  and  C_14
REMARK                            x       y       z     vdW  Elec       q    Type
REMARK                         _______ _______ _______ _____ _____    ______ ____
ROOT
ATOM      1  O   UNL     1      36.022 -24.832 -15.705  0.00  0.00    -0.274 OA
ATOM      2  O   UNL     1      35.636 -22.510 -17.204  0.00  0.00    -0.253 OA
ATOM      3  N   UNL     1      37.395 -22.967 -15.735  0.00  0.00    -0.239 N 
ATOM      4  N   UNL     1      37.303 -20.965 -16.868  0.00  0.00    -0.313 N 
ATOM      5  C   UNL     1      37.030 -24.246 -15.311  0.00  0.00    +0.238 C 
ATOM      6  C   UNL     1      36.683 -22.182 -16.647  0.00  0.00    +0.303 C 
ATOM      7  H   UNL     1      38.222 -22.586 -15.360  0.00  0.00    +0.159 HD
ATOM      8  H   UNL     1      36.905 -20.315 -17.492  0.00  0.00    +0.146 HD
ATOM      9  H   UNL     1      38.143 -20.748 -16.402  0.00  0.00    +0.146 HD
ENDROOT
BRANCH   5  11
ATOM     10 BR   UNL     1      37.332 -26.751 -14.114  0.00  0.00    -0.073 Br
ATOM     11  C   UNL     1      38.003 -24.887 -14.297  0.00  0.00    +0.117 C 
BRANCH  11  12
ATOM     12  C   UNL     1      39.426 -24.966 -14.902  0.00  0.00    +0.019 C 
ATOM     13  C   UNL     1      40.415 -25.880 -14.186  0.00  0.00    +0.001 C 
ENDBRANCH  11  12
BRANCH  11  14
ATOM     14  C   UNL     1      37.945 -24.230 -12.904  0.00  0.00    +0.019 C 
ATOM     15  C   UNL     1      36.874 -24.820 -11.992  0.00  0.00    +0.001 C 
ENDBRANCH  11  14
ENDBRANCH   5  11
TORSDOF 3
ENDMDL
MODEL 9
REMARK VINA RESULT:      -5.9      7.903      9.859
REMARK  Name = 6488
REMARK  3 active torsions:
REMARK  status: ('A' for Active; 'I' for Inactive)
REMARK    1  A    between atoms: C_5  and  C_11
REMARK    2  A    between atoms: C_11  and  C_12
REMARK    3  A    between atoms: C_11  and  C_14
REMARK                            x       y       z     vdW  Elec       q    Type
REMARK                         _______ _______ _______ _____ _____    ______ ____
ROOT
ATOM      1  O   UNL     1      33.659 -10.239 -23.634  0.00  0.00    -0.274 OA
ATOM      2  O   UNL     1      32.019 -12.304 -22.718  0.00  0.00    -0.253 OA
ATOM      3  N   UNL     1      31.908 -10.046 -22.129  0.00  0.00    -0.239 N 
ATOM      4  N   UNL     1      30.428 -11.565 -21.234  0.00  0.00    -0.313 N 
ATOM      5  C   UNL     1      32.961  -9.543 -22.896  0.00  0.00    +0.238 C 
ATOM      6  C   UNL     1      31.504 -11.384 -22.086  0.00  0.00    +0.303 C 
ATOM      7  H   UNL     1      31.410  -9.405 -21.571  0.00  0.00    +0.159 HD
ATOM      8  H   UNL     1      30.043 -12.463 -21.112  0.00  0.00    +0.146 HD
ATOM      9  H   UNL     1      30.047 -10.796 -20.751  0.00  0.00    +0.146 HD
ENDROOT
BRANCH   5  11
ATOM     10 BR   UNL     1      31.751  -7.223 -23.874  0.00  0.00    -0.073 Br
ATOM     11  C   UNL     1      33.189  -8.022 -22.755  0.00  0.00    +0.117 C 
BRANCH  11  12
ATOM     12  C   UNL     1      32.935  -7.581 -21.293  0.00  0.00    +0.019 C 
ATOM     13  C   UNL     1      32.014  -6.380 -21.099  0.00  0.00    +0.001 C 
ENDBRANCH  11  12
BRANCH  11  14
ATOM     14  C   UNL     1      34.542  -7.557 -23.328  0.00  0.00    +0.019 C 
ATOM     15  C   UNL     1      34.420  -6.798 -24.645  0.00  0.00    +0.001 C 
ENDBRANCH  11  14
ENDBRANCH   5  11
TORSDOF 3
ENDMDL
