MODEL 1
REMARK VINA RESULT:      -7.9      0.000      0.000
REMARK  Name = 3762
REMARK  8 active torsions:
REMARK  status: ('A' for Active; 'I' for Inactive)
REMARK    1  A    between atoms: C_1  and  C_2
REMARK    2  A    between atoms: C_1  and  O_12
REMARK    3  A    between atoms: C_1  and  C_14
REMARK    4  A    between atoms: C_5  and  O_8
REMARK    5  A    between atoms: C_7  and  O_10
REMARK    6  A    between atoms: C_14  and  N_15
REMARK    7  A    between atoms: C_14  and  C_21
REMARK    8  A    between atoms: N_15  and  C_18
REMARK                            x       y       z     vdW  Elec       q    Type
REMARK                         _______ _______ _______ _____ _____    ______ ____
ROOT
ATOM      1  C   UNL     1      35.633 -17.996 -21.762  0.00  0.00    +0.114 C 
ENDROOT
BRANCH   1   2
ATOM      2  C   UNL     1      34.915 -19.138 -21.065  0.00  0.00    +0.005 C 
ATOM      3  C   UNL     1      35.663 -20.123 -20.448  0.00  0.00    +0.038 C 
ATOM      4  C   UNL     1      33.533 -19.163 -21.068  0.00  0.00    +0.001 C 
ATOM      5  C   UNL     1      35.003 -21.172 -19.808  0.00  0.00    +0.167 C 
ATOM      6  C   UNL     1      32.874 -20.213 -20.428  0.00  0.00    +0.040 C 
ATOM      7  C   UNL     1      33.610 -21.218 -19.798  0.00  0.00    +0.167 C 
BRANCH   5   8
ATOM      8  O   UNL     1      35.732 -22.149 -19.199  0.00  0.00    -0.503 OA
ATOM      9  H   UNL     1      36.453 -21.920 -18.645  0.00  0.00    +0.292 HD
ENDBRANCH   5   8
BRANCH   7  10
ATOM     10  O   UNL     1      32.953 -22.238 -19.177  0.00  0.00    -0.503 OA
ATOM     11  H   UNL     1      33.216 -22.510 -18.319  0.00  0.00    +0.292 HD
ENDBRANCH   7  10
ENDBRANCH   1   2
BRANCH   1  12
ATOM     12  O   UNL     1      36.822 -18.471 -22.393  0.00  0.00    -0.382 OA
ATOM     13  H   UNL     1      37.544 -17.843 -22.234  0.00  0.00    +0.211 HD
ENDBRANCH   1  12
BRANCH   1  14
ATOM     14  C   UNL     1      34.723 -17.254 -22.774  0.00  0.00    -0.030 C 
BRANCH  14  15
ATOM     15  N   UNL     1      34.821 -15.807 -22.549  0.00  0.00    +0.388 N 
ATOM     16  H   UNL     1      35.569 -15.426 -23.130  0.00  0.00    -0.084 HD
ATOM     17  H   UNL     1      35.022 -15.638 -21.563  0.00  0.00    -0.084 HD
BRANCH  15  18
ATOM     18  C   UNL     1      33.571 -15.152 -22.892  0.00  0.00    -0.062 C 
ATOM     19  C   UNL     1      33.843 -13.791 -23.528  0.00  0.00    -0.023 C 
ATOM     20  C   UNL     1      32.712 -15.008 -21.639  0.00  0.00    -0.023 C 
ENDBRANCH  15  18
ENDBRANCH  14  15
BRANCH  14  21
ATOM     21  C   UNL     1      35.061 -17.568 -24.245  0.00  0.00    -0.019 C 
ATOM     22  C   UNL     1      34.342 -18.803 -24.776  0.00  0.00    -0.002 C 
ENDBRANCH  14  21
ENDBRANCH   1  14
TORSDOF 8
ENDMDL
MODEL 2
REMARK VINA RESULT:      -7.8      1.031      1.859
REMARK  Name = 3762
REMARK  8 active torsions:
REMARK  status: ('A' for Active; 'I' for Inactive)
REMARK    1  A    between atoms: C_1  and  C_2
REMARK    2  A    between atoms: C_1  and  O_12
REMARK    3  A    between atoms: C_1  and  C_14
REMARK    4  A    between atoms: C_5  and  O_8
REMARK    5  A    between atoms: C_7  and  O_10
REMARK    6  A    between atoms: C_14  and  N_15
REMARK    7  A    between atoms: C_14  and  C_21
REMARK    8  A    between atoms: N_15  and  C_18
REMARK                            x       y       z     vdW  Elec       q    Type
REMARK                         _______ _______ _______ _____ _____    ______ ____
ROOT
ATOM      1  C   UNL     1      35.964 -18.273 -21.673  0.00  0.00    +0.114 C 
ENDROOT
BRANCH   1   2
ATOM      2  C   UNL     1      35.621 -19.508 -20.860  0.00  0.00    +0.005 C 
ATOM      3  C   UNL     1      34.300 -19.905 -20.768  0.00  0.00    +0.038 C 
ATOM      4  C   UNL     1      36.638 -20.201 -20.231  0.00  0.00    +0.001 C 
ATOM      5  C   UNL     1      33.985 -21.039 -20.020  0.00  0.00    +0.167 C 
ATOM      6  C   UNL     1      36.321 -21.336 -19.483  0.00  0.00    +0.040 C 
ATOM      7  C   UNL     1      34.994 -21.755 -19.378  0.00  0.00    +0.167 C 
BRANCH   5   8
ATOM      8  O   UNL     1      32.685 -21.437 -19.923  0.00  0.00    -0.503 OA
ATOM      9  H   UNL     1      32.257 -21.441 -19.089  0.00  0.00    +0.292 HD
ENDBRANCH   5   8
BRANCH   7  10
ATOM     10  O   UNL     1      34.699 -22.864 -18.644  0.00  0.00    -0.503 OA
ATOM     11  H   UNL     1      33.877 -22.924 -18.197  0.00  0.00    +0.292 HD
ENDBRANCH   7  10
ENDBRANCH   1   2
BRANCH   1  12
ATOM     12  O   UNL     1      37.156 -18.490 -22.425  0.00  0.00    -0.382 OA
ATOM     13  H   UNL     1      37.079 -19.322 -22.919  0.00  0.00    +0.211 HD
ENDBRANCH   1  12
BRANCH   1  14
ATOM     14  C   UNL     1      34.798 -17.827 -22.592  0.00  0.00    -0.030 C 
BRANCH  14  15
ATOM     15  N   UNL     1      34.770 -16.360 -22.669  0.00  0.00    +0.388 N 
ATOM     16  H   UNL     1      34.538 -16.078 -23.621  0.00  0.00    -0.084 HD
ATOM     17  H   UNL     1      35.688 -15.998 -22.409  0.00  0.00    -0.084 HD
BRANCH  15  18
ATOM     18  C   UNL     1      33.777 -15.821 -21.756  0.00  0.00    -0.062 C 
ATOM     19  C   UNL     1      32.927 -14.768 -22.461  0.00  0.00    -0.023 C 
ATOM     20  C   UNL     1      34.476 -15.234 -20.534  0.00  0.00    -0.023 C 
ENDBRANCH  15  18
ENDBRANCH  14  15
BRANCH  14  21
ATOM     21  C   UNL     1      34.884 -18.412 -24.015  0.00  0.00    -0.019 C 
ATOM     22  C   UNL     1      34.585 -17.388 -25.105  0.00  0.00    -0.002 C 
ENDBRANCH  14  21
ENDBRANCH   1  14
TORSDOF 8
ENDMDL
MODEL 3
REMARK VINA RESULT:      -7.2      2.525      6.083
REMARK  Name = 3762
REMARK  8 active torsions:
REMARK  status: ('A' for Active; 'I' for Inactive)
REMARK    1  A    between atoms: C_1  and  C_2
REMARK    2  A    between atoms: C_1  and  O_12
REMARK    3  A    between atoms: C_1  and  C_14
REMARK    4  A    between atoms: C_5  and  O_8
REMARK    5  A    between atoms: C_7  and  O_10
REMARK    6  A    between atoms: C_14  and  N_15
REMARK    7  A    between atoms: C_14  and  C_21
REMARK    8  A    between atoms: N_15  and  C_18
REMARK                            x       y       z     vdW  Elec       q    Type
REMARK                         _______ _______ _______ _____ _____    ______ ____
ROOT
ATOM      1  C   UNL     1      35.743 -18.621 -21.583  0.00  0.00    +0.114 C 
ENDROOT
BRANCH   1   2
ATOM      2  C   UNL     1      35.249 -17.892 -22.819  0.00  0.00    +0.005 C 
ATOM      3  C   UNL     1      34.967 -16.541 -22.732  0.00  0.00    +0.038 C 
ATOM      4  C   UNL     1      35.092 -18.597 -23.997  0.00  0.00    +0.001 C 
ATOM      5  C   UNL     1      34.512 -15.871 -23.868  0.00  0.00    +0.167 C 
ATOM      6  C   UNL     1      34.637 -17.926 -25.132  0.00  0.00    +0.040 C 
ATOM      7  C   UNL     1      34.347 -16.562 -25.067  0.00  0.00    +0.167 C 
BRANCH   5   8
ATOM      8  O   UNL     1      34.230 -14.540 -23.791  0.00  0.00    -0.503 OA
ATOM      9  H   UNL     1      33.341 -14.253 -23.707  0.00  0.00    +0.292 HD
ENDBRANCH   5   8
BRANCH   7  10
ATOM     10  O   UNL     1      33.903 -15.919 -26.183  0.00  0.00    -0.503 OA
ATOM     11  H   UNL     1      33.461 -16.400 -26.856  0.00  0.00    +0.292 HD
ENDBRANCH   7  10
ENDBRANCH   1   2
BRANCH   1  12
ATOM     12  O   UNL     1      35.773 -17.737 -20.464  0.00  0.00    -0.382 OA
ATOM     13  H   UNL     1      35.894 -16.826 -20.775  0.00  0.00    +0.211 HD
ENDBRANCH   1  12
BRANCH   1  14
ATOM     14  C   UNL     1      34.906 -19.888 -21.269  0.00  0.00    -0.030 C 
BRANCH  14  15
ATOM     15  N   UNL     1      35.057 -20.235 -19.850  0.00  0.00    +0.388 N 
ATOM     16  H   UNL     1      34.145 -20.193 -19.395  0.00  0.00    -0.084 HD
ATOM     17  H   UNL     1      35.699 -19.571 -19.415  0.00  0.00    -0.084 HD
BRANCH  15  18
ATOM     18  C   UNL     1      35.600 -21.575 -19.708  0.00  0.00    -0.062 C 
ATOM     19  C   UNL     1      34.487 -22.563 -19.368  0.00  0.00    -0.023 C 
ATOM     20  C   UNL     1      36.680 -21.574 -18.631  0.00  0.00    -0.023 C 
ENDBRANCH  15  18
ENDBRANCH  14  15
BRANCH  14  21
ATOM     21  C   UNL     1      33.409 -19.729 -21.601  0.00  0.00    -0.019 C 
ATOM     22  C   UNL     1      32.515 -19.750 -20.365  0.00  0.00    -0.002 C 
ENDBRANCH  14  21
ENDBRANCH   1  14
TORSDOF 8
ENDMDL
MODEL 4
REMARK VINA RESULT:      -7.2      2.910      5.945
REMARK  Name = 3762
REMARK  8 active torsions:
REMARK  status: ('A' for Active; 'I' for Inactive)
REMARK    1  A    between atoms: C_1  and  C_2
REMARK    2  A    between atoms: C_1  and  O_12
REMARK    3  A    between atoms: C_1  and  C_14
REMARK    4  A    between atoms: C_5  and  O_8
REMARK    5  A    between atoms: C_7  and  O_10
REMARK    6  A    between atoms: C_14  and  N_15
REMARK    7  A    between atoms: C_14  and  C_21
REMARK    8  A    between atoms: N_15  and  C_18
REMARK                            x       y       z     vdW  Elec       q    Type
REMARK                         _______ _______ _______ _____ _____    ______ ____
ROOT
ATOM      1  C   UNL     1      35.056 -16.646 -21.479  0.00  0.00    +0.114 C 
ENDROOT
BRANCH   1   2
ATOM      2  C   UNL     1      34.104 -15.489 -21.722  0.00  0.00    +0.005 C 
ATOM      3  C   UNL     1      34.167 -14.810 -22.924  0.00  0.00    +0.038 C 
ATOM      4  C   UNL     1      33.202 -15.144 -20.734  0.00  0.00    +0.001 C 
ATOM      5  C   UNL     1      33.293 -13.746 -23.146  0.00  0.00    +0.167 C 
ATOM      6  C   UNL     1      32.328 -14.079 -20.957  0.00  0.00    +0.040 C 
ATOM      7  C   UNL     1      32.374 -13.380 -22.164  0.00  0.00    +0.167 C 
BRANCH   5   8
ATOM      8  O   UNL     1      33.350 -13.069 -24.327  0.00  0.00    -0.503 OA
ATOM      9  H   UNL     1      32.562 -12.752 -24.725  0.00  0.00    +0.292 HD
ENDBRANCH   5   8
BRANCH   7  10
ATOM     10  O   UNL     1      31.515 -12.343 -22.368  0.00  0.00    -0.503 OA
ATOM     11  H   UNL     1      30.664 -12.503 -22.728  0.00  0.00    +0.292 HD
ENDBRANCH   7  10
ENDBRANCH   1   2
BRANCH   1  12
ATOM     12  O   UNL     1      35.350 -16.763 -20.088  0.00  0.00    -0.382 OA
ATOM     13  H   UNL     1      36.142 -17.312 -19.970  0.00  0.00    +0.211 HD
ENDBRANCH   1  12
BRANCH   1  14
ATOM     14  C   UNL     1      34.519 -17.984 -22.049  0.00  0.00    -0.030 C 
BRANCH  14  15
ATOM     15  N   UNL     1      35.323 -18.378 -23.213  0.00  0.00    +0.388 N 
ATOM     16  H   UNL     1      35.867 -19.209 -22.980  0.00  0.00    -0.084 HD
ATOM     17  H   UNL     1      35.946 -17.608 -23.460  0.00  0.00    -0.084 HD
BRANCH  15  18
ATOM     18  C   UNL     1      34.467 -18.670 -24.349  0.00  0.00    -0.062 C 
ATOM     19  C   UNL     1      34.869 -19.998 -24.986  0.00  0.00    -0.023 C 
ATOM     20  C   UNL     1      34.553 -17.530 -25.358  0.00  0.00    -0.023 C 
ENDBRANCH  15  18
ENDBRANCH  14  15
BRANCH  14  21
ATOM     21  C   UNL     1      34.515 -19.130 -21.018  0.00  0.00    -0.019 C 
ATOM     22  C   UNL     1      33.131 -19.726 -20.787  0.00  0.00    -0.002 C 
ENDBRANCH  14  21
ENDBRANCH   1  14
TORSDOF 8
ENDMDL
MODEL 5
REMARK VINA RESULT:      -7.0      2.270      3.704
REMARK  Name = 3762
REMARK  8 active torsions:
REMARK  status: ('A' for Active; 'I' for Inactive)
REMARK    1  A    between atoms: C_1  and  C_2
REMARK    2  A    between atoms: C_1  and  O_12
REMARK    3  A    between atoms: C_1  and  C_14
REMARK    4  A    between atoms: C_5  and  O_8
REMARK    5  A    between atoms: C_7  and  O_10
REMARK    6  A    between atoms: C_14  and  N_15
REMARK    7  A    between atoms: C_14  and  C_21
REMARK    8  A    between atoms: N_15  and  C_18
REMARK                            x       y       z     vdW  Elec       q    Type
REMARK                         _______ _______ _______ _____ _____    ______ ____
ROOT
ATOM      1  C   UNL     1      34.713 -16.043 -24.851  0.00  0.00    +0.114 C 
ENDROOT
BRANCH   1   2
ATOM      2  C   UNL     1      34.837 -16.968 -23.653  0.00  0.00    +0.005 C 
ATOM      3  C   UNL     1      35.018 -16.418 -22.398  0.00  0.00    +0.038 C 
ATOM      4  C   UNL     1      34.768 -18.334 -23.849  0.00  0.00    +0.001 C 
ATOM      5  C   UNL     1      35.133 -17.267 -21.297  0.00  0.00    +0.167 C 
ATOM      6  C   UNL     1      34.883 -19.183 -22.748  0.00  0.00    +0.040 C 
ATOM      7  C   UNL     1      35.066 -18.649 -21.471  0.00  0.00    +0.167 C 
BRANCH   5   8
ATOM      8  O   UNL     1      35.314 -16.734 -20.056  0.00  0.00    -0.503 OA
ATOM      9  H   UNL     1      35.183 -15.817 -19.916  0.00  0.00    +0.292 HD
ENDBRANCH   5   8
BRANCH   7  10
ATOM     10  O   UNL     1      35.177 -19.489 -20.405  0.00  0.00    -0.503 OA
ATOM     11  H   UNL     1      34.420 -19.695 -19.890  0.00  0.00    +0.292 HD
ENDBRANCH   7  10
ENDBRANCH   1   2
BRANCH   1  12
ATOM     12  O   UNL     1      34.759 -16.795 -26.063  0.00  0.00    -0.382 OA
ATOM     13  H   UNL     1      34.383 -16.266 -26.785  0.00  0.00    +0.211 HD
ENDBRANCH   1  12
BRANCH   1  14
ATOM     14  C   UNL     1      33.440 -15.162 -24.789  0.00  0.00    -0.030 C 
BRANCH  14  15
ATOM     15  N   UNL     1      33.762 -13.883 -24.142  0.00  0.00    +0.388 N 
ATOM     16  H   UNL     1      34.017 -13.201 -24.856  0.00  0.00    -0.084 HD
ATOM     17  H   UNL     1      34.540 -14.025 -23.497  0.00  0.00    -0.084 HD
BRANCH  15  18
ATOM     18  C   UNL     1      32.618 -13.387 -23.396  0.00  0.00    -0.062 C 
ATOM     19  C   UNL     1      32.769 -11.892 -23.130  0.00  0.00    -0.023 C 
ATOM     20  C   UNL     1      32.487 -14.165 -22.091  0.00  0.00    -0.023 C 
ENDBRANCH  15  18
ENDBRANCH  14  15
BRANCH  14  21
ATOM     21  C   UNL     1      32.815 -14.893 -26.172  0.00  0.00    -0.019 C 
ATOM     22  C   UNL     1      33.352 -13.631 -26.838  0.00  0.00    -0.002 C 
ENDBRANCH  14  21
ENDBRANCH   1  14
TORSDOF 8
ENDMDL
MODEL 6
REMARK VINA RESULT:      -7.0      8.216     10.194
REMARK  Name = 3762
REMARK  8 active torsions:
REMARK  status: ('A' for Active; 'I' for Inactive)
REMARK    1  A    between atoms: C_1  and  C_2
REMARK    2  A    between atoms: C_1  and  O_12
REMARK    3  A    between atoms: C_1  and  C_14
REMARK    4  A    between atoms: C_5  and  O_8
REMARK    5  A    between atoms: C_7  and  O_10
REMARK    6  A    between atoms: C_14  and  N_15
REMARK    7  A    between atoms: C_14  and  C_21
REMARK    8  A    between atoms: N_15  and  C_18
REMARK                            x       y       z     vdW  Elec       q    Type
REMARK                         _______ _______ _______ _____ _____    ______ ____
ROOT
ATOM      1  C   UNL     1      34.437 -24.406 -13.138  0.00  0.00    +0.114 C 
ENDROOT
BRANCH   1   2
ATOM      2  C   UNL     1      35.753 -24.857 -13.747  0.00  0.00    +0.005 C 
ATOM      3  C   UNL     1      35.741 -25.852 -14.706  0.00  0.00    +0.038 C 
ATOM      4  C   UNL     1      36.927 -24.263 -13.324  0.00  0.00    +0.001 C 
ATOM      5  C   UNL     1      36.951 -26.268 -15.264  0.00  0.00    +0.167 C 
ATOM      6  C   UNL     1      38.135 -24.680 -13.882  0.00  0.00    +0.040 C 
ATOM      7  C   UNL     1      38.147 -25.682 -14.853  0.00  0.00    +0.167 C 
BRANCH   5   8
ATOM      8  O   UNL     1      36.949 -27.250 -16.209  0.00  0.00    -0.503 OA
ATOM      9  H   UNL     1      36.416 -27.163 -16.975  0.00  0.00    +0.292 HD
ENDBRANCH   5   8
BRANCH   7  10
ATOM     10  O   UNL     1      39.334 -26.079 -15.390  0.00  0.00    -0.503 OA
ATOM     11  H   UNL     1      39.615 -26.969 -15.298  0.00  0.00    +0.292 HD
ENDBRANCH   7  10
ENDBRANCH   1   2
BRANCH   1  12
ATOM     12  O   UNL     1      34.671 -23.448 -12.107  0.00  0.00    -0.382 OA
ATOM     13  H   UNL     1      33.822 -23.164 -11.732  0.00  0.00    +0.211 HD
ENDBRANCH   1  12
BRANCH   1  14
ATOM     14  C   UNL     1      33.453 -23.853 -14.201  0.00  0.00    -0.030 C 
BRANCH  14  15
ATOM     15  N   UNL     1      32.430 -23.034 -13.538  0.00  0.00    +0.388 N 
ATOM     16  H   UNL     1      32.455 -22.089 -13.922  0.00  0.00    -0.084 HD
ATOM     17  H   UNL     1      32.621 -23.012 -12.536  0.00  0.00    -0.084 HD
BRANCH  15  18
ATOM     18  C   UNL     1      31.109 -23.600 -13.751  0.00  0.00    -0.062 C 
ATOM     19  C   UNL     1      31.216 -25.087 -14.076  0.00  0.00    -0.023 C 
ATOM     20  C   UNL     1      30.406 -22.843 -14.873  0.00  0.00    -0.023 C 
ENDBRANCH  15  18
ENDBRANCH  14  15
BRANCH  14  21
ATOM     21  C   UNL     1      34.144 -23.020 -15.298  0.00  0.00    -0.019 C 
ATOM     22  C   UNL     1      33.653 -23.352 -16.703  0.00  0.00    -0.002 C 
ENDBRANCH  14  21
ENDBRANCH   1  14
TORSDOF 8
ENDMDL
MODEL 7
REMARK VINA RESULT:      -6.9      1.173      2.000
REMARK  Name = 3762
REMARK  8 active torsions:
REMARK  status: ('A' for Active; 'I' for Inactive)
REMARK    1  A    between atoms: C_1  and  C_2
REMARK    2  A    between atoms: C_1  and  O_12
REMARK    3  A    between atoms: C_1  and  C_14
REMARK    4  A    between atoms: C_5  and  O_8
REMARK    5  A    between atoms: C_7  and  O_10
REMARK    6  A    between atoms: C_14  and  N_15
REMARK    7  A    between atoms: C_14  and  C_21
REMARK    8  A    between atoms: N_15  and  C_18
REMARK                            x       y       z     vdW  Elec       q    Type
REMARK                         _______ _______ _______ _____ _____    ______ ____
ROOT
ATOM      1  C   UNL     1      35.628 -18.291 -22.418  0.00  0.00    +0.114 C 
ENDROOT
BRANCH   1   2
ATOM      2  C   UNL     1      34.893 -19.255 -21.505  0.00  0.00    +0.005 C 
ATOM      3  C   UNL     1      35.624 -20.069 -20.661  0.00  0.00    +0.038 C 
ATOM      4  C   UNL     1      33.512 -19.295 -21.543  0.00  0.00    +0.001 C 
ATOM      5  C   UNL     1      34.948 -20.956 -19.822  0.00  0.00    +0.167 C 
ATOM      6  C   UNL     1      32.837 -20.182 -20.705  0.00  0.00    +0.040 C 
ATOM      7  C   UNL     1      33.555 -21.013 -19.844  0.00  0.00    +0.167 C 
BRANCH   5   8
ATOM      8  O   UNL     1      35.661 -21.764 -18.989  0.00  0.00    -0.503 OA
ATOM      9  H   UNL     1      35.247 -22.498 -18.579  0.00  0.00    +0.292 HD
ENDBRANCH   5   8
BRANCH   7  10
ATOM     10  O   UNL     1      32.884 -21.875 -19.031  0.00  0.00    -0.503 OA
ATOM     11  H   UNL     1      32.958 -21.794 -18.099  0.00  0.00    +0.292 HD
ENDBRANCH   7  10
ENDBRANCH   1   2
BRANCH   1  12
ATOM     12  O   UNL     1      35.455 -18.670 -23.782  0.00  0.00    -0.382 OA
ATOM     13  H   UNL     1      34.507 -18.719 -23.986  0.00  0.00    +0.211 HD
ENDBRANCH   1  12
BRANCH   1  14
ATOM     14  C   UNL     1      35.201 -16.818 -22.191  0.00  0.00    -0.030 C 
BRANCH  14  15
ATOM     15  N   UNL     1      34.046 -16.508 -23.042  0.00  0.00    +0.388 N 
ATOM     16  H   UNL     1      33.298 -16.119 -22.467  0.00  0.00    -0.084 HD
ATOM     17  H   UNL     1      33.730 -17.365 -23.497  0.00  0.00    -0.084 HD
BRANCH  15  18
ATOM     18  C   UNL     1      34.411 -15.542 -24.065  0.00  0.00    -0.062 C 
ATOM     19  C   UNL     1      33.860 -14.164 -23.712  0.00  0.00    -0.023 C 
ATOM     20  C   UNL     1      33.887 -16.012 -25.418  0.00  0.00    -0.023 C 
ENDBRANCH  15  18
ENDBRANCH  14  15
BRANCH  14  21
ATOM     21  C   UNL     1      34.854 -16.502 -20.722  0.00  0.00    -0.019 C 
ATOM     22  C   UNL     1      33.560 -15.709 -20.569  0.00  0.00    -0.002 C 
ENDBRANCH  14  21
ENDBRANCH   1  14
TORSDOF 8
ENDMDL
MODEL 8
REMARK VINA RESULT:      -6.9      1.470      2.755
REMARK  Name = 3762
REMARK  8 active torsions:
REMARK  status: ('A' for Active; 'I' for Inactive)
REMARK    1  A    between atoms: C_1  and  C_2
REMARK    2  A    between atoms: C_1  and  O_12
REMARK    3  A    between atoms: C_1  and  C_14
REMARK    4  A    between atoms: C_5  and  O_8
REMARK    5  A    between atoms: C_7  and  O_10
REMARK    6  A    between atoms: C_14  and  N_15
REMARK    7  A    between atoms: C_14  and  C_21
REMARK    8  A    between atoms: N_15  and  C_18
REMARK                            x       y       z     vdW  Elec       q    Type
REMARK                         _______ _______ _______ _____ _____    ______ ____
ROOT
ATOM      1  C   UNL     1      35.321 -17.240 -23.015  0.00  0.00    +0.114 C 
ENDROOT
BRANCH   1   2
ATOM      2  C   UNL     1      35.202 -18.381 -22.021  0.00  0.00    +0.005 C 
ATOM      3  C   UNL     1      33.963 -18.952 -21.800  0.00  0.00    +0.038 C 
ATOM      4  C   UNL     1      36.336 -18.818 -21.362  0.00  0.00    +0.001 C 
ATOM      5  C   UNL     1      33.853 -20.000 -20.886  0.00  0.00    +0.167 C 
ATOM      6  C   UNL     1      36.225 -19.866 -20.447  0.00  0.00    +0.040 C 
ATOM      7  C   UNL     1      34.984 -20.457 -20.210  0.00  0.00    +0.167 C 
BRANCH   5   8
ATOM      8  O   UNL     1      32.635 -20.567 -20.660  0.00  0.00    -0.503 OA
ATOM      9  H   UNL     1      32.280 -21.177 -21.277  0.00  0.00    +0.292 HD
ENDBRANCH   5   8
BRANCH   7  10
ATOM     10  O   UNL     1      34.890 -21.479 -19.314  0.00  0.00    -0.503 OA
ATOM     11  H   UNL     1      34.604 -22.326 -19.598  0.00  0.00    +0.292 HD
ENDBRANCH   7  10
ENDBRANCH   1   2
BRANCH   1  12
ATOM     12  O   UNL     1      34.629 -17.560 -24.222  0.00  0.00    -0.382 OA
ATOM     13  H   UNL     1      35.270 -17.667 -24.942  0.00  0.00    +0.211 HD
ENDBRANCH   1  12
BRANCH   1  14
ATOM     14  C   UNL     1      34.827 -15.892 -22.430  0.00  0.00    -0.030 C 
BRANCH  14  15
ATOM     15  N   UNL     1      33.604 -15.476 -23.129  0.00  0.00    +0.388 N 
ATOM     16  H   UNL     1      32.906 -15.190 -22.442  0.00  0.00    -0.084 HD
ATOM     17  H   UNL     1      33.255 -16.260 -23.680  0.00  0.00    -0.084 HD
BRANCH  15  18
ATOM     18  C   UNL     1      33.881 -14.363 -24.020  0.00  0.00    -0.062 C 
ATOM     19  C   UNL     1      33.487 -13.045 -23.358  0.00  0.00    -0.023 C 
ATOM     20  C   UNL     1      33.129 -14.563 -25.332  0.00  0.00    -0.023 C 
ENDBRANCH  15  18
ENDBRANCH  14  15
BRANCH  14  21
ATOM     21  C   UNL     1      34.557 -15.946 -20.914  0.00  0.00    -0.019 C 
ATOM     22  C   UNL     1      33.195 -15.380 -20.526  0.00  0.00    -0.002 C 
ENDBRANCH  14  21
ENDBRANCH   1  14
TORSDOF 8
ENDMDL
MODEL 9
REMARK VINA RESULT:      -6.8      7.316      9.590
REMARK  Name = 3762
REMARK  8 active torsions:
REMARK  status: ('A' for Active; 'I' for Inactive)
REMARK    1  A    between atoms: C_1  and  C_2
REMARK    2  A    between atoms: C_1  and  O_12
REMARK    3  A    between atoms: C_1  and  C_14
REMARK    4  A    between atoms: C_5  and  O_8
REMARK    5  A    between atoms: C_7  and  O_10
REMARK    6  A    between atoms: C_14  and  N_15
REMARK    7  A    between atoms: C_14  and  C_21
REMARK    8  A    between atoms: N_15  and  C_18
REMARK                            x       y       z     vdW  Elec       q    Type
REMARK                         _______ _______ _______ _____ _____    ______ ____
ROOT
ATOM      1  C   UNL     1      35.334 -24.386 -14.885  0.00  0.00    +0.114 C 
ENDROOT
BRANCH   1   2
ATOM      2  C   UNL     1      34.012 -23.891 -15.440  0.00  0.00    +0.005 C 
ATOM      3  C   UNL     1      33.960 -23.438 -16.745  0.00  0.00    +0.038 C 
ATOM      4  C   UNL     1      32.895 -23.903 -14.626  0.00  0.00    +0.001 C 
ATOM      5  C   UNL     1      32.744 -22.981 -17.255  0.00  0.00    +0.167 C 
ATOM      6  C   UNL     1      31.680 -23.446 -15.137  0.00  0.00    +0.040 C 
ATOM      7  C   UNL     1      31.605 -22.985 -16.452  0.00  0.00    +0.167 C 
BRANCH   5   8
ATOM      8  O   UNL     1      32.684 -22.531 -18.539  0.00  0.00    -0.503 OA
ATOM      9  H   UNL     1      33.322 -22.813 -19.166  0.00  0.00    +0.292 HD
ENDBRANCH   5   8
BRANCH   7  10
ATOM     10  O   UNL     1      30.412 -22.541 -16.938  0.00  0.00    -0.503 OA
ATOM     11  H   UNL     1      29.983 -23.012 -17.626  0.00  0.00    +0.292 HD
ENDBRANCH   7  10
ENDBRANCH   1   2
BRANCH   1  12
ATOM     12  O   UNL     1      35.939 -25.306 -15.793  0.00  0.00    -0.382 OA
ATOM     13  H   UNL     1      36.569 -24.834 -16.360  0.00  0.00    +0.211 HD
ENDBRANCH   1  12
BRANCH   1  14
ATOM     14  C   UNL     1      36.303 -23.227 -14.539  0.00  0.00    -0.030 C 
BRANCH  14  15
ATOM     15  N   UNL     1      36.905 -23.469 -13.222  0.00  0.00    +0.388 N 
ATOM     16  H   UNL     1      36.720 -22.670 -12.616  0.00  0.00    -0.084 HD
ATOM     17  H   UNL     1      37.911 -23.598 -13.337  0.00  0.00    -0.084 HD
BRANCH  15  18
ATOM     18  C   UNL     1      36.346 -24.667 -12.619  0.00  0.00    -0.062 C 
ATOM     19  C   UNL     1      35.691 -24.329 -11.282  0.00  0.00    -0.023 C 
ATOM     20  C   UNL     1      37.446 -25.708 -12.442  0.00  0.00    -0.023 C 
ENDBRANCH  15  18
ENDBRANCH  14  15
BRANCH  14  21
ATOM     21  C   UNL     1      37.419 -23.031 -15.584  0.00  0.00    -0.019 C 
ATOM     22  C   UNL     1      37.223 -21.789 -16.447  0.00  0.00    -0.002 C 
ENDBRANCH  14  21
ENDBRANCH   1  14
TORSDOF 8
ENDMDL
