MODEL 1
REMARK VINA RESULT:      -8.4      0.000      0.000
REMARK  Name = 3652
REMARK  10 active torsions:
REMARK  status: ('A' for Active; 'I' for Inactive)
REMARK    1  A    between atoms: N_1  and  C_5
REMARK    2  A    between atoms: N_1  and  C_14
REMARK    3  A    between atoms: C_14  and  C_16
REMARK    4  A    between atoms: C_16  and  C_17
REMARK    5  A    between atoms: C_17  and  C_18
REMARK    6  A    between atoms: C_18  and  N_19
REMARK    7  A    between atoms: N_19  and  C_21
REMARK    8  A    between atoms: N_19  and  C_23
REMARK    9  A    between atoms: C_23  and  C_24
REMARK   10  A    between atoms: C_24  and  O_25
REMARK                            x       y       z     vdW  Elec       q    Type
REMARK                         _______ _______ _______ _____ _____    ______ ____
ROOT
ATOM      1  N   UNL     1      31.562 -12.484 -21.968  0.00  0.00    -0.334 N 
ATOM      2  H   UNL     1      30.690 -12.658 -22.391  0.00  0.00    +0.147 HD
ENDROOT
BRANCH   1   5
ATOM      3 CL   UNL     1      32.227  -5.857 -23.252  0.00  0.00    -0.087 Cl
ATOM      4  N   UNL     1      31.918  -9.169 -19.419  0.00  0.00    -0.248 NA
ATOM      5  C   UNL     1      31.681 -11.375 -21.151  0.00  0.00    +0.044 C 
ATOM      6  C   UNL     1      31.811 -10.056 -21.658  0.00  0.00    +0.009 C 
ATOM      7  C   UNL     1      31.673 -11.546 -19.759  0.00  0.00    +0.035 C 
ATOM      8  C   UNL     1      31.928  -8.980 -20.752  0.00  0.00    +0.062 C 
ATOM      9  C   UNL     1      31.825  -9.822 -23.043  0.00  0.00    +0.055 C 
ATOM     10  C   UNL     1      31.794 -10.433 -18.953  0.00  0.00    +0.100 C 
ATOM     11  C   UNL     1      32.054  -7.696 -21.275  0.00  0.00    +0.083 C 
ATOM     12  C   UNL     1      31.953  -8.527 -23.538  0.00  0.00    -0.014 C 
ATOM     13  C   UNL     1      32.068  -7.463 -22.652  0.00  0.00    +0.037 C 
ENDBRANCH   1   5
BRANCH   1  14
ATOM     14  C   UNL     1      32.650 -13.401 -22.237  0.00  0.00    +0.069 C 
ATOM     15  C   UNL     1      32.816 -13.530 -23.748  0.00  0.00    +0.021 C 
BRANCH  14  16
ATOM     16  C   UNL     1      32.363 -14.767 -21.598  0.00  0.00    +0.017 C 
BRANCH  16  17
ATOM     17  C   UNL     1      33.414 -15.158 -20.550  0.00  0.00    -0.021 C 
BRANCH  17  18
ATOM     18  C   UNL     1      34.744 -15.517 -21.214  0.00  0.00    -0.077 C 
BRANCH  18  19
ATOM     19  N   UNL     1      34.576 -16.664 -22.099  0.00  0.00    +0.389 N 
ATOM     20  H   UNL     1      33.578 -16.801 -22.256  0.00  0.00    -0.080 HD
BRANCH  19  21
ATOM     21  C   UNL     1      35.122 -17.874 -21.483  0.00  0.00    -0.077 C 
ATOM     22  C   UNL     1      34.026 -18.887 -21.200  0.00  0.00    -0.025 C 
ENDBRANCH  19  21
BRANCH  19  23
ATOM     23  C   UNL     1      35.220 -16.417 -23.391  0.00  0.00    -0.045 C 
BRANCH  23  24
ATOM     24  C   UNL     1      34.586 -17.269 -24.478  0.00  0.00    +0.115 C 
BRANCH  24  25
ATOM     25  O   UNL     1      34.786 -16.632 -25.732  0.00  0.00    -0.384 OA
ATOM     26  H   UNL     1      34.388 -17.170 -26.436  0.00  0.00    +0.210 HD
ENDBRANCH  24  25
ENDBRANCH  23  24
ENDBRANCH  19  23
ENDBRANCH  18  19
ENDBRANCH  17  18
ENDBRANCH  16  17
ENDBRANCH  14  16
ENDBRANCH   1  14
TORSDOF 10
ENDMDL
MODEL 2
REMARK VINA RESULT:      -8.3      4.576      7.357
REMARK  Name = 3652
REMARK  10 active torsions:
REMARK  status: ('A' for Active; 'I' for Inactive)
REMARK    1  A    between atoms: N_1  and  C_5
REMARK    2  A    between atoms: N_1  and  C_14
REMARK    3  A    between atoms: C_14  and  C_16
REMARK    4  A    between atoms: C_16  and  C_17
REMARK    5  A    between atoms: C_17  and  C_18
REMARK    6  A    between atoms: C_18  and  N_19
REMARK    7  A    between atoms: N_19  and  C_21
REMARK    8  A    between atoms: N_19  and  C_23
REMARK    9  A    between atoms: C_23  and  C_24
REMARK   10  A    between atoms: C_24  and  O_25
REMARK                            x       y       z     vdW  Elec       q    Type
REMARK                         _______ _______ _______ _____ _____    ______ ____
ROOT
ATOM      1  N   UNL     1      35.623 -17.697 -21.823  0.00  0.00    -0.334 N 
ATOM      2  H   UNL     1      36.301 -17.260 -21.259  0.00  0.00    +0.147 HD
ENDROOT
BRANCH   1   5
ATOM      3 CL   UNL     1      31.589 -12.268 -21.323  0.00  0.00    -0.087 Cl
ATOM      4  N   UNL     1      33.645 -15.411 -24.734  0.00  0.00    -0.248 NA
ATOM      5  C   UNL     1      34.960 -16.927 -22.762  0.00  0.00    +0.044 C 
ATOM      6  C   UNL     1      34.154 -15.813 -22.413  0.00  0.00    +0.009 C 
ATOM      7  C   UNL     1      35.082 -17.251 -24.121  0.00  0.00    +0.035 C 
ATOM      8  C   UNL     1      33.513 -15.082 -23.436  0.00  0.00    +0.062 C 
ATOM      9  C   UNL     1      33.996 -15.440 -21.068  0.00  0.00    +0.055 C 
ATOM     10  C   UNL     1      34.416 -16.477 -25.050  0.00  0.00    +0.100 C 
ATOM     11  C   UNL     1      32.728 -13.992 -23.067  0.00  0.00    +0.083 C 
ATOM     12  C   UNL     1      33.204 -14.347 -20.728  0.00  0.00    -0.014 C 
ATOM     13  C   UNL     1      32.570 -13.622 -21.729  0.00  0.00    +0.037 C 
ENDBRANCH   1   5
BRANCH   1  14
ATOM     14  C   UNL     1      35.372 -19.109 -21.623  0.00  0.00    +0.069 C 
ATOM     15  C   UNL     1      33.949 -19.282 -21.102  0.00  0.00    +0.021 C 
BRANCH  14  16
ATOM     16  C   UNL     1      36.393 -19.696 -20.639  0.00  0.00    +0.017 C 
BRANCH  16  17
ATOM     17  C   UNL     1      35.992 -21.090 -20.138  0.00  0.00    -0.021 C 
BRANCH  17  18
ATOM     18  C   UNL     1      36.450 -21.308 -18.696  0.00  0.00    -0.077 C 
BRANCH  18  19
ATOM     19  N   UNL     1      35.716 -22.414 -18.092  0.00  0.00    +0.389 N 
ATOM     20  H   UNL     1      36.099 -23.286 -18.455  0.00  0.00    -0.080 HD
BRANCH  19  21
ATOM     21  C   UNL     1      34.297 -22.345 -18.447  0.00  0.00    -0.077 C 
ATOM     22  C   UNL     1      33.447 -23.124 -17.457  0.00  0.00    -0.025 C 
ENDBRANCH  19  21
BRANCH  19  23
ATOM     23  C   UNL     1      35.875 -22.405 -16.636  0.00  0.00    -0.045 C 
BRANCH  23  24
ATOM     24  C   UNL     1      37.290 -22.003 -16.254  0.00  0.00    +0.115 C 
BRANCH  24  25
ATOM     25  O   UNL     1      38.080 -23.177 -16.127  0.00  0.00    -0.384 OA
ATOM     26  H   UNL     1      38.957 -23.020 -16.511  0.00  0.00    +0.210 HD
ENDBRANCH  24  25
ENDBRANCH  23  24
ENDBRANCH  19  23
ENDBRANCH  18  19
ENDBRANCH  17  18
ENDBRANCH  16  17
ENDBRANCH  14  16
ENDBRANCH   1  14
TORSDOF 10
ENDMDL
MODEL 3
REMARK VINA RESULT:      -8.3      4.325      7.285
REMARK  Name = 3652
REMARK  10 active torsions:
REMARK  status: ('A' for Active; 'I' for Inactive)
REMARK    1  A    between atoms: N_1  and  C_5
REMARK    2  A    between atoms: N_1  and  C_14
REMARK    3  A    between atoms: C_14  and  C_16
REMARK    4  A    between atoms: C_16  and  C_17
REMARK    5  A    between atoms: C_17  and  C_18
REMARK    6  A    between atoms: C_18  and  N_19
REMARK    7  A    between atoms: N_19  and  C_21
REMARK    8  A    between atoms: N_19  and  C_23
REMARK    9  A    between atoms: C_23  and  C_24
REMARK   10  A    between atoms: C_24  and  O_25
REMARK                            x       y       z     vdW  Elec       q    Type
REMARK                         _______ _______ _______ _____ _____    ______ ____
ROOT
ATOM      1  N   UNL     1      34.944 -17.998 -21.097  0.00  0.00    -0.334 N 
ATOM      2  H   UNL     1      35.156 -17.585 -20.228  0.00  0.00    +0.147 HD
ENDROOT
BRANCH   1   5
ATOM      3 CL   UNL     1      31.593 -12.115 -21.498  0.00  0.00    -0.087 Cl
ATOM      4  N   UNL     1      34.028 -15.523 -24.361  0.00  0.00    -0.248 NA
ATOM      5  C   UNL     1      34.629 -17.165 -22.155  0.00  0.00    +0.044 C 
ATOM      6  C   UNL     1      33.902 -15.957 -21.993  0.00  0.00    +0.009 C 
ATOM      7  C   UNL     1      35.040 -17.516 -23.449  0.00  0.00    +0.035 C 
ATOM      8  C   UNL     1      33.623 -15.166 -23.128  0.00  0.00    +0.062 C 
ATOM      9  C   UNL     1      33.465 -15.552 -20.721  0.00  0.00    +0.055 C 
ATOM     10  C   UNL     1      34.719 -16.678 -24.497  0.00  0.00    +0.100 C 
ATOM     11  C   UNL     1      32.908 -13.985 -22.942  0.00  0.00    +0.083 C 
ATOM     12  C   UNL     1      32.751 -14.367 -20.565  0.00  0.00    -0.014 C 
ATOM     13  C   UNL     1      32.473 -13.582 -21.677  0.00  0.00    +0.037 C 
ENDBRANCH   1   5
BRANCH   1  14
ATOM     14  C   UNL     1      34.976 -19.442 -21.196  0.00  0.00    +0.069 C 
ATOM     15  C   UNL     1      33.677 -19.999 -20.623  0.00  0.00    +0.021 C 
BRANCH  14  16
ATOM     16  C   UNL     1      36.191 -19.999 -20.442  0.00  0.00    +0.017 C 
BRANCH  16  17
ATOM     17  C   UNL     1      35.967 -21.433 -19.944  0.00  0.00    -0.021 C 
BRANCH  17  18
ATOM     18  C   UNL     1      36.518 -21.616 -18.530  0.00  0.00    -0.077 C 
BRANCH  18  19
ATOM     19  N   UNL     1      35.452 -22.009 -17.617  0.00  0.00    +0.389 N 
ATOM     20  H   UNL     1      34.993 -21.163 -17.280  0.00  0.00    -0.080 HD
BRANCH  19  21
ATOM     21  C   UNL     1      35.997 -22.734 -16.468  0.00  0.00    -0.077 C 
ATOM     22  C   UNL     1      37.398 -22.252 -16.132  0.00  0.00    -0.025 C 
ENDBRANCH  19  21
BRANCH  19  23
ATOM     23  C   UNL     1      34.457 -22.832 -18.310  0.00  0.00    -0.045 C 
BRANCH  23  24
ATOM     24  C   UNL     1      33.232 -23.044 -17.435  0.00  0.00    +0.115 C 
BRANCH  24  25
ATOM     25  O   UNL     1      32.116 -22.417 -18.051  0.00  0.00    -0.384 OA
ATOM     26  H   UNL     1      32.257 -21.457 -18.075  0.00  0.00    +0.210 HD
ENDBRANCH  24  25
ENDBRANCH  23  24
ENDBRANCH  19  23
ENDBRANCH  18  19
ENDBRANCH  17  18
ENDBRANCH  16  17
ENDBRANCH  14  16
ENDBRANCH   1  14
TORSDOF 10
ENDMDL
MODEL 4
REMARK VINA RESULT:      -8.2      6.433     11.217
REMARK  Name = 3652
REMARK  10 active torsions:
REMARK  status: ('A' for Active; 'I' for Inactive)
REMARK    1  A    between atoms: N_1  and  C_5
REMARK    2  A    between atoms: N_1  and  C_14
REMARK    3  A    between atoms: C_14  and  C_16
REMARK    4  A    between atoms: C_16  and  C_17
REMARK    5  A    between atoms: C_17  and  C_18
REMARK    6  A    between atoms: C_18  and  N_19
REMARK    7  A    between atoms: N_19  and  C_21
REMARK    8  A    between atoms: N_19  and  C_23
REMARK    9  A    between atoms: C_23  and  C_24
REMARK   10  A    between atoms: C_24  and  O_25
REMARK                            x       y       z     vdW  Elec       q    Type
REMARK                         _______ _______ _______ _____ _____    ______ ____
ROOT
ATOM      1  N   UNL     1      34.942 -21.852 -19.539  0.00  0.00    -0.334 N 
ATOM      2  H   UNL     1      34.856 -22.606 -20.167  0.00  0.00    +0.147 HD
ENDROOT
BRANCH   1   5
ATOM      3 CL   UNL     1      31.846 -24.342 -14.041  0.00  0.00    -0.087 Cl
ATOM      4  N   UNL     1      36.343 -22.637 -15.661  0.00  0.00    -0.248 NA
ATOM      5  C   UNL     1      35.378 -22.120 -18.254  0.00  0.00    +0.044 C 
ATOM      6  C   UNL     1      34.529 -22.652 -17.248  0.00  0.00    +0.009 C 
ATOM      7  C   UNL     1      36.714 -21.860 -17.916  0.00  0.00    +0.035 C 
ATOM      8  C   UNL     1      35.056 -22.894 -15.962  0.00  0.00    +0.062 C 
ATOM      9  C   UNL     1      33.182 -22.934 -17.528  0.00  0.00    +0.055 C 
ATOM     10  C   UNL     1      37.138 -22.130 -16.631  0.00  0.00    +0.100 C 
ATOM     11  C   UNL     1      34.203 -23.417 -14.993  0.00  0.00    +0.083 C 
ATOM     12  C   UNL     1      32.351 -23.455 -16.540  0.00  0.00    -0.014 C 
ATOM     13  C   UNL     1      32.863 -23.697 -15.271  0.00  0.00    +0.037 C 
ENDBRANCH   1   5
BRANCH   1  14
ATOM     14  C   UNL     1      34.603 -20.526 -20.010  0.00  0.00    +0.069 C 
ATOM     15  C   UNL     1      33.108 -20.482 -20.307  0.00  0.00    +0.021 C 
BRANCH  14  16
ATOM     16  C   UNL     1      35.422 -20.182 -21.261  0.00  0.00    +0.017 C 
BRANCH  16  17
ATOM     17  C   UNL     1      35.989 -18.756 -21.219  0.00  0.00    -0.021 C 
BRANCH  17  18
ATOM     18  C   UNL     1      35.829 -18.062 -22.572  0.00  0.00    -0.077 C 
BRANCH  18  19
ATOM     19  N   UNL     1      35.352 -16.696 -22.387  0.00  0.00    +0.389 N 
ATOM     20  H   UNL     1      36.162 -16.085 -22.296  0.00  0.00    -0.080 HD
BRANCH  19  21
ATOM     21  C   UNL     1      34.549 -16.591 -21.168  0.00  0.00    -0.077 C 
ATOM     22  C   UNL     1      34.446 -15.148 -20.702  0.00  0.00    -0.025 C 
ENDBRANCH  19  21
BRANCH  19  23
ATOM     23  C   UNL     1      34.570 -16.262 -23.547  0.00  0.00    -0.045 C 
BRANCH  23  24
ATOM     24  C   UNL     1      34.676 -17.276 -24.676  0.00  0.00    +0.115 C 
BRANCH  24  25
ATOM     25  O   UNL     1      34.682 -16.580 -25.915  0.00  0.00    -0.384 OA
ATOM     26  H   UNL     1      33.959 -16.908 -26.473  0.00  0.00    +0.210 HD
ENDBRANCH  24  25
ENDBRANCH  23  24
ENDBRANCH  19  23
ENDBRANCH  18  19
ENDBRANCH  17  18
ENDBRANCH  16  17
ENDBRANCH  14  16
ENDBRANCH   1  14
TORSDOF 10
ENDMDL
MODEL 5
REMARK VINA RESULT:      -8.2      3.965      6.144
REMARK  Name = 3652
REMARK  10 active torsions:
REMARK  status: ('A' for Active; 'I' for Inactive)
REMARK    1  A    between atoms: N_1  and  C_5
REMARK    2  A    between atoms: N_1  and  C_14
REMARK    3  A    between atoms: C_14  and  C_16
REMARK    4  A    between atoms: C_16  and  C_17
REMARK    5  A    between atoms: C_17  and  C_18
REMARK    6  A    between atoms: C_18  and  N_19
REMARK    7  A    between atoms: N_19  and  C_21
REMARK    8  A    between atoms: N_19  and  C_23
REMARK    9  A    between atoms: C_23  and  C_24
REMARK   10  A    between atoms: C_24  and  O_25
REMARK                            x       y       z     vdW  Elec       q    Type
REMARK                         _______ _______ _______ _____ _____    ______ ____
ROOT
ATOM      1  N   UNL     1      34.562 -17.259 -22.868  0.00  0.00    -0.334 N 
ATOM      2  H   UNL     1      34.292 -17.463 -21.942  0.00  0.00    +0.147 HD
ENDROOT
BRANCH   1   5
ATOM      3 CL   UNL     1      31.497 -11.706 -20.465  0.00  0.00    -0.087 Cl
ATOM      4  N   UNL     1      32.888 -13.935 -24.806  0.00  0.00    -0.248 NA
ATOM      5  C   UNL     1      34.003 -16.153 -23.481  0.00  0.00    +0.044 C 
ATOM      6  C   UNL     1      33.404 -15.091 -22.756  0.00  0.00    +0.009 C 
ATOM      7  C   UNL     1      34.023 -16.064 -24.881  0.00  0.00    +0.035 C 
ATOM      8  C   UNL     1      32.857 -13.999 -23.462  0.00  0.00    +0.062 C 
ATOM      9  C   UNL     1      33.356 -15.124 -21.352  0.00  0.00    +0.055 C 
ATOM     10  C   UNL     1      33.461 -14.956 -25.483  0.00  0.00    +0.100 C 
ATOM     11  C   UNL     1      32.276 -12.969 -22.727  0.00  0.00    +0.083 C 
ATOM     12  C   UNL     1      32.768 -14.081 -20.642  0.00  0.00    -0.014 C 
ATOM     13  C   UNL     1      32.227 -13.002 -21.331  0.00  0.00    +0.037 C 
ENDBRANCH   1   5
BRANCH   1  14
ATOM     14  C   UNL     1      35.518 -18.135 -23.511  0.00  0.00    +0.069 C 
ATOM     15  C   UNL     1      34.776 -19.353 -24.053  0.00  0.00    +0.021 C 
BRANCH  14  16
ATOM     16  C   UNL     1      36.608 -18.555 -22.515  0.00  0.00    +0.017 C 
BRANCH  16  17
ATOM     17  C   UNL     1      36.096 -18.603 -21.070  0.00  0.00    -0.021 C 
BRANCH  17  18
ATOM     18  C   UNL     1      36.454 -19.932 -20.404  0.00  0.00    -0.077 C 
BRANCH  18  19
ATOM     19  N   UNL     1      35.335 -20.862 -20.496  0.00  0.00    +0.389 N 
ATOM     20  H   UNL     1      35.425 -21.385 -21.367  0.00  0.00    -0.080 HD
BRANCH  19  21
ATOM     21  C   UNL     1      34.063 -20.138 -20.518  0.00  0.00    -0.077 C 
ATOM     22  C   UNL     1      32.995 -20.883 -19.735  0.00  0.00    -0.025 C 
ENDBRANCH  19  21
BRANCH  19  23
ATOM     23  C   UNL     1      35.359 -21.810 -19.380  0.00  0.00    -0.045 C 
BRANCH  23  24
ATOM     24  C   UNL     1      36.545 -21.535 -18.468  0.00  0.00    +0.115 C 
BRANCH  24  25
ATOM     25  O   UNL     1      36.441 -22.367 -17.321  0.00  0.00    -0.384 OA
ATOM     26  H   UNL     1      35.555 -22.762 -17.287  0.00  0.00    +0.210 HD
ENDBRANCH  24  25
ENDBRANCH  23  24
ENDBRANCH  19  23
ENDBRANCH  18  19
ENDBRANCH  17  18
ENDBRANCH  16  17
ENDBRANCH  14  16
ENDBRANCH   1  14
TORSDOF 10
ENDMDL
MODEL 6
REMARK VINA RESULT:      -8.2      4.864      7.913
REMARK  Name = 3652
REMARK  10 active torsions:
REMARK  status: ('A' for Active; 'I' for Inactive)
REMARK    1  A    between atoms: N_1  and  C_5
REMARK    2  A    between atoms: N_1  and  C_14
REMARK    3  A    between atoms: C_14  and  C_16
REMARK    4  A    between atoms: C_16  and  C_17
REMARK    5  A    between atoms: C_17  and  C_18
REMARK    6  A    between atoms: C_18  and  N_19
REMARK    7  A    between atoms: N_19  and  C_21
REMARK    8  A    between atoms: N_19  and  C_23
REMARK    9  A    between atoms: C_23  and  C_24
REMARK   10  A    between atoms: C_24  and  O_25
REMARK                            x       y       z     vdW  Elec       q    Type
REMARK                         _______ _______ _______ _____ _____    ______ ____
ROOT
ATOM      1  N   UNL     1      34.852 -18.548 -21.104  0.00  0.00    -0.334 N 
ATOM      2  H   UNL     1      35.385 -18.229 -20.340  0.00  0.00    +0.147 HD
ENDROOT
BRANCH   1   5
ATOM      3 CL   UNL     1      31.872 -12.478 -21.638  0.00  0.00    -0.087 Cl
ATOM      4  N   UNL     1      34.297 -15.989 -24.384  0.00  0.00    -0.248 NA
ATOM      5  C   UNL     1      34.656 -17.686 -22.168  0.00  0.00    +0.044 C 
ATOM      6  C   UNL     1      33.989 -16.440 -22.037  0.00  0.00    +0.009 C 
ATOM      7  C   UNL     1      35.132 -18.047 -23.438  0.00  0.00    +0.035 C 
ATOM      8  C   UNL     1      33.832 -15.623 -23.176  0.00  0.00    +0.062 C 
ATOM      9  C   UNL     1      33.492 -16.026 -20.790  0.00  0.00    +0.055 C 
ATOM     10  C   UNL     1      34.929 -17.180 -24.492  0.00  0.00    +0.100 C 
ATOM     11  C   UNL     1      33.174 -14.405 -23.021  0.00  0.00    +0.083 C 
ATOM     12  C   UNL     1      32.837 -14.803 -20.664  0.00  0.00    -0.014 C 
ATOM     13  C   UNL     1      32.679 -13.992 -21.781  0.00  0.00    +0.037 C 
ENDBRANCH   1   5
BRANCH   1  14
ATOM     14  C   UNL     1      34.315 -19.891 -21.052  0.00  0.00    +0.069 C 
ATOM     15  C   UNL     1      32.865 -19.819 -20.584  0.00  0.00    +0.021 C 
BRANCH  14  16
ATOM     16  C   UNL     1      35.154 -20.762 -20.106  0.00  0.00    +0.017 C 
BRANCH  16  17
ATOM     17  C   UNL     1      34.344 -21.911 -19.491  0.00  0.00    -0.021 C 
BRANCH  17  18
ATOM     18  C   UNL     1      34.909 -22.314 -18.129  0.00  0.00    -0.077 C 
BRANCH  18  19
ATOM     19  N   UNL     1      34.023 -23.269 -17.475  0.00  0.00    +0.389 N 
ATOM     20  H   UNL     1      34.073 -24.151 -17.984  0.00  0.00    -0.080 HD
BRANCH  19  21
ATOM     21  C   UNL     1      32.640 -22.792 -17.504  0.00  0.00    -0.077 C 
ATOM     22  C   UNL     1      31.879 -23.243 -16.268  0.00  0.00    -0.025 C 
ENDBRANCH  19  21
BRANCH  19  23
ATOM     23  C   UNL     1      34.449 -23.505 -16.093  0.00  0.00    -0.045 C 
BRANCH  23  24
ATOM     24  C   UNL     1      35.874 -23.021 -15.881  0.00  0.00    +0.115 C 
BRANCH  24  25
ATOM     25  O   UNL     1      36.722 -24.150 -15.722  0.00  0.00    -0.384 OA
ATOM     26  H   UNL     1      36.907 -24.540 -16.591  0.00  0.00    +0.210 HD
ENDBRANCH  24  25
ENDBRANCH  23  24
ENDBRANCH  19  23
ENDBRANCH  18  19
ENDBRANCH  17  18
ENDBRANCH  16  17
ENDBRANCH  14  16
ENDBRANCH   1  14
TORSDOF 10
ENDMDL
MODEL 7
REMARK VINA RESULT:      -8.1      5.643      8.662
REMARK  Name = 3652
REMARK  10 active torsions:
REMARK  status: ('A' for Active; 'I' for Inactive)
REMARK    1  A    between atoms: N_1  and  C_5
REMARK    2  A    between atoms: N_1  and  C_14
REMARK    3  A    between atoms: C_14  and  C_16
REMARK    4  A    between atoms: C_16  and  C_17
REMARK    5  A    between atoms: C_17  and  C_18
REMARK    6  A    between atoms: C_18  and  N_19
REMARK    7  A    between atoms: N_19  and  C_21
REMARK    8  A    between atoms: N_19  and  C_23
REMARK    9  A    between atoms: C_23  and  C_24
REMARK   10  A    between atoms: C_24  and  O_25
REMARK                            x       y       z     vdW  Elec       q    Type
REMARK                         _______ _______ _______ _____ _____    ______ ____
ROOT
ATOM      1  N   UNL     1      35.418 -18.844 -21.158  0.00  0.00    -0.334 N 
ATOM      2  H   UNL     1      35.752 -18.203 -20.489  0.00  0.00    +0.147 HD
ENDROOT
BRANCH   1   5
ATOM      3 CL   UNL     1      33.668 -12.681 -23.384  0.00  0.00    -0.087 Cl
ATOM      4  N   UNL     1      34.330 -17.457 -24.966  0.00  0.00    -0.248 NA
ATOM      5  C   UNL     1      35.056 -18.361 -22.402  0.00  0.00    +0.044 C 
ATOM      6  C   UNL     1      34.725 -17.001 -22.633  0.00  0.00    +0.009 C 
ATOM      7  C   UNL     1      35.012 -19.243 -23.492  0.00  0.00    +0.035 C 
ATOM      8  C   UNL     1      34.366 -16.593 -23.935  0.00  0.00    +0.062 C 
ATOM      9  C   UNL     1      34.753 -16.072 -21.579  0.00  0.00    +0.055 C 
ATOM     10  C   UNL     1      34.648 -18.750 -24.729  0.00  0.00    +0.100 C 
ATOM     11  C   UNL     1      34.045 -15.252 -24.135  0.00  0.00    +0.083 C 
ATOM     12  C   UNL     1      34.427 -14.738 -21.808  0.00  0.00    -0.014 C 
ATOM     13  C   UNL     1      34.073 -14.328 -23.088  0.00  0.00    +0.037 C 
ENDBRANCH   1   5
BRANCH   1  14
ATOM     14  C   UNL     1      35.330 -20.240 -20.783  0.00  0.00    +0.069 C 
ATOM     15  C   UNL     1      33.959 -20.493 -20.164  0.00  0.00    +0.021 C 
BRANCH  14  16
ATOM     16  C   UNL     1      36.451 -20.598 -19.799  0.00  0.00    +0.017 C 
BRANCH  16  17
ATOM     17  C   UNL     1      36.046 -21.713 -18.825  0.00  0.00    -0.021 C 
BRANCH  17  18
ATOM     18  C   UNL     1      36.728 -21.533 -17.469  0.00  0.00    -0.077 C 
BRANCH  18  19
ATOM     19  N   UNL     1      36.531 -22.718 -16.642  0.00  0.00    +0.389 N 
ATOM     20  H   UNL     1      36.396 -23.518 -17.259  0.00  0.00    -0.080 HD
BRANCH  19  21
ATOM     21  C   UNL     1      35.341 -22.569 -15.803  0.00  0.00    -0.077 C 
ATOM     22  C   UNL     1      34.167 -23.346 -16.376  0.00  0.00    -0.025 C 
ENDBRANCH  19  21
BRANCH  19  23
ATOM     23  C   UNL     1      37.710 -22.966 -15.809  0.00  0.00    -0.045 C 
BRANCH  23  24
ATOM     24  C   UNL     1      37.375 -23.924 -14.676  0.00  0.00    +0.115 C 
BRANCH  24  25
ATOM     25  O   UNL     1      38.010 -23.467 -13.490  0.00  0.00    -0.384 OA
ATOM     26  H   UNL     1      38.613 -24.152 -13.161  0.00  0.00    +0.210 HD
ENDBRANCH  24  25
ENDBRANCH  23  24
ENDBRANCH  19  23
ENDBRANCH  18  19
ENDBRANCH  17  18
ENDBRANCH  16  17
ENDBRANCH  14  16
ENDBRANCH   1  14
TORSDOF 10
ENDMDL
MODEL 8
REMARK VINA RESULT:      -8.0      5.142      9.506
REMARK  Name = 3652
REMARK  10 active torsions:
REMARK  status: ('A' for Active; 'I' for Inactive)
REMARK    1  A    between atoms: N_1  and  C_5
REMARK    2  A    between atoms: N_1  and  C_14
REMARK    3  A    between atoms: C_14  and  C_16
REMARK    4  A    between atoms: C_16  and  C_17
REMARK    5  A    between atoms: C_17  and  C_18
REMARK    6  A    between atoms: C_18  and  N_19
REMARK    7  A    between atoms: N_19  and  C_21
REMARK    8  A    between atoms: N_19  and  C_23
REMARK    9  A    between atoms: C_23  and  C_24
REMARK   10  A    between atoms: C_24  and  O_25
REMARK                            x       y       z     vdW  Elec       q    Type
REMARK                         _______ _______ _______ _____ _____    ______ ____
ROOT
ATOM      1  N   UNL     1      34.302 -17.833 -21.893  0.00  0.00    -0.334 N 
ATOM      2  H   UNL     1      33.618 -18.161 -22.521  0.00  0.00    +0.147 HD
ENDROOT
BRANCH   1   5
ATOM      3 CL   UNL     1      33.263 -23.355 -18.095  0.00  0.00    -0.087 Cl
ATOM      4  N   UNL     1      36.967 -20.591 -20.188  0.00  0.00    -0.248 NA
ATOM      5  C   UNL     1      35.159 -18.756 -21.320  0.00  0.00    +0.044 C 
ATOM      6  C   UNL     1      34.701 -19.855 -20.549  0.00  0.00    +0.009 C 
ATOM      7  C   UNL     1      36.542 -18.611 -21.502  0.00  0.00    +0.035 C 
ATOM      8  C   UNL     1      35.644 -20.749 -20.000  0.00  0.00    +0.062 C 
ATOM      9  C   UNL     1      33.327 -20.052 -20.334  0.00  0.00    +0.055 C 
ATOM     10  C   UNL     1      37.387 -19.537 -20.925  0.00  0.00    +0.100 C 
ATOM     11  C   UNL     1      35.169 -21.821 -19.247  0.00  0.00    +0.083 C 
ATOM     12  C   UNL     1      32.880 -21.132 -19.576  0.00  0.00    -0.014 C 
ATOM     13  C   UNL     1      33.803 -22.017 -19.033  0.00  0.00    +0.037 C 
ENDBRANCH   1   5
BRANCH   1  14
ATOM     14  C   UNL     1      34.356 -16.412 -21.619  0.00  0.00    +0.069 C 
ATOM     15  C   UNL     1      33.015 -15.978 -21.036  0.00  0.00    +0.021 C 
BRANCH  14  16
ATOM     16  C   UNL     1      34.674 -15.635 -22.903  0.00  0.00    +0.017 C 
BRANCH  16  17
ATOM     17  C   UNL     1      33.465 -14.851 -23.431  0.00  0.00    -0.021 C 
BRANCH  17  18
ATOM     18  C   UNL     1      33.785 -13.361 -23.548  0.00  0.00    -0.077 C 
BRANCH  18  19
ATOM     19  N   UNL     1      33.233 -12.819 -24.784  0.00  0.00    +0.389 N 
ATOM     20  H   UNL     1      32.295 -12.471 -24.588  0.00  0.00    -0.080 HD
BRANCH  19  21
ATOM     21  C   UNL     1      33.139 -13.862 -25.807  0.00  0.00    -0.077 C 
ATOM     22  C   UNL     1      33.382 -13.291 -27.194  0.00  0.00    -0.025 C 
ENDBRANCH  19  21
BRANCH  19  23
ATOM     23  C   UNL     1      34.051 -11.705 -25.269  0.00  0.00    -0.045 C 
BRANCH  23  24
ATOM     24  C   UNL     1      34.096 -10.585 -24.242  0.00  0.00    +0.115 C 
BRANCH  24  25
ATOM     25  O   UNL     1      35.420 -10.072 -24.184  0.00  0.00    -0.384 OA
ATOM     26  H   UNL     1      35.401  -9.164 -23.842  0.00  0.00    +0.210 HD
ENDBRANCH  24  25
ENDBRANCH  23  24
ENDBRANCH  19  23
ENDBRANCH  18  19
ENDBRANCH  17  18
ENDBRANCH  16  17
ENDBRANCH  14  16
ENDBRANCH   1  14
TORSDOF 10
ENDMDL
MODEL 9
REMARK VINA RESULT:      -8.0      4.826      9.342
REMARK  Name = 3652
REMARK  10 active torsions:
REMARK  status: ('A' for Active; 'I' for Inactive)
REMARK    1  A    between atoms: N_1  and  C_5
REMARK    2  A    between atoms: N_1  and  C_14
REMARK    3  A    between atoms: C_14  and  C_16
REMARK    4  A    between atoms: C_16  and  C_17
REMARK    5  A    between atoms: C_17  and  C_18
REMARK    6  A    between atoms: C_18  and  N_19
REMARK    7  A    between atoms: N_19  and  C_21
REMARK    8  A    between atoms: N_19  and  C_23
REMARK    9  A    between atoms: C_23  and  C_24
REMARK   10  A    between atoms: C_24  and  O_25
REMARK                            x       y       z     vdW  Elec       q    Type
REMARK                         _______ _______ _______ _____ _____    ______ ____
ROOT
ATOM      1  N   UNL     1      34.206 -18.081 -22.367  0.00  0.00    -0.334 N 
ATOM      2  H   UNL     1      33.545 -17.516 -21.904  0.00  0.00    +0.147 HD
ENDROOT
BRANCH   1   5
ATOM      3 CL   UNL     1      33.332 -23.222 -18.031  0.00  0.00    -0.087 Cl
ATOM      4  N   UNL     1      36.936 -20.284 -20.063  0.00  0.00    -0.248 NA
ATOM      5  C   UNL     1      35.084 -18.822 -21.597  0.00  0.00    +0.044 C 
ATOM      6  C   UNL     1      34.661 -19.875 -20.745  0.00  0.00    +0.009 C 
ATOM      7  C   UNL     1      36.455 -18.532 -21.653  0.00  0.00    +0.035 C 
ATOM      8  C   UNL     1      35.625 -20.580 -19.993  0.00  0.00    +0.062 C 
ATOM      9  C   UNL     1      33.300 -20.211 -20.649  0.00  0.00    +0.055 C 
ATOM     10  C   UNL     1      37.322 -19.277 -20.879  0.00  0.00    +0.100 C 
ATOM     11  C   UNL     1      35.183 -21.608 -19.165  0.00  0.00    +0.083 C 
ATOM     12  C   UNL     1      32.887 -21.244 -19.812  0.00  0.00    -0.014 C 
ATOM     13  C   UNL     1      33.830 -21.943 -19.069  0.00  0.00    +0.037 C 
ENDBRANCH   1   5
BRANCH   1  14
ATOM     14  C   UNL     1      34.207 -18.089 -23.815  0.00  0.00    +0.069 C 
ATOM     15  C   UNL     1      34.918 -19.349 -24.295  0.00  0.00    +0.021 C 
BRANCH  14  16
ATOM     16  C   UNL     1      34.899 -16.829 -24.352  0.00  0.00    +0.017 C 
BRANCH  16  17
ATOM     17  C   UNL     1      33.925 -15.658 -24.543  0.00  0.00    -0.021 C 
BRANCH  17  18
ATOM     18  C   UNL     1      34.123 -14.598 -23.460  0.00  0.00    -0.077 C 
BRANCH  18  19
ATOM     19  N   UNL     1      32.918 -14.472 -22.648  0.00  0.00    +0.389 N 
ATOM     20  H   UNL     1      32.266 -15.203 -22.931  0.00  0.00    -0.080 HD
BRANCH  19  21
ATOM     21  C   UNL     1      32.283 -13.172 -22.865  0.00  0.00    -0.077 C 
ATOM     22  C   UNL     1      31.892 -12.525 -21.546  0.00  0.00    -0.025 C 
ENDBRANCH  19  21
BRANCH  19  23
ATOM     23  C   UNL     1      33.232 -14.653 -21.229  0.00  0.00    -0.045 C 
BRANCH  23  24
ATOM     24  C   UNL     1      34.712 -14.942 -21.039  0.00  0.00    +0.115 C 
BRANCH  24  25
ATOM     25  O   UNL     1      34.865 -15.839 -19.948  0.00  0.00    -0.384 OA
ATOM     26  H   UNL     1      35.764 -16.205 -19.953  0.00  0.00    +0.210 HD
ENDBRANCH  24  25
ENDBRANCH  23  24
ENDBRANCH  19  23
ENDBRANCH  18  19
ENDBRANCH  17  18
ENDBRANCH  16  17
ENDBRANCH  14  16
ENDBRANCH   1  14
TORSDOF 10
ENDMDL
