MODEL 1
REMARK VINA RESULT:     -10.6      0.000      0.000
REMARK  Name = 46937106
REMARK  6 active torsions:
REMARK  status: ('A' for Active; 'I' for Inactive)
REMARK    1  A    between atoms: C_1  and  S_13
REMARK    2  A    between atoms: C_2  and  C_7
REMARK    3  A    between atoms: S_13  and  N_16
REMARK    4  A    between atoms: N_16  and  C_18
REMARK    5  A    between atoms: C_18  and  C_20
REMARK    6  A    between atoms: C_20  and  N_22
REMARK                            x       y       z     vdW  Elec       q    Type
REMARK                         _______ _______ _______ _____ _____    ______ ____
ROOT
ATOM      1  C   UNL     1      34.038 -21.617 -19.423  0.00  0.00    +0.122 C 
ATOM      2  C   UNL     1      34.389 -19.426 -21.115  0.00  0.00    +0.000 C 
ATOM      3  C   UNL     1      35.321 -21.245 -19.828  0.00  0.00    +0.020 C 
ATOM      4  C   UNL     1      32.931 -20.893 -19.865  0.00  0.00    +0.020 C 
ATOM      5  C   UNL     1      35.495 -20.150 -20.673  0.00  0.00    +0.001 C 
ATOM      6  C   UNL     1      33.106 -19.798 -20.711  0.00  0.00    +0.001 C 
ENDROOT
BRANCH   2   7
ATOM      7  C   UNL     1      34.570 -18.290 -21.992  0.00  0.00    +0.000 C 
ATOM      8  C   UNL     1      34.763 -18.488 -23.359  0.00  0.00    +0.000 C 
ATOM      9  C   UNL     1      34.552 -16.997 -21.470  0.00  0.00    +0.000 C 
ATOM     10  C   UNL     1      34.938 -17.391 -24.204  0.00  0.00    +0.000 C 
ATOM     11  C   UNL     1      34.727 -15.901 -22.314  0.00  0.00    +0.000 C 
ATOM     12  C   UNL     1      34.919 -16.098 -23.682  0.00  0.00    +0.000 C 
ENDBRANCH   2   7
BRANCH   1  13
ATOM     13  S   UNL     1      33.820 -22.988 -18.364  0.00  0.00    +0.061 S 
ATOM     14  O   UNL     1      33.781 -24.202 -19.170  0.00  0.00    -0.153 OA
ATOM     15  O   UNL     1      34.794 -22.878 -17.287  0.00  0.00    -0.153 OA
BRANCH  13  16
ATOM     16  N   UNL     1      32.261 -22.709 -17.720  0.00  0.00    -0.170 NA
ATOM     17  H   UNL     1      31.593 -23.089 -18.388  0.00  0.00    +0.149 HD
BRANCH  16  18
ATOM     18  C   UNL     1      31.905 -23.256 -16.403  0.00  0.00    +0.180 C 
BRANCH  18  20
ATOM     19  O   UNL     1      30.055 -22.800 -14.917  0.00  0.00    -0.269 OA
ATOM     20  C   UNL     1      30.502 -22.833 -16.057  0.00  0.00    +0.288 C 
BRANCH  20  22
ATOM     21  O   UNL     1      28.472 -22.024 -16.646  0.00  0.00    -0.071 OA
ATOM     22  N   UNL     1      29.551 -22.421 -17.098  0.00  0.00    -0.027 NA
ENDBRANCH  20  22
ENDBRANCH  18  20
ENDBRANCH  16  18
ENDBRANCH  13  16
ENDBRANCH   1  13
TORSDOF 6
ENDMDL
MODEL 2
REMARK VINA RESULT:     -10.2      2.256      3.724
REMARK  Name = 46937106
REMARK  6 active torsions:
REMARK  status: ('A' for Active; 'I' for Inactive)
REMARK    1  A    between atoms: C_1  and  S_13
REMARK    2  A    between atoms: C_2  and  C_7
REMARK    3  A    between atoms: S_13  and  N_16
REMARK    4  A    between atoms: N_16  and  C_18
REMARK    5  A    between atoms: C_18  and  C_20
REMARK    6  A    between atoms: C_20  and  N_22
REMARK                            x       y       z     vdW  Elec       q    Type
REMARK                         _______ _______ _______ _____ _____    ______ ____
ROOT
ATOM      1  C   UNL     1      33.987 -21.608 -19.366  0.00  0.00    +0.122 C 
ATOM      2  C   UNL     1      34.377 -19.476 -21.124  0.00  0.00    +0.000 C 
ATOM      3  C   UNL     1      35.275 -21.286 -19.799  0.00  0.00    +0.020 C 
ATOM      4  C   UNL     1      32.895 -20.862 -19.812  0.00  0.00    +0.020 C 
ATOM      5  C   UNL     1      35.468 -20.221 -20.677  0.00  0.00    +0.001 C 
ATOM      6  C   UNL     1      33.090 -19.797 -20.690  0.00  0.00    +0.001 C 
ENDROOT
BRANCH   2   7
ATOM      7  C   UNL     1      34.580 -18.370 -22.034  0.00  0.00    +0.000 C 
ATOM      8  C   UNL     1      34.583 -17.062 -21.551  0.00  0.00    +0.000 C 
ATOM      9  C   UNL     1      34.772 -18.613 -23.394  0.00  0.00    +0.000 C 
ATOM     10  C   UNL     1      34.778 -15.995 -22.430  0.00  0.00    +0.000 C 
ATOM     11  C   UNL     1      34.966 -17.547 -24.272  0.00  0.00    +0.000 C 
ATOM     12  C   UNL     1      34.970 -16.238 -23.790  0.00  0.00    +0.000 C 
ENDBRANCH   2   7
BRANCH   1  13
ATOM     13  S   UNL     1      33.744 -22.941 -18.266  0.00  0.00    +0.061 S 
ATOM     14  O   UNL     1      32.582 -22.656 -17.433  0.00  0.00    -0.153 OA
ATOM     15  O   UNL     1      33.779 -24.172 -19.045  0.00  0.00    -0.153 OA
BRANCH  13  16
ATOM     16  N   UNL     1      35.146 -22.874 -17.290  0.00  0.00    -0.170 NA
ATOM     17  H   UNL     1      35.531 -21.936 -17.391  0.00  0.00    +0.149 HD
BRANCH  16  18
ATOM     18  C   UNL     1      35.048 -23.141 -15.849  0.00  0.00    +0.180 C 
BRANCH  18  20
ATOM     19  O   UNL     1      36.317 -25.139 -15.362  0.00  0.00    -0.269 OA
ATOM     20  C   UNL     1      36.262 -23.916 -15.408  0.00  0.00    +0.288 C 
BRANCH  20  22
ATOM     21  O   UNL     1      37.839 -22.334 -15.767  0.00  0.00    -0.071 OA
ATOM     22  N   UNL     1      37.493 -23.232 -14.993  0.00  0.00    -0.027 NA
ENDBRANCH  20  22
ENDBRANCH  18  20
ENDBRANCH  16  18
ENDBRANCH  13  16
ENDBRANCH   1  13
TORSDOF 6
ENDMDL
MODEL 3
REMARK VINA RESULT:      -9.9      4.400      5.628
REMARK  Name = 46937106
REMARK  6 active torsions:
REMARK  status: ('A' for Active; 'I' for Inactive)
REMARK    1  A    between atoms: C_1  and  S_13
REMARK    2  A    between atoms: C_2  and  C_7
REMARK    3  A    between atoms: S_13  and  N_16
REMARK    4  A    between atoms: N_16  and  C_18
REMARK    5  A    between atoms: C_18  and  C_20
REMARK    6  A    between atoms: C_20  and  N_22
REMARK                            x       y       z     vdW  Elec       q    Type
REMARK                         _______ _______ _______ _____ _____    ______ ____
ROOT
ATOM      1  C   UNL     1      36.372 -23.216 -16.014  0.00  0.00    +0.122 C 
ATOM      2  C   UNL     1      35.367 -21.841 -18.224  0.00  0.00    +0.000 C 
ATOM      3  C   UNL     1      37.202 -22.362 -16.741  0.00  0.00    +0.020 C 
ATOM      4  C   UNL     1      35.039 -23.382 -16.392  0.00  0.00    +0.020 C 
ATOM      5  C   UNL     1      36.699 -21.675 -17.846  0.00  0.00    +0.001 C 
ATOM      6  C   UNL     1      34.537 -22.695 -17.497  0.00  0.00    +0.001 C 
ENDROOT
BRANCH   2   7
ATOM      7  C   UNL     1      34.846 -21.128 -19.370  0.00  0.00    +0.000 C 
ATOM      8  C   UNL     1      35.721 -20.509 -20.263  0.00  0.00    +0.000 C 
ATOM      9  C   UNL     1      33.469 -21.059 -19.582  0.00  0.00    +0.000 C 
ATOM     10  C   UNL     1      35.218 -19.821 -21.367  0.00  0.00    +0.000 C 
ATOM     11  C   UNL     1      32.967 -20.372 -20.686  0.00  0.00    +0.000 C 
ATOM     12  C   UNL     1      33.841 -19.753 -21.579  0.00  0.00    +0.000 C 
ENDBRANCH   2   7
BRANCH   1  13
ATOM     13  S   UNL     1      37.000 -24.076 -14.630  0.00  0.00    +0.061 S 
ATOM     14  O   UNL     1      37.759 -25.228 -15.100  0.00  0.00    -0.153 OA
ATOM     15  O   UNL     1      37.645 -23.103 -13.758  0.00  0.00    -0.153 OA
BRANCH  13  16
ATOM     16  N   UNL     1      35.576 -24.633 -13.866  0.00  0.00    -0.170 NA
ATOM     17  H   UNL     1      35.686 -25.638 -13.734  0.00  0.00    +0.149 HD
BRANCH  16  18
ATOM     18  C   UNL     1      35.175 -24.074 -12.568  0.00  0.00    +0.180 C 
BRANCH  18  20
ATOM     19  O   UNL     1      36.504 -25.852 -11.612  0.00  0.00    -0.269 OA
ATOM     20  C   UNL     1      35.938 -24.774 -11.474  0.00  0.00    +0.288 C 
BRANCH  20  22
ATOM     21  O   UNL     1      35.241 -24.650  -9.325  0.00  0.00    -0.071 OA
ATOM     22  N   UNL     1      36.055 -24.189 -10.131  0.00  0.00    -0.027 NA
ENDBRANCH  20  22
ENDBRANCH  18  20
ENDBRANCH  16  18
ENDBRANCH  13  16
ENDBRANCH   1  13
TORSDOF 6
ENDMDL
MODEL 4
REMARK VINA RESULT:      -9.8      4.358      5.794
REMARK  Name = 46937106
REMARK  6 active torsions:
REMARK  status: ('A' for Active; 'I' for Inactive)
REMARK    1  A    between atoms: C_1  and  S_13
REMARK    2  A    between atoms: C_2  and  C_7
REMARK    3  A    between atoms: S_13  and  N_16
REMARK    4  A    between atoms: N_16  and  C_18
REMARK    5  A    between atoms: C_18  and  C_20
REMARK    6  A    between atoms: C_20  and  N_22
REMARK                            x       y       z     vdW  Elec       q    Type
REMARK                         _______ _______ _______ _____ _____    ______ ____
ROOT
ATOM      1  C   UNL     1      35.428 -23.478 -16.235  0.00  0.00    +0.122 C 
ATOM      2  C   UNL     1      34.870 -21.870 -18.446  0.00  0.00    +0.000 C 
ATOM      3  C   UNL     1      36.410 -22.628 -16.745  0.00  0.00    +0.020 C 
ATOM      4  C   UNL     1      34.167 -23.524 -16.830  0.00  0.00    +0.020 C 
ATOM      5  C   UNL     1      36.130 -21.824 -17.850  0.00  0.00    +0.001 C 
ATOM      6  C   UNL     1      33.888 -22.721 -17.935  0.00  0.00    +0.001 C 
ENDROOT
BRANCH   2   7
ATOM      7  C   UNL     1      34.580 -21.036 -19.592  0.00  0.00    +0.000 C 
ATOM      8  C   UNL     1      35.623 -20.545 -20.378  0.00  0.00    +0.000 C 
ATOM      9  C   UNL     1      33.259 -20.724 -19.911  0.00  0.00    +0.000 C 
ATOM     10  C   UNL     1      35.343 -19.740 -21.483  0.00  0.00    +0.000 C 
ATOM     11  C   UNL     1      32.980 -19.919 -21.015  0.00  0.00    +0.000 C 
ATOM     12  C   UNL     1      34.022 -19.428 -21.802  0.00  0.00    +0.000 C 
ENDBRANCH   2   7
BRANCH   1  13
ATOM     13  S   UNL     1      35.778 -24.484 -14.851  0.00  0.00    +0.061 S 
ATOM     14  O   UNL     1      34.855 -24.140 -13.777  0.00  0.00    -0.153 OA
ATOM     15  O   UNL     1      35.854 -25.864 -15.313  0.00  0.00    -0.153 OA
BRANCH  13  16
ATOM     16  N   UNL     1      37.347 -23.969 -14.410  0.00  0.00    -0.170 NA
ATOM     17  H   UNL     1      37.242 -23.069 -13.943  0.00  0.00    +0.149 HD
BRANCH  16  18
ATOM     18  C   UNL     1      38.173 -24.810 -13.533  0.00  0.00    +0.180 C 
BRANCH  18  20
ATOM     19  O   UNL     1      37.476 -24.899 -11.221  0.00  0.00    -0.269 OA
ATOM     20  C   UNL     1      38.062 -24.306 -12.119  0.00  0.00    +0.288 C 
BRANCH  20  22
ATOM     21  O   UNL     1      37.997 -22.045 -12.040  0.00  0.00    -0.071 OA
ATOM     22  N   UNL     1      38.668 -23.030 -11.714  0.00  0.00    -0.027 NA
ENDBRANCH  20  22
ENDBRANCH  18  20
ENDBRANCH  16  18
ENDBRANCH  13  16
ENDBRANCH   1  13
TORSDOF 6
ENDMDL
MODEL 5
REMARK VINA RESULT:      -9.8      1.158      2.001
REMARK  Name = 46937106
REMARK  6 active torsions:
REMARK  status: ('A' for Active; 'I' for Inactive)
REMARK    1  A    between atoms: C_1  and  S_13
REMARK    2  A    between atoms: C_2  and  C_7
REMARK    3  A    between atoms: S_13  and  N_16
REMARK    4  A    between atoms: N_16  and  C_18
REMARK    5  A    between atoms: C_18  and  C_20
REMARK    6  A    between atoms: C_20  and  N_22
REMARK                            x       y       z     vdW  Elec       q    Type
REMARK                         _______ _______ _______ _____ _____    ______ ____
ROOT
ATOM      1  C   UNL     1      34.078 -21.623 -19.346  0.00  0.00    +0.122 C 
ATOM      2  C   UNL     1      34.431 -19.522 -21.149  0.00  0.00    +0.000 C 
ATOM      3  C   UNL     1      35.361 -21.275 -19.771  0.00  0.00    +0.020 C 
ATOM      4  C   UNL     1      32.971 -20.919 -19.824  0.00  0.00    +0.020 C 
ATOM      5  C   UNL     1      35.536 -20.225 -20.671  0.00  0.00    +0.001 C 
ATOM      6  C   UNL     1      33.148 -19.870 -20.724  0.00  0.00    +0.001 C 
ENDROOT
BRANCH   2   7
ATOM      7  C   UNL     1      34.614 -18.432 -22.082  0.00  0.00    +0.000 C 
ATOM      8  C   UNL     1      34.634 -17.116 -21.621  0.00  0.00    +0.000 C 
ATOM      9  C   UNL     1      34.770 -18.697 -23.442  0.00  0.00    +0.000 C 
ATOM     10  C   UNL     1      34.810 -16.065 -22.522  0.00  0.00    +0.000 C 
ATOM     11  C   UNL     1      34.946 -17.647 -24.342  0.00  0.00    +0.000 C 
ATOM     12  C   UNL     1      34.967 -16.330 -23.882  0.00  0.00    +0.000 C 
ENDBRANCH   2   7
BRANCH   1  13
ATOM     13  S   UNL     1      33.858 -22.937 -18.219  0.00  0.00    +0.061 S 
ATOM     14  O   UNL     1      33.711 -24.178 -18.968  0.00  0.00    -0.153 OA
ATOM     15  O   UNL     1      34.900 -22.834 -17.206  0.00  0.00    -0.153 OA
BRANCH  13  16
ATOM     16  N   UNL     1      32.357 -22.554 -17.497  0.00  0.00    -0.170 NA
ATOM     17  H   UNL     1      31.711 -22.337 -18.255  0.00  0.00    +0.149 HD
BRANCH  16  18
ATOM     18  C   UNL     1      31.687 -23.537 -16.634  0.00  0.00    +0.180 C 
BRANCH  18  20
ATOM     19  O   UNL     1      31.247 -22.408 -14.543  0.00  0.00    -0.269 OA
ATOM     20  C   UNL     1      31.941 -23.181 -15.193  0.00  0.00    +0.288 C 
BRANCH  20  22
ATOM     21  O   UNL     1      32.832 -23.935 -13.254  0.00  0.00    -0.071 OA
ATOM     22  N   UNL     1      33.072 -23.757 -14.453  0.00  0.00    -0.027 NA
ENDBRANCH  20  22
ENDBRANCH  18  20
ENDBRANCH  16  18
ENDBRANCH  13  16
ENDBRANCH   1  13
TORSDOF 6
ENDMDL
MODEL 6
REMARK VINA RESULT:      -9.7      4.501      6.346
REMARK  Name = 46937106
REMARK  6 active torsions:
REMARK  status: ('A' for Active; 'I' for Inactive)
REMARK    1  A    between atoms: C_1  and  S_13
REMARK    2  A    between atoms: C_2  and  C_7
REMARK    3  A    between atoms: S_13  and  N_16
REMARK    4  A    between atoms: N_16  and  C_18
REMARK    5  A    between atoms: C_18  and  C_20
REMARK    6  A    between atoms: C_20  and  N_22
REMARK                            x       y       z     vdW  Elec       q    Type
REMARK                         _______ _______ _______ _____ _____    ______ ____
ROOT
ATOM      1  C   UNL     1      35.547 -23.327 -16.201  0.00  0.00    +0.122 C 
ATOM      2  C   UNL     1      34.953 -21.797 -18.458  0.00  0.00    +0.000 C 
ATOM      3  C   UNL     1      36.519 -22.492 -16.754  0.00  0.00    +0.020 C 
ATOM      4  C   UNL     1      34.278 -23.397 -16.778  0.00  0.00    +0.020 C 
ATOM      5  C   UNL     1      36.221 -21.728 -17.882  0.00  0.00    +0.001 C 
ATOM      6  C   UNL     1      33.981 -22.633 -17.905  0.00  0.00    +0.001 C 
ENDROOT
BRANCH   2   7
ATOM      7  C   UNL     1      34.645 -21.003 -19.628  0.00  0.00    +0.000 C 
ATOM      8  C   UNL     1      35.676 -20.519 -20.433  0.00  0.00    +0.000 C 
ATOM      9  C   UNL     1      33.318 -20.723 -19.950  0.00  0.00    +0.000 C 
ATOM     10  C   UNL     1      35.378 -19.754 -21.561  0.00  0.00    +0.000 C 
ATOM     11  C   UNL     1      33.020 -19.958 -21.077  0.00  0.00    +0.000 C 
ATOM     12  C   UNL     1      34.051 -19.473 -21.883  0.00  0.00    +0.000 C 
ENDBRANCH   2   7
BRANCH   1  13
ATOM     13  S   UNL     1      35.919 -24.284 -14.790  0.00  0.00    +0.061 S 
ATOM     14  O   UNL     1      36.569 -23.432 -13.803  0.00  0.00    -0.153 OA
ATOM     15  O   UNL     1      34.714 -25.015 -14.418  0.00  0.00    -0.153 OA
BRANCH  13  16
ATOM     16  N   UNL     1      37.067 -25.398 -15.392  0.00  0.00    -0.170 NA
ATOM     17  H   UNL     1      37.665 -24.885 -16.039  0.00  0.00    +0.149 HD
BRANCH  16  18
ATOM     18  C   UNL     1      37.956 -26.108 -14.463  0.00  0.00    +0.180 C 
BRANCH  18  20
ATOM     19  O   UNL     1      39.600 -24.474 -15.144  0.00  0.00    -0.269 OA
ATOM     20  C   UNL     1      39.336 -25.511 -14.548  0.00  0.00    +0.288 C 
BRANCH  20  22
ATOM     21  O   UNL     1      41.147 -26.862 -14.671  0.00  0.00    -0.071 OA
ATOM     22  N   UNL     1      40.487 -26.156 -13.902  0.00  0.00    -0.027 NA
ENDBRANCH  20  22
ENDBRANCH  18  20
ENDBRANCH  16  18
ENDBRANCH  13  16
ENDBRANCH   1  13
TORSDOF 6
ENDMDL
MODEL 7
REMARK VINA RESULT:      -9.2      4.306      5.779
REMARK  Name = 46937106
REMARK  6 active torsions:
REMARK  status: ('A' for Active; 'I' for Inactive)
REMARK    1  A    between atoms: C_1  and  S_13
REMARK    2  A    between atoms: C_2  and  C_7
REMARK    3  A    between atoms: S_13  and  N_16
REMARK    4  A    between atoms: N_16  and  C_18
REMARK    5  A    between atoms: C_18  and  C_20
REMARK    6  A    between atoms: C_20  and  N_22
REMARK                            x       y       z     vdW  Elec       q    Type
REMARK                         _______ _______ _______ _____ _____    ______ ____
ROOT
ATOM      1  C   UNL     1      36.433 -22.881 -16.317  0.00  0.00    +0.122 C 
ATOM      2  C   UNL     1      35.341 -21.580 -18.531  0.00  0.00    +0.000 C 
ATOM      3  C   UNL     1      37.219 -22.010 -17.073  0.00  0.00    +0.020 C 
ATOM      4  C   UNL     1      35.100 -23.101 -16.669  0.00  0.00    +0.020 C 
ATOM      5  C   UNL     1      36.673 -21.360 -18.179  0.00  0.00    +0.001 C 
ATOM      6  C   UNL     1      34.555 -22.451 -17.775  0.00  0.00    +0.001 C 
ENDROOT
BRANCH   2   7
ATOM      7  C   UNL     1      34.775 -20.904 -19.679  0.00  0.00    +0.000 C 
ATOM      8  C   UNL     1      33.391 -20.840 -19.836  0.00  0.00    +0.000 C 
ATOM      9  C   UNL     1      35.613 -20.317 -20.626  0.00  0.00    +0.000 C 
ATOM     10  C   UNL     1      32.845 -20.189 -20.943  0.00  0.00    +0.000 C 
ATOM     11  C   UNL     1      35.067 -19.667 -21.732  0.00  0.00    +0.000 C 
ATOM     12  C   UNL     1      33.683 -19.602 -21.890  0.00  0.00    +0.000 C 
ENDBRANCH   2   7
BRANCH   1  13
ATOM     13  S   UNL     1      37.116 -23.695 -14.932  0.00  0.00    +0.061 S 
ATOM     14  O   UNL     1      38.563 -23.759 -15.092  0.00  0.00    -0.153 OA
ATOM     15  O   UNL     1      36.556 -23.081 -13.735  0.00  0.00    -0.153 OA
BRANCH  13  16
ATOM     16  N   UNL     1      36.479 -25.274 -15.083  0.00  0.00    -0.170 NA
ATOM     17  H   UNL     1      36.159 -25.373 -16.046  0.00  0.00    +0.149 HD
BRANCH  16  18
ATOM     18  C   UNL     1      37.329 -26.437 -14.796  0.00  0.00    +0.180 C 
BRANCH  18  20
ATOM     19  O   UNL     1      39.005 -26.075 -13.093  0.00  0.00    -0.269 OA
ATOM     20  C   UNL     1      37.844 -26.335 -13.385  0.00  0.00    +0.288 C 
BRANCH  20  22
ATOM     21  O   UNL     1      36.449 -25.504 -11.808  0.00  0.00    -0.071 OA
ATOM     22  N   UNL     1      36.957 -26.547 -12.233  0.00  0.00    -0.027 NA
ENDBRANCH  20  22
ENDBRANCH  18  20
ENDBRANCH  16  18
ENDBRANCH  13  16
ENDBRANCH   1  13
TORSDOF 6
ENDMDL
MODEL 8
REMARK VINA RESULT:      -9.1      4.035      5.784
REMARK  Name = 46937106
REMARK  6 active torsions:
REMARK  status: ('A' for Active; 'I' for Inactive)
REMARK    1  A    between atoms: C_1  and  S_13
REMARK    2  A    between atoms: C_2  and  C_7
REMARK    3  A    between atoms: S_13  and  N_16
REMARK    4  A    between atoms: N_16  and  C_18
REMARK    5  A    between atoms: C_18  and  C_20
REMARK    6  A    between atoms: C_20  and  N_22
REMARK                            x       y       z     vdW  Elec       q    Type
REMARK                         _______ _______ _______ _____ _____    ______ ____
ROOT
ATOM      1  C   UNL     1      34.448 -17.041 -21.878  0.00  0.00    +0.122 C 
ATOM      2  C   UNL     1      33.167 -14.575 -21.613  0.00  0.00    +0.000 C 
ATOM      3  C   UNL     1      33.442 -16.875 -20.925  0.00  0.00    +0.020 C 
ATOM      4  C   UNL     1      34.814 -15.972 -22.698  0.00  0.00    +0.020 C 
ATOM      5  C   UNL     1      32.802 -15.643 -20.793  0.00  0.00    +0.001 C 
ATOM      6  C   UNL     1      34.174 -14.741 -22.566  0.00  0.00    +0.001 C 
ENDROOT
BRANCH   2   7
ATOM      7  C   UNL     1      32.503 -13.297 -21.476  0.00  0.00    +0.000 C 
ATOM      8  C   UNL     1      32.259 -12.515 -22.604  0.00  0.00    +0.000 C 
ATOM      9  C   UNL     1      32.106 -12.849 -20.216  0.00  0.00    +0.000 C 
ATOM     10  C   UNL     1      31.618 -11.282 -22.471  0.00  0.00    +0.000 C 
ATOM     11  C   UNL     1      31.465 -11.618 -20.084  0.00  0.00    +0.000 C 
ATOM     12  C   UNL     1      31.221 -10.834 -21.212  0.00  0.00    +0.000 C 
ENDBRANCH   2   7
BRANCH   1  13
ATOM     13  S   UNL     1      35.249 -18.583 -22.044  0.00  0.00    +0.061 S 
ATOM     14  O   UNL     1      34.506 -19.397 -22.996  0.00  0.00    -0.153 OA
ATOM     15  O   UNL     1      36.664 -18.326 -22.277  0.00  0.00    -0.153 OA
BRANCH  13  16
ATOM     16  N   UNL     1      35.068 -19.260 -20.485  0.00  0.00    -0.170 NA
ATOM     17  H   UNL     1      34.253 -18.817 -20.063  0.00  0.00    +0.149 HD
BRANCH  16  18
ATOM     18  C   UNL     1      34.889 -20.711 -20.334  0.00  0.00    +0.180 C 
BRANCH  18  20
ATOM     19  O   UNL     1      32.535 -20.220 -20.093  0.00  0.00    -0.269 OA
ATOM     20  C   UNL     1      33.470 -20.991 -19.913  0.00  0.00    +0.288 C 
BRANCH  20  22
ATOM     21  O   UNL     1      33.925 -23.154 -19.425  0.00  0.00    -0.071 OA
ATOM     22  N   UNL     1      33.108 -22.246 -19.240  0.00  0.00    -0.027 NA
ENDBRANCH  20  22
ENDBRANCH  18  20
ENDBRANCH  16  18
ENDBRANCH  13  16
ENDBRANCH   1  13
TORSDOF 6
ENDMDL
MODEL 9
REMARK VINA RESULT:      -9.1      7.715      9.716
REMARK  Name = 46937106
REMARK  6 active torsions:
REMARK  status: ('A' for Active; 'I' for Inactive)
REMARK    1  A    between atoms: C_1  and  S_13
REMARK    2  A    between atoms: C_2  and  C_7
REMARK    3  A    between atoms: S_13  and  N_16
REMARK    4  A    between atoms: N_16  and  C_18
REMARK    5  A    between atoms: C_18  and  C_20
REMARK    6  A    between atoms: C_20  and  N_22
REMARK                            x       y       z     vdW  Elec       q    Type
REMARK                         _______ _______ _______ _____ _____    ______ ____
ROOT
ATOM      1  C   UNL     1      33.474 -15.021 -23.097  0.00  0.00    +0.122 C 
ATOM      2  C   UNL     1      34.458 -17.334 -21.886  0.00  0.00    +0.000 C 
ATOM      3  C   UNL     1      34.247 -15.920 -23.833  0.00  0.00    +0.020 C 
ATOM      4  C   UNL     1      33.193 -15.280 -21.755  0.00  0.00    +0.020 C 
ATOM      5  C   UNL     1      34.738 -17.076 -23.227  0.00  0.00    +0.001 C 
ATOM      6  C   UNL     1      33.685 -16.435 -21.150  0.00  0.00    +0.001 C 
ENDROOT
BRANCH   2   7
ATOM      7  C   UNL     1      34.967 -18.535 -21.258  0.00  0.00    +0.000 C 
ATOM      8  C   UNL     1      34.084 -19.525 -20.829  0.00  0.00    +0.000 C 
ATOM      9  C   UNL     1      36.341 -18.701 -21.083  0.00  0.00    +0.000 C 
ATOM     10  C   UNL     1      34.576 -20.682 -20.223  0.00  0.00    +0.000 C 
ATOM     11  C   UNL     1      36.832 -19.857 -20.478  0.00  0.00    +0.000 C 
ATOM     12  C   UNL     1      35.949 -20.848 -20.048  0.00  0.00    +0.000 C 
ENDBRANCH   2   7
BRANCH   1  13
ATOM     13  S   UNL     1      32.859 -13.574 -23.855  0.00  0.00    +0.061 S 
ATOM     14  O   UNL     1      32.491 -13.885 -25.231  0.00  0.00    -0.153 OA
ATOM     15  O   UNL     1      31.862 -12.995 -22.964  0.00  0.00    -0.153 OA
BRANCH  13  16
ATOM     16  N   UNL     1      34.231 -12.556 -23.872  0.00  0.00    -0.170 NA
ATOM     17  H   UNL     1      35.043 -13.157 -24.005  0.00  0.00    +0.149 HD
BRANCH  16  18
ATOM     18  C   UNL     1      34.332 -11.479 -24.866  0.00  0.00    +0.180 C 
BRANCH  18  20
ATOM     19  O   UNL     1      35.185  -9.429 -23.913  0.00  0.00    -0.269 OA
ATOM     20  C   UNL     1      34.227 -10.150 -24.165  0.00  0.00    +0.288 C 
BRANCH  20  22
ATOM     21  O   UNL     1      32.651  -9.913 -22.559  0.00  0.00    -0.071 OA
ATOM     22  N   UNL     1      32.929  -9.620 -23.726  0.00  0.00    -0.027 NA
ENDBRANCH  20  22
ENDBRANCH  18  20
ENDBRANCH  16  18
ENDBRANCH  13  16
ENDBRANCH   1  13
TORSDOF 6
ENDMDL
