MODEL 1
REMARK VINA RESULT:      -8.7      0.000      0.000
REMARK  Name = 9419
REMARK  3 active torsions:
REMARK  status: ('A' for Active; 'I' for Inactive)
REMARK    1  A    between atoms: N_2  and  C_18
REMARK    2  A    between atoms: C_18  and  C_19
REMARK    3  A    between atoms: C_19  and  N_20
REMARK                            x       y       z     vdW  Elec       q    Type
REMARK                         _______ _______ _______ _____ _____    ______ ____
ROOT
ATOM      1  O   UNL     1      34.666 -24.157 -12.449  0.00  0.00    -0.270 OA
ATOM      2  N   UNL     1      33.910 -23.561 -14.564  0.00  0.00    -0.256 N 
ATOM      3  N   UNL     1      36.518 -22.744 -15.683  0.00  0.00    -0.284 N 
ATOM      4  C   UNL     1      34.111 -23.241 -15.955  0.00  0.00    +0.068 C 
ATOM      5  C   UNL     1      35.346 -22.789 -16.469  0.00  0.00    +0.065 C 
ATOM      6  C   UNL     1      36.988 -23.885 -15.012  0.00  0.00    +0.056 C 
ATOM      7  C   UNL     1      36.164 -24.587 -14.127  0.00  0.00    +0.067 C 
ATOM      8  C   UNL     1      34.867 -24.056 -13.663  0.00  0.00    +0.254 C 
ATOM      9  C   UNL     1      32.995 -23.275 -16.825  0.00  0.00    +0.016 C 
ATOM     10  C   UNL     1      35.401 -22.386 -17.827  0.00  0.00    +0.016 C 
ATOM     11  C   UNL     1      37.492 -21.685 -15.961  0.00  0.00    +0.117 C 
ATOM     12  C   UNL     1      38.281 -24.397 -15.247  0.00  0.00    +0.015 C 
ATOM     13  C   UNL     1      36.617 -25.768 -13.511  0.00  0.00    +0.006 C 
ATOM     14  C   UNL     1      33.081 -22.882 -18.160  0.00  0.00    +0.001 C 
ATOM     15  C   UNL     1      34.287 -22.432 -18.662  0.00  0.00    +0.001 C 
ATOM     16  C   UNL     1      38.728 -25.571 -14.638  0.00  0.00    +0.001 C 
ATOM     17  C   UNL     1      37.891 -26.262 -13.774  0.00  0.00    +0.000 C 
ENDROOT
BRANCH   2  18
ATOM     18  C   UNL     1      32.559 -23.352 -14.025  0.00  0.00    +0.076 C 
BRANCH  18  19
ATOM     19  C   UNL     1      31.847 -24.691 -13.858  0.00  0.00    -0.055 C 
BRANCH  19  20
ATOM     20  N   UNL     1      30.414 -24.530 -14.075  0.00  0.00    +0.385 N 
ATOM     21  C   UNL     1      29.919 -25.538 -15.014  0.00  0.00    -0.101 C 
ATOM     22  C   UNL     1      30.116 -23.185 -14.570  0.00  0.00    -0.101 C 
ATOM     23  H   UNL     1      29.939 -24.658 -13.182  0.00  0.00    -0.080 HD
ENDBRANCH  19  20
ENDBRANCH  18  19
ENDBRANCH   2  18
TORSDOF 3
ENDMDL
MODEL 2
REMARK VINA RESULT:      -8.1     10.804     13.622
REMARK  Name = 9419
REMARK  3 active torsions:
REMARK  status: ('A' for Active; 'I' for Inactive)
REMARK    1  A    between atoms: N_2  and  C_18
REMARK    2  A    between atoms: C_18  and  C_19
REMARK    3  A    between atoms: C_19  and  N_20
REMARK                            x       y       z     vdW  Elec       q    Type
REMARK                         _______ _______ _______ _____ _____    ______ ____
ROOT
ATOM      1  O   UNL     1      35.053 -15.507 -23.535  0.00  0.00    -0.270 OA
ATOM      2  N   UNL     1      33.701 -14.163 -22.206  0.00  0.00    -0.256 N 
ATOM      3  N   UNL     1      33.714 -11.774 -23.942  0.00  0.00    -0.284 N 
ATOM      4  C   UNL     1      32.863 -13.013 -21.978  0.00  0.00    +0.068 C 
ATOM      5  C   UNL     1      32.922 -11.848 -22.776  0.00  0.00    +0.065 C 
ATOM      6  C   UNL     1      33.578 -12.717 -24.975  0.00  0.00    +0.056 C 
ATOM      7  C   UNL     1      33.703 -14.086 -24.719  0.00  0.00    +0.067 C 
ATOM      8  C   UNL     1      34.213 -14.607 -23.435  0.00  0.00    +0.254 C 
ATOM      9  C   UNL     1      32.021 -13.003 -20.840  0.00  0.00    +0.016 C 
ATOM     10  C   UNL     1      32.142 -10.730 -22.390  0.00  0.00    +0.016 C 
ATOM     11  C   UNL     1      34.299 -10.478 -24.295  0.00  0.00    +0.117 C 
ATOM     12  C   UNL     1      33.254 -12.325 -26.291  0.00  0.00    +0.015 C 
ATOM     13  C   UNL     1      33.496 -15.027 -25.743  0.00  0.00    +0.006 C 
ATOM     14  C   UNL     1      31.256 -11.891 -20.492  0.00  0.00    +0.001 C 
ATOM     15  C   UNL     1      31.319 -10.749 -21.267  0.00  0.00    +0.001 C 
ATOM     16  C   UNL     1      33.047 -13.261 -27.306  0.00  0.00    +0.001 C 
ATOM     17  C   UNL     1      33.160 -14.616 -27.029  0.00  0.00    +0.000 C 
ENDROOT
BRANCH   2  18
ATOM     18  C   UNL     1      34.059 -14.964 -21.027  0.00  0.00    +0.076 C 
BRANCH  18  19
ATOM     19  C   UNL     1      33.227 -16.243 -20.988  0.00  0.00    -0.055 C 
BRANCH  19  20
ATOM     20  N   UNL     1      34.034 -17.381 -21.413  0.00  0.00    +0.385 N 
ATOM     21  C   UNL     1      33.403 -18.638 -21.009  0.00  0.00    -0.101 C 
ATOM     22  C   UNL     1      35.385 -17.290 -20.859  0.00  0.00    -0.101 C 
ATOM     23  H   UNL     1      34.099 -17.363 -22.431  0.00  0.00    -0.080 HD
ENDBRANCH  19  20
ENDBRANCH  18  19
ENDBRANCH   2  18
TORSDOF 3
ENDMDL
MODEL 3
REMARK VINA RESULT:      -8.1     15.009     17.712
REMARK  Name = 9419
REMARK  3 active torsions:
REMARK  status: ('A' for Active; 'I' for Inactive)
REMARK    1  A    between atoms: N_2  and  C_18
REMARK    2  A    between atoms: C_18  and  C_19
REMARK    3  A    between atoms: C_19  and  N_20
REMARK                            x       y       z     vdW  Elec       q    Type
REMARK                         _______ _______ _______ _____ _____    ______ ____
ROOT
ATOM      1  O   UNL     1      34.445  -7.915 -24.590  0.00  0.00    -0.270 OA
ATOM      2  N   UNL     1      33.381  -9.524 -23.296  0.00  0.00    -0.256 N 
ATOM      3  N   UNL     1      32.537  -7.746 -21.094  0.00  0.00    -0.284 N 
ATOM      4  C   UNL     1      32.497  -9.940 -22.236  0.00  0.00    +0.068 C 
ATOM      5  C   UNL     1      32.150  -9.103 -21.152  0.00  0.00    +0.065 C 
ATOM      6  C   UNL     1      32.231  -6.857 -22.138  0.00  0.00    +0.056 C 
ATOM      7  C   UNL     1      32.617  -7.134 -23.453  0.00  0.00    +0.067 C 
ATOM      8  C   UNL     1      33.557  -8.222 -23.789  0.00  0.00    +0.254 C 
ATOM      9  C   UNL     1      32.043 -11.280 -22.219  0.00  0.00    +0.016 C 
ATOM     10  C   UNL     1      31.372  -9.652 -20.101  0.00  0.00    +0.016 C 
ATOM     11  C   UNL     1      32.801  -7.162 -19.777  0.00  0.00    +0.117 C 
ATOM     12  C   UNL     1      31.475  -5.688 -21.911  0.00  0.00    +0.015 C 
ATOM     13  C   UNL     1      32.246  -6.275 -24.503  0.00  0.00    +0.006 C 
ATOM     14  C   UNL     1      31.269 -11.790 -21.177  0.00  0.00    +0.001 C 
ATOM     15  C   UNL     1      30.937 -10.974 -20.112  0.00  0.00    +0.001 C 
ATOM     16  C   UNL     1      31.106  -4.838 -22.955  0.00  0.00    +0.001 C 
ATOM     17  C   UNL     1      31.486  -5.136 -24.256  0.00  0.00    +0.000 C 
ENDROOT
BRANCH   2  18
ATOM     18  C   UNL     1      34.184 -10.575 -23.937  0.00  0.00    +0.076 C 
BRANCH  18  19
ATOM     19  C   UNL     1      33.475 -11.093 -25.184  0.00  0.00    -0.055 C 
BRANCH  19  20
ATOM     20  N   UNL     1      33.923 -12.446 -25.493  0.00  0.00    +0.385 N 
ATOM     21  C   UNL     1      33.435 -12.862 -26.808  0.00  0.00    -0.101 C 
ATOM     22  C   UNL     1      33.475 -13.384 -24.464  0.00  0.00    -0.101 C 
ATOM     23  H   UNL     1      34.944 -12.447 -25.511  0.00  0.00    -0.080 HD
ENDBRANCH  19  20
ENDBRANCH  18  19
ENDBRANCH   2  18
TORSDOF 3
ENDMDL
MODEL 4
REMARK VINA RESULT:      -8.0     12.274     14.872
REMARK  Name = 9419
REMARK  3 active torsions:
REMARK  status: ('A' for Active; 'I' for Inactive)
REMARK    1  A    between atoms: N_2  and  C_18
REMARK    2  A    between atoms: C_18  and  C_19
REMARK    3  A    between atoms: C_19  and  N_20
REMARK                            x       y       z     vdW  Elec       q    Type
REMARK                         _______ _______ _______ _____ _____    ______ ____
ROOT
ATOM      1  O   UNL     1      31.838 -10.152 -22.967  0.00  0.00    -0.270 OA
ATOM      2  N   UNL     1      32.416 -12.343 -22.452  0.00  0.00    -0.256 N 
ATOM      3  N   UNL     1      33.365 -13.127 -25.137  0.00  0.00    -0.284 N 
ATOM      4  C   UNL     1      33.082 -13.592 -22.724  0.00  0.00    +0.068 C 
ATOM      5  C   UNL     1      33.475 -13.987 -24.022  0.00  0.00    +0.065 C 
ATOM      6  C   UNL     1      33.951 -11.851 -25.131  0.00  0.00    +0.056 C 
ATOM      7  C   UNL     1      33.657 -10.930 -24.121  0.00  0.00    +0.067 C 
ATOM      8  C   UNL     1      32.558 -11.138 -23.157  0.00  0.00    +0.254 C 
ATOM      9  C   UNL     1      33.253 -14.514 -21.663  0.00  0.00    +0.016 C 
ATOM     10  C   UNL     1      34.012 -15.288 -24.195  0.00  0.00    +0.016 C 
ATOM     11  C   UNL     1      33.087 -13.728 -26.444  0.00  0.00    +0.117 C 
ATOM     12  C   UNL     1      34.899 -11.472 -26.105  0.00  0.00    +0.015 C 
ATOM     13  C   UNL     1      34.301  -9.680 -24.083  0.00  0.00    +0.006 C 
ATOM     14  C   UNL     1      33.794 -15.783 -21.861  0.00  0.00    +0.001 C 
ATOM     15  C   UNL     1      34.171 -16.173 -23.132  0.00  0.00    +0.001 C 
ATOM     16  C   UNL     1      35.539 -10.232 -26.064  0.00  0.00    +0.001 C 
ATOM     17  C   UNL     1      35.245  -9.337 -25.046  0.00  0.00    +0.000 C 
ENDROOT
BRANCH   2  18
ATOM     18  C   UNL     1      31.489 -12.323 -21.312  0.00  0.00    +0.076 C 
BRANCH  18  19
ATOM     19  C   UNL     1      32.101 -11.545 -20.151  0.00  0.00    -0.055 C 
BRANCH  19  20
ATOM     20  N   UNL     1      31.351 -10.316 -19.917  0.00  0.00    +0.385 N 
ATOM     21  C   UNL     1      32.258  -9.174 -19.799  0.00  0.00    -0.101 C 
ATOM     22  C   UNL     1      30.526 -10.437 -18.715  0.00  0.00    -0.101 C 
ATOM     23  H   UNL     1      30.737 -10.161 -20.718  0.00  0.00    -0.080 HD
ENDBRANCH  19  20
ENDBRANCH  18  19
ENDBRANCH   2  18
TORSDOF 3
ENDMDL
MODEL 5
REMARK VINA RESULT:      -8.0      1.648      5.330
REMARK  Name = 9419
REMARK  3 active torsions:
REMARK  status: ('A' for Active; 'I' for Inactive)
REMARK    1  A    between atoms: N_2  and  C_18
REMARK    2  A    between atoms: C_18  and  C_19
REMARK    3  A    between atoms: C_19  and  N_20
REMARK                            x       y       z     vdW  Elec       q    Type
REMARK                         _______ _______ _______ _____ _____    ______ ____
ROOT
ATOM      1  O   UNL     1      33.922 -25.070 -13.641  0.00  0.00    -0.270 OA
ATOM      2  N   UNL     1      35.436 -23.769 -14.831  0.00  0.00    -0.256 N 
ATOM      3  N   UNL     1      33.830 -23.471 -17.291  0.00  0.00    -0.284 N 
ATOM      4  C   UNL     1      35.797 -22.887 -15.912  0.00  0.00    +0.068 C 
ATOM      5  C   UNL     1      35.058 -22.799 -17.113  0.00  0.00    +0.065 C 
ATOM      6  C   UNL     1      32.767 -23.297 -16.390  0.00  0.00    +0.056 C 
ATOM      7  C   UNL     1      32.940 -23.529 -15.022  0.00  0.00    +0.067 C 
ATOM      8  C   UNL     1      34.144 -24.189 -14.478  0.00  0.00    +0.254 C 
ATOM      9  C   UNL     1      37.006 -22.157 -15.815  0.00  0.00    +0.016 C 
ATOM     10  C   UNL     1      35.570 -21.991 -18.159  0.00  0.00    +0.016 C 
ATOM     11  C   UNL     1      33.492 -23.940 -18.638  0.00  0.00    +0.117 C 
ATOM     12  C   UNL     1      31.508 -22.827 -16.819  0.00  0.00    +0.015 C 
ATOM     13  C   UNL     1      31.892 -23.285 -14.116  0.00  0.00    +0.006 C 
ATOM     14  C   UNL     1      37.480 -21.361 -16.857  0.00  0.00    +0.001 C 
ATOM     15  C   UNL     1      36.761 -21.281 -18.035  0.00  0.00    +0.001 C 
ATOM     16  C   UNL     1      30.469 -22.582 -15.918  0.00  0.00    +0.001 C 
ATOM     17  C   UNL     1      30.665 -22.805 -14.563  0.00  0.00    +0.000 C 
ENDROOT
BRANCH   2  18
ATOM     18  C   UNL     1      36.535 -24.285 -14.003  0.00  0.00    +0.076 C 
BRANCH  18  19
ATOM     19  C   UNL     1      37.124 -25.542 -14.635  0.00  0.00    -0.055 C 
BRANCH  19  20
ATOM     20  N   UNL     1      38.127 -26.126 -13.751  0.00  0.00    +0.385 N 
ATOM     21  C   UNL     1      37.814 -25.832 -12.352  0.00  0.00    -0.101 C 
ATOM     22  C   UNL     1      39.462 -25.630 -14.088  0.00  0.00    -0.101 C 
ATOM     23  H   UNL     1      38.115 -27.138 -13.880  0.00  0.00    -0.080 HD
ENDBRANCH  19  20
ENDBRANCH  18  19
ENDBRANCH   2  18
TORSDOF 3
ENDMDL
MODEL 6
REMARK VINA RESULT:      -7.9     12.772     15.374
REMARK  Name = 9419
REMARK  3 active torsions:
REMARK  status: ('A' for Active; 'I' for Inactive)
REMARK    1  A    between atoms: N_2  and  C_18
REMARK    2  A    between atoms: C_18  and  C_19
REMARK    3  A    between atoms: C_19  and  N_20
REMARK                            x       y       z     vdW  Elec       q    Type
REMARK                         _______ _______ _______ _____ _____    ______ ____
ROOT
ATOM      1  O   UNL     1      31.597 -13.512 -22.513  0.00  0.00    -0.270 OA
ATOM      2  N   UNL     1      33.065 -12.098 -23.629  0.00  0.00    -0.256 N 
ATOM      3  N   UNL     1      31.842  -9.543 -22.792  0.00  0.00    -0.284 N 
ATOM      4  C   UNL     1      33.664 -10.811 -23.883  0.00  0.00    +0.068 C 
ATOM      5  C   UNL     1      33.041  -9.592 -23.537  0.00  0.00    +0.065 C 
ATOM      6  C   UNL     1      31.734 -10.183 -21.546  0.00  0.00    +0.056 C 
ATOM      7  C   UNL     1      32.012 -11.546 -21.413  0.00  0.00    +0.067 C 
ATOM      8  C   UNL     1      32.197 -12.434 -22.579  0.00  0.00    +0.254 C 
ATOM      9  C   UNL     1      34.877 -10.761 -24.610  0.00  0.00    +0.016 C 
ATOM     10  C   UNL     1      33.660  -8.383 -23.942  0.00  0.00    +0.016 C 
ATOM     11  C   UNL     1      30.909  -8.447 -23.062  0.00  0.00    +0.117 C 
ATOM     12  C   UNL     1      31.397  -9.467 -20.378  0.00  0.00    +0.015 C 
ATOM     13  C   UNL     1      31.969 -12.166 -20.151  0.00  0.00    +0.006 C 
ATOM     14  C   UNL     1      35.469  -9.556 -24.985  0.00  0.00    +0.001 C 
ATOM     15  C   UNL     1      34.856  -8.362 -24.654  0.00  0.00    +0.001 C 
ATOM     16  C   UNL     1      31.358 -10.083 -19.126  0.00  0.00    +0.001 C 
ATOM     17  C   UNL     1      31.652 -11.434 -19.011  0.00  0.00    +0.000 C 
ENDROOT
BRANCH   2  18
ATOM     18  C   UNL     1      33.400 -13.179 -24.566  0.00  0.00    +0.076 C 
BRANCH  18  19
ATOM     19  C   UNL     1      34.132 -14.301 -23.835  0.00  0.00    -0.055 C 
BRANCH  19  20
ATOM     20  N   UNL     1      33.737 -15.596 -24.377  0.00  0.00    +0.385 N 
ATOM     21  C   UNL     1      34.814 -16.573 -24.210  0.00  0.00    -0.101 C 
ATOM     22  C   UNL     1      33.376 -15.474 -25.790  0.00  0.00    -0.101 C 
ATOM     23  H   UNL     1      32.920 -15.923 -23.861  0.00  0.00    -0.080 HD
ENDBRANCH  19  20
ENDBRANCH  18  19
ENDBRANCH   2  18
TORSDOF 3
ENDMDL
MODEL 7
REMARK VINA RESULT:      -7.1     13.528     16.007
REMARK  Name = 9419
REMARK  3 active torsions:
REMARK  status: ('A' for Active; 'I' for Inactive)
REMARK    1  A    between atoms: N_2  and  C_18
REMARK    2  A    between atoms: C_18  and  C_19
REMARK    3  A    between atoms: C_19  and  N_20
REMARK                            x       y       z     vdW  Elec       q    Type
REMARK                         _______ _______ _______ _____ _____    ______ ____
ROOT
ATOM      1  O   UNL     1      30.719 -11.517 -21.275  0.00  0.00    -0.270 OA
ATOM      2  N   UNL     1      32.385 -11.356 -22.887  0.00  0.00    -0.256 N 
ATOM      3  N   UNL     1      32.225  -8.437 -23.309  0.00  0.00    -0.284 N 
ATOM      4  C   UNL     1      33.331 -10.617 -23.685  0.00  0.00    +0.068 C 
ATOM      5  C   UNL     1      33.210  -9.232 -23.934  0.00  0.00    +0.065 C 
ATOM      6  C   UNL     1      32.101  -8.400 -21.910  0.00  0.00    +0.056 C 
ATOM      7  C   UNL     1      31.927  -9.574 -21.173  0.00  0.00    +0.067 C 
ATOM      8  C   UNL     1      31.625 -10.871 -21.810  0.00  0.00    +0.254 C 
ATOM      9  C   UNL     1      34.366 -11.327 -24.339  0.00  0.00    +0.016 C 
ATOM     10  C   UNL     1      34.126  -8.629 -24.832  0.00  0.00    +0.016 C 
ATOM     11  C   UNL     1      31.679  -7.302 -24.058  0.00  0.00    +0.117 C 
ATOM     12  C   UNL     1      32.205  -7.188 -21.195  0.00  0.00    +0.015 C 
ATOM     13  C   UNL     1      31.874  -9.536 -19.767  0.00  0.00    +0.006 C 
ATOM     14  C   UNL     1      35.260 -10.705 -25.209  0.00  0.00    +0.001 C 
ATOM     15  C   UNL     1      35.137  -9.352 -25.460  0.00  0.00    +0.001 C 
ATOM     16  C   UNL     1      32.155  -7.152 -19.800  0.00  0.00    +0.001 C 
ATOM     17  C   UNL     1      31.997  -8.330 -19.085  0.00  0.00    +0.000 C 
ENDROOT
BRANCH   2  18
ATOM     18  C   UNL     1      32.193 -12.772 -23.231  0.00  0.00    +0.076 C 
BRANCH  18  19
ATOM     19  C   UNL     1      32.715 -13.661 -22.107  0.00  0.00    -0.055 C 
BRANCH  19  20
ATOM     20  N   UNL     1      33.965 -14.297 -22.508  0.00  0.00    +0.385 N 
ATOM     21  C   UNL     1      33.790 -15.028 -23.764  0.00  0.00    -0.101 C 
ATOM     22  C   UNL     1      34.446 -15.196 -21.459  0.00  0.00    -0.101 C 
ATOM     23  H   UNL     1      34.662 -13.567 -22.654  0.00  0.00    -0.080 HD
ENDBRANCH  19  20
ENDBRANCH  18  19
ENDBRANCH   2  18
TORSDOF 3
ENDMDL
MODEL 8
REMARK VINA RESULT:      -7.0     11.411     14.225
REMARK  Name = 9419
REMARK  3 active torsions:
REMARK  status: ('A' for Active; 'I' for Inactive)
REMARK    1  A    between atoms: N_2  and  C_18
REMARK    2  A    between atoms: C_18  and  C_19
REMARK    3  A    between atoms: C_19  and  N_20
REMARK                            x       y       z     vdW  Elec       q    Type
REMARK                         _______ _______ _______ _____ _____    ______ ____
ROOT
ATOM      1  O   UNL     1      32.248 -11.306 -22.741  0.00  0.00    -0.270 OA
ATOM      2  N   UNL     1      32.855 -13.515 -23.132  0.00  0.00    -0.256 N 
ATOM      3  N   UNL     1      33.370 -13.262 -26.029  0.00  0.00    -0.284 N 
ATOM      4  C   UNL     1      33.448 -14.561 -23.926  0.00  0.00    +0.068 C 
ATOM      5  C   UNL     1      33.631 -14.456 -25.323  0.00  0.00    +0.065 C 
ATOM      6  C   UNL     1      33.975 -12.050 -25.656  0.00  0.00    +0.056 C 
ATOM      7  C   UNL     1      33.855 -11.558 -24.354  0.00  0.00    +0.067 C 
ATOM      8  C   UNL     1      32.911 -12.133 -23.374  0.00  0.00    +0.254 C 
ATOM      9  C   UNL     1      33.760 -15.792 -23.300  0.00  0.00    +0.016 C 
ATOM     10  C   UNL     1      34.111 -15.591 -26.024  0.00  0.00    +0.016 C 
ATOM     11  C   UNL     1      32.885 -13.370 -27.407  0.00  0.00    +0.117 C 
ATOM     12  C   UNL     1      34.770 -11.316 -26.562  0.00  0.00    +0.015 C 
ATOM     13  C   UNL     1      34.521 -10.380 -23.969  0.00  0.00    +0.006 C 
ATOM     14  C   UNL     1      34.241 -16.888 -24.015  0.00  0.00    +0.001 C 
ATOM     15  C   UNL     1      34.412 -16.789 -25.382  0.00  0.00    +0.001 C 
ATOM     16  C   UNL     1      35.433 -10.149 -26.178  0.00  0.00    +0.001 C 
ATOM     17  C   UNL     1      35.314  -9.684 -24.876  0.00  0.00    +0.000 C 
ENDROOT
BRANCH   2  18
ATOM     18  C   UNL     1      32.112 -13.933 -21.935  0.00  0.00    +0.076 C 
BRANCH  18  19
ATOM     19  C   UNL     1      32.987 -13.782 -20.694  0.00  0.00    -0.055 C 
BRANCH  19  20
ATOM     20  N   UNL     1      33.131 -15.068 -20.020  0.00  0.00    +0.385 N 
ATOM     21  C   UNL     1      34.472 -15.613 -20.236  0.00  0.00    -0.101 C 
ATOM     22  C   UNL     1      32.116 -16.011 -20.489  0.00  0.00    -0.101 C 
ATOM     23  H   UNL     1      32.999 -14.920 -19.019  0.00  0.00    -0.080 HD
ENDBRANCH  19  20
ENDBRANCH  18  19
ENDBRANCH   2  18
TORSDOF 3
ENDMDL
MODEL 9
REMARK VINA RESULT:      -7.0      3.080      5.770
REMARK  Name = 9419
REMARK  3 active torsions:
REMARK  status: ('A' for Active; 'I' for Inactive)
REMARK    1  A    between atoms: N_2  and  C_18
REMARK    2  A    between atoms: C_18  and  C_19
REMARK    3  A    between atoms: C_19  and  N_20
REMARK                            x       y       z     vdW  Elec       q    Type
REMARK                         _______ _______ _______ _____ _____    ______ ____
ROOT
ATOM      1  O   UNL     1      32.487 -22.350 -20.103  0.00  0.00    -0.270 OA
ATOM      2  N   UNL     1      33.893 -22.570 -18.266  0.00  0.00    -0.256 N 
ATOM      3  N   UNL     1      36.349 -21.538 -19.541  0.00  0.00    -0.284 N 
ATOM      4  C   UNL     1      35.109 -22.297 -17.541  0.00  0.00    +0.068 C 
ATOM      5  C   UNL     1      36.298 -21.866 -18.169  0.00  0.00    +0.065 C 
ATOM      6  C   UNL     1      35.475 -20.588 -20.095  0.00  0.00    +0.056 C 
ATOM      7  C   UNL     1      34.090 -20.721 -19.959  0.00  0.00    +0.067 C 
ATOM      8  C   UNL     1      33.460 -21.957 -19.452  0.00  0.00    +0.254 C 
ATOM      9  C   UNL     1      35.148 -22.580 -16.154  0.00  0.00    +0.016 C 
ATOM     10  C   UNL     1      37.469 -21.745 -17.378  0.00  0.00    +0.016 C 
ATOM     11  C   UNL     1      37.596 -21.798 -20.264  0.00  0.00    +0.117 C 
ATOM     12  C   UNL     1      35.960 -19.439 -20.755  0.00  0.00    +0.015 C 
ATOM     13  C   UNL     1      33.224 -19.730 -20.455  0.00  0.00    +0.006 C 
ATOM     14  C   UNL     1      36.312 -22.441 -15.400  0.00  0.00    +0.001 C 
ATOM     15  C   UNL     1      37.478 -22.027 -16.015  0.00  0.00    +0.001 C 
ATOM     16  C   UNL     1      35.098 -18.455 -21.244  0.00  0.00    +0.001 C 
ATOM     17  C   UNL     1      33.728 -18.598 -21.087  0.00  0.00    +0.000 C 
ENDROOT
BRANCH   2  18
ATOM     18  C   UNL     1      33.005 -23.598 -17.706  0.00  0.00    +0.076 C 
BRANCH  18  19
ATOM     19  C   UNL     1      31.878 -22.944 -16.913  0.00  0.00    -0.055 C 
BRANCH  19  20
ATOM     20  N   UNL     1      31.597 -23.716 -15.708  0.00  0.00    +0.385 N 
ATOM     21  C   UNL     1      30.280 -24.348 -15.797  0.00  0.00    -0.101 C 
ATOM     22  C   UNL     1      31.673 -22.864 -14.521  0.00  0.00    -0.101 C 
ATOM     23  H   UNL     1      32.303 -24.449 -15.627  0.00  0.00    -0.080 HD
ENDBRANCH  19  20
ENDBRANCH  18  19
ENDBRANCH   2  18
TORSDOF 3
ENDMDL
