MODEL 1
REMARK VINA RESULT:      -7.2      0.000      0.000
REMARK  Name = 657117
REMARK  6 active torsions:
REMARK  status: ('A' for Active; 'I' for Inactive)
REMARK    1  A    between atoms: C_2  and  O_7
REMARK    2  A    between atoms: C_3  and  O_9
REMARK    3  A    between atoms: C_4  and  O_11
REMARK    4  A    between atoms: C_5  and  C_16
REMARK    5  A    between atoms: C_6  and  O_13
REMARK    6  A    between atoms: C_16  and  O_17
REMARK                            x       y       z     vdW  Elec       q    Type
REMARK                         _______ _______ _______ _____ _____    ______ ____
ROOT
ATOM      1  O   UNL     1      39.263 -24.708 -13.255  0.00  0.00    -0.317 OA
ATOM      2  C   UNL     1      36.687 -24.967 -14.505  0.00  0.00    +0.172 C 
ATOM      3  C   UNL     1      37.943 -25.567 -15.137  0.00  0.00    +0.178 C 
ATOM      4  C   UNL     1      37.038 -23.788 -13.597  0.00  0.00    +0.196 C 
ATOM      5  C   UNL     1      38.990 -25.850 -14.062  0.00  0.00    +0.245 C 
ATOM      6  C   UNL     1      38.114 -24.180 -12.585  0.00  0.00    +0.263 C 
ENDROOT
BRANCH   2   7
ATOM      7  O   UNL     1      35.799 -24.543 -15.536  0.00  0.00    -0.379 OA
ATOM      8  H   UNL     1      36.206 -24.707 -16.402  0.00  0.00    +0.211 HD
ENDBRANCH   2   7
BRANCH   3   9
ATOM      9  O   UNL     1      37.576 -26.787 -15.780  0.00  0.00    -0.379 OA
ATOM     10  H   UNL     1      37.180 -27.389 -15.131  0.00  0.00    +0.211 HD
ENDBRANCH   3   9
BRANCH   4  11
ATOM     11  O   UNL     1      37.546 -22.706 -14.378  0.00  0.00    -0.378 OA
ATOM     12  H   UNL     1      36.946 -21.947 -14.311  0.00  0.00    +0.211 HD
ENDBRANCH   4  11
BRANCH   6  13
ATOM     13  O   UNL     1      37.574 -25.093 -11.637  0.00  0.00    -0.358 OA
ATOM     14  H   UNL     1      37.624 -25.995 -11.991  0.00  0.00    +0.213 HD
ENDBRANCH   6  13
BRANCH   5  16
ATOM     15  O   UNL     1      41.268 -26.646 -14.094  0.00  0.00    -0.247 OA
ATOM     16  C   UNL     1      40.321 -26.140 -14.677  0.00  0.00    +0.344 C 
BRANCH  16  17
ATOM     17  O   UNL     1      40.340 -25.761 -15.978  0.00  0.00    -0.478 OA
ATOM     18  H   UNL     1      40.719 -24.939 -16.221  0.00  0.00    +0.295 HD
ENDBRANCH  16  17
ENDBRANCH   5  16
TORSDOF 6
ENDMDL
MODEL 2
REMARK VINA RESULT:      -7.1      1.513      2.666
REMARK  Name = 657117
REMARK  6 active torsions:
REMARK  status: ('A' for Active; 'I' for Inactive)
REMARK    1  A    between atoms: C_2  and  O_7
REMARK    2  A    between atoms: C_3  and  O_9
REMARK    3  A    between atoms: C_4  and  O_11
REMARK    4  A    between atoms: C_5  and  C_16
REMARK    5  A    between atoms: C_6  and  O_13
REMARK    6  A    between atoms: C_16  and  O_17
REMARK                            x       y       z     vdW  Elec       q    Type
REMARK                         _______ _______ _______ _____ _____    ______ ____
ROOT
ATOM      1  O   UNL     1      38.402 -26.746 -14.536  0.00  0.00    -0.317 OA
ATOM      2  C   UNL     1      36.734 -24.508 -15.223  0.00  0.00    +0.172 C 
ATOM      3  C   UNL     1      38.219 -24.327 -14.908  0.00  0.00    +0.178 C 
ATOM      4  C   UNL     1      36.177 -25.763 -14.550  0.00  0.00    +0.196 C 
ATOM      5  C   UNL     1      38.978 -25.621 -15.193  0.00  0.00    +0.245 C 
ATOM      6  C   UNL     1      37.033 -26.984 -14.882  0.00  0.00    +0.263 C 
ENDROOT
BRANCH   2   7
ATOM      7  O   UNL     1      36.017 -23.358 -14.780  0.00  0.00    -0.379 OA
ATOM      8  H   UNL     1      36.371 -23.065 -13.926  0.00  0.00    +0.211 HD
ENDBRANCH   2   7
BRANCH   3   9
ATOM      9  O   UNL     1      38.724 -23.283 -15.739  0.00  0.00    -0.379 OA
ATOM     10  H   UNL     1      39.692 -23.259 -15.677  0.00  0.00    +0.211 HD
ENDBRANCH   3   9
BRANCH   4  11
ATOM     11  O   UNL     1      36.182 -25.598 -13.132  0.00  0.00    -0.378 OA
ATOM     12  H   UNL     1      36.898 -26.128 -12.746  0.00  0.00    +0.211 HD
ENDBRANCH   4  11
BRANCH   6  13
ATOM     13  O   UNL     1      36.874 -27.326 -16.255  0.00  0.00    -0.358 OA
ATOM     14  H   UNL     1      36.228 -26.730 -16.664  0.00  0.00    +0.213 HD
ENDBRANCH   6  13
BRANCH   5  16
ATOM     15  O   UNL     1      40.896 -24.566 -14.176  0.00  0.00    -0.247 OA
ATOM     16  C   UNL     1      40.353 -25.572 -14.609  0.00  0.00    +0.344 C 
BRANCH  16  17
ATOM     17  O   UNL     1      40.925 -26.800 -14.626  0.00  0.00    -0.478 OA
ATOM     18  H   UNL     1      40.460 -27.538 -14.282  0.00  0.00    +0.295 HD
ENDBRANCH  16  17
ENDBRANCH   5  16
TORSDOF 6
ENDMDL
MODEL 3
REMARK VINA RESULT:      -6.9      1.721      3.782
REMARK  Name = 657117
REMARK  6 active torsions:
REMARK  status: ('A' for Active; 'I' for Inactive)
REMARK    1  A    between atoms: C_2  and  O_7
REMARK    2  A    between atoms: C_3  and  O_9
REMARK    3  A    between atoms: C_4  and  O_11
REMARK    4  A    between atoms: C_5  and  C_16
REMARK    5  A    between atoms: C_6  and  O_13
REMARK    6  A    between atoms: C_16  and  O_17
REMARK                            x       y       z     vdW  Elec       q    Type
REMARK                         _______ _______ _______ _____ _____    ______ ____
ROOT
ATOM      1  O   UNL     1      38.651 -24.225 -13.504  0.00  0.00    -0.317 OA
ATOM      2  C   UNL     1      36.572 -25.695 -14.837  0.00  0.00    +0.172 C 
ATOM      3  C   UNL     1      36.384 -25.160 -13.418  0.00  0.00    +0.178 C 
ATOM      4  C   UNL     1      38.053 -25.909 -15.153  0.00  0.00    +0.196 C 
ATOM      5  C   UNL     1      37.289 -23.953 -13.186  0.00  0.00    +0.245 C 
ATOM      6  C   UNL     1      38.861 -24.647 -14.855  0.00  0.00    +0.263 C 
ENDROOT
BRANCH   2   7
ATOM      7  O   UNL     1      35.861 -26.924 -14.974  0.00  0.00    -0.379 OA
ATOM      8  H   UNL     1      34.992 -26.753 -15.368  0.00  0.00    +0.211 HD
ENDBRANCH   2   7
BRANCH   3   9
ATOM      9  O   UNL     1      35.019 -24.771 -13.268  0.00  0.00    -0.379 OA
ATOM     10  H   UNL     1      34.757 -24.216 -14.019  0.00  0.00    +0.211 HD
ENDBRANCH   3   9
BRANCH   4  11
ATOM     11  O   UNL     1      38.576 -26.964 -14.346  0.00  0.00    -0.378 OA
ATOM     12  H   UNL     1      38.545 -27.797 -14.841  0.00  0.00    +0.211 HD
ENDBRANCH   4  11
BRANCH   6  13
ATOM     13  O   UNL     1      38.532 -23.631 -15.796  0.00  0.00    -0.358 OA
ATOM     14  H   UNL     1      37.772 -23.123 -15.472  0.00  0.00    +0.213 HD
ENDBRANCH   6  13
BRANCH   5  16
ATOM     15  O   UNL     1      36.850 -24.260 -10.833  0.00  0.00    -0.247 OA
ATOM     16  C   UNL     1      37.356 -23.607 -11.734  0.00  0.00    +0.344 C 
BRANCH  16  17
ATOM     17  O   UNL     1      38.055 -22.462 -11.545  0.00  0.00    -0.478 OA
ATOM     18  H   UNL     1      38.991 -22.486 -11.501  0.00  0.00    +0.295 HD
ENDBRANCH  16  17
ENDBRANCH   5  16
TORSDOF 6
ENDMDL
MODEL 4
REMARK VINA RESULT:      -6.8      1.816      3.494
REMARK  Name = 657117
REMARK  6 active torsions:
REMARK  status: ('A' for Active; 'I' for Inactive)
REMARK    1  A    between atoms: C_2  and  O_7
REMARK    2  A    between atoms: C_3  and  O_9
REMARK    3  A    between atoms: C_4  and  O_11
REMARK    4  A    between atoms: C_5  and  C_16
REMARK    5  A    between atoms: C_6  and  O_13
REMARK    6  A    between atoms: C_16  and  O_17
REMARK                            x       y       z     vdW  Elec       q    Type
REMARK                         _______ _______ _______ _____ _____    ______ ____
ROOT
ATOM      1  O   UNL     1      35.577 -25.138 -14.385  0.00  0.00    -0.317 OA
ATOM      2  C   UNL     1      36.887 -23.796 -12.205  0.00  0.00    +0.172 C 
ATOM      3  C   UNL     1      37.561 -24.947 -12.952  0.00  0.00    +0.178 C 
ATOM      4  C   UNL     1      35.363 -23.892 -12.307  0.00  0.00    +0.196 C 
ATOM      5  C   UNL     1      36.999 -25.055 -14.368  0.00  0.00    +0.245 C 
ATOM      6  C   UNL     1      34.922 -24.027 -13.763  0.00  0.00    +0.263 C 
ENDROOT
BRANCH   2   7
ATOM      7  O   UNL     1      37.288 -23.826 -10.837  0.00  0.00    -0.379 OA
ATOM      8  H   UNL     1      36.549 -24.136 -10.290  0.00  0.00    +0.211 HD
ENDBRANCH   2   7
BRANCH   3   9
ATOM      9  O   UNL     1      38.960 -24.676 -13.012  0.00  0.00    -0.379 OA
ATOM     10  H   UNL     1      39.364 -24.866 -12.151  0.00  0.00    +0.211 HD
ENDBRANCH   3   9
BRANCH   4  11
ATOM     11  O   UNL     1      34.900 -25.043 -11.600  0.00  0.00    -0.378 OA
ATOM     12  H   UNL     1      33.934 -25.007 -11.520  0.00  0.00    +0.211 HD
ENDBRANCH   4  11
BRANCH   6  13
ATOM     13  O   UNL     1      35.158 -22.805 -14.454  0.00  0.00    -0.358 OA
ATOM     14  H   UNL     1      35.461 -22.996 -15.355  0.00  0.00    +0.213 HD
ENDBRANCH   6  13
BRANCH   5  16
ATOM     15  O   UNL     1      38.410 -26.982 -14.720  0.00  0.00    -0.247 OA
ATOM     16  C   UNL     1      37.408 -26.344 -15.006  0.00  0.00    +0.344 C 
BRANCH  16  17
ATOM     17  O   UNL     1      36.513 -26.714 -15.955  0.00  0.00    -0.478 OA
ATOM     18  H   UNL     1      36.807 -27.153 -16.729  0.00  0.00    +0.295 HD
ENDBRANCH  16  17
ENDBRANCH   5  16
TORSDOF 6
ENDMDL
MODEL 5
REMARK VINA RESULT:      -6.7      1.722      2.257
REMARK  Name = 657117
REMARK  6 active torsions:
REMARK  status: ('A' for Active; 'I' for Inactive)
REMARK    1  A    between atoms: C_2  and  O_7
REMARK    2  A    between atoms: C_3  and  O_9
REMARK    3  A    between atoms: C_4  and  O_11
REMARK    4  A    between atoms: C_5  and  C_16
REMARK    5  A    between atoms: C_6  and  O_13
REMARK    6  A    between atoms: C_16  and  O_17
REMARK                            x       y       z     vdW  Elec       q    Type
REMARK                         _______ _______ _______ _____ _____    ______ ____
ROOT
ATOM      1  O   UNL     1      38.280 -23.826 -13.790  0.00  0.00    -0.317 OA
ATOM      2  C   UNL     1      36.172 -24.783 -12.084  0.00  0.00    +0.172 C 
ATOM      3  C   UNL     1      36.800 -25.678 -13.152  0.00  0.00    +0.178 C 
ATOM      4  C   UNL     1      36.318 -23.305 -12.449  0.00  0.00    +0.196 C 
ATOM      5  C   UNL     1      38.221 -25.212 -13.461  0.00  0.00    +0.245 C 
ATOM      6  C   UNL     1      37.773 -22.963 -12.766  0.00  0.00    +0.263 C 
ENDROOT
BRANCH   2   7
ATOM      7  O   UNL     1      34.793 -25.117 -11.943  0.00  0.00    -0.379 OA
ATOM      8  H   UNL     1      34.248 -24.393 -12.288  0.00  0.00    +0.211 HD
ENDBRANCH   2   7
BRANCH   3   9
ATOM      9  O   UNL     1      36.833 -27.012 -12.648  0.00  0.00    -0.379 OA
ATOM     10  H   UNL     1      37.663 -27.156 -12.167  0.00  0.00    +0.211 HD
ENDBRANCH   3   9
BRANCH   4  11
ATOM     11  O   UNL     1      35.537 -23.010 -13.608  0.00  0.00    -0.378 OA
ATOM     12  H   UNL     1      35.278 -23.837 -14.043  0.00  0.00    +0.211 HD
ENDBRANCH   4  11
BRANCH   6  13
ATOM     13  O   UNL     1      38.552 -23.021 -11.576  0.00  0.00    -0.358 OA
ATOM     14  H   UNL     1      37.967 -22.984 -10.804  0.00  0.00    +0.213 HD
ENDBRANCH   6  13
BRANCH   5  16
ATOM     15  O   UNL     1      39.919 -25.990 -14.989  0.00  0.00    -0.247 OA
ATOM     16  C   UNL     1      38.738 -25.863 -14.703  0.00  0.00    +0.344 C 
BRANCH  16  17
ATOM     17  O   UNL     1      37.714 -26.296 -15.479  0.00  0.00    -0.478 OA
ATOM     18  H   UNL     1      36.868 -25.899 -15.403  0.00  0.00    +0.295 HD
ENDBRANCH  16  17
ENDBRANCH   5  16
TORSDOF 6
ENDMDL
MODEL 6
REMARK VINA RESULT:      -6.6      1.682      4.131
REMARK  Name = 657117
REMARK  6 active torsions:
REMARK  status: ('A' for Active; 'I' for Inactive)
REMARK    1  A    between atoms: C_2  and  O_7
REMARK    2  A    between atoms: C_3  and  O_9
REMARK    3  A    between atoms: C_4  and  O_11
REMARK    4  A    between atoms: C_5  and  C_16
REMARK    5  A    between atoms: C_6  and  O_13
REMARK    6  A    between atoms: C_16  and  O_17
REMARK                            x       y       z     vdW  Elec       q    Type
REMARK                         _______ _______ _______ _____ _____    ______ ____
ROOT
ATOM      1  O   UNL     1      37.689 -25.473 -12.015  0.00  0.00    -0.317 OA
ATOM      2  C   UNL     1      36.751 -24.753 -14.636  0.00  0.00    +0.172 C 
ATOM      3  C   UNL     1      35.938 -24.429 -13.383  0.00  0.00    +0.178 C 
ATOM      4  C   UNL     1      37.672 -25.951 -14.400  0.00  0.00    +0.196 C 
ATOM      5  C   UNL     1      36.860 -24.324 -12.170  0.00  0.00    +0.245 C 
ATOM      6  C   UNL     1      38.521 -25.747 -13.147  0.00  0.00    +0.263 C 
ENDROOT
BRANCH   2   7
ATOM      7  O   UNL     1      35.860 -25.026 -15.715  0.00  0.00    -0.379 OA
ATOM      8  H   UNL     1      34.970 -25.191 -15.367  0.00  0.00    +0.211 HD
ENDBRANCH   2   7
BRANCH   3   9
ATOM      9  O   UNL     1      35.280 -23.180 -13.593  0.00  0.00    -0.379 OA
ATOM     10  H   UNL     1      34.669 -23.009 -12.859  0.00  0.00    +0.211 HD
ENDBRANCH   3   9
BRANCH   4  11
ATOM     11  O   UNL     1      36.894 -27.134 -14.212  0.00  0.00    -0.378 OA
ATOM     12  H   UNL     1      37.481 -27.882 -14.023  0.00  0.00    +0.211 HD
ENDBRANCH   4  11
BRANCH   6  13
ATOM     13  O   UNL     1      39.478 -24.717 -13.376  0.00  0.00    -0.358 OA
ATOM     14  H   UNL     1      40.354 -25.020 -13.090  0.00  0.00    +0.213 HD
ENDBRANCH   6  13
BRANCH   5  16
ATOM     15  O   UNL     1      36.441 -23.815  -9.848  0.00  0.00    -0.247 OA
ATOM     16  C   UNL     1      36.072 -24.317 -10.900  0.00  0.00    +0.344 C 
BRANCH  16  17
ATOM     17  O   UNL     1      34.886 -24.949 -11.069  0.00  0.00    -0.478 OA
ATOM     18  H   UNL     1      34.226 -24.570 -11.617  0.00  0.00    +0.295 HD
ENDBRANCH  16  17
ENDBRANCH   5  16
TORSDOF 6
ENDMDL
MODEL 7
REMARK VINA RESULT:      -6.6      1.920      4.151
REMARK  Name = 657117
REMARK  6 active torsions:
REMARK  status: ('A' for Active; 'I' for Inactive)
REMARK    1  A    between atoms: C_2  and  O_7
REMARK    2  A    between atoms: C_3  and  O_9
REMARK    3  A    between atoms: C_4  and  O_11
REMARK    4  A    between atoms: C_5  and  C_16
REMARK    5  A    between atoms: C_6  and  O_13
REMARK    6  A    between atoms: C_16  and  O_17
REMARK                            x       y       z     vdW  Elec       q    Type
REMARK                         _______ _______ _______ _____ _____    ______ ____
ROOT
ATOM      1  O   UNL     1      36.405 -23.281 -13.297  0.00  0.00    -0.317 OA
ATOM      2  C   UNL     1      37.230 -25.888 -14.185  0.00  0.00    +0.172 C 
ATOM      3  C   UNL     1      37.239 -25.511 -12.703  0.00  0.00    +0.178 C 
ATOM      4  C   UNL     1      37.360 -24.647 -15.069  0.00  0.00    +0.196 C 
ATOM      5  C   UNL     1      36.225 -24.402 -12.436  0.00  0.00    +0.245 C 
ATOM      6  C   UNL     1      36.316 -23.597 -14.691  0.00  0.00    +0.263 C 
ENDROOT
BRANCH   2   7
ATOM      7  O   UNL     1      38.303 -26.789 -14.447  0.00  0.00    -0.379 OA
ATOM      8  H   UNL     1      38.264 -27.079 -15.371  0.00  0.00    +0.211 HD
ENDBRANCH   2   7
BRANCH   3   9
ATOM      9  O   UNL     1      36.889 -26.671 -11.950  0.00  0.00    -0.379 OA
ATOM     10  H   UNL     1      36.400 -26.406 -11.155  0.00  0.00    +0.211 HD
ENDBRANCH   3   9
BRANCH   4  11
ATOM     11  O   UNL     1      38.651 -24.061 -14.899  0.00  0.00    -0.378 OA
ATOM     12  H   UNL     1      39.114 -24.044 -15.752  0.00  0.00    +0.211 HD
ENDBRANCH   4  11
BRANCH   6  13
ATOM     13  O   UNL     1      35.019 -24.052 -15.060  0.00  0.00    -0.358 OA
ATOM     14  H   UNL     1      34.676 -23.502 -15.782  0.00  0.00    +0.213 HD
ENDBRANCH   6  13
BRANCH   5  16
ATOM     15  O   UNL     1      37.223 -22.914 -10.818  0.00  0.00    -0.247 OA
ATOM     16  C   UNL     1      36.430 -23.807 -11.080  0.00  0.00    +0.344 C 
BRANCH  16  17
ATOM     17  O   UNL     1      35.617 -24.395 -10.170  0.00  0.00    -0.478 OA
ATOM     18  H   UNL     1      35.085 -25.126 -10.421  0.00  0.00    +0.295 HD
ENDBRANCH  16  17
ENDBRANCH   5  16
TORSDOF 6
ENDMDL
MODEL 8
REMARK VINA RESULT:      -6.6      1.844      3.960
REMARK  Name = 657117
REMARK  6 active torsions:
REMARK  status: ('A' for Active; 'I' for Inactive)
REMARK    1  A    between atoms: C_2  and  O_7
REMARK    2  A    between atoms: C_3  and  O_9
REMARK    3  A    between atoms: C_4  and  O_11
REMARK    4  A    between atoms: C_5  and  C_16
REMARK    5  A    between atoms: C_6  and  O_13
REMARK    6  A    between atoms: C_16  and  O_17
REMARK                            x       y       z     vdW  Elec       q    Type
REMARK                         _______ _______ _______ _____ _____    ______ ____
ROOT
ATOM      1  O   UNL     1      36.070 -23.473 -12.952  0.00  0.00    -0.317 OA
ATOM      2  C   UNL     1      38.571 -24.879 -13.138  0.00  0.00    +0.172 C 
ATOM      3  C   UNL     1      37.804 -24.450 -14.389  0.00  0.00    +0.178 C 
ATOM      4  C   UNL     1      37.628 -25.045 -11.945  0.00  0.00    +0.196 C 
ATOM      5  C   UNL     1      36.917 -23.247 -14.075  0.00  0.00    +0.245 C 
ATOM      6  C   UNL     1      36.774 -23.794 -11.748  0.00  0.00    +0.263 C 
ENDROOT
BRANCH   2   7
ATOM      7  O   UNL     1      39.247 -26.107 -13.401  0.00  0.00    -0.379 OA
ATOM      8  H   UNL     1      39.902 -25.972 -14.103  0.00  0.00    +0.211 HD
ENDBRANCH   2   7
BRANCH   3   9
ATOM      9  O   UNL     1      38.755 -24.096 -15.391  0.00  0.00    -0.379 OA
ATOM     10  H   UNL     1      38.296 -23.934 -16.230  0.00  0.00    +0.211 HD
ENDBRANCH   3   9
BRANCH   4  11
ATOM     11  O   UNL     1      36.747 -26.146 -12.169  0.00  0.00    -0.378 OA
ATOM     12  H   UNL     1      36.821 -26.775 -11.435  0.00  0.00    +0.211 HD
ENDBRANCH   4  11
BRANCH   6  13
ATOM     13  O   UNL     1      37.589 -22.719 -11.295  0.00  0.00    -0.358 OA
ATOM     14  H   UNL     1      37.082 -22.164 -10.682  0.00  0.00    +0.213 HD
ENDBRANCH   6  13
BRANCH   5  16
ATOM     15  O   UNL     1      36.152 -23.210 -16.364  0.00  0.00    -0.247 OA
ATOM     16  C   UNL     1      35.938 -23.004 -15.178  0.00  0.00    +0.344 C 
BRANCH  16  17
ATOM     17  O   UNL     1      34.773 -22.518 -14.686  0.00  0.00    -0.478 OA
ATOM     18  H   UNL     1      34.006 -22.506 -15.225  0.00  0.00    +0.295 HD
ENDBRANCH  16  17
ENDBRANCH   5  16
TORSDOF 6
ENDMDL
MODEL 9
REMARK VINA RESULT:      -6.5      2.703      4.463
REMARK  Name = 657117
REMARK  6 active torsions:
REMARK  status: ('A' for Active; 'I' for Inactive)
REMARK    1  A    between atoms: C_2  and  O_7
REMARK    2  A    between atoms: C_3  and  O_9
REMARK    3  A    between atoms: C_4  and  O_11
REMARK    4  A    between atoms: C_5  and  C_16
REMARK    5  A    between atoms: C_6  and  O_13
REMARK    6  A    between atoms: C_16  and  O_17
REMARK                            x       y       z     vdW  Elec       q    Type
REMARK                         _______ _______ _______ _____ _____    ______ ____
ROOT
ATOM      1  O   UNL     1      34.372 -23.779 -12.242  0.00  0.00    -0.317 OA
ATOM      2  C   UNL     1      35.594 -24.952 -14.565  0.00  0.00    +0.172 C 
ATOM      3  C   UNL     1      36.363 -24.798 -13.253  0.00  0.00    +0.178 C 
ATOM      4  C   UNL     1      34.470 -23.920 -14.668  0.00  0.00    +0.196 C 
ATOM      5  C   UNL     1      35.392 -24.760 -12.075  0.00  0.00    +0.245 C 
ATOM      6  C   UNL     1      33.584 -23.954 -13.424  0.00  0.00    +0.263 C 
ENDROOT
BRANCH   2   7
ATOM      7  O   UNL     1      36.497 -24.801 -15.658  0.00  0.00    -0.379 OA
ATOM      8  H   UNL     1      37.005 -25.619 -15.774  0.00  0.00    +0.211 HD
ENDBRANCH   2   7
BRANCH   3   9
ATOM      9  O   UNL     1      37.236 -25.918 -13.117  0.00  0.00    -0.379 OA
ATOM     10  H   UNL     1      37.165 -26.278 -12.219  0.00  0.00    +0.211 HD
ENDBRANCH   3   9
BRANCH   4  11
ATOM     11  O   UNL     1      35.021 -22.607 -14.776  0.00  0.00    -0.378 OA
ATOM     12  H   UNL     1      35.010 -22.178 -13.906  0.00  0.00    +0.211 HD
ENDBRANCH   4  11
BRANCH   6  13
ATOM     13  O   UNL     1      32.833 -25.164 -13.399  0.00  0.00    -0.358 OA
ATOM     14  H   UNL     1      32.748 -25.510 -14.301  0.00  0.00    +0.213 HD
ENDBRANCH   6  13
BRANCH   5  16
ATOM     15  O   UNL     1      37.190 -23.792 -10.789  0.00  0.00    -0.247 OA
ATOM     16  C   UNL     1      36.081 -24.305 -10.830  0.00  0.00    +0.344 C 
BRANCH  16  17
ATOM     17  O   UNL     1      35.309 -24.540  -9.741  0.00  0.00    -0.478 OA
ATOM     18  H   UNL     1      34.379 -24.615  -9.833  0.00  0.00    +0.295 HD
ENDBRANCH  16  17
ENDBRANCH   5  16
TORSDOF 6
ENDMDL
