MODEL 1
REMARK VINA RESULT:      -8.1      0.000      0.000
REMARK  Name = 71195
REMARK  6 active torsions:
REMARK  status: ('A' for Active; 'I' for Inactive)
REMARK    1  A    between atoms: C_2  and  O_15
REMARK    2  A    between atoms: C_2  and  C_19
REMARK    3  A    between atoms: C_11  and  O_17
REMARK    4  A    between atoms: C_19  and  C_20
REMARK    5  A    between atoms: C_20  and  C_21
REMARK    6  A    between atoms: C_21  and  N_22
REMARK                            x       y       z     vdW  Elec       q    Type
REMARK                         _______ _______ _______ _____ _____    ______ ____
ROOT
ATOM      1  S   UNL     1      33.285 -15.884 -25.763  0.00  0.00    -0.087 S 
ATOM      2  C   UNL     1      33.953 -14.597 -22.923  0.00  0.00    +0.127 C 
ATOM      3  C   UNL     1      33.826 -13.674 -24.134  0.00  0.00    +0.015 C 
ATOM      4  C   UNL     1      34.466 -16.005 -23.229  0.00  0.00    +0.012 C 
ATOM      5  C   UNL     1      33.528 -14.156 -25.420  0.00  0.00    +0.028 C 
ATOM      6  C   UNL     1      34.212 -16.648 -24.453  0.00  0.00    +0.028 C 
ATOM      7  C   UNL     1      33.941 -12.277 -23.965  0.00  0.00    +0.036 C 
ATOM      8  C   UNL     1      35.164 -16.727 -22.237  0.00  0.00    -0.001 C 
ATOM      9  C   UNL     1      33.382 -13.262 -26.494  0.00  0.00    +0.009 C 
ATOM     10  C   UNL     1      34.672 -17.958 -24.671  0.00  0.00    +0.006 C 
ATOM     11  C   UNL     1      33.799 -11.396 -25.037  0.00  0.00    +0.139 C 
ATOM     12  C   UNL     1      35.620 -18.026 -22.464  0.00  0.00    -0.000 C 
ATOM     13  C   UNL     1      33.523 -11.889 -26.303  0.00  0.00    +0.037 C 
ATOM     14  C   UNL     1      35.377 -18.641 -23.684  0.00  0.00    +0.000 C 
ENDROOT
BRANCH   2  15
ATOM     15  O   UNL     1      34.915 -13.991 -22.041  0.00  0.00    -0.379 OA
ATOM     16  H   UNL     1      35.581 -13.519 -22.565  0.00  0.00    +0.211 HD
ENDBRANCH   2  15
BRANCH  11  17
ATOM     17  O   UNL     1      33.924 -10.056 -24.838  0.00  0.00    -0.471 OA
ATOM     18  C   UNL     1      35.196  -9.581 -24.397  0.00  0.00    +0.252 C 
ENDBRANCH  11  17
BRANCH   2  19
ATOM     19  C   UNL     1      32.595 -14.692 -22.204  0.00  0.00    +0.033 C 
BRANCH  19  20
ATOM     20  C   UNL     1      32.527 -13.718 -21.036  0.00  0.00    -0.020 C 
BRANCH  20  21
ATOM     21  C   UNL     1      31.561 -12.576 -21.345  0.00  0.00    -0.077 C 
BRANCH  21  22
ATOM     22  N   UNL     1      32.034 -11.335 -20.743  0.00  0.00    +0.384 N 
ATOM     23  C   UNL     1      31.759 -10.198 -21.622  0.00  0.00    -0.101 C 
ATOM     24  C   UNL     1      31.414 -11.127 -19.434  0.00  0.00    -0.101 C 
ATOM     25  H   UNL     1      33.044 -11.409 -20.615  0.00  0.00    -0.080 HD
ENDBRANCH  21  22
ENDBRANCH  20  21
ENDBRANCH  19  20
ENDBRANCH   2  19
TORSDOF 6
ENDMDL
MODEL 2
REMARK VINA RESULT:      -8.1      3.985      7.306
REMARK  Name = 71195
REMARK  6 active torsions:
REMARK  status: ('A' for Active; 'I' for Inactive)
REMARK    1  A    between atoms: C_2  and  O_15
REMARK    2  A    between atoms: C_2  and  C_19
REMARK    3  A    between atoms: C_11  and  O_17
REMARK    4  A    between atoms: C_19  and  C_20
REMARK    5  A    between atoms: C_20  and  C_21
REMARK    6  A    between atoms: C_21  and  N_22
REMARK                            x       y       z     vdW  Elec       q    Type
REMARK                         _______ _______ _______ _____ _____    ______ ____
ROOT
ATOM      1  S   UNL     1      32.312  -7.252 -20.108  0.00  0.00    -0.087 S 
ATOM      2  C   UNL     1      32.463  -8.698 -22.946  0.00  0.00    +0.127 C 
ATOM      3  C   UNL     1      32.037  -7.231 -22.892  0.00  0.00    +0.015 C 
ATOM      4  C   UNL     1      32.088  -9.529 -21.718  0.00  0.00    +0.012 C 
ATOM      5  C   UNL     1      31.951  -6.516 -21.686  0.00  0.00    +0.028 C 
ATOM      6  C   UNL     1      32.004  -8.973 -20.431  0.00  0.00    +0.028 C 
ATOM      7  C   UNL     1      31.783  -6.531 -24.092  0.00  0.00    +0.036 C 
ATOM      8  C   UNL     1      31.879 -10.919 -21.852  0.00  0.00    -0.001 C 
ATOM      9  C   UNL     1      31.593  -5.157 -21.692  0.00  0.00    +0.009 C 
ATOM     10  C   UNL     1      31.695  -9.788 -19.329  0.00  0.00    +0.006 C 
ATOM     11  C   UNL     1      31.425  -5.183 -24.091  0.00  0.00    +0.139 C 
ATOM     12  C   UNL     1      31.568 -11.720 -20.752  0.00  0.00    -0.000 C 
ATOM     13  C   UNL     1      31.326  -4.497 -22.889  0.00  0.00    +0.037 C 
ATOM     14  C   UNL     1      31.472 -11.152 -19.489  0.00  0.00    +0.000 C 
ENDROOT
BRANCH   2  15
ATOM     15  O   UNL     1      31.778  -9.286 -24.066  0.00  0.00    -0.379 OA
ATOM     16  H   UNL     1      31.949 -10.240 -24.086  0.00  0.00    +0.211 HD
ENDBRANCH   2  15
BRANCH  11  17
ATOM     17  O   UNL     1      31.180  -4.542 -25.265  0.00  0.00    -0.471 OA
ATOM     18  C   UNL     1      32.312  -4.063 -25.992  0.00  0.00    +0.252 C 
ENDBRANCH  11  17
BRANCH   2  19
ATOM     19  C   UNL     1      33.983  -8.784 -23.178  0.00  0.00    +0.033 C 
BRANCH  19  20
ATOM     20  C   UNL     1      34.292  -9.359 -24.553  0.00  0.00    -0.020 C 
BRANCH  20  21
ATOM     21  C   UNL     1      34.774 -10.804 -24.436  0.00  0.00    -0.077 C 
BRANCH  21  22
ATOM     22  N   UNL     1      33.712 -11.725 -24.822  0.00  0.00    +0.384 N 
ATOM     23  C   UNL     1      33.790 -12.033 -26.251  0.00  0.00    -0.101 C 
ATOM     24  C   UNL     1      33.784 -12.956 -24.033  0.00  0.00    -0.101 C 
ATOM     25  H   UNL     1      32.816 -11.273 -24.635  0.00  0.00    -0.080 HD
ENDBRANCH  21  22
ENDBRANCH  20  21
ENDBRANCH  19  20
ENDBRANCH   2  19
TORSDOF 6
ENDMDL
MODEL 3
REMARK VINA RESULT:      -8.0      2.645      5.748
REMARK  Name = 71195
REMARK  6 active torsions:
REMARK  status: ('A' for Active; 'I' for Inactive)
REMARK    1  A    between atoms: C_2  and  O_15
REMARK    2  A    between atoms: C_2  and  C_19
REMARK    3  A    between atoms: C_11  and  O_17
REMARK    4  A    between atoms: C_19  and  C_20
REMARK    5  A    between atoms: C_20  and  C_21
REMARK    6  A    between atoms: C_21  and  N_22
REMARK                            x       y       z     vdW  Elec       q    Type
REMARK                         _______ _______ _______ _____ _____    ______ ____
ROOT
ATOM      1  S   UNL     1      33.496 -11.314 -23.978  0.00  0.00    -0.087 S 
ATOM      2  C   UNL     1      33.088 -13.913 -22.176  0.00  0.00    +0.127 C 
ATOM      3  C   UNL     1      33.226 -14.084 -23.689  0.00  0.00    +0.015 C 
ATOM      4  C   UNL     1      32.446 -12.600 -21.726  0.00  0.00    +0.012 C 
ATOM      5  C   UNL     1      33.415 -12.994 -24.556  0.00  0.00    +0.028 C 
ATOM      6  C   UNL     1      32.581 -11.408 -22.457  0.00  0.00    +0.028 C 
ATOM      7  C   UNL     1      33.234 -15.380 -24.249  0.00  0.00    +0.036 C 
ATOM      8  C   UNL     1      31.745 -12.547 -20.502  0.00  0.00    -0.001 C 
ATOM      9  C   UNL     1      33.575 -13.207 -25.935  0.00  0.00    +0.009 C 
ATOM     10  C   UNL     1      32.005 -10.218 -21.981  0.00  0.00    +0.006 C 
ATOM     11  C   UNL     1      33.390 -15.584 -25.620  0.00  0.00    +0.139 C 
ATOM     12  C   UNL     1      31.173 -11.362 -20.038  0.00  0.00    -0.000 C 
ATOM     13  C   UNL     1      33.557 -14.495 -26.464  0.00  0.00    +0.037 C 
ATOM     14  C   UNL     1      31.300 -10.197 -20.780  0.00  0.00    +0.000 C 
ENDROOT
BRANCH   2  15
ATOM     15  O   UNL     1      32.227 -14.971 -21.718  0.00  0.00    -0.379 OA
ATOM     16  H   UNL     1      32.204 -15.679 -22.379  0.00  0.00    +0.211 HD
ENDBRANCH   2  15
BRANCH  11  17
ATOM     17  O   UNL     1      33.386 -16.846 -26.126  0.00  0.00    -0.471 OA
ATOM     18  C   UNL     1      34.073 -17.848 -25.376  0.00  0.00    +0.252 C 
ENDBRANCH  11  17
BRANCH   2  19
ATOM     19  C   UNL     1      34.470 -14.060 -21.514  0.00  0.00    +0.033 C 
BRANCH  19  20
ATOM     20  C   UNL     1      34.557 -15.354 -20.717  0.00  0.00    -0.020 C 
BRANCH  20  21
ATOM     21  C   UNL     1      35.138 -16.477 -21.576  0.00  0.00    -0.077 C 
BRANCH  21  22
ATOM     22  N   UNL     1      35.075 -17.746 -20.862  0.00  0.00    +0.384 N 
ATOM     23  C   UNL     1      33.803 -18.422 -21.122  0.00  0.00    -0.101 C 
ATOM     24  C   UNL     1      36.195 -18.608 -21.241  0.00  0.00    -0.101 C 
ATOM     25  H   UNL     1      35.140 -17.551 -19.862  0.00  0.00    -0.080 HD
ENDBRANCH  21  22
ENDBRANCH  20  21
ENDBRANCH  19  20
ENDBRANCH   2  19
TORSDOF 6
ENDMDL
MODEL 4
REMARK VINA RESULT:      -7.8     10.784     13.816
REMARK  Name = 71195
REMARK  6 active torsions:
REMARK  status: ('A' for Active; 'I' for Inactive)
REMARK    1  A    between atoms: C_2  and  O_15
REMARK    2  A    between atoms: C_2  and  C_19
REMARK    3  A    between atoms: C_11  and  O_17
REMARK    4  A    between atoms: C_19  and  C_20
REMARK    5  A    between atoms: C_20  and  C_21
REMARK    6  A    between atoms: C_21  and  N_22
REMARK                            x       y       z     vdW  Elec       q    Type
REMARK                         _______ _______ _______ _____ _____    ______ ____
ROOT
ATOM      1  S   UNL     1      33.293 -23.102 -18.061  0.00  0.00    -0.087 S 
ATOM      2  C   UNL     1      34.886 -23.431 -15.318  0.00  0.00    +0.127 C 
ATOM      3  C   UNL     1      33.360 -23.356 -15.276  0.00  0.00    +0.015 C 
ATOM      4  C   UNL     1      35.544 -22.654 -16.460  0.00  0.00    +0.012 C 
ATOM      5  C   UNL     1      32.580 -23.217 -16.436  0.00  0.00    +0.028 C 
ATOM      6  C   UNL     1      34.914 -22.467 -17.703  0.00  0.00    +0.028 C 
ATOM      7  C   UNL     1      32.687 -23.496 -14.043  0.00  0.00    +0.036 C 
ATOM      8  C   UNL     1      36.855 -22.156 -16.303  0.00  0.00    -0.001 C 
ATOM      9  C   UNL     1      31.178 -23.193 -16.347  0.00  0.00    +0.009 C 
ATOM     10  C   UNL     1      35.577 -21.780 -18.733  0.00  0.00    +0.006 C 
ATOM     11  C   UNL     1      31.294 -23.467 -13.962  0.00  0.00    +0.139 C 
ATOM     12  C   UNL     1      37.504 -21.471 -17.331  0.00  0.00    -0.000 C 
ATOM     13  C   UNL     1      30.540 -23.311 -15.115  0.00  0.00    +0.037 C 
ATOM     14  C   UNL     1      36.863 -21.279 -18.546  0.00  0.00    +0.000 C 
ENDROOT
BRANCH   2  15
ATOM     15  O   UNL     1      35.363 -22.846 -14.094  0.00  0.00    -0.379 OA
ATOM     16  H   UNL     1      35.182 -23.448 -13.356  0.00  0.00    +0.211 HD
ENDBRANCH   2  15
BRANCH  11  17
ATOM     17  O   UNL     1      30.679 -23.598 -12.755  0.00  0.00    -0.471 OA
ATOM     18  C   UNL     1      30.014 -24.834 -12.497  0.00  0.00    +0.252 C 
ENDBRANCH  11  17
BRANCH   2  19
ATOM     19  C   UNL     1      35.326 -24.905 -15.382  0.00  0.00    +0.033 C 
BRANCH  19  20
ATOM     20  C   UNL     1      36.334 -25.220 -14.286  0.00  0.00    -0.020 C 
BRANCH  20  21
ATOM     21  C   UNL     1      37.475 -26.075 -14.834  0.00  0.00    -0.077 C 
BRANCH  21  22
ATOM     22  N   UNL     1      38.501 -26.263 -13.816  0.00  0.00    +0.384 N 
ATOM     23  C   UNL     1      39.767 -25.664 -14.242  0.00  0.00    -0.101 C 
ATOM     24  C   UNL     1      38.073 -25.690 -12.539  0.00  0.00    -0.101 C 
ATOM     25  H   UNL     1      38.644 -27.266 -13.689  0.00  0.00    -0.080 HD
ENDBRANCH  21  22
ENDBRANCH  20  21
ENDBRANCH  19  20
ENDBRANCH   2  19
TORSDOF 6
ENDMDL
MODEL 5
REMARK VINA RESULT:      -7.5      9.891     13.358
REMARK  Name = 71195
REMARK  6 active torsions:
REMARK  status: ('A' for Active; 'I' for Inactive)
REMARK    1  A    between atoms: C_2  and  O_15
REMARK    2  A    between atoms: C_2  and  C_19
REMARK    3  A    between atoms: C_11  and  O_17
REMARK    4  A    between atoms: C_19  and  C_20
REMARK    5  A    between atoms: C_20  and  C_21
REMARK    6  A    between atoms: C_21  and  N_22
REMARK                            x       y       z     vdW  Elec       q    Type
REMARK                         _______ _______ _______ _____ _____    ______ ____
ROOT
ATOM      1  S   UNL     1      37.275 -21.722 -16.832  0.00  0.00    -0.087 S 
ATOM      2  C   UNL     1      34.737 -23.516 -16.116  0.00  0.00    +0.127 C 
ATOM      3  C   UNL     1      36.113 -23.962 -15.622  0.00  0.00    +0.015 C 
ATOM      4  C   UNL     1      34.739 -22.741 -17.435  0.00  0.00    +0.012 C 
ATOM      5  C   UNL     1      37.282 -23.229 -15.887  0.00  0.00    +0.028 C 
ATOM      6  C   UNL     1      35.814 -21.923 -17.825  0.00  0.00    +0.028 C 
ATOM      7  C   UNL     1      36.227 -25.113 -14.813  0.00  0.00    +0.036 C 
ATOM      8  C   UNL     1      33.604 -22.783 -18.273  0.00  0.00    -0.001 C 
ATOM      9  C   UNL     1      38.519 -23.660 -15.377  0.00  0.00    +0.009 C 
ATOM     10  C   UNL     1      35.750 -21.200 -19.027  0.00  0.00    +0.006 C 
ATOM     11  C   UNL     1      37.459 -25.537 -14.313  0.00  0.00    +0.139 C 
ATOM     12  C   UNL     1      33.551 -22.064 -19.468  0.00  0.00    -0.000 C 
ATOM     13  C   UNL     1      38.606 -24.812 -14.599  0.00  0.00    +0.037 C 
ATOM     14  C   UNL     1      34.628 -21.275 -19.848  0.00  0.00    +0.000 C 
ENDROOT
BRANCH   2  15
ATOM     15  O   UNL     1      33.972 -24.713 -16.344  0.00  0.00    -0.379 OA
ATOM     16  H   UNL     1      33.309 -24.547 -17.031  0.00  0.00    +0.211 HD
ENDBRANCH   2  15
BRANCH  11  17
ATOM     17  O   UNL     1      37.532 -26.656 -13.542  0.00  0.00    -0.471 OA
ATOM     18  C   UNL     1      37.379 -26.484 -12.133  0.00  0.00    +0.252 C 
ENDBRANCH  11  17
BRANCH   2  19
ATOM     19  C   UNL     1      34.049 -22.672 -15.028  0.00  0.00    +0.033 C 
BRANCH  19  20
ATOM     20  C   UNL     1      32.957 -23.470 -14.329  0.00  0.00    -0.020 C 
BRANCH  20  21
ATOM     21  C   UNL     1      31.578 -22.909 -14.673  0.00  0.00    -0.077 C 
BRANCH  21  22
ATOM     22  N   UNL     1      30.957 -23.703 -15.726  0.00  0.00    +0.384 N 
ATOM     23  C   UNL     1      30.345 -24.910 -15.170  0.00  0.00    -0.101 C 
ATOM     24  C   UNL     1      29.958 -22.913 -16.447  0.00  0.00    -0.101 C 
ATOM     25  H   UNL     1      31.685 -23.983 -16.385  0.00  0.00    -0.080 HD
ENDBRANCH  21  22
ENDBRANCH  20  21
ENDBRANCH  19  20
ENDBRANCH   2  19
TORSDOF 6
ENDMDL
MODEL 6
REMARK VINA RESULT:      -7.4      0.735      1.042
REMARK  Name = 71195
REMARK  6 active torsions:
REMARK  status: ('A' for Active; 'I' for Inactive)
REMARK    1  A    between atoms: C_2  and  O_15
REMARK    2  A    between atoms: C_2  and  C_19
REMARK    3  A    between atoms: C_11  and  O_17
REMARK    4  A    between atoms: C_19  and  C_20
REMARK    5  A    between atoms: C_20  and  C_21
REMARK    6  A    between atoms: C_21  and  N_22
REMARK                            x       y       z     vdW  Elec       q    Type
REMARK                         _______ _______ _______ _____ _____    ______ ____
ROOT
ATOM      1  S   UNL     1      33.383 -16.791 -25.460  0.00  0.00    -0.087 S 
ATOM      2  C   UNL     1      33.985 -14.942 -22.933  0.00  0.00    +0.127 C 
ATOM      3  C   UNL     1      33.815 -14.282 -24.301  0.00  0.00    +0.015 C 
ATOM      4  C   UNL     1      34.565 -16.357 -22.961  0.00  0.00    +0.012 C 
ATOM      5  C   UNL     1      33.542 -15.020 -25.465  0.00  0.00    +0.028 C 
ATOM      6  C   UNL     1      34.344 -17.239 -24.033  0.00  0.00    +0.028 C 
ATOM      7  C   UNL     1      33.863 -12.875 -24.410  0.00  0.00    +0.036 C 
ATOM      8  C   UNL     1      35.295 -16.836 -21.853  0.00  0.00    -0.001 C 
ATOM      9  C   UNL     1      33.355 -14.363 -26.692  0.00  0.00    +0.009 C 
ATOM     10  C   UNL     1      34.866 -18.542 -23.993  0.00  0.00    +0.006 C 
ATOM     11  C   UNL     1      33.680 -12.229 -25.633  0.00  0.00    +0.139 C 
ATOM     12  C   UNL     1      35.814 -18.131 -21.823  0.00  0.00    -0.000 C 
ATOM     13  C   UNL     1      33.430 -12.974 -26.776  0.00  0.00    +0.037 C 
ATOM     14  C   UNL     1      35.602 -18.984 -22.897  0.00  0.00    +0.000 C 
ENDROOT
BRANCH   2  15
ATOM     15  O   UNL     1      34.915 -14.130 -22.195  0.00  0.00    -0.379 OA
ATOM     16  H   UNL     1      34.979 -14.457 -21.285  0.00  0.00    +0.211 HD
ENDBRANCH   2  15
BRANCH  11  17
ATOM     17  O   UNL     1      33.740 -10.872 -25.702  0.00  0.00    -0.471 OA
ATOM     18  C   UNL     1      34.863 -10.240 -25.088  0.00  0.00    +0.252 C 
ENDBRANCH  11  17
BRANCH   2  19
ATOM     19  C   UNL     1      32.631 -14.958 -22.199  0.00  0.00    +0.033 C 
BRANCH  19  20
ATOM     20  C   UNL     1      32.484 -13.738 -21.301  0.00  0.00    -0.020 C 
BRANCH  20  21
ATOM     21  C   UNL     1      31.706 -12.635 -22.017  0.00  0.00    -0.077 C 
BRANCH  21  22
ATOM     22  N   UNL     1      31.155 -11.694 -21.049  0.00  0.00    +0.384 N 
ATOM     23  C   UNL     1      31.781 -11.877 -19.738  0.00  0.00    -0.101 C 
ATOM     24  C   UNL     1      31.335 -10.316 -21.509  0.00  0.00    -0.101 C 
ATOM     25  H   UNL     1      30.155 -11.878 -20.960  0.00  0.00    -0.080 HD
ENDBRANCH  21  22
ENDBRANCH  20  21
ENDBRANCH  19  20
ENDBRANCH   2  19
TORSDOF 6
ENDMDL
MODEL 7
REMARK VINA RESULT:      -7.4     10.272     13.438
REMARK  Name = 71195
REMARK  6 active torsions:
REMARK  status: ('A' for Active; 'I' for Inactive)
REMARK    1  A    between atoms: C_2  and  O_15
REMARK    2  A    between atoms: C_2  and  C_19
REMARK    3  A    between atoms: C_11  and  O_17
REMARK    4  A    between atoms: C_19  and  C_20
REMARK    5  A    between atoms: C_20  and  C_21
REMARK    6  A    between atoms: C_21  and  N_22
REMARK                            x       y       z     vdW  Elec       q    Type
REMARK                         _______ _______ _______ _____ _____    ______ ____
ROOT
ATOM      1  S   UNL     1      34.355 -23.745 -12.390  0.00  0.00    -0.087 S 
ATOM      2  C   UNL     1      35.150 -23.773 -15.478  0.00  0.00    +0.127 C 
ATOM      3  C   UNL     1      33.684 -23.561 -15.100  0.00  0.00    +0.015 C 
ATOM      4  C   UNL     1      35.954 -24.638 -14.505  0.00  0.00    +0.012 C 
ATOM      5  C   UNL     1      33.248 -23.528 -13.765  0.00  0.00    +0.028 C 
ATOM      6  C   UNL     1      35.674 -24.680 -13.129  0.00  0.00    +0.028 C 
ATOM      7  C   UNL     1      32.729 -23.320 -16.111  0.00  0.00    +0.036 C 
ATOM      8  C   UNL     1      37.060 -25.376 -14.977  0.00  0.00    -0.001 C 
ATOM      9  C   UNL     1      31.895 -23.291 -13.468  0.00  0.00    +0.009 C 
ATOM     10  C   UNL     1      36.467 -25.460 -12.271  0.00  0.00    +0.006 C 
ATOM     11  C   UNL     1      31.387 -23.088 -15.809  0.00  0.00    +0.139 C 
ATOM     12  C   UNL     1      37.840 -26.152 -14.118  0.00  0.00    -0.000 C 
ATOM     13  C   UNL     1      30.969 -23.078 -14.486  0.00  0.00    +0.037 C 
ATOM     14  C   UNL     1      37.541 -26.197 -12.764  0.00  0.00    +0.000 C 
ENDROOT
BRANCH   2  15
ATOM     15  O   UNL     1      35.156 -24.460 -16.742  0.00  0.00    -0.379 OA
ATOM     16  H   UNL     1      36.037 -24.831 -16.904  0.00  0.00    +0.211 HD
ENDBRANCH   2  15
BRANCH  11  17
ATOM     17  O   UNL     1      30.492 -22.866 -16.810  0.00  0.00    -0.471 OA
ATOM     18  C   UNL     1      29.120 -22.738 -16.438  0.00  0.00    +0.252 C 
ENDBRANCH  11  17
BRANCH   2  19
ATOM     19  C   UNL     1      35.842 -22.407 -15.639  0.00  0.00    +0.033 C 
BRANCH  19  20
ATOM     20  C   UNL     1      36.886 -22.453 -16.746  0.00  0.00    -0.020 C 
BRANCH  20  21
ATOM     21  C   UNL     1      36.744 -21.245 -17.670  0.00  0.00    -0.077 C 
BRANCH  21  22
ATOM     22  N   UNL     1      36.352 -21.674 -19.007  0.00  0.00    +0.384 N 
ATOM     23  C   UNL     1      34.926 -22.002 -19.047  0.00  0.00    -0.101 C 
ATOM     24  C   UNL     1      36.661 -20.637 -19.994  0.00  0.00    -0.101 C 
ATOM     25  H   UNL     1      36.885 -22.513 -19.241  0.00  0.00    -0.080 HD
ENDBRANCH  21  22
ENDBRANCH  20  21
ENDBRANCH  19  20
ENDBRANCH   2  19
TORSDOF 6
ENDMDL
MODEL 8
REMARK VINA RESULT:      -7.4     10.422     13.647
REMARK  Name = 71195
REMARK  6 active torsions:
REMARK  status: ('A' for Active; 'I' for Inactive)
REMARK    1  A    between atoms: C_2  and  O_15
REMARK    2  A    between atoms: C_2  and  C_19
REMARK    3  A    between atoms: C_11  and  O_17
REMARK    4  A    between atoms: C_19  and  C_20
REMARK    5  A    between atoms: C_20  and  C_21
REMARK    6  A    between atoms: C_21  and  N_22
REMARK                            x       y       z     vdW  Elec       q    Type
REMARK                         _______ _______ _______ _____ _____    ______ ____
ROOT
ATOM      1  S   UNL     1      37.585 -22.716 -15.581  0.00  0.00    -0.087 S 
ATOM      2  C   UNL     1      34.701 -24.028 -15.221  0.00  0.00    +0.127 C 
ATOM      3  C   UNL     1      34.963 -23.161 -16.452  0.00  0.00    +0.015 C 
ATOM      4  C   UNL     1      35.491 -23.638 -13.970  0.00  0.00    +0.012 C 
ATOM      5  C   UNL     1      36.206 -22.551 -16.692  0.00  0.00    +0.028 C 
ATOM      6  C   UNL     1      36.770 -23.060 -14.039  0.00  0.00    +0.028 C 
ATOM      7  C   UNL     1      33.956 -23.010 -17.429  0.00  0.00    +0.036 C 
ATOM      8  C   UNL     1      34.962 -23.921 -12.693  0.00  0.00    -0.001 C 
ATOM      9  C   UNL     1      36.409 -21.795 -17.859  0.00  0.00    +0.009 C 
ATOM     10  C   UNL     1      37.471 -22.757 -12.860  0.00  0.00    +0.006 C 
ATOM     11  C   UNL     1      34.164 -22.255 -18.584  0.00  0.00    +0.139 C 
ATOM     12  C   UNL     1      35.664 -23.612 -11.527  0.00  0.00    -0.000 C 
ATOM     13  C   UNL     1      35.391 -21.644 -18.797  0.00  0.00    +0.037 C 
ATOM     14  C   UNL     1      36.919 -23.026 -11.611  0.00  0.00    +0.000 C 
ENDROOT
BRANCH   2  15
ATOM     15  O   UNL     1      33.308 -23.870 -14.894  0.00  0.00    -0.379 OA
ATOM     16  H   UNL     1      33.003 -24.645 -14.397  0.00  0.00    +0.211 HD
ENDBRANCH   2  15
BRANCH  11  17
ATOM     17  O   UNL     1      33.168 -22.126 -19.502  0.00  0.00    -0.471 OA
ATOM     18  C   UNL     1      33.067 -20.872 -20.177  0.00  0.00    +0.252 C 
ENDBRANCH  11  17
BRANCH   2  19
ATOM     19  C   UNL     1      34.978 -25.503 -15.562  0.00  0.00    +0.033 C 
BRANCH  19  20
ATOM     20  C   UNL     1      35.934 -26.125 -14.553  0.00  0.00    -0.020 C 
BRANCH  20  21
ATOM     21  C   UNL     1      37.255 -26.498 -15.223  0.00  0.00    -0.077 C 
BRANCH  21  22
ATOM     22  N   UNL     1      38.300 -26.671 -14.221  0.00  0.00    +0.384 N 
ATOM     23  C   UNL     1      39.463 -25.841 -14.539  0.00  0.00    -0.101 C 
ATOM     24  C   UNL     1      37.794 -26.347 -12.887  0.00  0.00    -0.101 C 
ATOM     25  H   UNL     1      38.588 -27.650 -14.229  0.00  0.00    -0.080 HD
ENDBRANCH  21  22
ENDBRANCH  20  21
ENDBRANCH  19  20
ENDBRANCH   2  19
TORSDOF 6
ENDMDL
MODEL 9
REMARK VINA RESULT:      -7.1      2.150      4.149
REMARK  Name = 71195
REMARK  6 active torsions:
REMARK  status: ('A' for Active; 'I' for Inactive)
REMARK    1  A    between atoms: C_2  and  O_15
REMARK    2  A    between atoms: C_2  and  C_19
REMARK    3  A    between atoms: C_11  and  O_17
REMARK    4  A    between atoms: C_19  and  C_20
REMARK    5  A    between atoms: C_20  and  C_21
REMARK    6  A    between atoms: C_21  and  N_22
REMARK                            x       y       z     vdW  Elec       q    Type
REMARK                         _______ _______ _______ _____ _____    ______ ____
ROOT
ATOM      1  S   UNL     1      34.642 -15.602 -21.423  0.00  0.00    -0.087 S 
ATOM      2  C   UNL     1      33.370 -14.300 -24.041  0.00  0.00    +0.127 C 
ATOM      3  C   UNL     1      32.869 -13.835 -22.673  0.00  0.00    +0.015 C 
ATOM      4  C   UNL     1      33.845 -15.752 -24.101  0.00  0.00    +0.012 C 
ATOM      5  C   UNL     1      33.378 -14.351 -21.470  0.00  0.00    +0.028 C 
ATOM      6  C   UNL     1      34.421 -16.401 -22.996  0.00  0.00    +0.028 C 
ATOM      7  C   UNL     1      31.908 -12.804 -22.593  0.00  0.00    +0.036 C 
ATOM      8  C   UNL     1      33.770 -16.463 -25.318  0.00  0.00    -0.001 C 
ATOM      9  C   UNL     1      32.912 -13.864 -20.237  0.00  0.00    +0.009 C 
ATOM     10  C   UNL     1      34.879 -17.724 -23.113  0.00  0.00    +0.006 C 
ATOM     11  C   UNL     1      31.448 -12.327 -21.366  0.00  0.00    +0.139 C 
ATOM     12  C   UNL     1      34.223 -17.779 -25.425  0.00  0.00    -0.000 C 
ATOM     13  C   UNL     1      31.947 -12.861 -20.187  0.00  0.00    +0.037 C 
ATOM     14  C   UNL     1      34.774 -18.411 -24.319  0.00  0.00    +0.000 C 
ENDROOT
BRANCH   2  15
ATOM     15  O   UNL     1      32.257 -14.193 -24.947  0.00  0.00    -0.379 OA
ATOM     16  H   UNL     1      32.072 -15.061 -25.335  0.00  0.00    +0.211 HD
ENDBRANCH   2  15
BRANCH  11  17
ATOM     17  O   UNL     1      30.516 -11.337 -21.326  0.00  0.00    -0.471 OA
ATOM     18  C   UNL     1      30.755 -10.187 -22.138  0.00  0.00    +0.252 C 
ENDBRANCH  11  17
BRANCH   2  19
ATOM     19  C   UNL     1      34.503 -13.371 -24.516  0.00  0.00    +0.033 C 
BRANCH  19  20
ATOM     20  C   UNL     1      33.961 -12.266 -25.412  0.00  0.00    -0.020 C 
BRANCH  20  21
ATOM     21  C   UNL     1      33.833 -10.957 -24.634  0.00  0.00    -0.077 C 
BRANCH  21  22
ATOM     22  N   UNL     1      35.101 -10.237 -24.642  0.00  0.00    +0.384 N 
ATOM     23  C   UNL     1      35.682 -10.231 -25.985  0.00  0.00    -0.101 C 
ATOM     24  C   UNL     1      34.919  -8.867 -24.161  0.00  0.00    -0.101 C 
ATOM     25  H   UNL     1      35.744 -10.719 -24.012  0.00  0.00    -0.080 HD
ENDBRANCH  21  22
ENDBRANCH  20  21
ENDBRANCH  19  20
ENDBRANCH   2  19
TORSDOF 6
ENDMDL
