MODEL 1
REMARK VINA RESULT:      -3.3      0.000      0.000
REMARK  Name = 636363
REMARK  0 active torsions:
REMARK  status: ('A' for Active; 'I' for Inactive)
REMARK                            x       y       z     vdW  Elec       q    Type
REMARK                         _______ _______ _______ _____ _____    ______ ____
ROOT
ATOM      1  O   UNL     1      36.683 -27.279 -16.151  0.00  0.00    -0.253 OA
ATOM      2  N   UNL     1      36.806 -26.981 -13.873  0.00  0.00    -0.314 N 
ATOM      3  N   UNL     1      37.736 -25.425 -15.284  0.00  0.00    -0.314 N 
ATOM      4  C   UNL     1      37.046 -26.615 -15.181  0.00  0.00    +0.294 C 
ATOM      5  H   UNL     1      36.320 -27.813 -13.676  0.00  0.00    +0.146 HD
ATOM      6  H   UNL     1      37.120 -26.408 -13.136  0.00  0.00    +0.146 HD
ATOM      7  H   UNL     1      37.964 -25.063 -16.171  0.00  0.00    +0.146 HD
ATOM      8  H   UNL     1      37.999 -24.937 -14.471  0.00  0.00    +0.146 HD
ENDROOT
TORSDOF 0
ENDMDL
MODEL 2
REMARK VINA RESULT:      -3.3      1.669      1.669
REMARK  Name = 636363
REMARK  0 active torsions:
REMARK  status: ('A' for Active; 'I' for Inactive)
REMARK                            x       y       z     vdW  Elec       q    Type
REMARK                         _______ _______ _______ _____ _____    ______ ____
ROOT
ATOM      1  O   UNL     1      38.391 -27.097 -14.744  0.00  0.00    -0.253 OA
ATOM      2  N   UNL     1      36.938 -26.476 -13.072  0.00  0.00    -0.314 N 
ATOM      3  N   UNL     1      36.149 -26.848 -15.196  0.00  0.00    -0.314 N 
ATOM      4  C   UNL     1      37.252 -26.829 -14.368  0.00  0.00    +0.294 C 
ATOM      5  H   UNL     1      37.646 -26.429 -12.390  0.00  0.00    +0.146 HD
ATOM      6  H   UNL     1      36.006 -26.273 -12.828  0.00  0.00    +0.146 HD
ATOM      7  H   UNL     1      36.251 -27.086 -16.146  0.00  0.00    +0.146 HD
ATOM      8  H   UNL     1      35.260 -26.625 -14.838  0.00  0.00    +0.146 HD
ENDROOT
TORSDOF 0
ENDMDL
MODEL 3
REMARK VINA RESULT:      -3.2      3.364      3.364
REMARK  Name = 636363
REMARK  0 active torsions:
REMARK  status: ('A' for Active; 'I' for Inactive)
REMARK                            x       y       z     vdW  Elec       q    Type
REMARK                         _______ _______ _______ _____ _____    ______ ____
ROOT
ATOM      1  O   UNL     1      41.151 -26.611 -14.314  0.00  0.00    -0.253 OA
ATOM      2  N   UNL     1      39.140 -25.944 -13.419  0.00  0.00    -0.314 N 
ATOM      3  N   UNL     1      39.790 -25.169 -15.481  0.00  0.00    -0.314 N 
ATOM      4  C   UNL     1      40.112 -25.961 -14.398  0.00  0.00    +0.294 C 
ATOM      5  H   UNL     1      39.259 -26.472 -12.597  0.00  0.00    +0.146 HD
ATOM      6  H   UNL     1      38.325 -25.404 -13.542  0.00  0.00    +0.146 HD
ATOM      7  H   UNL     1      40.410 -25.103 -16.243  0.00  0.00    +0.146 HD
ATOM      8  H   UNL     1      38.941 -24.672 -15.492  0.00  0.00    +0.146 HD
ENDROOT
TORSDOF 0
ENDMDL
MODEL 4
REMARK VINA RESULT:      -3.1     13.408     13.408
REMARK  Name = 636363
REMARK  0 active torsions:
REMARK  status: ('A' for Active; 'I' for Inactive)
REMARK                            x       y       z     vdW  Elec       q    Type
REMARK                         _______ _______ _______ _____ _____    ______ ____
ROOT
ATOM      1  O   UNL     1      40.743 -15.084 -14.601  0.00  0.00    -0.253 OA
ATOM      2  N   UNL     1      40.569 -13.030 -13.580  0.00  0.00    -0.314 N 
ATOM      3  N   UNL     1      41.698 -13.228 -15.571  0.00  0.00    -0.314 N 
ATOM      4  C   UNL     1      40.984 -13.879 -14.585  0.00  0.00    +0.294 C 
ATOM      5  H   UNL     1      40.051 -13.382 -12.821  0.00  0.00    +0.146 HD
ATOM      6  H   UNL     1      40.792 -12.072 -13.621  0.00  0.00    +0.146 HD
ATOM      7  H   UNL     1      42.046 -13.734 -16.341  0.00  0.00    +0.146 HD
ATOM      8  H   UNL     1      41.859 -12.260 -15.504  0.00  0.00    +0.146 HD
ENDROOT
TORSDOF 0
ENDMDL
MODEL 5
REMARK VINA RESULT:      -3.1      4.998      5.061
REMARK  Name = 636363
REMARK  0 active torsions:
REMARK  status: ('A' for Active; 'I' for Inactive)
REMARK                            x       y       z     vdW  Elec       q    Type
REMARK                         _______ _______ _______ _____ _____    ______ ____
ROOT
ATOM      1  O   UNL     1      35.315 -25.089 -10.489  0.00  0.00    -0.253 OA
ATOM      2  N   UNL     1      36.977 -23.555 -10.910  0.00  0.00    -0.314 N 
ATOM      3  N   UNL     1      35.110 -23.619 -12.247  0.00  0.00    -0.314 N 
ATOM      4  C   UNL     1      35.764 -24.163 -11.161  0.00  0.00    +0.294 C 
ATOM      5  H   UNL     1      37.534 -23.860 -10.158  0.00  0.00    +0.146 HD
ATOM      6  H   UNL     1      37.285 -22.816 -11.483  0.00  0.00    +0.146 HD
ATOM      7  H   UNL     1      34.233 -23.973 -12.522  0.00  0.00    +0.146 HD
ATOM      8  H   UNL     1      35.520 -22.877 -12.747  0.00  0.00    +0.146 HD
ENDROOT
TORSDOF 0
ENDMDL
MODEL 6
REMARK VINA RESULT:      -3.1      9.816      9.888
REMARK  Name = 636363
REMARK  0 active torsions:
REMARK  status: ('A' for Active; 'I' for Inactive)
REMARK                            x       y       z     vdW  Elec       q    Type
REMARK                         _______ _______ _______ _____ _____    ______ ____
ROOT
ATOM      1  O   UNL     1      27.647 -23.990 -17.631  0.00  0.00    -0.253 OA
ATOM      2  N   UNL     1      29.399 -22.686 -16.907  0.00  0.00    -0.314 N 
ATOM      3  N   UNL     1      27.311 -22.412 -15.990  0.00  0.00    -0.314 N 
ATOM      4  C   UNL     1      28.083 -23.101 -16.902  0.00  0.00    +0.294 C 
ATOM      5  H   UNL     1      30.046 -23.107 -17.518  0.00  0.00    +0.146 HD
ATOM      6  H   UNL     1      29.692 -21.969 -16.299  0.00  0.00    +0.146 HD
ATOM      7  H   UNL     1      26.353 -22.622 -15.898  0.00  0.00    +0.146 HD
ATOM      8  H   UNL     1      27.717 -21.710 -15.432  0.00  0.00    +0.146 HD
ENDROOT
TORSDOF 0
ENDMDL
MODEL 7
REMARK VINA RESULT:      -3.1      9.974      9.974
REMARK  Name = 636363
REMARK  0 active torsions:
REMARK  status: ('A' for Active; 'I' for Inactive)
REMARK                            x       y       z     vdW  Elec       q    Type
REMARK                         _______ _______ _______ _____ _____    ______ ____
ROOT
ATOM      1  O   UNL     1      27.392 -23.311 -17.885  0.00  0.00    -0.253 OA
ATOM      2  N   UNL     1      27.383 -22.380 -15.781  0.00  0.00    -0.314 N 
ATOM      3  N   UNL     1      29.371 -22.685 -16.891  0.00  0.00    -0.314 N 
ATOM      4  C   UNL     1      27.999 -22.831 -16.930  0.00  0.00    +0.294 C 
ATOM      5  H   UNL     1      26.404 -22.434 -15.694  0.00  0.00    +0.146 HD
ATOM      6  H   UNL     1      27.923 -22.004 -15.048  0.00  0.00    +0.146 HD
ATOM      7  H   UNL     1      29.918 -22.973 -17.658  0.00  0.00    +0.146 HD
ATOM      8  H   UNL     1      29.801 -22.293 -16.099  0.00  0.00    +0.146 HD
ENDROOT
TORSDOF 0
ENDMDL
MODEL 8
REMARK VINA RESULT:      -2.9     11.589     11.866
REMARK  Name = 636363
REMARK  0 active torsions:
REMARK  status: ('A' for Active; 'I' for Inactive)
REMARK                            x       y       z     vdW  Elec       q    Type
REMARK                         _______ _______ _______ _____ _____    ______ ____
ROOT
ATOM      1  O   UNL     1      42.467 -16.629 -15.773  0.00  0.00    -0.253 OA
ATOM      2  N   UNL     1      41.493 -15.174 -17.266  0.00  0.00    -0.314 N 
ATOM      3  N   UNL     1      40.530 -15.521 -15.209  0.00  0.00    -0.314 N 
ATOM      4  C   UNL     1      41.570 -15.839 -16.059  0.00  0.00    +0.294 C 
ATOM      5  H   UNL     1      42.181 -15.321 -17.953  0.00  0.00    +0.146 HD
ATOM      6  H   UNL     1      40.750 -14.551 -17.438  0.00  0.00    +0.146 HD
ATOM      7  H   UNL     1      40.480 -15.936 -14.317  0.00  0.00    +0.146 HD
ATOM      8  H   UNL     1      39.840 -14.880 -15.494  0.00  0.00    +0.146 HD
ENDROOT
TORSDOF 0
ENDMDL
MODEL 9
REMARK VINA RESULT:      -2.9      3.442      3.462
REMARK  Name = 636363
REMARK  0 active torsions:
REMARK  status: ('A' for Active; 'I' for Inactive)
REMARK                            x       y       z     vdW  Elec       q    Type
REMARK                         _______ _______ _______ _____ _____    ______ ____
ROOT
ATOM      1  O   UNL     1      36.979 -26.322 -11.948  0.00  0.00    -0.253 OA
ATOM      2  N   UNL     1      38.818 -25.931 -13.274  0.00  0.00    -0.314 N 
ATOM      3  N   UNL     1      38.130 -24.337 -11.770  0.00  0.00    -0.314 N 
ATOM      4  C   UNL     1      37.901 -25.589 -12.302  0.00  0.00    +0.294 C 
ATOM      5  H   UNL     1      38.755 -26.803 -13.725  0.00  0.00    +0.146 HD
ATOM      6  H   UNL     1      39.537 -25.302 -13.515  0.00  0.00    +0.146 HD
ATOM      7  H   UNL     1      37.537 -23.985 -11.066  0.00  0.00    +0.146 HD
ATOM      8  H   UNL     1      38.885 -23.796 -12.093  0.00  0.00    +0.146 HD
ENDROOT
TORSDOF 0
ENDMDL
