MODEL 1
REMARK VINA RESULT:     -10.0      0.000      0.000
REMARK  Name = 447229
REMARK  6 active torsions:
REMARK  status: ('A' for Active; 'I' for Inactive)
REMARK    1  A    between atoms: C_5  and  N_17
REMARK    2  A    between atoms: N_17  and  C_19
REMARK    3  A    between atoms: C_19  and  C_20
REMARK    4  A    between atoms: C_23  and  O_26
REMARK    5  A    between atoms: C_24  and  O_28
REMARK    6  A    between atoms: C_25  and  O_30
REMARK                            x       y       z     vdW  Elec       q    Type
REMARK                         _______ _______ _______ _____ _____    ______ ____
ROOT
ATOM      1  N   UNL     1      32.738 -20.640 -20.503  0.00  0.00    -0.180 NA
ATOM      2  N   UNL     1      32.695 -22.098 -18.703  0.00  0.00    -0.273 NA
ATOM      3  N   UNL     1      34.717 -22.776 -17.584  0.00  0.00    -0.312 NA
ATOM      4  N   UNL     1      32.632 -23.578 -16.882  0.00  0.00    -0.283 N 
ATOM      5  C   UNL     1      34.823 -19.742 -21.328  0.00  0.00    +0.069 C 
ATOM      6  C   UNL     1      35.501 -20.452 -20.354  0.00  0.00    +0.031 C 
ATOM      7  C   UNL     1      34.781 -21.257 -19.457  0.00  0.00    +0.121 C 
ATOM      8  C   UNL     1      33.451 -19.869 -21.360  0.00  0.00    +0.125 C 
ATOM      9  C   UNL     1      33.387 -21.333 -19.556  0.00  0.00    +0.105 C 
ATOM     10  C   UNL     1      35.391 -22.002 -18.451  0.00  0.00    +0.201 C 
ATOM     11  C   UNL     1      33.389 -22.777 -17.766  0.00  0.00    +0.206 C 
ATOM     12  H   UNL     1      31.653 -23.616 -16.970  0.00  0.00    +0.156 HD
ATOM     13  H   UNL     1      33.084 -24.097 -16.180  0.00  0.00    +0.156 HD
ATOM     14  N   UNL     1      36.800 -21.958 -18.307  0.00  0.00    -0.332 N 
ATOM     15  H   UNL     1      37.239 -22.481 -17.598  0.00  0.00    +0.145 HD
ATOM     16  H   UNL     1      37.340 -21.404 -18.917  0.00  0.00    +0.145 HD
ENDROOT
BRANCH   5  17
ATOM     17  N   UNL     1      35.503 -18.929 -22.247  0.00  0.00    -0.301 N 
ATOM     18  C   UNL     1      36.872 -18.511 -21.996  0.00  0.00    +0.113 C 
BRANCH  17  19
ATOM     19  C   UNL     1      34.858 -18.501 -23.478  0.00  0.00    +0.118 C 
BRANCH  19  20
ATOM     20  C   UNL     1      34.509 -17.047 -23.382  0.00  0.00    +0.004 C 
ATOM     21  C   UNL     1      34.396 -16.445 -22.133  0.00  0.00    +0.038 C 
ATOM     22  C   UNL     1      34.302 -16.308 -24.543  0.00  0.00    +0.038 C 
ATOM     23  C   UNL     1      33.976 -14.955 -24.454  0.00  0.00    +0.175 C 
ATOM     24  C   UNL     1      34.070 -15.091 -22.044  0.00  0.00    +0.175 C 
ATOM     25  C   UNL     1      33.860 -14.347 -23.204  0.00  0.00    +0.206 C 
BRANCH  23  26
ATOM     26  O   UNL     1      33.775 -14.239 -25.595  0.00  0.00    -0.468 OA
ATOM     27  C   UNL     1      32.686 -14.635 -26.426  0.00  0.00    +0.253 C 
ENDBRANCH  23  26
BRANCH  24  28
ATOM     28  O   UNL     1      33.961 -14.508 -20.818  0.00  0.00    -0.468 OA
ATOM     29  C   UNL     1      32.795 -14.814 -20.056  0.00  0.00    +0.253 C 
ENDBRANCH  24  28
BRANCH  25  30
ATOM     30  O   UNL     1      33.545 -13.023 -23.117  0.00  0.00    -0.465 OA
ATOM     31  C   UNL     1      32.171 -12.697 -22.914  0.00  0.00    +0.253 C 
ENDBRANCH  25  30
ENDBRANCH  19  20
ENDBRANCH  17  19
ENDBRANCH   5  17
TORSDOF 6
ENDMDL
MODEL 2
REMARK VINA RESULT:     -10.0      0.027      2.357
REMARK  Name = 447229
REMARK  6 active torsions:
REMARK  status: ('A' for Active; 'I' for Inactive)
REMARK    1  A    between atoms: C_5  and  N_17
REMARK    2  A    between atoms: N_17  and  C_19
REMARK    3  A    between atoms: C_19  and  C_20
REMARK    4  A    between atoms: C_23  and  O_26
REMARK    5  A    between atoms: C_24  and  O_28
REMARK    6  A    between atoms: C_25  and  O_30
REMARK                            x       y       z     vdW  Elec       q    Type
REMARK                         _______ _______ _______ _____ _____    ______ ____
ROOT
ATOM      1  N   UNL     1      32.749 -20.644 -20.517  0.00  0.00    -0.180 NA
ATOM      2  N   UNL     1      32.698 -22.097 -18.713  0.00  0.00    -0.273 NA
ATOM      3  N   UNL     1      34.715 -22.774 -17.585  0.00  0.00    -0.312 NA
ATOM      4  N   UNL     1      32.628 -23.572 -16.889  0.00  0.00    -0.283 N 
ATOM      5  C   UNL     1      34.837 -19.749 -21.337  0.00  0.00    +0.069 C 
ATOM      6  C   UNL     1      35.511 -20.458 -20.358  0.00  0.00    +0.031 C 
ATOM      7  C   UNL     1      34.787 -21.259 -19.462  0.00  0.00    +0.121 C 
ATOM      8  C   UNL     1      33.465 -19.876 -21.373  0.00  0.00    +0.125 C 
ATOM      9  C   UNL     1      33.393 -21.334 -19.565  0.00  0.00    +0.105 C 
ATOM     10  C   UNL     1      35.393 -22.002 -18.452  0.00  0.00    +0.201 C 
ATOM     11  C   UNL     1      33.389 -22.774 -17.772  0.00  0.00    +0.206 C 
ATOM     12  H   UNL     1      31.648 -23.610 -16.980  0.00  0.00    +0.156 HD
ATOM     13  H   UNL     1      33.077 -24.090 -16.183  0.00  0.00    +0.156 HD
ATOM     14  N   UNL     1      36.802 -21.959 -18.304  0.00  0.00    -0.332 N 
ATOM     15  H   UNL     1      37.238 -22.481 -17.592  0.00  0.00    +0.145 HD
ATOM     16  H   UNL     1      37.344 -21.408 -18.912  0.00  0.00    +0.145 HD
ENDROOT
BRANCH   5  17
ATOM     17  N   UNL     1      35.521 -18.940 -22.256  0.00  0.00    -0.301 N 
ATOM     18  C   UNL     1      36.895 -18.534 -22.008  0.00  0.00    +0.113 C 
BRANCH  17  19
ATOM     19  C   UNL     1      34.876 -18.501 -23.483  0.00  0.00    +0.118 C 
BRANCH  19  20
ATOM     20  C   UNL     1      34.524 -17.049 -23.374  0.00  0.00    +0.004 C 
ATOM     21  C   UNL     1      34.304 -16.303 -24.527  0.00  0.00    +0.038 C 
ATOM     22  C   UNL     1      34.419 -16.456 -22.119  0.00  0.00    +0.038 C 
ATOM     23  C   UNL     1      34.092 -15.104 -22.017  0.00  0.00    +0.175 C 
ATOM     24  C   UNL     1      33.977 -14.950 -24.425  0.00  0.00    +0.175 C 
ATOM     25  C   UNL     1      33.871 -14.351 -23.170  0.00  0.00    +0.206 C 
BRANCH  23  26
ATOM     26  O   UNL     1      33.990 -14.532 -20.785  0.00  0.00    -0.468 OA
ATOM     27  C   UNL     1      32.784 -14.766 -20.060  0.00  0.00    +0.253 C 
ENDBRANCH  23  26
BRANCH  24  28
ATOM     28  O   UNL     1      33.762 -14.226 -25.558  0.00  0.00    -0.468 OA
ATOM     29  C   UNL     1      32.677 -14.632 -26.391  0.00  0.00    +0.253 C 
ENDBRANCH  24  28
BRANCH  25  30
ATOM     30  O   UNL     1      33.548 -13.030 -23.070  0.00  0.00    -0.465 OA
ATOM     31  C   UNL     1      32.165 -12.711 -22.939  0.00  0.00    +0.253 C 
ENDBRANCH  25  30
ENDBRANCH  19  20
ENDBRANCH  17  19
ENDBRANCH   5  17
TORSDOF 6
ENDMDL
MODEL 3
REMARK VINA RESULT:      -9.6      1.283      3.328
REMARK  Name = 447229
REMARK  6 active torsions:
REMARK  status: ('A' for Active; 'I' for Inactive)
REMARK    1  A    between atoms: C_5  and  N_17
REMARK    2  A    between atoms: N_17  and  C_19
REMARK    3  A    between atoms: C_19  and  C_20
REMARK    4  A    between atoms: C_23  and  O_26
REMARK    5  A    between atoms: C_24  and  O_28
REMARK    6  A    between atoms: C_25  and  O_30
REMARK                            x       y       z     vdW  Elec       q    Type
REMARK                         _______ _______ _______ _____ _____    ______ ____
ROOT
ATOM      1  N   UNL     1      36.828 -20.870 -19.005  0.00  0.00    -0.180 NA
ATOM      2  N   UNL     1      36.794 -22.281 -17.169  0.00  0.00    -0.273 NA
ATOM      3  N   UNL     1      34.794 -23.456 -16.522  0.00  0.00    -0.312 NA
ATOM      4  N   UNL     1      36.778 -23.705 -15.303  0.00  0.00    -0.283 N 
ATOM      5  C   UNL     1      34.850 -20.523 -20.346  0.00  0.00    +0.069 C 
ATOM      6  C   UNL     1      34.154 -21.389 -19.522  0.00  0.00    +0.031 C 
ATOM      7  C   UNL     1      34.811 -21.991 -18.438  0.00  0.00    +0.121 C 
ATOM      8  C   UNL     1      36.176 -20.298 -20.047  0.00  0.00    +0.125 C 
ATOM      9  C   UNL     1      36.162 -21.710 -18.201  0.00  0.00    +0.105 C 
ATOM     10  C   UNL     1      34.180 -22.872 -17.564  0.00  0.00    +0.201 C 
ATOM     11  C   UNL     1      36.084 -23.120 -16.385  0.00  0.00    +0.206 C 
ATOM     12  H   UNL     1      37.727 -23.493 -15.155  0.00  0.00    +0.156 HD
ATOM     13  H   UNL     1      36.311 -24.323 -14.697  0.00  0.00    +0.156 HD
ATOM     14  N   UNL     1      32.813 -23.190 -17.761  0.00  0.00    -0.332 N 
ATOM     15  H   UNL     1      32.359 -23.812 -17.148  0.00  0.00    +0.145 HD
ATOM     16  H   UNL     1      32.317 -22.789 -18.512  0.00  0.00    +0.145 HD
ENDROOT
BRANCH   5  17
ATOM     17  N   UNL     1      34.231 -19.897 -21.438  0.00  0.00    -0.301 N 
ATOM     18  C   UNL     1      32.816 -19.565 -21.399  0.00  0.00    +0.113 C 
BRANCH  17  19
ATOM     19  C   UNL     1      34.994 -19.552 -22.627  0.00  0.00    +0.118 C 
BRANCH  19  20
ATOM     20  C   UNL     1      34.795 -18.102 -22.949  0.00  0.00    +0.004 C 
ATOM     21  C   UNL     1      34.634 -17.705 -24.272  0.00  0.00    +0.038 C 
ATOM     22  C   UNL     1      34.771 -17.164 -21.921  0.00  0.00    +0.038 C 
ATOM     23  C   UNL     1      34.587 -15.815 -22.221  0.00  0.00    +0.175 C 
ATOM     24  C   UNL     1      34.449 -16.354 -24.571  0.00  0.00    +0.175 C 
ATOM     25  C   UNL     1      34.426 -15.409 -23.545  0.00  0.00    +0.206 C 
BRANCH  23  26
ATOM     26  O   UNL     1      34.564 -14.902 -21.209  0.00  0.00    -0.468 OA
ATOM     27  C   UNL     1      33.405 -14.885 -20.379  0.00  0.00    +0.253 C 
ENDBRANCH  23  26
BRANCH  24  28
ATOM     28  O   UNL     1      34.291 -15.972 -25.869  0.00  0.00    -0.468 OA
ATOM     29  C   UNL     1      32.954 -15.809 -26.339  0.00  0.00    +0.253 C 
ENDBRANCH  24  28
BRANCH  25  30
ATOM     30  O   UNL     1      34.241 -14.090 -23.838  0.00  0.00    -0.465 OA
ATOM     31  C   UNL     1      32.919 -13.576 -23.698  0.00  0.00    +0.253 C 
ENDBRANCH  25  30
ENDBRANCH  19  20
ENDBRANCH  17  19
ENDBRANCH   5  17
TORSDOF 6
ENDMDL
MODEL 4
REMARK VINA RESULT:      -9.6      1.291      2.423
REMARK  Name = 447229
REMARK  6 active torsions:
REMARK  status: ('A' for Active; 'I' for Inactive)
REMARK    1  A    between atoms: C_5  and  N_17
REMARK    2  A    between atoms: N_17  and  C_19
REMARK    3  A    between atoms: C_19  and  C_20
REMARK    4  A    between atoms: C_23  and  O_26
REMARK    5  A    between atoms: C_24  and  O_28
REMARK    6  A    between atoms: C_25  and  O_30
REMARK                            x       y       z     vdW  Elec       q    Type
REMARK                         _______ _______ _______ _____ _____    ______ ____
ROOT
ATOM      1  N   UNL     1      36.821 -20.896 -18.998  0.00  0.00    -0.180 NA
ATOM      2  N   UNL     1      36.790 -22.288 -17.147  0.00  0.00    -0.273 NA
ATOM      3  N   UNL     1      34.788 -23.446 -16.477  0.00  0.00    -0.312 NA
ATOM      4  N   UNL     1      36.778 -23.693 -15.267  0.00  0.00    -0.283 N 
ATOM      5  C   UNL     1      34.836 -20.552 -20.331  0.00  0.00    +0.069 C 
ATOM      6  C   UNL     1      34.141 -21.407 -19.494  0.00  0.00    +0.031 C 
ATOM      7  C   UNL     1      34.802 -22.000 -18.408  0.00  0.00    +0.121 C 
ATOM      8  C   UNL     1      36.166 -20.331 -20.042  0.00  0.00    +0.125 C 
ATOM      9  C   UNL     1      36.155 -21.724 -18.181  0.00  0.00    +0.105 C 
ATOM     10  C   UNL     1      34.171 -22.869 -17.521  0.00  0.00    +0.201 C 
ATOM     11  C   UNL     1      36.081 -23.115 -16.351  0.00  0.00    +0.206 C 
ATOM     12  H   UNL     1      37.730 -23.484 -15.127  0.00  0.00    +0.156 HD
ATOM     13  H   UNL     1      36.311 -24.302 -14.651  0.00  0.00    +0.156 HD
ATOM     14  N   UNL     1      32.801 -23.182 -17.707  0.00  0.00    -0.332 N 
ATOM     15  H   UNL     1      32.348 -23.796 -17.085  0.00  0.00    +0.145 HD
ATOM     16  H   UNL     1      32.303 -22.787 -18.458  0.00  0.00    +0.145 HD
ENDROOT
BRANCH   5  17
ATOM     17  N   UNL     1      34.214 -19.934 -21.426  0.00  0.00    -0.301 N 
ATOM     18  C   UNL     1      32.794 -19.625 -21.394  0.00  0.00    +0.113 C 
BRANCH  17  19
ATOM     19  C   UNL     1      34.979 -19.576 -22.609  0.00  0.00    +0.118 C 
BRANCH  19  20
ATOM     20  C   UNL     1      34.786 -18.120 -22.910  0.00  0.00    +0.004 C 
ATOM     21  C   UNL     1      34.765 -17.197 -21.870  0.00  0.00    +0.038 C 
ATOM     22  C   UNL     1      34.630 -17.703 -24.228  0.00  0.00    +0.038 C 
ATOM     23  C   UNL     1      34.449 -16.349 -24.508  0.00  0.00    +0.175 C 
ATOM     24  C   UNL     1      34.585 -15.842 -22.150  0.00  0.00    +0.175 C 
ATOM     25  C   UNL     1      34.427 -15.418 -23.470  0.00  0.00    +0.206 C 
BRANCH  23  26
ATOM     26  O   UNL     1      34.298 -15.947 -25.801  0.00  0.00    -0.468 OA
ATOM     27  C   UNL     1      32.973 -15.948 -26.330  0.00  0.00    +0.253 C 
ENDBRANCH  23  26
BRANCH  24  28
ATOM     28  O   UNL     1      34.566 -14.943 -21.127  0.00  0.00    -0.468 OA
ATOM     29  C   UNL     1      33.360 -14.846 -20.372  0.00  0.00    +0.253 C 
ENDBRANCH  24  28
BRANCH  25  30
ATOM     30  O   UNL     1      34.254 -14.094 -23.744  0.00  0.00    -0.465 OA
ATOM     31  C   UNL     1      32.917 -13.597 -23.719  0.00  0.00    +0.253 C 
ENDBRANCH  25  30
ENDBRANCH  19  20
ENDBRANCH  17  19
ENDBRANCH   5  17
TORSDOF 6
ENDMDL
MODEL 5
REMARK VINA RESULT:      -9.5      4.648      7.482
REMARK  Name = 447229
REMARK  6 active torsions:
REMARK  status: ('A' for Active; 'I' for Inactive)
REMARK    1  A    between atoms: C_5  and  N_17
REMARK    2  A    between atoms: N_17  and  C_19
REMARK    3  A    between atoms: C_19  and  C_20
REMARK    4  A    between atoms: C_23  and  O_26
REMARK    5  A    between atoms: C_24  and  O_28
REMARK    6  A    between atoms: C_25  and  O_30
REMARK                            x       y       z     vdW  Elec       q    Type
REMARK                         _______ _______ _______ _____ _____    ______ ____
ROOT
ATOM      1  N   UNL     1      33.715 -15.219 -20.786  0.00  0.00    -0.180 NA
ATOM      2  N   UNL     1      34.624 -16.766 -22.251  0.00  0.00    -0.273 NA
ATOM      3  N   UNL     1      34.396 -16.526 -24.636  0.00  0.00    -0.312 NA
ATOM      4  N   UNL     1      35.550 -18.345 -23.720  0.00  0.00    -0.283 N 
ATOM      5  C   UNL     1      32.498 -13.298 -21.600  0.00  0.00    +0.069 C 
ATOM      6  C   UNL     1      32.719 -13.724 -22.898  0.00  0.00    +0.031 C 
ATOM      7  C   UNL     1      33.442 -14.904 -23.125  0.00  0.00    +0.121 C 
ATOM      8  C   UNL     1      33.014 -14.077 -20.587  0.00  0.00    +0.125 C 
ATOM      9  C   UNL     1      33.933 -15.639 -22.040  0.00  0.00    +0.105 C 
ATOM     10  C   UNL     1      33.705 -15.398 -24.401  0.00  0.00    +0.201 C 
ATOM     11  C   UNL     1      34.820 -17.151 -23.530  0.00  0.00    +0.206 C 
ATOM     12  H   UNL     1      35.886 -18.846 -22.942  0.00  0.00    +0.156 HD
ATOM     13  H   UNL     1      35.722 -18.676 -24.630  0.00  0.00    +0.156 HD
ATOM     14  N   UNL     1      33.231 -14.690 -25.534  0.00  0.00    -0.332 N 
ATOM     15  H   UNL     1      33.412 -15.032 -26.439  0.00  0.00    +0.145 HD
ATOM     16  H   UNL     1      32.720 -13.857 -25.415  0.00  0.00    +0.145 HD
ENDROOT
BRANCH   5  17
ATOM     17  N   UNL     1      31.776 -12.126 -21.328  0.00  0.00    -0.301 N 
ATOM     18  C   UNL     1      31.614 -11.656 -19.962  0.00  0.00    +0.113 C 
BRANCH  17  19
ATOM     19  C   UNL     1      31.189 -11.349 -22.407  0.00  0.00    +0.118 C 
BRANCH  19  20
ATOM     20  C   UNL     1      32.094 -10.206 -22.752  0.00  0.00    +0.004 C 
ATOM     21  C   UNL     1      31.732  -8.908 -22.405  0.00  0.00    +0.038 C 
ATOM     22  C   UNL     1      33.292 -10.451 -23.418  0.00  0.00    +0.038 C 
ATOM     23  C   UNL     1      34.134  -9.387 -23.741  0.00  0.00    +0.175 C 
ATOM     24  C   UNL     1      32.575  -7.845 -22.728  0.00  0.00    +0.175 C 
ATOM     25  C   UNL     1      33.776  -8.084 -23.396  0.00  0.00    +0.206 C 
BRANCH  23  26
ATOM     26  O   UNL     1      35.305  -9.635 -24.392  0.00  0.00    -0.468 OA
ATOM     27  C   UNL     1      35.228 -10.392 -25.598  0.00  0.00    +0.253 C 
ENDBRANCH  23  26
BRANCH  24  28
ATOM     28  O   UNL     1      32.215  -6.577 -22.384  0.00  0.00    -0.468 OA
ATOM     29  C   UNL     1      32.019  -6.313 -20.996  0.00  0.00    +0.253 C 
ENDBRANCH  24  28
BRANCH  25  30
ATOM     30  O   UNL     1      34.601  -7.044 -23.708  0.00  0.00    -0.465 OA
ATOM     31  C   UNL     1      34.506  -6.518 -25.030  0.00  0.00    +0.253 C 
ENDBRANCH  25  30
ENDBRANCH  19  20
ENDBRANCH  17  19
ENDBRANCH   5  17
TORSDOF 6
ENDMDL
MODEL 6
REMARK VINA RESULT:      -9.5      4.673      7.681
REMARK  Name = 447229
REMARK  6 active torsions:
REMARK  status: ('A' for Active; 'I' for Inactive)
REMARK    1  A    between atoms: C_5  and  N_17
REMARK    2  A    between atoms: N_17  and  C_19
REMARK    3  A    between atoms: C_19  and  C_20
REMARK    4  A    between atoms: C_23  and  O_26
REMARK    5  A    between atoms: C_24  and  O_28
REMARK    6  A    between atoms: C_25  and  O_30
REMARK                            x       y       z     vdW  Elec       q    Type
REMARK                         _______ _______ _______ _____ _____    ______ ____
ROOT
ATOM      1  N   UNL     1      33.781 -15.165 -20.786  0.00  0.00    -0.180 NA
ATOM      2  N   UNL     1      34.692 -16.704 -22.257  0.00  0.00    -0.273 NA
ATOM      3  N   UNL     1      34.409 -16.489 -24.639  0.00  0.00    -0.312 NA
ATOM      4  N   UNL     1      35.620 -18.276 -23.733  0.00  0.00    -0.283 N 
ATOM      5  C   UNL     1      32.507 -13.277 -21.589  0.00  0.00    +0.069 C 
ATOM      6  C   UNL     1      32.710 -13.708 -22.888  0.00  0.00    +0.031 C 
ATOM      7  C   UNL     1      33.453 -14.875 -23.121  0.00  0.00    +0.121 C 
ATOM      8  C   UNL     1      33.060 -14.036 -20.580  0.00  0.00    +0.125 C 
ATOM      9  C   UNL     1      33.982 -15.591 -22.040  0.00  0.00    +0.105 C 
ATOM     10  C   UNL     1      33.699 -15.374 -24.398  0.00  0.00    +0.201 C 
ATOM     11  C   UNL     1      34.869 -17.096 -23.537  0.00  0.00    +0.206 C 
ATOM     12  H   UNL     1      35.982 -18.763 -22.958  0.00  0.00    +0.156 HD
ATOM     13  H   UNL     1      35.780 -18.611 -24.644  0.00  0.00    +0.156 HD
ATOM     14  N   UNL     1      33.187 -14.685 -25.526  0.00  0.00    -0.332 N 
ATOM     15  H   UNL     1      33.357 -15.031 -26.432  0.00  0.00    +0.145 HD
ATOM     16  H   UNL     1      32.662 -13.862 -25.404  0.00  0.00    +0.145 HD
ENDROOT
BRANCH   5  17
ATOM     17  N   UNL     1      31.767 -12.118 -21.311  0.00  0.00    -0.301 N 
ATOM     18  C   UNL     1      31.563 -11.680 -19.940  0.00  0.00    +0.113 C 
BRANCH  17  19
ATOM     19  C   UNL     1      31.202 -11.322 -22.388  0.00  0.00    +0.118 C 
BRANCH  19  20
ATOM     20  C   UNL     1      32.148 -10.216 -22.744  0.00  0.00    +0.004 C 
ATOM     21  C   UNL     1      33.286 -10.495 -23.493  0.00  0.00    +0.038 C 
ATOM     22  C   UNL     1      31.881  -8.916 -22.324  0.00  0.00    +0.038 C 
ATOM     23  C   UNL     1      32.761  -7.887 -22.655  0.00  0.00    +0.175 C 
ATOM     24  C   UNL     1      34.167  -9.465 -23.825  0.00  0.00    +0.175 C 
ATOM     25  C   UNL     1      33.905  -8.161 -23.405  0.00  0.00    +0.206 C 
BRANCH  23  26
ATOM     26  O   UNL     1      32.492  -6.617 -22.241  0.00  0.00    -0.468 OA
ATOM     27  C   UNL     1      31.967  -6.463 -20.924  0.00  0.00    +0.253 C 
ENDBRANCH  23  26
BRANCH  24  28
ATOM     28  O   UNL     1      35.280  -9.746 -24.559  0.00  0.00    -0.468 OA
ATOM     29  C   UNL     1      35.104 -10.562 -25.715  0.00  0.00    +0.253 C 
ENDBRANCH  24  28
BRANCH  25  30
ATOM     30  O   UNL     1      34.764  -7.154 -23.732  0.00  0.00    -0.465 OA
ATOM     31  C   UNL     1      34.548  -6.500 -24.981  0.00  0.00    +0.253 C 
ENDBRANCH  25  30
ENDBRANCH  19  20
ENDBRANCH  17  19
ENDBRANCH   5  17
TORSDOF 6
ENDMDL
MODEL 7
REMARK VINA RESULT:      -9.4      3.608      6.361
REMARK  Name = 447229
REMARK  6 active torsions:
REMARK  status: ('A' for Active; 'I' for Inactive)
REMARK    1  A    between atoms: C_5  and  N_17
REMARK    2  A    between atoms: N_17  and  C_19
REMARK    3  A    between atoms: C_19  and  C_20
REMARK    4  A    between atoms: C_23  and  O_26
REMARK    5  A    between atoms: C_24  and  O_28
REMARK    6  A    between atoms: C_25  and  O_30
REMARK                            x       y       z     vdW  Elec       q    Type
REMARK                         _______ _______ _______ _____ _____    ______ ____
ROOT
ATOM      1  N   UNL     1      34.417 -15.168 -20.654  0.00  0.00    -0.180 NA
ATOM      2  N   UNL     1      35.366 -17.281 -20.609  0.00  0.00    -0.273 NA
ATOM      3  N   UNL     1      35.743 -18.534 -22.630  0.00  0.00    -0.312 NA
ATOM      4  N   UNL     1      36.326 -19.421 -20.544  0.00  0.00    -0.283 N 
ATOM      5  C   UNL     1      33.768 -14.139 -22.740  0.00  0.00    +0.069 C 
ATOM      6  C   UNL     1      34.209 -15.261 -23.417  0.00  0.00    +0.031 C 
ATOM      7  C   UNL     1      34.754 -16.335 -22.696  0.00  0.00    +0.121 C 
ATOM      8  C   UNL     1      33.893 -14.142 -21.368  0.00  0.00    +0.125 C 
ATOM      9  C   UNL     1      34.847 -16.260 -21.301  0.00  0.00    +0.105 C 
ATOM     10  C   UNL     1      35.219 -17.498 -23.306  0.00  0.00    +0.201 C 
ATOM     11  C   UNL     1      35.785 -18.360 -21.302  0.00  0.00    +0.206 C 
ATOM     12  H   UNL     1      36.381 -19.347 -19.564  0.00  0.00    +0.156 HD
ATOM     13  H   UNL     1      36.647 -20.235 -20.995  0.00  0.00    +0.156 HD
ATOM     14  N   UNL     1      35.149 -17.622 -24.715  0.00  0.00    -0.332 N 
ATOM     15  H   UNL     1      35.475 -18.441 -25.154  0.00  0.00    +0.145 HD
ATOM     16  H   UNL     1      34.774 -16.890 -25.256  0.00  0.00    +0.145 HD
ENDROOT
BRANCH   5  17
ATOM     17  N   UNL     1      33.213 -13.045 -23.421  0.00  0.00    -0.301 N 
ATOM     18  C   UNL     1      33.899 -12.452 -24.557  0.00  0.00    +0.113 C 
BRANCH  17  19
ATOM     19  C   UNL     1      31.932 -12.490 -23.014  0.00  0.00    +0.118 C 
BRANCH  19  20
ATOM     20  C   UNL     1      32.141 -11.133 -22.412  0.00  0.00    +0.004 C 
ATOM     21  C   UNL     1      31.835 -10.918 -21.072  0.00  0.00    +0.038 C 
ATOM     22  C   UNL     1      32.640 -10.099 -23.198  0.00  0.00    +0.038 C 
ATOM     23  C   UNL     1      32.834  -8.837 -22.638  0.00  0.00    +0.175 C 
ATOM     24  C   UNL     1      32.030  -9.655 -20.513  0.00  0.00    +0.175 C 
ATOM     25  C   UNL     1      32.529  -8.614 -21.296  0.00  0.00    +0.206 C 
BRANCH  23  26
ATOM     26  O   UNL     1      33.324  -7.829 -23.414  0.00  0.00    -0.468 OA
ATOM     27  C   UNL     1      34.742  -7.717 -23.509  0.00  0.00    +0.253 C 
ENDBRANCH  23  26
BRANCH  24  28
ATOM     28  O   UNL     1      31.729  -9.451 -19.200  0.00  0.00    -0.468 OA
ATOM     29  C   UNL     1      31.359 -10.596 -18.434  0.00  0.00    +0.253 C 
ENDBRANCH  24  28
BRANCH  25  30
ATOM     30  O   UNL     1      32.722  -7.380 -20.748  0.00  0.00    -0.465 OA
ATOM     31  C   UNL     1      31.711  -6.403 -20.983  0.00  0.00    +0.253 C 
ENDBRANCH  25  30
ENDBRANCH  19  20
ENDBRANCH  17  19
ENDBRANCH   5  17
TORSDOF 6
ENDMDL
MODEL 8
REMARK VINA RESULT:      -9.4      3.588      6.704
REMARK  Name = 447229
REMARK  6 active torsions:
REMARK  status: ('A' for Active; 'I' for Inactive)
REMARK    1  A    between atoms: C_5  and  N_17
REMARK    2  A    between atoms: N_17  and  C_19
REMARK    3  A    between atoms: C_19  and  C_20
REMARK    4  A    between atoms: C_23  and  O_26
REMARK    5  A    between atoms: C_24  and  O_28
REMARK    6  A    between atoms: C_25  and  O_30
REMARK                            x       y       z     vdW  Elec       q    Type
REMARK                         _______ _______ _______ _____ _____    ______ ____
ROOT
ATOM      1  N   UNL     1      34.418 -15.174 -20.679  0.00  0.00    -0.180 NA
ATOM      2  N   UNL     1      35.313 -17.310 -20.635  0.00  0.00    -0.273 NA
ATOM      3  N   UNL     1      35.601 -18.596 -22.651  0.00  0.00    -0.312 NA
ATOM      4  N   UNL     1      36.219 -19.475 -20.571  0.00  0.00    -0.283 N 
ATOM      5  C   UNL     1      33.738 -14.152 -22.759  0.00  0.00    +0.069 C 
ATOM      6  C   UNL     1      34.131 -15.293 -23.434  0.00  0.00    +0.031 C 
ATOM      7  C   UNL     1      34.668 -16.372 -22.716  0.00  0.00    +0.121 C 
ATOM      8  C   UNL     1      33.902 -14.143 -21.391  0.00  0.00    +0.125 C 
ATOM      9  C   UNL     1      34.801 -16.284 -21.325  0.00  0.00    +0.105 C 
ATOM     10  C   UNL     1      35.084 -17.554 -23.324  0.00  0.00    +0.201 C 
ATOM     11  C   UNL     1      35.685 -18.408 -21.327  0.00  0.00    +0.206 C 
ATOM     12  H   UNL     1      36.303 -19.391 -19.593  0.00  0.00    +0.156 HD
ATOM     13  H   UNL     1      36.505 -20.301 -21.021  0.00  0.00    +0.156 HD
ATOM     14  N   UNL     1      34.972 -17.693 -24.729  0.00  0.00    -0.332 N 
ATOM     15  H   UNL     1      35.265 -18.525 -25.167  0.00  0.00    +0.145 HD
ATOM     16  H   UNL     1      34.601 -16.957 -25.269  0.00  0.00    +0.145 HD
ENDROOT
BRANCH   5  17
ATOM     17  N   UNL     1      33.192 -13.052 -23.437  0.00  0.00    -0.301 N 
ATOM     18  C   UNL     1      33.884 -12.463 -24.573  0.00  0.00    +0.113 C 
BRANCH  17  19
ATOM     19  C   UNL     1      31.917 -12.486 -23.029  0.00  0.00    +0.118 C 
BRANCH  19  20
ATOM     20  C   UNL     1      32.140 -11.136 -22.416  0.00  0.00    +0.004 C 
ATOM     21  C   UNL     1      32.635 -10.097 -23.197  0.00  0.00    +0.038 C 
ATOM     22  C   UNL     1      31.849 -10.932 -21.071  0.00  0.00    +0.038 C 
ATOM     23  C   UNL     1      32.058  -9.677 -20.501  0.00  0.00    +0.175 C 
ATOM     24  C   UNL     1      32.842  -8.840 -22.626  0.00  0.00    +0.175 C 
ATOM     25  C   UNL     1      32.554  -8.631 -21.278  0.00  0.00    +0.206 C 
BRANCH  23  26
ATOM     26  O   UNL     1      31.770  -9.485 -19.183  0.00  0.00    -0.468 OA
ATOM     27  C   UNL     1      31.330 -10.622 -18.443  0.00  0.00    +0.253 C 
ENDBRANCH  23  26
BRANCH  24  28
ATOM     28  O   UNL     1      33.327  -7.827 -23.397  0.00  0.00    -0.468 OA
ATOM     29  C   UNL     1      34.741  -7.763 -23.570  0.00  0.00    +0.253 C 
ENDBRANCH  24  28
BRANCH  25  30
ATOM     30  O   UNL     1      32.754  -7.402 -20.721  0.00  0.00    -0.465 OA
ATOM     31  C   UNL     1      31.735  -6.426 -20.926  0.00  0.00    +0.253 C 
ENDBRANCH  25  30
ENDBRANCH  19  20
ENDBRANCH  17  19
ENDBRANCH   5  17
TORSDOF 6
ENDMDL
MODEL 9
REMARK VINA RESULT:      -9.3      3.421      6.350
REMARK  Name = 447229
REMARK  6 active torsions:
REMARK  status: ('A' for Active; 'I' for Inactive)
REMARK    1  A    between atoms: C_5  and  N_17
REMARK    2  A    between atoms: N_17  and  C_19
REMARK    3  A    between atoms: C_19  and  C_20
REMARK    4  A    between atoms: C_23  and  O_26
REMARK    5  A    between atoms: C_24  and  O_28
REMARK    6  A    between atoms: C_25  and  O_30
REMARK                            x       y       z     vdW  Elec       q    Type
REMARK                         _______ _______ _______ _____ _____    ______ ____
ROOT
ATOM      1  N   UNL     1      34.463 -15.388 -20.802  0.00  0.00    -0.180 NA
ATOM      2  N   UNL     1      35.467 -17.466 -20.605  0.00  0.00    -0.273 NA
ATOM      3  N   UNL     1      35.660 -18.954 -22.489  0.00  0.00    -0.312 NA
ATOM      4  N   UNL     1      36.485 -19.569 -20.386  0.00  0.00    -0.283 N 
ATOM      5  C   UNL     1      33.567 -14.632 -22.913  0.00  0.00    +0.069 C 
ATOM      6  C   UNL     1      33.964 -15.824 -23.494  0.00  0.00    +0.031 C 
ATOM      7  C   UNL     1      34.611 -16.792 -22.712  0.00  0.00    +0.121 C 
ATOM      8  C   UNL     1      33.839 -14.464 -21.573  0.00  0.00    +0.125 C 
ATOM      9  C   UNL     1      34.850 -16.545 -21.355  0.00  0.00    +0.105 C 
ATOM     10  C   UNL     1      35.038 -18.016 -23.223  0.00  0.00    +0.201 C 
ATOM     11  C   UNL     1      35.839 -18.617 -21.204  0.00  0.00    +0.206 C 
ATOM     12  H   UNL     1      36.643 -19.374 -19.435  0.00  0.00    +0.156 HD
ATOM     13  H   UNL     1      36.777 -20.428 -20.768  0.00  0.00    +0.156 HD
ATOM     14  N   UNL     1      34.821 -18.314 -24.591  0.00  0.00    -0.332 N 
ATOM     15  H   UNL     1      35.121 -19.176 -24.960  0.00  0.00    +0.145 HD
ATOM     16  H   UNL     1      34.372 -17.659 -25.173  0.00  0.00    +0.145 HD
ENDROOT
BRANCH   5  17
ATOM     17  N   UNL     1      32.914 -13.638 -23.657  0.00  0.00    -0.301 N 
ATOM     18  C   UNL     1      33.002 -13.618 -25.108  0.00  0.00    +0.113 C 
BRANCH  17  19
ATOM     19  C   UNL     1      32.122 -12.615 -22.993  0.00  0.00    +0.118 C 
BRANCH  19  20
ATOM     20  C   UNL     1      32.791 -11.283 -23.148  0.00  0.00    +0.004 C 
ATOM     21  C   UNL     1      33.902 -11.161 -23.977  0.00  0.00    +0.038 C 
ATOM     22  C   UNL     1      32.296 -10.177 -22.463  0.00  0.00    +0.038 C 
ATOM     23  C   UNL     1      32.919  -8.938 -22.607  0.00  0.00    +0.175 C 
ATOM     24  C   UNL     1      34.525  -9.920 -24.120  0.00  0.00    +0.175 C 
ATOM     25  C   UNL     1      34.033  -8.809 -23.435  0.00  0.00    +0.206 C 
BRANCH  23  26
ATOM     26  O   UNL     1      32.427  -7.861 -21.934  0.00  0.00    -0.468 OA
ATOM     27  C   UNL     1      32.502  -7.896 -20.510  0.00  0.00    +0.253 C 
ENDBRANCH  23  26
BRANCH  24  28
ATOM     28  O   UNL     1      35.612  -9.808 -24.934  0.00  0.00    -0.468 OA
ATOM     29  C   UNL     1      35.531 -10.431 -26.214  0.00  0.00    +0.253 C 
ENDBRANCH  24  28
BRANCH  25  30
ATOM     30  O   UNL     1      34.640  -7.597 -23.579  0.00  0.00    -0.465 OA
ATOM     31  C   UNL     1      34.179  -6.764 -24.640  0.00  0.00    +0.253 C 
ENDBRANCH  25  30
ENDBRANCH  19  20
ENDBRANCH  17  19
ENDBRANCH   5  17
TORSDOF 6
ENDMDL
