MODEL 1
REMARK VINA RESULT:      -8.9      0.000      0.000
REMARK  Name = 4820
REMARK  3 active torsions:
REMARK  status: ('A' for Active; 'I' for Inactive)
REMARK    1  A    between atoms: N_2  and  C_5
REMARK    2  A    between atoms: C_3  and  C_13
REMARK    3  A    between atoms: C_13  and  C_15
REMARK                            x       y       z     vdW  Elec       q    Type
REMARK                         _______ _______ _______ _____ _____    ______ ____
ROOT
ATOM      1  O   UNL     1      35.804 -25.382 -15.776  0.00  0.00    -0.275 OA
ATOM      2  N   UNL     1      35.039 -23.173 -15.544  0.00  0.00    -0.284 N 
ATOM      3  C   UNL     1      35.361 -24.453 -15.106  0.00  0.00    +0.224 C 
ATOM      4  H   UNL     1      34.695 -22.553 -14.860  0.00  0.00    +0.155 HD
ENDROOT
BRANCH   2   5
ATOM      5  C   UNL     1      35.148 -22.656 -16.857  0.00  0.00    +0.042 C 
ATOM      6  C   UNL     1      34.054 -22.723 -17.708  0.00  0.00    -0.009 C 
ATOM      7  C   UNL     1      36.345 -22.091 -17.270  0.00  0.00    -0.009 C 
ATOM      8  C   UNL     1      34.162 -22.213 -19.002  0.00  0.00    -0.003 C 
ATOM      9  C   UNL     1      36.452 -21.581 -18.564  0.00  0.00    -0.003 C 
ATOM     10  C   UNL     1      32.757 -23.328 -17.280  0.00  0.00    +0.032 C 
ATOM     11  C   UNL     1      37.532 -22.012 -16.365  0.00  0.00    +0.032 C 
ATOM     12  C   UNL     1      35.360 -21.642 -19.430  0.00  0.00    -0.001 C 
ENDBRANCH   2   5
BRANCH   3  13
ATOM     13  C   UNL     1      35.089 -24.580 -13.621  0.00  0.00    +0.067 C 
BRANCH  13  15
ATOM     14  N   UNL     1      37.407 -23.817 -13.288  0.00  0.00    +0.390 N 
ATOM     15  C   UNL     1      36.373 -24.778 -12.809  0.00  0.00    -0.034 C 
ATOM     16  C   UNL     1      36.952 -26.184 -13.017  0.00  0.00    -0.021 C 
ATOM     17  C   UNL     1      36.141 -24.434 -11.330  0.00  0.00    -0.021 C 
ATOM     18  C   UNL     1      38.501 -24.606 -13.870  0.00  0.00    -0.077 C 
ATOM     19  C   UNL     1      37.854 -23.028 -12.130  0.00  0.00    -0.077 C 
ATOM     20  C   UNL     1      38.444 -25.950 -13.166  0.00  0.00    -0.025 C 
ATOM     21  C   UNL     1      36.651 -23.011 -11.209  0.00  0.00    -0.025 C 
ATOM     22  H   UNL     1      37.053 -23.175 -13.995  0.00  0.00    -0.080 HD
ENDBRANCH  13  15
ENDBRANCH   3  13
TORSDOF 3
ENDMDL
MODEL 2
REMARK VINA RESULT:      -8.9      0.025      1.925
REMARK  Name = 4820
REMARK  3 active torsions:
REMARK  status: ('A' for Active; 'I' for Inactive)
REMARK    1  A    between atoms: N_2  and  C_5
REMARK    2  A    between atoms: C_3  and  C_13
REMARK    3  A    between atoms: C_13  and  C_15
REMARK                            x       y       z     vdW  Elec       q    Type
REMARK                         _______ _______ _______ _____ _____    ______ ____
ROOT
ATOM      1  O   UNL     1      35.840 -25.383 -15.762  0.00  0.00    -0.275 OA
ATOM      2  N   UNL     1      35.034 -23.188 -15.532  0.00  0.00    -0.284 N 
ATOM      3  C   UNL     1      35.376 -24.464 -15.094  0.00  0.00    +0.224 C 
ATOM      4  H   UNL     1      34.674 -22.576 -14.849  0.00  0.00    +0.155 HD
ENDROOT
BRANCH   2   5
ATOM      5  C   UNL     1      35.141 -22.668 -16.844  0.00  0.00    +0.042 C 
ATOM      6  C   UNL     1      36.342 -22.112 -17.259  0.00  0.00    -0.009 C 
ATOM      7  C   UNL     1      34.045 -22.726 -17.691  0.00  0.00    -0.009 C 
ATOM      8  C   UNL     1      36.448 -21.599 -18.553  0.00  0.00    -0.003 C 
ATOM      9  C   UNL     1      34.152 -22.213 -18.985  0.00  0.00    -0.003 C 
ATOM     10  C   UNL     1      37.532 -22.042 -16.359  0.00  0.00    +0.032 C 
ATOM     11  C   UNL     1      32.745 -23.322 -17.259  0.00  0.00    +0.032 C 
ATOM     12  C   UNL     1      35.353 -21.650 -19.415  0.00  0.00    -0.001 C 
ENDBRANCH   2   5
BRANCH   3  13
ATOM     13  C   UNL     1      35.098 -24.597 -13.610  0.00  0.00    +0.067 C 
BRANCH  13  15
ATOM     14  N   UNL     1      37.408 -23.813 -13.273  0.00  0.00    +0.390 N 
ATOM     15  C   UNL     1      36.380 -24.778 -12.792  0.00  0.00    -0.034 C 
ATOM     16  C   UNL     1      36.970 -26.181 -12.986  0.00  0.00    -0.021 C 
ATOM     17  C   UNL     1      36.138 -24.425 -11.316  0.00  0.00    -0.021 C 
ATOM     18  C   UNL     1      38.511 -24.597 -13.844  0.00  0.00    -0.077 C 
ATOM     19  C   UNL     1      37.844 -23.012 -12.118  0.00  0.00    -0.077 C 
ATOM     20  C   UNL     1      38.461 -25.936 -13.131  0.00  0.00    -0.025 C 
ATOM     21  C   UNL     1      36.637 -22.997 -11.203  0.00  0.00    -0.025 C 
ATOM     22  H   UNL     1      37.053 -23.178 -13.986  0.00  0.00    -0.080 HD
ENDBRANCH  13  15
ENDBRANCH   3  13
TORSDOF 3
ENDMDL
MODEL 3
REMARK VINA RESULT:      -8.9      6.395     10.489
REMARK  Name = 4820
REMARK  3 active torsions:
REMARK  status: ('A' for Active; 'I' for Inactive)
REMARK    1  A    between atoms: N_2  and  C_5
REMARK    2  A    between atoms: C_3  and  C_13
REMARK    3  A    between atoms: C_13  and  C_15
REMARK                            x       y       z     vdW  Elec       q    Type
REMARK                         _______ _______ _______ _____ _____    ______ ____
ROOT
ATOM      1  O   UNL     1      35.356 -16.872 -20.243  0.00  0.00    -0.275 OA
ATOM      2  N   UNL     1      34.965 -18.705 -21.659  0.00  0.00    -0.284 N 
ATOM      3  C   UNL     1      35.155 -17.362 -21.350  0.00  0.00    +0.224 C 
ATOM      4  H   UNL     1      34.818 -18.916 -22.610  0.00  0.00    +0.155 HD
ENDROOT
BRANCH   2   5
ATOM      5  C   UNL     1      34.959 -19.804 -20.766  0.00  0.00    +0.042 C 
ATOM      6  C   UNL     1      33.748 -20.346 -20.364  0.00  0.00    -0.009 C 
ATOM      7  C   UNL     1      36.163 -20.319 -20.311  0.00  0.00    -0.009 C 
ATOM      8  C   UNL     1      33.741 -21.429 -19.484  0.00  0.00    -0.003 C 
ATOM      9  C   UNL     1      36.156 -21.402 -19.432  0.00  0.00    -0.003 C 
ATOM     10  C   UNL     1      32.441 -19.803 -20.844  0.00  0.00    +0.032 C 
ATOM     11  C   UNL     1      37.476 -19.745 -20.736  0.00  0.00    +0.032 C 
ATOM     12  C   UNL     1      34.945 -21.957 -19.019  0.00  0.00    -0.001 C 
ENDBRANCH   2   5
BRANCH   3  13
ATOM     13  C   UNL     1      35.085 -16.523 -22.611  0.00  0.00    +0.067 C 
BRANCH  13  15
ATOM     14  N   UNL     1      34.288 -14.248 -22.111  0.00  0.00    +0.390 N 
ATOM     15  C   UNL     1      33.874 -15.585 -22.619  0.00  0.00    -0.034 C 
ATOM     16  C   UNL     1      32.774 -16.090 -21.677  0.00  0.00    -0.021 C 
ATOM     17  C   UNL     1      33.379 -15.349 -24.054  0.00  0.00    -0.021 C 
ATOM     18  C   UNL     1      33.563 -14.012 -20.855  0.00  0.00    -0.077 C 
ATOM     19  C   UNL     1      33.944 -13.253 -23.139  0.00  0.00    -0.077 C 
ATOM     20  C   UNL     1      32.295 -14.838 -20.965  0.00  0.00    -0.025 C 
ATOM     21  C   UNL     1      34.014 -14.027 -24.439  0.00  0.00    -0.025 C 
ATOM     22  H   UNL     1      35.289 -14.185 -21.928  0.00  0.00    -0.080 HD
ENDBRANCH  13  15
ENDBRANCH   3  13
TORSDOF 3
ENDMDL
MODEL 4
REMARK VINA RESULT:      -8.5      7.614     10.763
REMARK  Name = 4820
REMARK  3 active torsions:
REMARK  status: ('A' for Active; 'I' for Inactive)
REMARK    1  A    between atoms: N_2  and  C_5
REMARK    2  A    between atoms: C_3  and  C_13
REMARK    3  A    between atoms: C_13  and  C_15
REMARK                            x       y       z     vdW  Elec       q    Type
REMARK                         _______ _______ _______ _____ _____    ______ ____
ROOT
ATOM      1  O   UNL     1      34.981 -15.597 -20.859  0.00  0.00    -0.275 OA
ATOM      2  N   UNL     1      32.969 -15.528 -22.071  0.00  0.00    -0.284 N 
ATOM      3  C   UNL     1      33.912 -16.086 -21.213  0.00  0.00    +0.224 C 
ATOM      4  H   UNL     1      32.163 -16.069 -22.241  0.00  0.00    +0.155 HD
ENDROOT
BRANCH   2   5
ATOM      5  C   UNL     1      33.033 -14.276 -22.728  0.00  0.00    +0.042 C 
ATOM      6  C   UNL     1      32.635 -13.132 -22.052  0.00  0.00    -0.009 C 
ATOM      7  C   UNL     1      33.493 -14.215 -24.034  0.00  0.00    -0.009 C 
ATOM      8  C   UNL     1      32.697 -11.898 -22.700  0.00  0.00    -0.003 C 
ATOM      9  C   UNL     1      33.557 -12.980 -24.681  0.00  0.00    -0.003 C 
ATOM     10  C   UNL     1      32.136 -13.180 -20.645  0.00  0.00    +0.032 C 
ATOM     11  C   UNL     1      33.926 -15.438 -24.776  0.00  0.00    +0.032 C 
ATOM     12  C   UNL     1      33.159 -11.822 -24.014  0.00  0.00    -0.001 C 
ENDBRANCH   2   5
BRANCH   3  13
ATOM     13  C   UNL     1      33.441 -17.445 -20.734  0.00  0.00    +0.067 C 
BRANCH  13  15
ATOM     14  N   UNL     1      35.504 -18.787 -20.810  0.00  0.00    +0.390 N 
ATOM     15  C   UNL     1      34.168 -18.594 -21.440  0.00  0.00    -0.034 C 
ATOM     16  C   UNL     1      34.422 -18.267 -22.917  0.00  0.00    -0.021 C 
ATOM     17  C   UNL     1      33.418 -19.919 -21.236  0.00  0.00    -0.021 C 
ATOM     18  C   UNL     1      36.517 -18.470 -21.827  0.00  0.00    -0.077 C 
ATOM     19  C   UNL     1      35.591 -20.187 -20.366  0.00  0.00    -0.077 C 
ATOM     20  C   UNL     1      35.843 -18.741 -23.160  0.00  0.00    -0.025 C 
ATOM     21  C   UNL     1      34.153 -20.573 -20.082  0.00  0.00    -0.025 C 
ATOM     22  H   UNL     1      35.652 -18.185 -20.001  0.00  0.00    -0.080 HD
ENDBRANCH  13  15
ENDBRANCH   3  13
TORSDOF 3
ENDMDL
MODEL 5
REMARK VINA RESULT:      -8.5      7.620     10.781
REMARK  Name = 4820
REMARK  3 active torsions:
REMARK  status: ('A' for Active; 'I' for Inactive)
REMARK    1  A    between atoms: N_2  and  C_5
REMARK    2  A    between atoms: C_3  and  C_13
REMARK    3  A    between atoms: C_13  and  C_15
REMARK                            x       y       z     vdW  Elec       q    Type
REMARK                         _______ _______ _______ _____ _____    ______ ____
ROOT
ATOM      1  O   UNL     1      34.967 -15.584 -20.837  0.00  0.00    -0.275 OA
ATOM      2  N   UNL     1      32.977 -15.520 -22.082  0.00  0.00    -0.284 N 
ATOM      3  C   UNL     1      33.906 -16.076 -21.209  0.00  0.00    +0.224 C 
ATOM      4  H   UNL     1      32.176 -16.063 -22.267  0.00  0.00    +0.155 HD
ENDROOT
BRANCH   2   5
ATOM      5  C   UNL     1      33.047 -14.267 -22.736  0.00  0.00    +0.042 C 
ATOM      6  C   UNL     1      33.519 -14.204 -24.038  0.00  0.00    -0.009 C 
ATOM      7  C   UNL     1      32.642 -13.125 -22.063  0.00  0.00    -0.009 C 
ATOM      8  C   UNL     1      33.589 -12.968 -24.682  0.00  0.00    -0.003 C 
ATOM      9  C   UNL     1      32.711 -11.889 -22.707  0.00  0.00    -0.003 C 
ATOM     10  C   UNL     1      33.960 -15.425 -24.778  0.00  0.00    +0.032 C 
ATOM     11  C   UNL     1      32.132 -13.176 -20.659  0.00  0.00    +0.032 C 
ATOM     12  C   UNL     1      33.184 -11.811 -24.017  0.00  0.00    -0.001 C 
ENDBRANCH   2   5
BRANCH   3  13
ATOM     13  C   UNL     1      33.433 -17.438 -20.741  0.00  0.00    +0.067 C 
BRANCH  13  15
ATOM     14  N   UNL     1      35.499 -18.774 -20.800  0.00  0.00    +0.390 N 
ATOM     15  C   UNL     1      34.169 -18.583 -21.442  0.00  0.00    -0.034 C 
ATOM     16  C   UNL     1      34.436 -18.252 -22.916  0.00  0.00    -0.021 C 
ATOM     17  C   UNL     1      33.420 -19.910 -21.249  0.00  0.00    -0.021 C 
ATOM     18  C   UNL     1      36.521 -18.453 -21.806  0.00  0.00    -0.077 C 
ATOM     19  C   UNL     1      35.585 -20.175 -20.359  0.00  0.00    -0.077 C 
ATOM     20  C   UNL     1      35.861 -18.722 -23.146  0.00  0.00    -0.025 C 
ATOM     21  C   UNL     1      34.147 -20.566 -20.090  0.00  0.00    -0.025 C 
ATOM     22  H   UNL     1      35.638 -18.174 -19.989  0.00  0.00    -0.080 HD
ENDBRANCH  13  15
ENDBRANCH   3  13
TORSDOF 3
ENDMDL
MODEL 6
REMARK VINA RESULT:      -8.3      1.629      3.666
REMARK  Name = 4820
REMARK  3 active torsions:
REMARK  status: ('A' for Active; 'I' for Inactive)
REMARK    1  A    between atoms: N_2  and  C_5
REMARK    2  A    between atoms: C_3  and  C_13
REMARK    3  A    between atoms: C_13  and  C_15
REMARK                            x       y       z     vdW  Elec       q    Type
REMARK                         _______ _______ _______ _____ _____    ______ ____
ROOT
ATOM      1  O   UNL     1      35.296 -25.112 -15.701  0.00  0.00    -0.275 OA
ATOM      2  N   UNL     1      34.461 -23.002 -15.095  0.00  0.00    -0.284 N 
ATOM      3  C   UNL     1      35.441 -23.975 -15.261  0.00  0.00    +0.224 C 
ATOM      4  H   UNL     1      34.763 -22.140 -14.726  0.00  0.00    +0.155 HD
ENDROOT
BRANCH   2   5
ATOM      5  C   UNL     1      33.081 -23.105 -15.393  0.00  0.00    +0.042 C 
ATOM      6  C   UNL     1      32.663 -23.033 -16.713  0.00  0.00    -0.009 C 
ATOM      7  C   UNL     1      32.172 -23.278 -14.360  0.00  0.00    -0.009 C 
ATOM      8  C   UNL     1      31.303 -23.134 -17.008  0.00  0.00    -0.003 C 
ATOM      9  C   UNL     1      30.812 -23.380 -14.655  0.00  0.00    -0.003 C 
ATOM     10  C   UNL     1      33.629 -22.846 -17.838  0.00  0.00    +0.032 C 
ATOM     11  C   UNL     1      32.607 -23.358 -12.933  0.00  0.00    +0.032 C 
ATOM     12  C   UNL     1      30.378 -23.308 -15.978  0.00  0.00    -0.001 C 
ENDBRANCH   2   5
BRANCH   3  13
ATOM     13  C   UNL     1      36.787 -23.442 -14.813  0.00  0.00    +0.067 C 
BRANCH  13  15
ATOM     14  N   UNL     1      36.308 -25.152 -13.108  0.00  0.00    +0.390 N 
ATOM     15  C   UNL     1      37.247 -24.060 -13.490  0.00  0.00    -0.034 C 
ATOM     16  C   UNL     1      37.208 -23.031 -12.352  0.00  0.00    -0.021 C 
ATOM     17  C   UNL     1      38.620 -24.730 -13.650  0.00  0.00    -0.021 C 
ATOM     18  C   UNL     1      35.643 -24.744 -11.864  0.00  0.00    -0.077 C 
ATOM     19  C   UNL     1      37.100 -26.380 -12.931  0.00  0.00    -0.077 C 
ATOM     20  C   UNL     1      36.615 -23.797 -11.183  0.00  0.00    -0.025 C 
ATOM     21  C   UNL     1      38.283 -26.193 -13.859  0.00  0.00    -0.025 C 
ATOM     22  H   UNL     1      35.598 -25.330 -13.817  0.00  0.00    -0.080 HD
ENDBRANCH  13  15
ENDBRANCH   3  13
TORSDOF 3
ENDMDL
MODEL 7
REMARK VINA RESULT:      -8.2      5.644     10.213
REMARK  Name = 4820
REMARK  3 active torsions:
REMARK  status: ('A' for Active; 'I' for Inactive)
REMARK    1  A    between atoms: N_2  and  C_5
REMARK    2  A    between atoms: C_3  and  C_13
REMARK    3  A    between atoms: C_13  and  C_15
REMARK                            x       y       z     vdW  Elec       q    Type
REMARK                         _______ _______ _______ _____ _____    ______ ____
ROOT
ATOM      1  O   UNL     1      36.058 -17.944 -20.163  0.00  0.00    -0.275 OA
ATOM      2  N   UNL     1      35.177 -19.763 -21.360  0.00  0.00    -0.284 N 
ATOM      3  C   UNL     1      35.768 -18.513 -21.212  0.00  0.00    +0.224 C 
ATOM      4  H   UNL     1      35.019 -20.062 -22.285  0.00  0.00    +0.155 HD
ENDROOT
BRANCH   2   5
ATOM      5  C   UNL     1      34.778 -20.657 -20.337  0.00  0.00    +0.042 C 
ATOM      6  C   UNL     1      35.739 -21.400 -19.669  0.00  0.00    -0.009 C 
ATOM      7  C   UNL     1      33.433 -20.772 -20.021  0.00  0.00    -0.009 C 
ATOM      8  C   UNL     1      35.346 -22.281 -18.661  0.00  0.00    -0.003 C 
ATOM      9  C   UNL     1      33.039 -21.652 -19.012  0.00  0.00    -0.003 C 
ATOM     10  C   UNL     1      37.192 -21.288 -19.998  0.00  0.00    +0.032 C 
ATOM     11  C   UNL     1      32.385 -19.978 -20.731  0.00  0.00    +0.032 C 
ATOM     12  C   UNL     1      33.996 -22.407 -18.333  0.00  0.00    -0.001 C 
ENDBRANCH   2   5
BRANCH   3  13
ATOM     13  C   UNL     1      36.031 -17.896 -22.571  0.00  0.00    +0.067 C 
BRANCH  13  15
ATOM     14  N   UNL     1      35.187 -16.083 -24.008  0.00  0.00    +0.390 N 
ATOM     15  C   UNL     1      34.780 -17.241 -23.164  0.00  0.00    -0.034 C 
ATOM     16  C   UNL     1      33.868 -16.684 -22.064  0.00  0.00    -0.021 C 
ATOM     17  C   UNL     1      34.056 -18.211 -24.112  0.00  0.00    -0.021 C 
ATOM     18  C   UNL     1      34.650 -14.871 -23.375  0.00  0.00    -0.077 C 
ATOM     19  C   UNL     1      34.630 -16.293 -25.354  0.00  0.00    -0.077 C 
ATOM     20  C   UNL     1      33.431 -15.332 -22.597  0.00  0.00    -0.025 C 
ATOM     21  C   UNL     1      34.546 -17.799 -25.487  0.00  0.00    -0.025 C 
ATOM     22  H   UNL     1      36.198 -15.989 -24.091  0.00  0.00    -0.080 HD
ENDBRANCH  13  15
ENDBRANCH   3  13
TORSDOF 3
ENDMDL
MODEL 8
REMARK VINA RESULT:      -8.1      9.733     12.925
REMARK  Name = 4820
REMARK  3 active torsions:
REMARK  status: ('A' for Active; 'I' for Inactive)
REMARK    1  A    between atoms: N_2  and  C_5
REMARK    2  A    between atoms: C_3  and  C_13
REMARK    3  A    between atoms: C_13  and  C_15
REMARK                            x       y       z     vdW  Elec       q    Type
REMARK                         _______ _______ _______ _____ _____    ______ ____
ROOT
ATOM      1  O   UNL     1      32.801 -14.511 -24.801  0.00  0.00    -0.275 OA
ATOM      2  N   UNL     1      34.106 -13.167 -23.384  0.00  0.00    -0.284 N 
ATOM      3  C   UNL     1      33.811 -14.300 -24.136  0.00  0.00    +0.224 C 
ATOM      4  H   UNL     1      34.971 -13.172 -22.913  0.00  0.00    +0.155 HD
ENDROOT
BRANCH   2   5
ATOM      5  C   UNL     1      33.309 -12.010 -23.216  0.00  0.00    +0.042 C 
ATOM      6  C   UNL     1      32.310 -12.005 -22.254  0.00  0.00    -0.009 C 
ATOM      7  C   UNL     1      33.541 -10.901 -24.015  0.00  0.00    -0.009 C 
ATOM      8  C   UNL     1      31.523 -10.865 -22.088  0.00  0.00    -0.003 C 
ATOM      9  C   UNL     1      32.755  -9.760 -23.849  0.00  0.00    -0.003 C 
ATOM     10  C   UNL     1      32.045 -13.192 -21.385  0.00  0.00    +0.032 C 
ATOM     11  C   UNL     1      34.613 -10.891 -25.056  0.00  0.00    +0.032 C 
ATOM     12  C   UNL     1      31.747  -9.742 -22.886  0.00  0.00    -0.001 C 
ENDBRANCH   2   5
BRANCH   3  13
ATOM     13  C   UNL     1      34.945 -15.301 -24.038  0.00  0.00    +0.067 C 
BRANCH  13  15
ATOM     14  N   UNL     1      35.689 -17.143 -22.585  0.00  0.00    +0.390 N 
ATOM     15  C   UNL     1      34.522 -16.590 -23.327  0.00  0.00    -0.034 C 
ATOM     16  C   UNL     1      34.093 -17.665 -24.334  0.00  0.00    -0.021 C 
ATOM     17  C   UNL     1      33.453 -16.299 -22.263  0.00  0.00    -0.021 C 
ATOM     18  C   UNL     1      36.025 -18.436 -23.197  0.00  0.00    -0.077 C 
ATOM     19  C   UNL     1      35.293 -17.290 -21.175  0.00  0.00    -0.077 C 
ATOM     20  C   UNL     1      34.728 -18.938 -23.806  0.00  0.00    -0.025 C 
ATOM     21  C   UNL     1      34.246 -16.214 -20.973  0.00  0.00    -0.025 C 
ATOM     22  H   UNL     1      36.508 -16.539 -22.625  0.00  0.00    -0.080 HD
ENDBRANCH  13  15
ENDBRANCH   3  13
TORSDOF 3
ENDMDL
MODEL 9
REMARK VINA RESULT:      -8.0      6.747     11.090
REMARK  Name = 4820
REMARK  3 active torsions:
REMARK  status: ('A' for Active; 'I' for Inactive)
REMARK    1  A    between atoms: N_2  and  C_5
REMARK    2  A    between atoms: C_3  and  C_13
REMARK    3  A    between atoms: C_13  and  C_15
REMARK                            x       y       z     vdW  Elec       q    Type
REMARK                         _______ _______ _______ _____ _____    ______ ____
ROOT
ATOM      1  O   UNL     1      34.874 -16.461 -20.289  0.00  0.00    -0.275 OA
ATOM      2  N   UNL     1      34.081 -18.316 -21.492  0.00  0.00    -0.284 N 
ATOM      3  C   UNL     1      34.179 -16.967 -21.165  0.00  0.00    +0.224 C 
ATOM      4  H   UNL     1      33.468 -18.540 -22.230  0.00  0.00    +0.155 HD
ENDROOT
BRANCH   2   5
ATOM      5  C   UNL     1      34.757 -19.403 -20.888  0.00  0.00    +0.042 C 
ATOM      6  C   UNL     1      36.133 -19.509 -21.025  0.00  0.00    -0.009 C 
ATOM      7  C   UNL     1      34.032 -20.341 -20.170  0.00  0.00    -0.009 C 
ATOM      8  C   UNL     1      36.800 -20.580 -20.430  0.00  0.00    -0.003 C 
ATOM      9  C   UNL     1      34.699 -21.413 -19.574  0.00  0.00    -0.003 C 
ATOM     10  C   UNL     1      36.929 -18.507 -21.796  0.00  0.00    +0.032 C 
ATOM     11  C   UNL     1      32.550 -20.241 -20.014  0.00  0.00    +0.032 C 
ATOM     12  C   UNL     1      36.083 -21.532 -19.704  0.00  0.00    -0.001 C 
ENDBRANCH   2   5
BRANCH   3  13
ATOM     13  C   UNL     1      33.280 -16.145 -22.067  0.00  0.00    +0.067 C 
BRANCH  13  15
ATOM     14  N   UNL     1      33.125 -15.217 -24.342  0.00  0.00    +0.390 N 
ATOM     15  C   UNL     1      34.054 -15.476 -23.206  0.00  0.00    -0.034 C 
ATOM     16  C   UNL     1      35.158 -16.396 -23.744  0.00  0.00    -0.021 C 
ATOM     17  C   UNL     1      34.576 -14.098 -22.774  0.00  0.00    -0.021 C 
ATOM     18  C   UNL     1      33.576 -16.038 -25.473  0.00  0.00    -0.077 C 
ATOM     19  C   UNL     1      33.185 -13.779 -24.648  0.00  0.00    -0.077 C 
ATOM     20  C   UNL     1      35.064 -16.242 -25.251  0.00  0.00    -0.025 C 
ATOM     21  C   UNL     1      33.542 -13.134 -23.325  0.00  0.00    -0.025 C 
ATOM     22  H   UNL     1      32.159 -15.458 -24.126  0.00  0.00    -0.080 HD
ENDBRANCH  13  15
ENDBRANCH   3  13
TORSDOF 3
ENDMDL
