MODEL 1
REMARK VINA RESULT:     -10.1      0.000      0.000
REMARK  Name = 154575
REMARK  5 active torsions:
REMARK  status: ('A' for Active; 'I' for Inactive)
REMARK    1  A    between atoms: C_1  and  O_21
REMARK    2  A    between atoms: C_2  and  O_19
REMARK    3  A    between atoms: C_4  and  C_9
REMARK    4  A    between atoms: N_8  and  C_14
REMARK    5  A    between atoms: O_21  and  C_22
REMARK                            x       y       z     vdW  Elec       q    Type
REMARK                         _______ _______ _______ _____ _____    ______ ____
ROOT
ATOM      1  C   UNL     1      35.374 -22.101 -18.553  0.00  0.00    +0.172 C 
ATOM      2  C   UNL     1      34.038 -22.486 -18.573  0.00  0.00    +0.172 C 
ATOM      3  C   UNL     1      35.824 -21.067 -19.368  0.00  0.00    +0.045 C 
ATOM      4  C   UNL     1      34.928 -20.411 -20.212  0.00  0.00    +0.057 C 
ATOM      5  C   UNL     1      33.141 -21.830 -19.417  0.00  0.00    +0.040 C 
ATOM      6  C   UNL     1      33.587 -20.793 -20.236  0.00  0.00    +0.008 C 
ENDROOT
BRANCH   4   9
ATOM      7  O   UNL     1      36.608 -19.078 -21.114  0.00  0.00    -0.270 OA
ATOM      8  N   UNL     1      34.403 -18.660 -21.799  0.00  0.00    -0.279 N 
ATOM      9  C   UNL     1      35.392 -19.329 -21.066  0.00  0.00    +0.250 C 
ATOM     10  H   UNL     1      33.480 -18.972 -21.655  0.00  0.00    +0.155 HD
BRANCH   8  14
ATOM     11 CL   UNL     1      34.454 -15.880 -20.591  0.00  0.00    -0.079 Cl
ATOM     12 CL   UNL     1      34.636 -19.468 -24.714  0.00  0.00    -0.079 Cl
ATOM     13  N   UNL     1      34.856 -15.504 -24.526  0.00  0.00    -0.240 NA
ATOM     14  C   UNL     1      34.556 -17.595 -22.720  0.00  0.00    +0.075 C 
ATOM     15  C   UNL     1      34.590 -16.292 -22.257  0.00  0.00    +0.091 C 
ATOM     16  C   UNL     1      34.669 -17.870 -24.070  0.00  0.00    +0.091 C 
ATOM     17  C   UNL     1      34.741 -15.286 -23.196  0.00  0.00    +0.112 C 
ATOM     18  C   UNL     1      34.817 -16.793 -24.928  0.00  0.00    +0.112 C 
ENDBRANCH   8  14
ENDBRANCH   4   9
BRANCH   2  19
ATOM     19  O   UNL     1      33.591 -23.497 -17.778  0.00  0.00    -0.468 OA
ATOM     20  C   UNL     1      32.455 -23.225 -16.959  0.00  0.00    +0.253 C 
ENDBRANCH   2  19
BRANCH   1  21
ATOM     21  O   UNL     1      36.264 -22.737 -17.729  0.00  0.00    -0.476 OA
BRANCH  21  22
ATOM     22  C   UNL     1      36.606 -22.071 -16.520  0.00  0.00    +0.166 C 
ATOM     23  C   UNL     1      37.952 -22.577 -16.025  0.00  0.00    +0.044 C 
ATOM     24  C   UNL     1      35.656 -22.479 -15.404  0.00  0.00    +0.044 C 
ATOM     25  C   UNL     1      37.635 -23.908 -15.345  0.00  0.00    +0.004 C 
ATOM     26  C   UNL     1      36.153 -23.857 -14.974  0.00  0.00    +0.004 C 
ENDBRANCH  21  22
ENDBRANCH   1  21
TORSDOF 5
ENDMDL
MODEL 2
REMARK VINA RESULT:      -9.6      1.406      3.091
REMARK  Name = 154575
REMARK  5 active torsions:
REMARK  status: ('A' for Active; 'I' for Inactive)
REMARK    1  A    between atoms: C_1  and  O_21
REMARK    2  A    between atoms: C_2  and  O_19
REMARK    3  A    between atoms: C_4  and  C_9
REMARK    4  A    between atoms: N_8  and  C_14
REMARK    5  A    between atoms: O_21  and  C_22
REMARK                            x       y       z     vdW  Elec       q    Type
REMARK                         _______ _______ _______ _____ _____    ______ ____
ROOT
ATOM      1  C   UNL     1      33.486 -22.452 -18.271  0.00  0.00    +0.172 C 
ATOM      2  C   UNL     1      34.815 -22.622 -17.899  0.00  0.00    +0.172 C 
ATOM      3  C   UNL     1      33.142 -21.555 -19.277  0.00  0.00    +0.045 C 
ATOM      4  C   UNL     1      34.138 -20.819 -19.918  0.00  0.00    +0.057 C 
ATOM      5  C   UNL     1      35.813 -21.886 -18.540  0.00  0.00    +0.040 C 
ATOM      6  C   UNL     1      35.473 -20.985 -19.549  0.00  0.00    +0.008 C 
ENDROOT
BRANCH   4   9
ATOM      7  O   UNL     1      32.602 -19.804 -21.340  0.00  0.00    -0.270 OA
ATOM      8  N   UNL     1      34.837 -19.101 -21.474  0.00  0.00    -0.279 N 
ATOM      9  C   UNL     1      33.785 -19.879 -20.970  0.00  0.00    +0.250 C 
ATOM     10  H   UNL     1      35.723 -19.275 -21.082  0.00  0.00    +0.155 HD
BRANCH   8  14
ATOM     11 CL   UNL     1      34.681 -16.247 -20.462  0.00  0.00    -0.079 Cl
ATOM     12 CL   UNL     1      34.911 -20.098 -24.339  0.00  0.00    -0.079 Cl
ATOM     13  N   UNL     1      34.703 -16.130 -24.433  0.00  0.00    -0.240 NA
ATOM     14  C   UNL     1      34.792 -18.098 -22.473  0.00  0.00    +0.075 C 
ATOM     15  C   UNL     1      34.720 -16.768 -22.102  0.00  0.00    +0.091 C 
ATOM     16  C   UNL     1      34.820 -18.461 -23.807  0.00  0.00    +0.091 C 
ATOM     17  C   UNL     1      34.678 -15.825 -23.116  0.00  0.00    +0.112 C 
ATOM     18  C   UNL     1      34.774 -17.443 -24.744  0.00  0.00    +0.112 C 
ENDBRANCH   8  14
ENDBRANCH   4   9
BRANCH   2  19
ATOM     19  O   UNL     1      35.158 -23.499 -16.915  0.00  0.00    -0.468 OA
ATOM     20  C   UNL     1      35.939 -22.989 -15.836  0.00  0.00    +0.253 C 
ENDBRANCH   2  19
BRANCH   1  21
ATOM     21  O   UNL     1      32.497 -23.169 -17.649  0.00  0.00    -0.476 OA
BRANCH  21  22
ATOM     22  C   UNL     1      31.787 -22.511 -16.608  0.00  0.00    +0.166 C 
ATOM     23  C   UNL     1      32.264 -23.030 -15.261  0.00  0.00    +0.044 C 
ATOM     24  C   UNL     1      30.320 -22.915 -16.631  0.00  0.00    +0.044 C 
ATOM     25  C   UNL     1      31.535 -24.361 -15.084  0.00  0.00    +0.004 C 
ATOM     26  C   UNL     1      30.303 -24.299 -15.987  0.00  0.00    +0.004 C 
ENDBRANCH  21  22
ENDBRANCH   1  21
TORSDOF 5
ENDMDL
MODEL 3
REMARK VINA RESULT:      -9.5      3.768      9.110
REMARK  Name = 154575
REMARK  5 active torsions:
REMARK  status: ('A' for Active; 'I' for Inactive)
REMARK    1  A    between atoms: C_1  and  O_21
REMARK    2  A    between atoms: C_2  and  O_19
REMARK    3  A    between atoms: C_4  and  C_9
REMARK    4  A    between atoms: N_8  and  C_14
REMARK    5  A    between atoms: O_21  and  C_22
REMARK                            x       y       z     vdW  Elec       q    Type
REMARK                         _______ _______ _______ _____ _____    ______ ____
ROOT
ATOM      1  C   UNL     1      32.942 -14.422 -22.987  0.00  0.00    +0.172 C 
ATOM      2  C   UNL     1      33.344 -14.574 -24.310  0.00  0.00    +0.172 C 
ATOM      3  C   UNL     1      33.407 -15.288 -22.003  0.00  0.00    +0.045 C 
ATOM      4  C   UNL     1      34.283 -16.319 -22.345  0.00  0.00    +0.057 C 
ATOM      5  C   UNL     1      34.220 -15.605 -24.653  0.00  0.00    +0.040 C 
ATOM      6  C   UNL     1      34.689 -16.476 -23.670  0.00  0.00    +0.008 C 
ENDROOT
BRANCH   4   9
ATOM      7  O   UNL     1      35.245 -16.757 -20.273  0.00  0.00    -0.270 OA
ATOM      8  N   UNL     1      34.644 -18.594 -21.603  0.00  0.00    -0.279 N 
ATOM      9  C   UNL     1      34.772 -17.227 -21.321  0.00  0.00    +0.250 C 
ATOM     10  H   UNL     1      34.251 -18.815 -22.479  0.00  0.00    +0.155 HD
BRANCH   8  14
ATOM     11 CL   UNL     1      32.339 -20.122 -20.359  0.00  0.00    -0.079 Cl
ATOM     12 CL   UNL     1      37.622 -19.116 -21.351  0.00  0.00    -0.079 Cl
ATOM     13  N   UNL     1      35.717 -21.869 -19.210  0.00  0.00    -0.240 NA
ATOM     14  C   UNL     1      35.007 -19.700 -20.795  0.00  0.00    +0.075 C 
ATOM     15  C   UNL     1      34.019 -20.454 -20.188  0.00  0.00    +0.091 C 
ATOM     16  C   UNL     1      36.342 -20.011 -20.624  0.00  0.00    +0.091 C 
ATOM     17  C   UNL     1      34.424 -21.525 -19.408  0.00  0.00    +0.112 C 
ATOM     18  C   UNL     1      36.644 -21.102 -19.824  0.00  0.00    +0.112 C 
ENDBRANCH   8  14
ENDBRANCH   4   9
BRANCH   2  19
ATOM     19  O   UNL     1      32.892 -13.729 -25.278  0.00  0.00    -0.468 OA
ATOM     20  C   UNL     1      33.039 -14.156 -26.631  0.00  0.00    +0.253 C 
ENDBRANCH   2  19
BRANCH   1  21
ATOM     21  O   UNL     1      32.082 -13.414 -22.637  0.00  0.00    -0.476 OA
BRANCH  21  22
ATOM     22  C   UNL     1      32.639 -12.316 -21.925  0.00  0.00    +0.166 C 
ATOM     23  C   UNL     1      31.895 -12.134 -20.612  0.00  0.00    +0.044 C 
ATOM     24  C   UNL     1      32.360 -11.013 -22.659  0.00  0.00    +0.044 C 
ATOM     25  C   UNL     1      30.615 -11.394 -20.996  0.00  0.00    +0.004 C 
ATOM     26  C   UNL     1      30.904 -10.699 -22.326  0.00  0.00    +0.004 C 
ENDBRANCH  21  22
ENDBRANCH   1  21
TORSDOF 5
ENDMDL
MODEL 4
REMARK VINA RESULT:      -9.5      3.771      9.119
REMARK  Name = 154575
REMARK  5 active torsions:
REMARK  status: ('A' for Active; 'I' for Inactive)
REMARK    1  A    between atoms: C_1  and  O_21
REMARK    2  A    between atoms: C_2  and  O_19
REMARK    3  A    between atoms: C_4  and  C_9
REMARK    4  A    between atoms: N_8  and  C_14
REMARK    5  A    between atoms: O_21  and  C_22
REMARK                            x       y       z     vdW  Elec       q    Type
REMARK                         _______ _______ _______ _____ _____    ______ ____
ROOT
ATOM      1  C   UNL     1      32.934 -14.420 -23.003  0.00  0.00    +0.172 C 
ATOM      2  C   UNL     1      33.324 -14.579 -24.329  0.00  0.00    +0.172 C 
ATOM      3  C   UNL     1      33.409 -15.281 -22.019  0.00  0.00    +0.045 C 
ATOM      4  C   UNL     1      34.282 -16.313 -22.364  0.00  0.00    +0.057 C 
ATOM      5  C   UNL     1      34.198 -15.611 -24.674  0.00  0.00    +0.040 C 
ATOM      6  C   UNL     1      34.676 -16.477 -23.691  0.00  0.00    +0.008 C 
ENDROOT
BRANCH   4   9
ATOM      7  O   UNL     1      35.258 -16.740 -20.296  0.00  0.00    -0.270 OA
ATOM      8  N   UNL     1      34.656 -18.584 -21.616  0.00  0.00    -0.279 N 
ATOM      9  C   UNL     1      34.781 -17.216 -21.339  0.00  0.00    +0.250 C 
ATOM     10  H   UNL     1      34.258 -18.809 -22.488  0.00  0.00    +0.155 HD
BRANCH   8  14
ATOM     11 CL   UNL     1      37.637 -19.084 -21.369  0.00  0.00    -0.079 Cl
ATOM     12 CL   UNL     1      32.363 -20.123 -20.360  0.00  0.00    -0.079 Cl
ATOM     13  N   UNL     1      35.757 -21.845 -19.217  0.00  0.00    -0.240 NA
ATOM     14  C   UNL     1      35.028 -19.685 -20.806  0.00  0.00    +0.075 C 
ATOM     15  C   UNL     1      36.367 -19.987 -20.637  0.00  0.00    +0.091 C 
ATOM     16  C   UNL     1      34.048 -20.444 -20.194  0.00  0.00    +0.091 C 
ATOM     17  C   UNL     1      36.679 -21.073 -19.835  0.00  0.00    +0.112 C 
ATOM     18  C   UNL     1      34.463 -21.510 -19.413  0.00  0.00    +0.112 C 
ENDBRANCH   8  14
ENDBRANCH   4   9
BRANCH   2  19
ATOM     19  O   UNL     1      32.863 -13.739 -25.298  0.00  0.00    -0.468 OA
ATOM     20  C   UNL     1      33.086 -14.128 -26.652  0.00  0.00    +0.253 C 
ENDBRANCH   2  19
BRANCH   1  21
ATOM     21  O   UNL     1      32.078 -13.410 -22.651  0.00  0.00    -0.476 OA
BRANCH  21  22
ATOM     22  C   UNL     1      32.637 -12.315 -21.939  0.00  0.00    +0.166 C 
ATOM     23  C   UNL     1      31.909 -12.145 -20.615  0.00  0.00    +0.044 C 
ATOM     24  C   UNL     1      32.344 -11.008 -22.661  0.00  0.00    +0.044 C 
ATOM     25  C   UNL     1      30.621 -11.408 -20.978  0.00  0.00    +0.004 C 
ATOM     26  C   UNL     1      30.890 -10.703 -22.307  0.00  0.00    +0.004 C 
ENDBRANCH  21  22
ENDBRANCH   1  21
TORSDOF 5
ENDMDL
MODEL 5
REMARK VINA RESULT:      -9.0      6.157     11.213
REMARK  Name = 154575
REMARK  5 active torsions:
REMARK  status: ('A' for Active; 'I' for Inactive)
REMARK    1  A    between atoms: C_1  and  O_21
REMARK    2  A    between atoms: C_2  and  O_19
REMARK    3  A    between atoms: C_4  and  C_9
REMARK    4  A    between atoms: N_8  and  C_14
REMARK    5  A    between atoms: O_21  and  C_22
REMARK                            x       y       z     vdW  Elec       q    Type
REMARK                         _______ _______ _______ _____ _____    ______ ____
ROOT
ATOM      1  C   UNL     1      32.557 -10.394 -22.779  0.00  0.00    +0.172 C 
ATOM      2  C   UNL     1      31.831  -9.967 -21.673  0.00  0.00    +0.172 C 
ATOM      3  C   UNL     1      32.820 -11.747 -22.973  0.00  0.00    +0.045 C 
ATOM      4  C   UNL     1      32.351 -12.682 -22.050  0.00  0.00    +0.057 C 
ATOM      5  C   UNL     1      31.361 -10.902 -20.750  0.00  0.00    +0.040 C 
ATOM      6  C   UNL     1      31.622 -12.259 -20.939  0.00  0.00    +0.008 C 
ENDROOT
BRANCH   4   9
ATOM      7  O   UNL     1      31.903 -14.934 -21.679  0.00  0.00    -0.270 OA
ATOM      8  N   UNL     1      33.688 -14.402 -23.105  0.00  0.00    -0.279 N 
ATOM      9  C   UNL     1      32.623 -14.097 -22.248  0.00  0.00    +0.250 C 
ATOM     10  H   UNL     1      34.169 -13.629 -23.482  0.00  0.00    +0.155 HD
BRANCH   8  14
ATOM     11 CL   UNL     1      33.324 -15.087 -26.037  0.00  0.00    -0.079 Cl
ATOM     12 CL   UNL     1      34.938 -16.077 -20.906  0.00  0.00    -0.079 Cl
ATOM     13  N   UNL     1      35.101 -18.175 -24.278  0.00  0.00    -0.240 NA
ATOM     14  C   UNL     1      34.165 -15.676 -23.501  0.00  0.00    +0.075 C 
ATOM     15  C   UNL     1      34.041 -16.071 -24.820  0.00  0.00    +0.091 C 
ATOM     16  C   UNL     1      34.750 -16.507 -22.564  0.00  0.00    +0.091 C 
ATOM     17  C   UNL     1      34.523 -17.326 -25.157  0.00  0.00    +0.112 C 
ATOM     18  C   UNL     1      35.200 -17.742 -23.001  0.00  0.00    +0.112 C 
ENDBRANCH   8  14
ENDBRANCH   4   9
BRANCH   2  19
ATOM     19  O   UNL     1      31.570  -8.644 -21.477  0.00  0.00    -0.468 OA
ATOM     20  C   UNL     1      32.162  -8.029 -20.334  0.00  0.00    +0.253 C 
ENDBRANCH   2  19
BRANCH   1  21
ATOM     21  O   UNL     1      33.023  -9.486 -23.693  0.00  0.00    -0.476 OA
BRANCH  21  22
ATOM     22  C   UNL     1      34.398  -9.135 -23.603  0.00  0.00    +0.166 C 
ATOM     23  C   UNL     1      34.529  -7.750 -22.989  0.00  0.00    +0.044 C 
ATOM     24  C   UNL     1      34.989  -8.949 -24.993  0.00  0.00    +0.044 C 
ATOM     25  C   UNL     1      34.233  -6.790 -24.140  0.00  0.00    +0.004 C 
ATOM     26  C   UNL     1      34.499  -7.570 -25.427  0.00  0.00    +0.004 C 
ENDBRANCH  21  22
ENDBRANCH   1  21
TORSDOF 5
ENDMDL
MODEL 6
REMARK VINA RESULT:      -9.0      6.159     11.134
REMARK  Name = 154575
REMARK  5 active torsions:
REMARK  status: ('A' for Active; 'I' for Inactive)
REMARK    1  A    between atoms: C_1  and  O_21
REMARK    2  A    between atoms: C_2  and  O_19
REMARK    3  A    between atoms: C_4  and  C_9
REMARK    4  A    between atoms: N_8  and  C_14
REMARK    5  A    between atoms: O_21  and  C_22
REMARK                            x       y       z     vdW  Elec       q    Type
REMARK                         _______ _______ _______ _____ _____    ______ ____
ROOT
ATOM      1  C   UNL     1      32.555 -10.390 -22.788  0.00  0.00    +0.172 C 
ATOM      2  C   UNL     1      31.830  -9.962 -21.681  0.00  0.00    +0.172 C 
ATOM      3  C   UNL     1      32.818 -11.743 -22.980  0.00  0.00    +0.045 C 
ATOM      4  C   UNL     1      32.351 -12.677 -22.056  0.00  0.00    +0.057 C 
ATOM      5  C   UNL     1      31.362 -10.896 -20.756  0.00  0.00    +0.040 C 
ATOM      6  C   UNL     1      31.623 -12.253 -20.945  0.00  0.00    +0.008 C 
ENDROOT
BRANCH   4   9
ATOM      7  O   UNL     1      31.904 -14.929 -21.683  0.00  0.00    -0.270 OA
ATOM      8  N   UNL     1      33.689 -14.398 -23.110  0.00  0.00    -0.279 N 
ATOM      9  C   UNL     1      32.623 -14.092 -22.253  0.00  0.00    +0.250 C 
ATOM     10  H   UNL     1      34.170 -13.625 -23.486  0.00  0.00    +0.155 HD
BRANCH   8  14
ATOM     11 CL   UNL     1      34.936 -16.071 -20.909  0.00  0.00    -0.079 Cl
ATOM     12 CL   UNL     1      33.326 -15.086 -26.042  0.00  0.00    -0.079 Cl
ATOM     13  N   UNL     1      35.103 -18.171 -24.277  0.00  0.00    -0.240 NA
ATOM     14  C   UNL     1      34.167 -15.672 -23.504  0.00  0.00    +0.075 C 
ATOM     15  C   UNL     1      34.750 -16.502 -22.565  0.00  0.00    +0.091 C 
ATOM     16  C   UNL     1      34.043 -16.069 -24.822  0.00  0.00    +0.091 C 
ATOM     17  C   UNL     1      35.201 -17.738 -23.000  0.00  0.00    +0.112 C 
ATOM     18  C   UNL     1      34.526 -17.324 -25.156  0.00  0.00    +0.112 C 
ENDBRANCH   8  14
ENDBRANCH   4   9
BRANCH   2  19
ATOM     19  O   UNL     1      31.569  -8.639 -21.486  0.00  0.00    -0.468 OA
ATOM     20  C   UNL     1      32.155  -8.025 -20.340  0.00  0.00    +0.253 C 
ENDBRANCH   2  19
BRANCH   1  21
ATOM     21  O   UNL     1      33.020  -9.482 -23.703  0.00  0.00    -0.476 OA
BRANCH  21  22
ATOM     22  C   UNL     1      34.396  -9.134 -23.618  0.00  0.00    +0.166 C 
ATOM     23  C   UNL     1      34.533  -7.757 -22.989  0.00  0.00    +0.044 C 
ATOM     24  C   UNL     1      34.978  -8.934 -25.010  0.00  0.00    +0.044 C 
ATOM     25  C   UNL     1      34.231  -6.784 -24.127  0.00  0.00    +0.004 C 
ATOM     26  C   UNL     1      34.487  -7.550 -25.425  0.00  0.00    +0.004 C 
ENDBRANCH  21  22
ENDBRANCH   1  21
TORSDOF 5
ENDMDL
MODEL 7
REMARK VINA RESULT:      -8.9      5.046      7.801
REMARK  Name = 154575
REMARK  5 active torsions:
REMARK  status: ('A' for Active; 'I' for Inactive)
REMARK    1  A    between atoms: C_1  and  O_21
REMARK    2  A    between atoms: C_2  and  O_19
REMARK    3  A    between atoms: C_4  and  C_9
REMARK    4  A    between atoms: N_8  and  C_14
REMARK    5  A    between atoms: O_21  and  C_22
REMARK                            x       y       z     vdW  Elec       q    Type
REMARK                         _______ _______ _______ _____ _____    ______ ____
ROOT
ATOM      1  C   UNL     1      34.819 -16.480 -23.652  0.00  0.00    +0.172 C 
ATOM      2  C   UNL     1      34.357 -16.690 -24.947  0.00  0.00    +0.172 C 
ATOM      3  C   UNL     1      34.547 -15.286 -22.990  0.00  0.00    +0.045 C 
ATOM      4  C   UNL     1      33.807 -14.293 -23.630  0.00  0.00    +0.057 C 
ATOM      5  C   UNL     1      33.617 -15.696 -25.588  0.00  0.00    +0.040 C 
ATOM      6  C   UNL     1      33.342 -14.498 -24.929  0.00  0.00    +0.008 C 
ENDROOT
BRANCH   4   9
ATOM      7  O   UNL     1      33.483 -13.032 -21.702  0.00  0.00    -0.270 OA
ATOM      8  N   UNL     1      33.328 -11.924 -23.765  0.00  0.00    -0.279 N 
ATOM      9  C   UNL     1      33.520 -13.043 -22.944  0.00  0.00    +0.250 C 
ATOM     10  H   UNL     1      33.386 -12.089 -24.734  0.00  0.00    +0.155 HD
BRANCH   8  14
ATOM     11 CL   UNL     1      35.310  -9.855 -24.760  0.00  0.00    -0.079 Cl
ATOM     12 CL   UNL     1      30.849 -11.514 -22.064  0.00  0.00    -0.079 Cl
ATOM     13  N   UNL     1      32.536  -7.961 -22.637  0.00  0.00    -0.240 NA
ATOM     14  C   UNL     1      33.061 -10.586 -23.384  0.00  0.00    +0.075 C 
ATOM     15  C   UNL     1      33.912  -9.576 -23.793  0.00  0.00    +0.091 C 
ATOM     16  C   UNL     1      31.952 -10.306 -22.608  0.00  0.00    +0.091 C 
ATOM     17  C   UNL     1      33.608  -8.285 -23.395  0.00  0.00    +0.112 C 
ATOM     18  C   UNL     1      31.735  -8.982 -22.262  0.00  0.00    +0.112 C 
ENDBRANCH   8  14
ENDBRANCH   4   9
BRANCH   2  19
ATOM     19  O   UNL     1      34.620 -17.856 -25.601  0.00  0.00    -0.468 OA
ATOM     20  C   UNL     1      33.905 -19.014 -25.173  0.00  0.00    +0.253 C 
ENDBRANCH   2  19
BRANCH   1  21
ATOM     21  O   UNL     1      35.546 -17.448 -23.012  0.00  0.00    -0.476 OA
BRANCH  21  22
ATOM     22  C   UNL     1      35.398 -17.532 -21.600  0.00  0.00    +0.166 C 
ATOM     23  C   UNL     1      36.246 -18.677 -21.068  0.00  0.00    +0.044 C 
ATOM     24  C   UNL     1      33.983 -17.959 -21.241  0.00  0.00    +0.044 C 
ATOM     25  C   UNL     1      35.419 -19.930 -21.352  0.00  0.00    +0.004 C 
ATOM     26  C   UNL     1      33.970 -19.464 -21.493  0.00  0.00    +0.004 C 
ENDBRANCH  21  22
ENDBRANCH   1  21
TORSDOF 5
ENDMDL
MODEL 8
REMARK VINA RESULT:      -8.9      5.045      7.759
REMARK  Name = 154575
REMARK  5 active torsions:
REMARK  status: ('A' for Active; 'I' for Inactive)
REMARK    1  A    between atoms: C_1  and  O_21
REMARK    2  A    between atoms: C_2  and  O_19
REMARK    3  A    between atoms: C_4  and  C_9
REMARK    4  A    between atoms: N_8  and  C_14
REMARK    5  A    between atoms: O_21  and  C_22
REMARK                            x       y       z     vdW  Elec       q    Type
REMARK                         _______ _______ _______ _____ _____    ______ ____
ROOT
ATOM      1  C   UNL     1      34.810 -16.482 -23.659  0.00  0.00    +0.172 C 
ATOM      2  C   UNL     1      34.349 -16.689 -24.954  0.00  0.00    +0.172 C 
ATOM      3  C   UNL     1      34.540 -15.290 -22.994  0.00  0.00    +0.045 C 
ATOM      4  C   UNL     1      33.803 -14.293 -23.633  0.00  0.00    +0.057 C 
ATOM      5  C   UNL     1      33.611 -15.692 -25.594  0.00  0.00    +0.040 C 
ATOM      6  C   UNL     1      33.339 -14.494 -24.933  0.00  0.00    +0.008 C 
ENDROOT
BRANCH   4   9
ATOM      7  O   UNL     1      33.489 -13.034 -21.702  0.00  0.00    -0.270 OA
ATOM      8  N   UNL     1      33.320 -11.924 -23.763  0.00  0.00    -0.279 N 
ATOM      9  C   UNL     1      33.519 -13.044 -22.944  0.00  0.00    +0.250 C 
ATOM     10  H   UNL     1      33.373 -12.089 -24.732  0.00  0.00    +0.155 HD
BRANCH   8  14
ATOM     11 CL   UNL     1      30.851 -11.520 -22.049  0.00  0.00    -0.079 Cl
ATOM     12 CL   UNL     1      35.296  -9.851 -24.764  0.00  0.00    -0.079 Cl
ATOM     13  N   UNL     1      32.528  -7.964 -22.626  0.00  0.00    -0.240 NA
ATOM     14  C   UNL     1      33.053 -10.587 -23.379  0.00  0.00    +0.075 C 
ATOM     15  C   UNL     1      31.947 -10.310 -22.596  0.00  0.00    +0.091 C 
ATOM     16  C   UNL     1      33.901  -9.577 -23.791  0.00  0.00    +0.091 C 
ATOM     17  C   UNL     1      31.729  -8.987 -22.248  0.00  0.00    +0.112 C 
ATOM     18  C   UNL     1      33.595  -8.287 -23.389  0.00  0.00    +0.112 C 
ENDBRANCH   8  14
ENDBRANCH   4   9
BRANCH   2  19
ATOM     19  O   UNL     1      34.609 -17.854 -25.611  0.00  0.00    -0.468 OA
ATOM     20  C   UNL     1      33.941 -19.024 -25.143  0.00  0.00    +0.253 C 
ENDBRANCH   2  19
BRANCH   1  21
ATOM     21  O   UNL     1      35.534 -17.454 -23.020  0.00  0.00    -0.476 OA
BRANCH  21  22
ATOM     22  C   UNL     1      35.397 -17.530 -21.607  0.00  0.00    +0.166 C 
ATOM     23  C   UNL     1      36.239 -18.679 -21.076  0.00  0.00    +0.044 C 
ATOM     24  C   UNL     1      33.981 -17.943 -21.233  0.00  0.00    +0.044 C 
ATOM     25  C   UNL     1      35.399 -19.927 -21.347  0.00  0.00    +0.004 C 
ATOM     26  C   UNL     1      33.953 -19.449 -21.479  0.00  0.00    +0.004 C 
ENDBRANCH  21  22
ENDBRANCH   1  21
TORSDOF 5
ENDMDL
MODEL 9
REMARK VINA RESULT:      -8.8      7.177     10.502
REMARK  Name = 154575
REMARK  5 active torsions:
REMARK  status: ('A' for Active; 'I' for Inactive)
REMARK    1  A    between atoms: C_1  and  O_21
REMARK    2  A    between atoms: C_2  and  O_19
REMARK    3  A    between atoms: C_4  and  C_9
REMARK    4  A    between atoms: N_8  and  C_14
REMARK    5  A    between atoms: O_21  and  C_22
REMARK                            x       y       z     vdW  Elec       q    Type
REMARK                         _______ _______ _______ _____ _____    ______ ____
ROOT
ATOM      1  C   UNL     1      32.774 -13.350 -23.350  0.00  0.00    +0.172 C 
ATOM      2  C   UNL     1      33.290 -13.706 -24.592  0.00  0.00    +0.172 C 
ATOM      3  C   UNL     1      32.750 -12.018 -22.950  0.00  0.00    +0.045 C 
ATOM      4  C   UNL     1      33.247 -11.030 -23.801  0.00  0.00    +0.057 C 
ATOM      5  C   UNL     1      33.787 -12.718 -25.444  0.00  0.00    +0.040 C 
ATOM      6  C   UNL     1      33.765 -11.381 -25.048  0.00  0.00    +0.008 C 
ENDROOT
BRANCH   4   9
ATOM      7  O   UNL     1      34.226  -8.931 -23.592  0.00  0.00    -0.270 OA
ATOM      8  N   UNL     1      32.032  -9.191 -22.802  0.00  0.00    -0.279 N 
ATOM      9  C   UNL     1      33.224  -9.636 -23.389  0.00  0.00    +0.250 C 
ATOM     10  H   UNL     1      31.324  -9.868 -22.705  0.00  0.00    +0.155 HD
BRANCH   8  14
ATOM     11 CL   UNL     1      32.634  -8.676 -19.874  0.00  0.00    -0.079 Cl
ATOM     12 CL   UNL     1      30.839  -7.302 -24.854  0.00  0.00    -0.079 Cl
ATOM     13  N   UNL     1      31.085  -5.351 -21.401  0.00  0.00    -0.240 NA
ATOM     14  C   UNL     1      31.712  -7.894 -22.329  0.00  0.00    +0.075 C 
ATOM     15  C   UNL     1      31.954  -7.572 -21.006  0.00  0.00    +0.091 C 
ATOM     16  C   UNL     1      31.164  -6.968 -23.195  0.00  0.00    +0.091 C 
ATOM     17  C   UNL     1      31.624  -6.291 -20.592  0.00  0.00    +0.112 C 
ATOM     18  C   UNL     1      30.869  -5.715 -22.684  0.00  0.00    +0.112 C 
ENDBRANCH   8  14
ENDBRANCH   4   9
BRANCH   2  19
ATOM     19  O   UNL     1      33.317 -15.008 -24.990  0.00  0.00    -0.468 OA
ATOM     20  C   UNL     1      32.991 -15.277 -26.352  0.00  0.00    +0.253 C 
ENDBRANCH   2  19
BRANCH   1  21
ATOM     21  O   UNL     1      32.283 -14.310 -22.505  0.00  0.00    -0.476 OA
BRANCH  21  22
ATOM     22  C   UNL     1      32.845 -14.362 -21.200  0.00  0.00    +0.166 C 
ATOM     23  C   UNL     1      34.355 -14.504 -21.303  0.00  0.00    +0.044 C 
ATOM     24  C   UNL     1      32.428 -15.645 -20.496  0.00  0.00    +0.044 C 
ATOM     25  C   UNL     1      34.582 -15.987 -21.593  0.00  0.00    +0.004 C 
ATOM     26  C   UNL     1      33.331 -16.716 -21.103  0.00  0.00    +0.004 C 
ENDBRANCH  21  22
ENDBRANCH   1  21
TORSDOF 5
ENDMDL
