MODEL 1
REMARK VINA RESULT:      -7.3      0.000      0.000
REMARK  Name = 10131000
REMARK  4 active torsions:
REMARK  status: ('A' for Active; 'I' for Inactive)
REMARK    1  A    between atoms: N_1  and  O_11
REMARK    2  A    between atoms: C_4  and  O_13
REMARK    3  A    between atoms: O_13  and  C_15
REMARK    4  A    between atoms: C_15  and  C_16
REMARK                            x       y       z     vdW  Elec       q    Type
REMARK                         _______ _______ _______ _____ _____    ______ ____
ROOT
ATOM      1  N   UNL     1      34.365 -16.805 -22.801  0.00  0.00    -0.175 NA
ATOM      2  C   UNL     1      33.854 -16.474 -21.459  0.00  0.00    +0.073 C 
ATOM      3  C   UNL     1      35.025 -18.095 -23.067  0.00  0.00    +0.073 C 
ATOM      4  C   UNL     1      33.779 -18.996 -21.019  0.00  0.00    +0.172 C 
ATOM      5  C   UNL     1      33.036 -17.668 -20.912  0.00  0.00    +0.061 C 
ATOM      6  C   UNL     1      34.173 -19.241 -22.472  0.00  0.00    +0.061 C 
ATOM      7  C   UNL     1      34.921 -16.060 -20.425  0.00  0.00    +0.019 C 
ATOM      8  C   UNL     1      32.881 -15.280 -21.612  0.00  0.00    +0.019 C 
ATOM      9  C   UNL     1      36.477 -18.215 -22.559  0.00  0.00    +0.019 C 
ATOM     10  C   UNL     1      35.060 -18.294 -24.601  0.00  0.00    +0.019 C 
ENDROOT
BRANCH   1  11
ATOM     11  O   UNL     1      35.144 -15.710 -23.338  0.00  0.00    -0.311 OA
ATOM     12  H   UNL     1      35.763 -16.049 -24.004  0.00  0.00    +0.237 HD
ENDBRANCH   1  11
BRANCH   4  13
ATOM     13  O   UNL     1      32.910 -20.037 -20.579  0.00  0.00    -0.452 OA
BRANCH  13  15
ATOM     14  O   UNL     1      33.012 -22.180 -19.716  0.00  0.00    -0.250 OA
ATOM     15  C   UNL     1      33.519 -21.099 -19.980  0.00  0.00    +0.316 C 
BRANCH  15  16
ATOM     16  C   UNL     1      34.940 -20.808 -19.660  0.00  0.00    +0.099 C 
ATOM     17  C   UNL     1      35.681 -21.748 -18.767  0.00  0.00    +0.012 C 
ATOM     18  C   UNL     1      36.001 -21.692 -20.232  0.00  0.00    +0.012 C 
ENDBRANCH  15  16
ENDBRANCH  13  15
ENDBRANCH   4  13
TORSDOF 4
ENDMDL
MODEL 2
REMARK VINA RESULT:      -7.2      4.966      8.443
REMARK  Name = 10131000
REMARK  4 active torsions:
REMARK  status: ('A' for Active; 'I' for Inactive)
REMARK    1  A    between atoms: N_1  and  O_11
REMARK    2  A    between atoms: C_4  and  O_13
REMARK    3  A    between atoms: O_13  and  C_15
REMARK    4  A    between atoms: C_15  and  C_16
REMARK                            x       y       z     vdW  Elec       q    Type
REMARK                         _______ _______ _______ _____ _____    ______ ____
ROOT
ATOM      1  N   UNL     1      33.306 -24.561 -14.531  0.00  0.00    -0.175 NA
ATOM      2  C   UNL     1      34.591 -24.130 -15.110  0.00  0.00    +0.073 C 
ATOM      3  C   UNL     1      32.044 -23.898 -14.903  0.00  0.00    +0.073 C 
ATOM      4  C   UNL     1      33.230 -23.148 -17.045  0.00  0.00    +0.172 C 
ATOM      5  C   UNL     1      34.441 -23.985 -16.643  0.00  0.00    +0.061 C 
ATOM      6  C   UNL     1      31.969 -23.759 -16.441  0.00  0.00    +0.061 C 
ATOM      7  C   UNL     1      35.182 -22.832 -14.522  0.00  0.00    +0.019 C 
ATOM      8  C   UNL     1      35.620 -25.257 -14.853  0.00  0.00    +0.019 C 
ATOM      9  C   UNL     1      31.799 -22.523 -14.247  0.00  0.00    +0.019 C 
ATOM     10  C   UNL     1      30.884 -24.825 -14.465  0.00  0.00    +0.019 C 
ENDROOT
BRANCH   1  11
ATOM     11  O   UNL     1      33.411 -24.698 -13.095  0.00  0.00    -0.311 OA
ATOM     12  H   UNL     1      33.485 -25.638 -12.864  0.00  0.00    +0.237 HD
ENDBRANCH   1  11
BRANCH   4  13
ATOM     13  O   UNL     1      33.128 -23.153 -18.467  0.00  0.00    -0.452 OA
BRANCH  13  15
ATOM     14  O   UNL     1      32.855 -20.988 -19.230  0.00  0.00    -0.250 OA
ATOM     15  C   UNL     1      33.518 -22.005 -19.090  0.00  0.00    +0.316 C 
BRANCH  15  16
ATOM     16  C   UNL     1      34.905 -22.108 -19.613  0.00  0.00    +0.099 C 
ATOM     17  C   UNL     1      35.564 -20.878 -20.144  0.00  0.00    +0.012 C 
ATOM     18  C   UNL     1      36.013 -21.470 -18.840  0.00  0.00    +0.012 C 
ENDBRANCH  15  16
ENDBRANCH  13  15
ENDBRANCH   4  13
TORSDOF 4
ENDMDL
MODEL 3
REMARK VINA RESULT:      -7.1      6.545     10.328
REMARK  Name = 10131000
REMARK  4 active torsions:
REMARK  status: ('A' for Active; 'I' for Inactive)
REMARK    1  A    between atoms: N_1  and  O_11
REMARK    2  A    between atoms: C_4  and  O_13
REMARK    3  A    between atoms: O_13  and  C_15
REMARK    4  A    between atoms: C_15  and  C_16
REMARK                            x       y       z     vdW  Elec       q    Type
REMARK                         _______ _______ _______ _____ _____    ______ ____
ROOT
ATOM      1  N   UNL     1      36.824 -25.415 -12.727  0.00  0.00    -0.175 NA
ATOM      2  C   UNL     1      37.196 -25.515 -14.149  0.00  0.00    +0.073 C 
ATOM      3  C   UNL     1      36.366 -24.139 -12.148  0.00  0.00    +0.073 C 
ATOM      4  C   UNL     1      35.743 -23.442 -14.532  0.00  0.00    +0.172 C 
ATOM      5  C   UNL     1      36.105 -24.843 -15.016  0.00  0.00    +0.061 C 
ATOM      6  C   UNL     1      35.300 -23.507 -13.074  0.00  0.00    +0.061 C 
ATOM      7  C   UNL     1      38.579 -24.936 -14.515  0.00  0.00    +0.019 C 
ATOM      8  C   UNL     1      37.219 -27.017 -14.521  0.00  0.00    +0.019 C 
ATOM      9  C   UNL     1      37.476 -23.107 -11.859  0.00  0.00    +0.019 C 
ATOM     10  C   UNL     1      35.677 -24.459 -10.800  0.00  0.00    +0.019 C 
ENDROOT
BRANCH   1  11
ATOM     11  O   UNL     1      37.830 -26.028 -11.888  0.00  0.00    -0.311 OA
ATOM     12  H   UNL     1      37.871 -26.980 -12.075  0.00  0.00    +0.237 HD
ENDBRANCH   1  11
BRANCH   4  13
ATOM     13  O   UNL     1      34.671 -22.950 -15.333  0.00  0.00    -0.452 OA
BRANCH  13  15
ATOM     14  O   UNL     1      35.936 -22.486 -17.213  0.00  0.00    -0.250 OA
ATOM     15  C   UNL     1      34.916 -22.891 -16.673  0.00  0.00    +0.316 C 
BRANCH  15  16
ATOM     16  C   UNL     1      33.764 -23.393 -17.464  0.00  0.00    +0.099 C 
ATOM     17  C   UNL     1      32.385 -22.979 -17.065  0.00  0.00    +0.012 C 
ATOM     18  C   UNL     1      33.004 -22.431 -18.318  0.00  0.00    +0.012 C 
ENDBRANCH  15  16
ENDBRANCH  13  15
ENDBRANCH   4  13
TORSDOF 4
ENDMDL
MODEL 4
REMARK VINA RESULT:      -7.1      8.097      9.922
REMARK  Name = 10131000
REMARK  4 active torsions:
REMARK  status: ('A' for Active; 'I' for Inactive)
REMARK    1  A    between atoms: N_1  and  O_11
REMARK    2  A    between atoms: C_4  and  O_13
REMARK    3  A    between atoms: O_13  and  C_15
REMARK    4  A    between atoms: C_15  and  C_16
REMARK                            x       y       z     vdW  Elec       q    Type
REMARK                         _______ _______ _______ _____ _____    ______ ____
ROOT
ATOM      1  N   UNL     1      36.925 -23.537 -13.851  0.00  0.00    -0.175 NA
ATOM      2  C   UNL     1      36.586 -23.986 -12.489  0.00  0.00    +0.073 C 
ATOM      3  C   UNL     1      36.063 -23.870 -14.999  0.00  0.00    +0.073 C 
ATOM      4  C   UNL     1      34.167 -24.181 -13.306  0.00  0.00    +0.172 C 
ATOM      5  C   UNL     1      35.096 -23.683 -12.204  0.00  0.00    +0.061 C 
ATOM      6  C   UNL     1      34.589 -23.571 -14.639  0.00  0.00    +0.061 C 
ATOM      7  C   UNL     1      36.880 -25.470 -12.188  0.00  0.00    +0.019 C 
ATOM      8  C   UNL     1      37.426 -23.144 -11.498  0.00  0.00    +0.019 C 
ATOM      9  C   UNL     1      36.184 -25.317 -15.521  0.00  0.00    +0.019 C 
ATOM     10  C   UNL     1      36.455 -22.930 -16.164  0.00  0.00    +0.019 C 
ENDROOT
BRANCH   1  11
ATOM     11  O   UNL     1      38.313 -23.814 -14.153  0.00  0.00    -0.311 OA
ATOM     12  H   UNL     1      38.375 -24.643 -14.653  0.00  0.00    +0.237 HD
ENDBRANCH   1  11
BRANCH   4  13
ATOM     13  O   UNL     1      32.837 -23.772 -12.995  0.00  0.00    -0.452 OA
BRANCH  13  15
ATOM     14  O   UNL     1      31.665 -25.470 -14.041  0.00  0.00    -0.250 OA
ATOM     15  C   UNL     1      31.860 -24.288 -13.794  0.00  0.00    +0.316 C 
BRANCH  15  16
ATOM     16  C   UNL     1      31.002 -23.221 -14.370  0.00  0.00    +0.099 C 
ATOM     17  C   UNL     1      31.055 -22.976 -15.843  0.00  0.00    +0.012 C 
ATOM     18  C   UNL     1      29.844 -23.616 -15.228  0.00  0.00    +0.012 C 
ENDBRANCH  15  16
ENDBRANCH  13  15
ENDBRANCH   4  13
TORSDOF 4
ENDMDL
MODEL 5
REMARK VINA RESULT:      -7.0      6.162      9.749
REMARK  Name = 10131000
REMARK  4 active torsions:
REMARK  status: ('A' for Active; 'I' for Inactive)
REMARK    1  A    between atoms: N_1  and  O_11
REMARK    2  A    between atoms: C_4  and  O_13
REMARK    3  A    between atoms: O_13  and  C_15
REMARK    4  A    between atoms: C_15  and  C_16
REMARK                            x       y       z     vdW  Elec       q    Type
REMARK                         _______ _______ _______ _____ _____    ______ ____
ROOT
ATOM      1  N   UNL     1      38.000 -24.672 -13.050  0.00  0.00    -0.175 NA
ATOM      2  C   UNL     1      36.818 -23.795 -12.965  0.00  0.00    +0.073 C 
ATOM      3  C   UNL     1      38.403 -25.283 -14.329  0.00  0.00    +0.073 C 
ATOM      4  C   UNL     1      37.106 -23.398 -15.479  0.00  0.00    +0.172 C 
ATOM      5  C   UNL     1      36.862 -22.760 -14.114  0.00  0.00    +0.061 C 
ATOM      6  C   UNL     1      38.400 -24.205 -15.438  0.00  0.00    +0.061 C 
ATOM      7  C   UNL     1      35.455 -24.516 -12.968  0.00  0.00    +0.019 C 
ATOM      8  C   UNL     1      36.915 -23.010 -11.634  0.00  0.00    +0.019 C 
ATOM      9  C   UNL     1      37.558 -26.492 -14.782  0.00  0.00    +0.019 C 
ATOM     10  C   UNL     1      39.860 -25.778 -14.170  0.00  0.00    +0.019 C 
ENDROOT
BRANCH   1  11
ATOM     11  O   UNL     1      37.984 -25.658 -11.992  0.00  0.00    -0.311 OA
ATOM     12  H   UNL     1      37.344 -25.393 -11.312  0.00  0.00    +0.237 HD
ENDBRANCH   1  11
BRANCH   4  13
ATOM     13  O   UNL     1      37.221 -22.360 -16.449  0.00  0.00    -0.452 OA
BRANCH  13  15
ATOM     14  O   UNL     1      35.171 -22.935 -17.350  0.00  0.00    -0.250 OA
ATOM     15  C   UNL     1      36.205 -22.283 -17.355  0.00  0.00    +0.316 C 
BRANCH  15  16
ATOM     16  C   UNL     1      36.484 -21.274 -18.408  0.00  0.00    +0.099 C 
ATOM     17  C   UNL     1      36.786 -21.748 -19.792  0.00  0.00    +0.012 C 
ATOM     18  C   UNL     1      35.478 -21.073 -19.495  0.00  0.00    +0.012 C 
ENDBRANCH  15  16
ENDBRANCH  13  15
ENDBRANCH   4  13
TORSDOF 4
ENDMDL
MODEL 6
REMARK VINA RESULT:      -7.0      3.012      6.122
REMARK  Name = 10131000
REMARK  4 active torsions:
REMARK  status: ('A' for Active; 'I' for Inactive)
REMARK    1  A    between atoms: N_1  and  O_11
REMARK    2  A    between atoms: C_4  and  O_13
REMARK    3  A    between atoms: O_13  and  C_15
REMARK    4  A    between atoms: C_15  and  C_16
REMARK                            x       y       z     vdW  Elec       q    Type
REMARK                         _______ _______ _______ _____ _____    ______ ____
ROOT
ATOM      1  N   UNL     1      35.203 -16.818 -21.624  0.00  0.00    -0.175 NA
ATOM      2  C   UNL     1      34.190 -15.749 -21.681  0.00  0.00    +0.073 C 
ATOM      3  C   UNL     1      35.298 -17.833 -22.689  0.00  0.00    +0.073 C 
ATOM      4  C   UNL     1      34.115 -16.147 -24.210  0.00  0.00    +0.172 C 
ATOM      5  C   UNL     1      34.193 -15.113 -23.091  0.00  0.00    +0.061 C 
ATOM      6  C   UNL     1      35.268 -17.136 -24.069  0.00  0.00    +0.061 C 
ATOM      7  C   UNL     1      32.755 -16.174 -21.307  0.00  0.00    +0.019 C 
ATOM      8  C   UNL     1      34.616 -14.650 -20.678  0.00  0.00    +0.019 C 
ATOM      9  C   UNL     1      34.226 -18.942 -22.646  0.00  0.00    +0.019 C 
ATOM     10  C   UNL     1      36.676 -18.525 -22.550  0.00  0.00    +0.019 C 
ENDROOT
BRANCH   1  11
ATOM     11  O   UNL     1      35.219 -17.441 -20.318  0.00  0.00    -0.311 OA
ATOM     12  H   UNL     1      35.141 -16.758 -19.633  0.00  0.00    +0.237 HD
ENDBRANCH   1  11
BRANCH   4  13
ATOM     13  O   UNL     1      34.218 -15.470 -25.460  0.00  0.00    -0.452 OA
BRANCH  13  15
ATOM     14  O   UNL     1      32.453 -16.383 -26.642  0.00  0.00    -0.250 OA
ATOM     15  C   UNL     1      33.076 -15.427 -26.204  0.00  0.00    +0.316 C 
BRANCH  15  16
ATOM     16  C   UNL     1      32.631 -14.031 -26.445  0.00  0.00    +0.099 C 
ATOM     17  C   UNL     1      33.449 -12.912 -25.889  0.00  0.00    +0.012 C 
ATOM     18  C   UNL     1      33.432 -13.171 -27.368  0.00  0.00    +0.012 C 
ENDBRANCH  15  16
ENDBRANCH  13  15
ENDBRANCH   4  13
TORSDOF 4
ENDMDL
MODEL 7
REMARK VINA RESULT:      -6.9      5.013      8.309
REMARK  Name = 10131000
REMARK  4 active torsions:
REMARK  status: ('A' for Active; 'I' for Inactive)
REMARK    1  A    between atoms: N_1  and  O_11
REMARK    2  A    between atoms: C_4  and  O_13
REMARK    3  A    between atoms: O_13  and  C_15
REMARK    4  A    between atoms: C_15  and  C_16
REMARK                            x       y       z     vdW  Elec       q    Type
REMARK                         _______ _______ _______ _____ _____    ______ ____
ROOT
ATOM      1  N   UNL     1      33.631 -23.495 -14.064  0.00  0.00    -0.175 NA
ATOM      2  C   UNL     1      32.230 -23.751 -14.443  0.00  0.00    +0.073 C 
ATOM      3  C   UNL     1      34.732 -23.732 -15.015  0.00  0.00    +0.073 C 
ATOM      4  C   UNL     1      32.989 -23.498 -16.876  0.00  0.00    +0.172 C 
ATOM      5  C   UNL     1      31.948 -23.119 -15.826  0.00  0.00    +0.061 C 
ATOM      6  C   UNL     1      34.376 -23.101 -16.381  0.00  0.00    +0.061 C 
ATOM      7  C   UNL     1      31.807 -25.235 -14.454  0.00  0.00    +0.019 C 
ATOM      8  C   UNL     1      31.329 -23.028 -13.413  0.00  0.00    +0.019 C 
ATOM      9  C   UNL     1      35.129 -25.209 -15.215  0.00  0.00    +0.019 C 
ATOM     10  C   UNL     1      35.981 -22.993 -14.476  0.00  0.00    +0.019 C 
ENDROOT
BRANCH   1  11
ATOM     11  O   UNL     1      33.931 -24.082 -12.776  0.00  0.00    -0.311 OA
ATOM     12  H   UNL     1      34.804 -23.781 -12.478  0.00  0.00    +0.237 HD
ENDBRANCH   1  11
BRANCH   4  13
ATOM     13  O   UNL     1      32.693 -22.795 -18.080  0.00  0.00    -0.452 OA
BRANCH  13  15
ATOM     14  O   UNL     1      34.114 -23.701 -19.663  0.00  0.00    -0.250 OA
ATOM     15  C   UNL     1      33.695 -22.761 -19.004  0.00  0.00    +0.316 C 
BRANCH  15  16
ATOM     16  C   UNL     1      34.263 -21.396 -19.146  0.00  0.00    +0.099 C 
ATOM     17  C   UNL     1      35.209 -21.127 -20.270  0.00  0.00    +0.012 C 
ATOM     18  C   UNL     1      33.823 -20.551 -20.297  0.00  0.00    +0.012 C 
ENDBRANCH  15  16
ENDBRANCH  13  15
ENDBRANCH   4  13
TORSDOF 4
ENDMDL
MODEL 8
REMARK VINA RESULT:      -6.7      7.663     10.192
REMARK  Name = 10131000
REMARK  4 active torsions:
REMARK  status: ('A' for Active; 'I' for Inactive)
REMARK    1  A    between atoms: N_1  and  O_11
REMARK    2  A    between atoms: C_4  and  O_13
REMARK    3  A    between atoms: O_13  and  C_15
REMARK    4  A    between atoms: C_15  and  C_16
REMARK                            x       y       z     vdW  Elec       q    Type
REMARK                         _______ _______ _______ _____ _____    ______ ____
ROOT
ATOM      1  N   UNL     1      37.826 -24.688 -12.900  0.00  0.00    -0.175 NA
ATOM      2  C   UNL     1      36.628 -23.927 -12.505  0.00  0.00    +0.073 C 
ATOM      3  C   UNL     1      37.832 -25.525 -14.113  0.00  0.00    +0.073 C 
ATOM      4  C   UNL     1      35.905 -24.065 -14.958  0.00  0.00    +0.172 C 
ATOM      5  C   UNL     1      36.073 -23.169 -13.734  0.00  0.00    +0.061 C 
ATOM      6  C   UNL     1      37.241 -24.720 -15.294  0.00  0.00    +0.061 C 
ATOM      7  C   UNL     1      35.501 -24.755 -11.854  0.00  0.00    +0.019 C 
ATOM      8  C   UNL     1      37.070 -22.865 -11.470  0.00  0.00    +0.019 C 
ATOM      9  C   UNL     1      37.099 -26.876 -13.990  0.00  0.00    +0.019 C 
ATOM     10  C   UNL     1      39.308 -25.836 -14.458  0.00  0.00    +0.019 C 
ENDROOT
BRANCH   1  11
ATOM     11  O   UNL     1      38.366 -25.417 -11.772  0.00  0.00    -0.311 OA
ATOM     12  H   UNL     1      38.036 -25.027 -10.947  0.00  0.00    +0.237 HD
ENDBRANCH   1  11
BRANCH   4  13
ATOM     13  O   UNL     1      35.481 -23.258 -16.054  0.00  0.00    -0.452 OA
BRANCH  13  15
ATOM     14  O   UNL     1      33.822 -23.854 -17.551  0.00  0.00    -0.250 OA
ATOM     15  C   UNL     1      34.193 -23.445 -16.460  0.00  0.00    +0.316 C 
BRANCH  15  16
ATOM     16  C   UNL     1      33.224 -23.089 -15.393  0.00  0.00    +0.099 C 
ATOM     17  C   UNL     1      31.764 -23.142 -15.703  0.00  0.00    +0.012 C 
ATOM     18  C   UNL     1      32.380 -24.169 -14.799  0.00  0.00    +0.012 C 
ENDBRANCH  15  16
ENDBRANCH  13  15
ENDBRANCH   4  13
TORSDOF 4
ENDMDL
MODEL 9
REMARK VINA RESULT:      -6.7      7.686      9.365
REMARK  Name = 10131000
REMARK  4 active torsions:
REMARK  status: ('A' for Active; 'I' for Inactive)
REMARK    1  A    between atoms: N_1  and  O_11
REMARK    2  A    between atoms: C_4  and  O_13
REMARK    3  A    between atoms: O_13  and  C_15
REMARK    4  A    between atoms: C_15  and  C_16
REMARK                            x       y       z     vdW  Elec       q    Type
REMARK                         _______ _______ _______ _____ _____    ______ ____
ROOT
ATOM      1  N   UNL     1      37.280 -24.448 -15.379  0.00  0.00    -0.175 NA
ATOM      2  C   UNL     1      36.796 -23.064 -15.233  0.00  0.00    +0.073 C 
ATOM      3  C   UNL     1      36.586 -25.571 -14.724  0.00  0.00    +0.073 C 
ATOM      4  C   UNL     1      34.509 -24.072 -14.671  0.00  0.00    +0.172 C 
ATOM      5  C   UNL     1      35.269 -23.025 -15.481  0.00  0.00    +0.061 C 
ATOM      6  C   UNL     1      35.066 -25.458 -14.986  0.00  0.00    +0.061 C 
ATOM      7  C   UNL     1      37.120 -22.386 -13.887  0.00  0.00    +0.019 C 
ATOM      8  C   UNL     1      37.464 -22.217 -16.343  0.00  0.00    +0.019 C 
ATOM      9  C   UNL     1      36.840 -25.714 -13.209  0.00  0.00    +0.019 C 
ATOM     10  C   UNL     1      37.074 -26.877 -15.395  0.00  0.00    +0.019 C 
ENDROOT
BRANCH   1  11
ATOM     11  O   UNL     1      38.706 -24.520 -15.145  0.00  0.00    -0.311 OA
ATOM     12  H   UNL     1      39.002 -25.440 -15.232  0.00  0.00    +0.237 HD
ENDBRANCH   1  11
BRANCH   4  13
ATOM     13  O   UNL     1      33.133 -24.016 -15.038  0.00  0.00    -0.452 OA
BRANCH  13  15
ATOM     14  O   UNL     1      32.380 -23.602 -12.892  0.00  0.00    -0.250 OA
ATOM     15  C   UNL     1      32.295 -23.482 -14.105  0.00  0.00    +0.316 C 
BRANCH  15  16
ATOM     16  C   UNL     1      31.206 -22.691 -14.735  0.00  0.00    +0.099 C 
ATOM     17  C   UNL     1      30.866 -22.953 -16.165  0.00  0.00    +0.012 C 
ATOM     18  C   UNL     1      29.925 -23.380 -15.077  0.00  0.00    +0.012 C 
ENDBRANCH  15  16
ENDBRANCH  13  15
ENDBRANCH   4  13
TORSDOF 4
ENDMDL
