MODEL 1
REMARK VINA RESULT:      -7.3      0.000      0.000
REMARK  Name = 6436219
REMARK  2 active torsions:
REMARK  status: ('A' for Active; 'I' for Inactive)
REMARK    1  A    between atoms: C_4  and  C_24
REMARK    2  A    between atoms: C_4  and  O_28
REMARK                            x       y       z     vdW  Elec       q    Type
REMARK                         _______ _______ _______ _____ _____    ______ ____
ROOT
ATOM      1  O   UNL     1      36.735 -23.728 -15.754  0.00  0.00    -0.335 OA
ATOM      2  O   UNL     1      33.955 -24.542 -13.753  0.00  0.00    -0.449 OA
ATOM      3  O   UNL     1      32.535 -23.076 -12.656  0.00  0.00    -0.245 OA
ATOM      4  C   UNL     1      36.644 -24.981 -15.062  0.00  0.00    +0.205 C 
ATOM      5  C   UNL     1      35.561 -22.919 -15.640  0.00  0.00    +0.121 C 
ATOM      6  C   UNL     1      36.348 -24.755 -13.566  0.00  0.00    +0.101 C 
ATOM      7  C   UNL     1      35.144 -23.832 -13.340  0.00  0.00    +0.177 C 
ATOM      8  C   UNL     1      35.322 -22.559 -14.171  0.00  0.00    +0.073 C 
ATOM      9  C   UNL     1      35.749 -21.657 -16.490  0.00  0.00    +0.030 C 
ATOM     10  C   UNL     1      35.913 -21.939 -17.993  0.00  0.00    +0.007 C 
ATOM     11  C   UNL     1      34.714 -22.638 -18.669  0.00  0.00    +0.022 C 
ATOM     12  C   UNL     1      35.025 -22.881 -20.150  0.00  0.00    +0.005 C 
ATOM     13  C   UNL     1      33.452 -21.817 -18.559  0.00  0.00    -0.031 C 
ATOM     14  C   UNL     1      32.756 -24.036 -13.375  0.00  0.00    +0.341 C 
ATOM     15  C   UNL     1      32.283 -22.160 -17.995  0.00  0.00    -0.030 C 
ATOM     16  C   UNL     1      31.706 -24.855 -14.001  0.00  0.00    +0.073 C 
ATOM     17  C   UNL     1      31.917 -23.450 -17.315  0.00  0.00    +0.030 C 
ATOM     18  C   UNL     1      31.386 -23.197 -15.897  0.00  0.00    +0.027 C 
ATOM     19  C   UNL     1      31.089 -24.475 -15.135  0.00  0.00    -0.037 C 
ATOM     20  C   UNL     1      29.995 -25.339 -15.707  0.00  0.00    +0.027 C 
ENDROOT
BRANCH   4  24
ATOM     21  S   UNL     1      40.155 -26.623 -14.070  0.00  0.00    -0.055 S 
ATOM     22  O   UNL     1      41.365 -24.510 -15.088  0.00  0.00    -0.263 OA
ATOM     23  N   UNL     1      39.064 -24.727 -15.405  0.00  0.00    -0.292 N 
ATOM     24  C   UNL     1      37.987 -25.678 -15.221  0.00  0.00    +0.135 C 
ATOM     25  C   UNL     1      38.343 -26.526 -14.009  0.00  0.00    +0.091 C 
ATOM     26  C   UNL     1      40.306 -25.102 -14.943  0.00  0.00    +0.273 C 
ATOM     27  H   UNL     1      38.915 -23.856 -15.840  0.00  0.00    +0.150 HD
ENDBRANCH   4  24
BRANCH   4  28
ATOM     28  O   UNL     1      35.633 -25.822 -15.619  0.00  0.00    -0.362 OA
ATOM     29  H   UNL     1      35.153 -26.268 -14.903  0.00  0.00    +0.213 HD
ENDBRANCH   4  28
TORSDOF 2
ENDMDL
MODEL 2
REMARK VINA RESULT:      -5.7     15.820     18.504
REMARK  Name = 6436219
REMARK  2 active torsions:
REMARK  status: ('A' for Active; 'I' for Inactive)
REMARK    1  A    between atoms: C_4  and  C_24
REMARK    2  A    between atoms: C_4  and  O_28
REMARK                            x       y       z     vdW  Elec       q    Type
REMARK                         _______ _______ _______ _____ _____    ______ ____
ROOT
ATOM      1  O   UNL     1      32.124  -7.289 -22.076  0.00  0.00    -0.335 OA
ATOM      2  O   UNL     1      33.864  -9.033 -24.591  0.00  0.00    -0.449 OA
ATOM      3  O   UNL     1      35.938 -10.052 -24.419  0.00  0.00    -0.245 OA
ATOM      4  C   UNL     1      31.921  -7.008 -23.468  0.00  0.00    +0.205 C 
ATOM      5  C   UNL     1      32.997  -8.397 -21.832  0.00  0.00    +0.121 C 
ATOM      6  C   UNL     1      33.267  -6.737 -24.169  0.00  0.00    +0.101 C 
ATOM      7  C   UNL     1      34.299  -7.839 -23.903  0.00  0.00    +0.177 C 
ATOM      8  C   UNL     1      34.387  -8.094 -22.396  0.00  0.00    +0.073 C 
ATOM      9  C   UNL     1      33.060  -8.648 -20.321  0.00  0.00    +0.030 C 
ATOM     10  C   UNL     1      31.710  -9.040 -19.698  0.00  0.00    +0.007 C 
ATOM     11  C   UNL     1      31.084 -10.342 -20.242  0.00  0.00    +0.022 C 
ATOM     12  C   UNL     1      29.736 -10.593 -19.557  0.00  0.00    +0.005 C 
ATOM     13  C   UNL     1      31.983 -11.534 -20.012  0.00  0.00    -0.031 C 
ATOM     14  C   UNL     1      34.761 -10.039 -24.737  0.00  0.00    +0.341 C 
ATOM     15  C   UNL     1      32.504 -12.371 -20.923  0.00  0.00    -0.030 C 
ATOM     16  C   UNL     1      34.064 -11.175 -25.359  0.00  0.00    +0.073 C 
ATOM     17  C   UNL     1      32.339 -12.345 -22.416  0.00  0.00    +0.030 C 
ATOM     18  C   UNL     1      33.702 -12.322 -23.123  0.00  0.00    +0.027 C 
ATOM     19  C   UNL     1      33.589 -12.203 -24.631  0.00  0.00    -0.037 C 
ATOM     20  C   UNL     1      32.917 -13.357 -25.331  0.00  0.00    +0.027 C 
ENDROOT
BRANCH   4  24
ATOM     21  S   UNL     1      30.508  -3.491 -24.749  0.00  0.00    -0.055 S 
ATOM     22  O   UNL     1      31.538  -2.361 -22.599  0.00  0.00    -0.263 OA
ATOM     23  N   UNL     1      31.561  -4.689 -22.743  0.00  0.00    -0.292 N 
ATOM     24  C   UNL     1      31.039  -5.772 -23.550  0.00  0.00    +0.135 C 
ATOM     25  C   UNL     1      30.913  -5.248 -24.974  0.00  0.00    +0.091 C 
ATOM     26  C   UNL     1      31.292  -3.409 -23.175  0.00  0.00    +0.273 C 
ATOM     27  H   UNL     1      32.083  -4.860 -21.925  0.00  0.00    +0.150 HD
ENDBRANCH   4  24
BRANCH   4  28
ATOM     28  O   UNL     1      31.253  -8.082 -24.133  0.00  0.00    -0.362 OA
ATOM     29  H   UNL     1      31.472  -8.063 -25.078  0.00  0.00    +0.213 HD
ENDBRANCH   4  28
TORSDOF 2
ENDMDL
MODEL 3
REMARK VINA RESULT:      -5.2     11.391     14.219
REMARK  Name = 6436219
REMARK  2 active torsions:
REMARK  status: ('A' for Active; 'I' for Inactive)
REMARK    1  A    between atoms: C_4  and  C_24
REMARK    2  A    between atoms: C_4  and  O_28
REMARK                            x       y       z     vdW  Elec       q    Type
REMARK                         _______ _______ _______ _____ _____    ______ ____
ROOT
ATOM      1  O   UNL     1      32.831 -14.221 -21.797  0.00  0.00    -0.335 OA
ATOM      2  O   UNL     1      34.163 -12.933 -24.790  0.00  0.00    -0.449 OA
ATOM      3  O   UNL     1      32.993 -12.043 -26.582  0.00  0.00    -0.245 OA
ATOM      4  C   UNL     1      34.095 -14.662 -22.311  0.00  0.00    +0.205 C 
ATOM      5  C   UNL     1      32.244 -13.153 -22.546  0.00  0.00    +0.121 C 
ATOM      6  C   UNL     1      33.956 -15.111 -23.780  0.00  0.00    +0.101 C 
ATOM      7  C   UNL     1      33.264 -14.056 -24.652  0.00  0.00    +0.177 C 
ATOM      8  C   UNL     1      31.963 -13.618 -23.976  0.00  0.00    +0.073 C 
ATOM      9  C   UNL     1      30.950 -12.716 -21.847  0.00  0.00    +0.030 C 
ATOM     10  C   UNL     1      31.167 -12.158 -20.430  0.00  0.00    +0.007 C 
ATOM     11  C   UNL     1      32.053 -10.896 -20.346  0.00  0.00    +0.022 C 
ATOM     12  C   UNL     1      32.205 -10.469 -18.881  0.00  0.00    +0.005 C 
ATOM     13  C   UNL     1      31.469  -9.748 -21.134  0.00  0.00    -0.031 C 
ATOM     14  C   UNL     1      33.884 -12.017 -25.749  0.00  0.00    +0.341 C 
ATOM     15  C   UNL     1      32.024  -9.071 -22.152  0.00  0.00    -0.030 C 
ATOM     16  C   UNL     1      34.861 -10.924 -25.624  0.00  0.00    +0.073 C 
ATOM     17  C   UNL     1      33.372  -9.275 -22.784  0.00  0.00    +0.030 C 
ATOM     18  C   UNL     1      33.246  -9.480 -24.301  0.00  0.00    +0.027 C 
ATOM     19  C   UNL     1      34.572  -9.782 -24.973  0.00  0.00    -0.037 C 
ATOM     20  C   UNL     1      35.603  -8.685 -24.911  0.00  0.00    +0.027 C 
ENDROOT
BRANCH   4  24
ATOM     21  S   UNL     1      35.471 -18.296 -21.356  0.00  0.00    -0.055 S 
ATOM     22  O   UNL     1      33.022 -18.970 -20.640  0.00  0.00    -0.263 OA
ATOM     23  N   UNL     1      33.444 -16.738 -21.170  0.00  0.00    -0.292 N 
ATOM     24  C   UNL     1      34.542 -15.836 -21.454  0.00  0.00    +0.135 C 
ATOM     25  C   UNL     1      35.632 -16.658 -22.126  0.00  0.00    +0.091 C 
ATOM     26  C   UNL     1      33.764 -18.065 -20.991  0.00  0.00    +0.273 C 
ATOM     27  H   UNL     1      32.515 -16.417 -21.108  0.00  0.00    +0.150 HD
ENDBRANCH   4  24
BRANCH   4  28
ATOM     28  O   UNL     1      35.089 -13.639 -22.225  0.00  0.00    -0.362 OA
ATOM     29  H   UNL     1      34.691 -12.832 -21.861  0.00  0.00    +0.213 HD
ENDBRANCH   4  28
TORSDOF 2
ENDMDL
