MODEL 1
REMARK VINA RESULT:     -11.1      0.000      0.000
REMARK  Name = 9908900
REMARK  8 active torsions:
REMARK  status: ('A' for Active; 'I' for Inactive)
REMARK    1  A    between atoms: N_2  and  C_6
REMARK    2  A    between atoms: N_2  and  C_14
REMARK    3  A    between atoms: N_3  and  C_17
REMARK    4  A    between atoms: C_7  and  O_12
REMARK    5  A    between atoms: C_17  and  C_18
REMARK    6  A    between atoms: C_18  and  C_19
REMARK    7  A    between atoms: C_19  and  O_20
REMARK    8  A    between atoms: O_20  and  C_23
REMARK                            x       y       z     vdW  Elec       q    Type
REMARK                         _______ _______ _______ _____ _____    ______ ____
ROOT
ATOM      1  O   UNL     1      37.841 -22.410 -15.768  0.00  0.00    -0.253 OA
ATOM      2  N   UNL     1      35.770 -23.241 -15.084  0.00  0.00    -0.265 N 
ATOM      3  N   UNL     1      36.043 -22.235 -17.199  0.00  0.00    -0.289 N 
ATOM      4  C   UNL     1      36.644 -22.611 -16.001  0.00  0.00    +0.304 C 
ATOM      5  H   UNL     1      35.086 -22.421 -17.328  0.00  0.00    +0.151 HD
ENDROOT
BRANCH   2   6
ATOM      6  C   UNL     1      36.168 -24.255 -14.131  0.00  0.00    +0.103 C 
ATOM      7  C   UNL     1      36.913 -25.398 -14.833  0.00  0.00    +0.129 C 
ATOM      8  C   UNL     1      37.018 -23.622 -13.027  0.00  0.00    +0.022 C 
ATOM      9  C   UNL     1      37.444 -26.425 -13.831  0.00  0.00    +0.031 C 
ATOM     10  C   UNL     1      37.533 -24.661 -12.037  0.00  0.00    +0.002 C 
ATOM     11  C   UNL     1      38.294 -25.778 -12.746  0.00  0.00    +0.003 C 
BRANCH   7  12
ATOM     12  O   UNL     1      36.014 -26.056 -15.725  0.00  0.00    -0.383 OA
ATOM     13  H   UNL     1      35.237 -25.495 -15.875  0.00  0.00    +0.210 HD
ENDBRANCH   7  12
ENDBRANCH   2   6
BRANCH   2  14
ATOM     14  C   UNL     1      34.359 -22.868 -15.107  0.00  0.00    +0.077 C 
ATOM     15  C   UNL     1      33.326 -23.694 -14.400  0.00  0.00    +0.022 C 
ATOM     16  C   UNL     1      33.362 -23.661 -15.900  0.00  0.00    +0.022 C 
ENDBRANCH   2  14
BRANCH   3  17
ATOM     17  C   UNL     1      36.778 -21.579 -18.258  0.00  0.00    +0.095 C 
BRANCH  17  18
ATOM     18  C   UNL     1      35.899 -21.244 -19.455  0.00  0.00    +0.069 C 
BRANCH  18  19
ATOM     19  C   UNL     1      36.533 -20.217 -20.385  0.00  0.00    +0.207 C 
BRANCH  19  20
ATOM     20  O   UNL     1      35.738 -19.039 -20.376  0.00  0.00    -0.475 OA
BRANCH  20  23
ATOM     21  O   UNL     1      33.423 -15.306 -26.622  0.00  0.00    -0.270 OA
ATOM     22  N   UNL     1      34.102 -17.076 -25.314  0.00  0.00    -0.280 N 
ATOM     23  C   UNL     1      35.336 -18.554 -21.593  0.00  0.00    +0.139 C 
ATOM     24  C   UNL     1      35.035 -17.198 -21.737  0.00  0.00    +0.038 C 
ATOM     25  C   UNL     1      34.623 -16.703 -22.977  0.00  0.00    +0.017 C 
ATOM     26  C   UNL     1      35.227 -19.418 -22.684  0.00  0.00    +0.038 C 
ATOM     27  C   UNL     1      34.517 -17.575 -24.066  0.00  0.00    +0.051 C 
ATOM     28  C   UNL     1      34.817 -18.931 -23.924  0.00  0.00    +0.018 C 
ATOM     29  C   UNL     1      34.300 -15.291 -23.168  0.00  0.00    +0.006 C 
ATOM     30  C   UNL     1      33.907 -14.837 -24.365  0.00  0.00    +0.058 C 
ATOM     31  C   UNL     1      33.787 -15.749 -25.535  0.00  0.00    +0.250 C 
ATOM     32  H   UNL     1      34.033 -17.704 -26.069  0.00  0.00    +0.155 HD
ENDBRANCH  20  23
ENDBRANCH  19  20
ENDBRANCH  18  19
ENDBRANCH  17  18
ENDBRANCH   3  17
TORSDOF 8
ENDMDL
MODEL 2
REMARK VINA RESULT:     -10.8      5.512      8.803
REMARK  Name = 9908900
REMARK  8 active torsions:
REMARK  status: ('A' for Active; 'I' for Inactive)
REMARK    1  A    between atoms: N_2  and  C_6
REMARK    2  A    between atoms: N_2  and  C_14
REMARK    3  A    between atoms: N_3  and  C_17
REMARK    4  A    between atoms: C_7  and  O_12
REMARK    5  A    between atoms: C_17  and  C_18
REMARK    6  A    between atoms: C_18  and  C_19
REMARK    7  A    between atoms: C_19  and  O_20
REMARK    8  A    between atoms: O_20  and  C_23
REMARK                            x       y       z     vdW  Elec       q    Type
REMARK                         _______ _______ _______ _____ _____    ______ ____
ROOT
ATOM      1  O   UNL     1      35.436 -18.319 -24.024  0.00  0.00    -0.253 OA
ATOM      2  N   UNL     1      34.931 -17.178 -22.051  0.00  0.00    -0.265 N 
ATOM      3  N   UNL     1      34.060 -16.474 -24.127  0.00  0.00    -0.289 N 
ATOM      4  C   UNL     1      34.854 -17.394 -23.448  0.00  0.00    +0.304 C 
ATOM      5  H   UNL     1      33.621 -15.757 -23.615  0.00  0.00    +0.151 HD
ENDROOT
BRANCH   2   6
ATOM      6  C   UNL     1      35.094 -18.223 -21.065  0.00  0.00    +0.103 C 
ATOM      7  C   UNL     1      34.003 -19.291 -21.218  0.00  0.00    +0.129 C 
ATOM      8  C   UNL     1      36.496 -18.828 -21.180  0.00  0.00    +0.022 C 
ATOM      9  C   UNL     1      34.223 -20.464 -20.261  0.00  0.00    +0.031 C 
ATOM     10  C   UNL     1      36.695 -19.992 -20.214  0.00  0.00    +0.002 C 
ATOM     11  C   UNL     1      35.619 -21.058 -20.396  0.00  0.00    +0.003 C 
BRANCH   7  12
ATOM     12  O   UNL     1      32.736 -18.701 -20.931  0.00  0.00    -0.383 OA
ATOM     13  H   UNL     1      32.158 -19.361 -20.518  0.00  0.00    +0.210 HD
ENDBRANCH   7  12
ENDBRANCH   2   6
BRANCH   2  14
ATOM     14  C   UNL     1      34.815 -15.810 -21.557  0.00  0.00    +0.077 C 
ATOM     15  C   UNL     1      34.545 -15.528 -20.109  0.00  0.00    +0.022 C 
ATOM     16  C   UNL     1      33.488 -15.249 -21.137  0.00  0.00    +0.022 C 
ENDBRANCH   2  14
BRANCH   3  17
ATOM     17  C   UNL     1      33.861 -16.534 -25.558  0.00  0.00    +0.095 C 
BRANCH  17  18
ATOM     18  C   UNL     1      33.421 -15.199 -26.141  0.00  0.00    +0.069 C 
BRANCH  18  19
ATOM     19  C   UNL     1      32.800 -14.274 -25.101  0.00  0.00    +0.207 C 
BRANCH  19  20
ATOM     20  O   UNL     1      33.836 -13.538 -24.466  0.00  0.00    -0.475 OA
BRANCH  20  23
ATOM     21  O   UNL     1      32.798  -6.364 -22.064  0.00  0.00    -0.270 OA
ATOM     22  N   UNL     1      32.440  -8.632 -22.253  0.00  0.00    -0.280 N 
ATOM     23  C   UNL     1      33.492 -12.328 -23.923  0.00  0.00    +0.139 C 
ATOM     24  C   UNL     1      34.206 -11.179 -24.272  0.00  0.00    +0.038 C 
ATOM     25  C   UNL     1      33.857  -9.946 -23.716  0.00  0.00    +0.017 C 
ATOM     26  C   UNL     1      32.430 -12.249 -23.020  0.00  0.00    +0.038 C 
ATOM     27  C   UNL     1      32.790  -9.874 -22.812  0.00  0.00    +0.051 C 
ATOM     28  C   UNL     1      32.076 -11.021 -22.462  0.00  0.00    +0.018 C 
ATOM     29  C   UNL     1      34.579  -8.722 -24.056  0.00  0.00    +0.006 C 
ATOM     30  C   UNL     1      34.228  -7.550 -23.512  0.00  0.00    +0.058 C 
ATOM     31  C   UNL     1      33.098  -7.453 -22.549  0.00  0.00    +0.250 C 
ATOM     32  H   UNL     1      31.688  -8.601 -21.619  0.00  0.00    +0.155 HD
ENDBRANCH  20  23
ENDBRANCH  19  20
ENDBRANCH  18  19
ENDBRANCH  17  18
ENDBRANCH   3  17
TORSDOF 8
ENDMDL
MODEL 3
REMARK VINA RESULT:     -10.8      3.682     11.427
REMARK  Name = 9908900
REMARK  8 active torsions:
REMARK  status: ('A' for Active; 'I' for Inactive)
REMARK    1  A    between atoms: N_2  and  C_6
REMARK    2  A    between atoms: N_2  and  C_14
REMARK    3  A    between atoms: N_3  and  C_17
REMARK    4  A    between atoms: C_7  and  O_12
REMARK    5  A    between atoms: C_17  and  C_18
REMARK    6  A    between atoms: C_18  and  C_19
REMARK    7  A    between atoms: C_19  and  O_20
REMARK    8  A    between atoms: O_20  and  C_23
REMARK                            x       y       z     vdW  Elec       q    Type
REMARK                         _______ _______ _______ _____ _____    ______ ____
ROOT
ATOM      1  O   UNL     1      32.445 -13.597 -25.135  0.00  0.00    -0.253 OA
ATOM      2  N   UNL     1      32.778 -13.673 -22.826  0.00  0.00    -0.265 N 
ATOM      3  N   UNL     1      33.597 -15.378 -24.235  0.00  0.00    -0.289 N 
ATOM      4  C   UNL     1      32.905 -14.174 -24.144  0.00  0.00    +0.304 C 
ATOM      5  H   UNL     1      33.940 -15.792 -23.411  0.00  0.00    +0.151 HD
ENDROOT
BRANCH   2   6
ATOM      6  C   UNL     1      32.721 -12.270 -22.481  0.00  0.00    +0.103 C 
ATOM      7  C   UNL     1      33.145 -11.399 -23.671  0.00  0.00    +0.129 C 
ATOM      8  C   UNL     1      31.314 -11.913 -21.994  0.00  0.00    +0.022 C 
ATOM      9  C   UNL     1      32.982  -9.909 -23.366  0.00  0.00    +0.031 C 
ATOM     10  C   UNL     1      31.174 -10.425 -21.692  0.00  0.00    +0.002 C 
ATOM     11  C   UNL     1      31.574  -9.573 -22.893  0.00  0.00    +0.003 C 
BRANCH   7  12
ATOM     12  O   UNL     1      34.518 -11.656 -23.965  0.00  0.00    -0.383 OA
ATOM     13  H   UNL     1      34.967 -11.969 -23.165  0.00  0.00    +0.210 HD
ENDBRANCH   7  12
ENDBRANCH   2   6
BRANCH   2  14
ATOM     14  C   UNL     1      32.725 -14.631 -21.726  0.00  0.00    +0.077 C 
ATOM     15  C   UNL     1      32.844 -14.182 -20.300  0.00  0.00    +0.022 C 
ATOM     16  C   UNL     1      33.954 -14.969 -20.934  0.00  0.00    +0.022 C 
ENDBRANCH   2  14
BRANCH   3  17
ATOM     17  C   UNL     1      33.827 -16.041 -25.499  0.00  0.00    +0.095 C 
BRANCH  17  18
ATOM     18  C   UNL     1      34.886 -17.130 -25.400  0.00  0.00    +0.069 C 
BRANCH  18  19
ATOM     19  C   UNL     1      34.591 -18.145 -24.302  0.00  0.00    +0.207 C 
BRANCH  19  20
ATOM     20  O   UNL     1      35.147 -17.673 -23.083  0.00  0.00    -0.475 OA
BRANCH  20  23
ATOM     21  O   UNL     1      34.987 -22.985 -17.598  0.00  0.00    -0.270 OA
ATOM     22  N   UNL     1      35.871 -21.415 -19.033  0.00  0.00    -0.280 N 
ATOM     23  C   UNL     1      35.325 -18.597 -22.086  0.00  0.00    +0.139 C 
ATOM     24  C   UNL     1      34.229 -19.308 -21.592  0.00  0.00    +0.038 C 
ATOM     25  C   UNL     1      34.408 -20.248 -20.574  0.00  0.00    +0.017 C 
ATOM     26  C   UNL     1      36.601 -18.822 -21.565  0.00  0.00    +0.038 C 
ATOM     27  C   UNL     1      35.691 -20.469 -20.059  0.00  0.00    +0.051 C 
ATOM     28  C   UNL     1      36.788 -19.759 -20.551  0.00  0.00    +0.018 C 
ATOM     29  C   UNL     1      33.288 -21.012 -20.031  0.00  0.00    +0.006 C 
ATOM     30  C   UNL     1      33.481 -21.908 -19.056  0.00  0.00    +0.058 C 
ATOM     31  C   UNL     1      34.837 -22.157 -18.494  0.00  0.00    +0.250 C 
ATOM     32  H   UNL     1      36.780 -21.557 -18.683  0.00  0.00    +0.155 HD
ENDBRANCH  20  23
ENDBRANCH  19  20
ENDBRANCH  18  19
ENDBRANCH  17  18
ENDBRANCH   3  17
TORSDOF 8
ENDMDL
MODEL 4
REMARK VINA RESULT:     -10.6      5.481     13.385
REMARK  Name = 9908900
REMARK  8 active torsions:
REMARK  status: ('A' for Active; 'I' for Inactive)
REMARK    1  A    between atoms: N_2  and  C_6
REMARK    2  A    between atoms: N_2  and  C_14
REMARK    3  A    between atoms: N_3  and  C_17
REMARK    4  A    between atoms: C_7  and  O_12
REMARK    5  A    between atoms: C_17  and  C_18
REMARK    6  A    between atoms: C_18  and  C_19
REMARK    7  A    between atoms: C_19  and  O_20
REMARK    8  A    between atoms: O_20  and  C_23
REMARK                            x       y       z     vdW  Elec       q    Type
REMARK                         _______ _______ _______ _____ _____    ______ ____
ROOT
ATOM      1  O   UNL     1      32.110 -11.165 -21.053  0.00  0.00    -0.253 OA
ATOM      2  N   UNL     1      32.449  -9.636 -22.784  0.00  0.00    -0.265 N 
ATOM      3  N   UNL     1      32.474 -11.960 -23.184  0.00  0.00    -0.289 N 
ATOM      4  C   UNL     1      32.328 -10.941 -22.248  0.00  0.00    +0.304 C 
ATOM      5  H   UNL     1      32.648 -11.722 -24.123  0.00  0.00    +0.151 HD
ENDROOT
BRANCH   2   6
ATOM      6  C   UNL     1      31.755  -8.471 -22.280  0.00  0.00    +0.103 C 
ATOM      7  C   UNL     1      32.634  -7.702 -21.285  0.00  0.00    +0.129 C 
ATOM      8  C   UNL     1      31.316  -7.584 -23.448  0.00  0.00    +0.022 C 
ATOM      9  C   UNL     1      31.966  -6.405 -20.826  0.00  0.00    +0.031 C 
ATOM     10  C   UNL     1      30.648  -6.300 -22.969  0.00  0.00    +0.002 C 
ATOM     11  C   UNL     1      31.545  -5.532 -22.001  0.00  0.00    +0.003 C 
BRANCH   7  12
ATOM     12  O   UNL     1      32.866  -8.524 -20.141  0.00  0.00    -0.383 OA
ATOM     13  H   UNL     1      32.746  -7.998 -19.335  0.00  0.00    +0.210 HD
ENDBRANCH   7  12
ENDBRANCH   2   6
BRANCH   2  14
ATOM     14  C   UNL     1      33.314  -9.444 -23.944  0.00  0.00    +0.077 C 
ATOM     15  C   UNL     1      34.629 -10.156 -24.057  0.00  0.00    +0.022 C 
ATOM     16  C   UNL     1      34.596  -8.672 -23.835  0.00  0.00    +0.022 C 
ENDBRANCH   2  14
BRANCH   3  17
ATOM     17  C   UNL     1      32.381 -13.357 -22.824  0.00  0.00    +0.095 C 
BRANCH  17  18
ATOM     18  C   UNL     1      33.624 -14.144 -23.217  0.00  0.00    +0.069 C 
BRANCH  18  19
ATOM     19  C   UNL     1      33.958 -15.255 -22.228  0.00  0.00    +0.207 C 
BRANCH  19  20
ATOM     20  O   UNL     1      34.525 -16.346 -22.941  0.00  0.00    -0.475 OA
BRANCH  20  23
ATOM     21  O   UNL     1      34.950 -22.731 -18.775  0.00  0.00    -0.270 OA
ATOM     22  N   UNL     1      35.678 -20.927 -20.007  0.00  0.00    -0.280 N 
ATOM     23  C   UNL     1      34.808 -17.476 -22.220  0.00  0.00    +0.139 C 
ATOM     24  C   UNL     1      33.769 -18.224 -21.662  0.00  0.00    +0.038 C 
ATOM     25  C   UNL     1      34.056 -19.376 -20.923  0.00  0.00    +0.017 C 
ATOM     26  C   UNL     1      36.134 -17.874 -22.042  0.00  0.00    +0.038 C 
ATOM     27  C   UNL     1      35.389 -19.768 -20.751  0.00  0.00    +0.051 C 
ATOM     28  C   UNL     1      36.429 -19.022 -21.308  0.00  0.00    +0.018 C 
ATOM     29  C   UNL     1      32.998 -20.184 -20.324  0.00  0.00    +0.006 C 
ATOM     30  C   UNL     1      33.295 -21.284 -19.621  0.00  0.00    +0.058 C 
ATOM     31  C   UNL     1      34.705 -21.718 -19.426  0.00  0.00    +0.250 C 
ATOM     32  H   UNL     1      36.620 -21.188 -19.896  0.00  0.00    +0.155 HD
ENDBRANCH  20  23
ENDBRANCH  19  20
ENDBRANCH  18  19
ENDBRANCH  17  18
ENDBRANCH   3  17
TORSDOF 8
ENDMDL
MODEL 5
REMARK VINA RESULT:     -10.6      5.264      9.338
REMARK  Name = 9908900
REMARK  8 active torsions:
REMARK  status: ('A' for Active; 'I' for Inactive)
REMARK    1  A    between atoms: N_2  and  C_6
REMARK    2  A    between atoms: N_2  and  C_14
REMARK    3  A    between atoms: N_3  and  C_17
REMARK    4  A    between atoms: C_7  and  O_12
REMARK    5  A    between atoms: C_17  and  C_18
REMARK    6  A    between atoms: C_18  and  C_19
REMARK    7  A    between atoms: C_19  and  O_20
REMARK    8  A    between atoms: O_20  and  C_23
REMARK                            x       y       z     vdW  Elec       q    Type
REMARK                         _______ _______ _______ _____ _____    ______ ____
ROOT
ATOM      1  O   UNL     1      33.334 -16.257 -21.217  0.00  0.00    -0.253 OA
ATOM      2  N   UNL     1      34.876 -17.766 -22.108  0.00  0.00    -0.265 N 
ATOM      3  N   UNL     1      34.741 -15.548 -22.897  0.00  0.00    -0.289 N 
ATOM      4  C   UNL     1      34.245 -16.502 -22.014  0.00  0.00    +0.304 C 
ATOM      5  H   UNL     1      35.468 -15.800 -23.510  0.00  0.00    +0.151 HD
ENDROOT
BRANCH   2   6
ATOM      6  C   UNL     1      35.056 -18.680 -21.002  0.00  0.00    +0.103 C 
ATOM      7  C   UNL     1      34.014 -19.806 -21.051  0.00  0.00    +0.129 C 
ATOM      8  C   UNL     1      36.483 -19.232 -21.013  0.00  0.00    +0.022 C 
ATOM      9  C   UNL     1      34.256 -20.848 -19.957  0.00  0.00    +0.031 C 
ATOM     10  C   UNL     1      36.705 -20.265 -19.913  0.00  0.00    +0.002 C 
ATOM     11  C   UNL     1      35.679 -21.391 -19.991  0.00  0.00    +0.003 C 
BRANCH   7  12
ATOM     12  O   UNL     1      32.716 -19.243 -20.863  0.00  0.00    -0.383 OA
ATOM     13  H   UNL     1      32.043 -19.881 -21.146  0.00  0.00    +0.210 HD
ENDBRANCH   7  12
ENDBRANCH   2   6
BRANCH   2  14
ATOM     14  C   UNL     1      35.408 -18.177 -23.403  0.00  0.00    +0.077 C 
ATOM     15  C   UNL     1      34.615 -17.991 -24.663  0.00  0.00    +0.022 C 
ATOM     16  C   UNL     1      34.855 -19.371 -24.125  0.00  0.00    +0.022 C 
ENDBRANCH   2  14
BRANCH   3  17
ATOM     17  C   UNL     1      34.223 -14.199 -22.946  0.00  0.00    +0.095 C 
BRANCH  17  18
ATOM     18  C   UNL     1      33.262 -13.986 -24.108  0.00  0.00    +0.069 C 
BRANCH  18  19
ATOM     19  C   UNL     1      33.427 -12.624 -24.771  0.00  0.00    +0.207 C 
BRANCH  19  20
ATOM     20  O   UNL     1      34.264 -11.816 -23.954  0.00  0.00    -0.475 OA
BRANCH  20  23
ATOM     21  O   UNL     1      31.640  -4.662 -23.457  0.00  0.00    -0.270 OA
ATOM     22  N   UNL     1      33.138  -6.372 -23.827  0.00  0.00    -0.280 N 
ATOM     23  C   UNL     1      33.986 -10.474 -23.920  0.00  0.00    +0.139 C 
ATOM     24  C   UNL     1      32.707 -10.037 -23.566  0.00  0.00    +0.038 C 
ATOM     25  C   UNL     1      32.422  -8.669 -23.534  0.00  0.00    +0.017 C 
ATOM     26  C   UNL     1      34.981  -9.550 -24.243  0.00  0.00    +0.038 C 
ATOM     27  C   UNL     1      33.426  -7.749 -23.858  0.00  0.00    +0.051 C 
ATOM     28  C   UNL     1      34.704  -8.184 -24.213  0.00  0.00    +0.018 C 
ATOM     29  C   UNL     1      31.098  -8.172 -23.169  0.00  0.00    +0.006 C 
ATOM     30  C   UNL     1      30.846  -6.857 -23.144  0.00  0.00    +0.058 C 
ATOM     31  C   UNL     1      31.899  -5.863 -23.486  0.00  0.00    +0.250 C 
ATOM     32  H   UNL     1      33.855  -5.739 -24.058  0.00  0.00    +0.155 HD
ENDBRANCH  20  23
ENDBRANCH  19  20
ENDBRANCH  18  19
ENDBRANCH  17  18
ENDBRANCH   3  17
TORSDOF 8
ENDMDL
MODEL 6
REMARK VINA RESULT:     -10.6      5.079      8.794
REMARK  Name = 9908900
REMARK  8 active torsions:
REMARK  status: ('A' for Active; 'I' for Inactive)
REMARK    1  A    between atoms: N_2  and  C_6
REMARK    2  A    between atoms: N_2  and  C_14
REMARK    3  A    between atoms: N_3  and  C_17
REMARK    4  A    between atoms: C_7  and  O_12
REMARK    5  A    between atoms: C_17  and  C_18
REMARK    6  A    between atoms: C_18  and  C_19
REMARK    7  A    between atoms: C_19  and  O_20
REMARK    8  A    between atoms: O_20  and  C_23
REMARK                            x       y       z     vdW  Elec       q    Type
REMARK                         _______ _______ _______ _____ _____    ______ ____
ROOT
ATOM      1  O   UNL     1      33.298 -16.624 -20.913  0.00  0.00    -0.253 OA
ATOM      2  N   UNL     1      34.897 -18.097 -21.764  0.00  0.00    -0.265 N 
ATOM      3  N   UNL     1      34.839 -15.835 -22.432  0.00  0.00    -0.289 N 
ATOM      4  C   UNL     1      34.269 -16.833 -21.647  0.00  0.00    +0.304 C 
ATOM      5  H   UNL     1      35.612 -16.060 -22.998  0.00  0.00    +0.151 HD
ENDROOT
BRANCH   2   6
ATOM      6  C   UNL     1      34.982 -19.074 -20.701  0.00  0.00    +0.103 C 
ATOM      7  C   UNL     1      33.860 -20.114 -20.827  0.00  0.00    +0.129 C 
ATOM      8  C   UNL     1      36.364 -19.732 -20.713  0.00  0.00    +0.022 C 
ATOM      9  C   UNL     1      33.998 -21.222 -19.782  0.00  0.00    +0.031 C 
ATOM     10  C   UNL     1      36.482 -20.830 -19.662  0.00  0.00    +0.002 C 
ATOM     11  C   UNL     1      35.376 -21.871 -19.815  0.00  0.00    +0.003 C 
BRANCH   7  12
ATOM     12  O   UNL     1      32.604 -19.463 -20.636  0.00  0.00    -0.383 OA
ATOM     13  H   UNL     1      32.576 -19.067 -19.752  0.00  0.00    +0.210 HD
ENDBRANCH   7  12
ENDBRANCH   2   6
BRANCH   2  14
ATOM     14  C   UNL     1      35.528 -18.438 -23.034  0.00  0.00    +0.077 C 
ATOM     15  C   UNL     1      34.970 -17.945 -24.336  0.00  0.00    +0.022 C 
ATOM     16  C   UNL     1      34.882 -19.402 -23.986  0.00  0.00    +0.022 C 
ENDBRANCH   2  14
BRANCH   3  17
ATOM     17  C   UNL     1      34.335 -14.481 -22.444  0.00  0.00    +0.095 C 
BRANCH  17  18
ATOM     18  C   UNL     1      33.686 -14.113 -23.771  0.00  0.00    +0.069 C 
BRANCH  18  19
ATOM     19  C   UNL     1      32.317 -13.466 -23.601  0.00  0.00    +0.207 C 
BRANCH  19  20
ATOM     20  O   UNL     1      32.001 -13.420 -22.216  0.00  0.00    -0.475 OA
BRANCH  20  23
ATOM     21  O   UNL     1      32.182  -6.121 -19.979  0.00  0.00    -0.270 OA
ATOM     22  N   UNL     1      31.990  -8.410 -19.805  0.00  0.00    -0.280 N 
ATOM     23  C   UNL     1      31.997 -12.185 -21.623  0.00  0.00    +0.139 C 
ATOM     24  C   UNL     1      32.199 -11.040 -22.397  0.00  0.00    +0.038 C 
ATOM     25  C   UNL     1      32.197  -9.780 -21.793  0.00  0.00    +0.017 C 
ATOM     26  C   UNL     1      31.793 -12.075 -20.246  0.00  0.00    +0.038 C 
ATOM     27  C   UNL     1      31.990  -9.678 -20.413  0.00  0.00    +0.051 C 
ATOM     28  C   UNL     1      31.788 -10.821 -19.637  0.00  0.00    +0.018 C 
ATOM     29  C   UNL     1      32.404  -8.560 -22.569  0.00  0.00    +0.006 C 
ATOM     30  C   UNL     1      32.399  -7.362 -21.970  0.00  0.00    +0.058 C 
ATOM     31  C   UNL     1      32.182  -7.233 -20.504  0.00  0.00    +0.250 C 
ATOM     32  H   UNL     1      31.843  -8.357 -18.833  0.00  0.00    +0.155 HD
ENDBRANCH  20  23
ENDBRANCH  19  20
ENDBRANCH  18  19
ENDBRANCH  17  18
ENDBRANCH   3  17
TORSDOF 8
ENDMDL
MODEL 7
REMARK VINA RESULT:     -10.3      5.577      9.360
REMARK  Name = 9908900
REMARK  8 active torsions:
REMARK  status: ('A' for Active; 'I' for Inactive)
REMARK    1  A    between atoms: N_2  and  C_6
REMARK    2  A    between atoms: N_2  and  C_14
REMARK    3  A    between atoms: N_3  and  C_17
REMARK    4  A    between atoms: C_7  and  O_12
REMARK    5  A    between atoms: C_17  and  C_18
REMARK    6  A    between atoms: C_18  and  C_19
REMARK    7  A    between atoms: C_19  and  O_20
REMARK    8  A    between atoms: O_20  and  C_23
REMARK                            x       y       z     vdW  Elec       q    Type
REMARK                         _______ _______ _______ _____ _____    ______ ____
ROOT
ATOM      1  O   UNL     1      35.234 -17.364 -24.798  0.00  0.00    -0.253 OA
ATOM      2  N   UNL     1      34.341 -17.268 -22.643  0.00  0.00    -0.265 N 
ATOM      3  N   UNL     1      33.526 -15.879 -24.366  0.00  0.00    -0.289 N 
ATOM      4  C   UNL     1      34.429 -16.873 -24.000  0.00  0.00    +0.304 C 
ATOM      5  H   UNL     1      32.909 -15.525 -23.687  0.00  0.00    +0.151 HD
ENDROOT
BRANCH   2   6
ATOM      6  C   UNL     1      34.629 -18.599 -22.154  0.00  0.00    +0.103 C 
ATOM      7  C   UNL     1      36.002 -18.643 -21.471  0.00  0.00    +0.129 C 
ATOM      8  C   UNL     1      33.513 -19.054 -21.209  0.00  0.00    +0.022 C 
ATOM      9  C   UNL     1      36.277 -20.011 -20.844  0.00  0.00    +0.031 C 
ATOM     10  C   UNL     1      33.805 -20.421 -20.600  0.00  0.00    +0.002 C 
ATOM     11  C   UNL     1      35.162 -20.442 -19.901  0.00  0.00    +0.003 C 
BRANCH   7  12
ATOM     12  O   UNL     1      37.011 -18.377 -22.445  0.00  0.00    -0.383 OA
ATOM     13  H   UNL     1      37.081 -19.130 -23.052  0.00  0.00    +0.210 HD
ENDBRANCH   7  12
ENDBRANCH   2   6
BRANCH   2  14
ATOM     14  C   UNL     1      33.908 -16.278 -21.663  0.00  0.00    +0.077 C 
ATOM     15  C   UNL     1      34.543 -14.921 -21.598  0.00  0.00    +0.022 C 
ATOM     16  C   UNL     1      34.777 -15.912 -20.495  0.00  0.00    +0.022 C 
ENDBRANCH   2  14
BRANCH   3  17
ATOM     17  C   UNL     1      33.466 -15.349 -25.710  0.00  0.00    +0.095 C 
BRANCH  17  18
ATOM     18  C   UNL     1      32.987 -13.904 -25.745  0.00  0.00    +0.069 C 
BRANCH  18  19
ATOM     19  C   UNL     1      33.373 -13.122 -24.496  0.00  0.00    +0.207 C 
BRANCH  19  20
ATOM     20  O   UNL     1      32.268 -13.112 -23.603  0.00  0.00    -0.475 OA
BRANCH  20  23
ATOM     21  O   UNL     1      32.362  -6.689 -19.474  0.00  0.00    -0.270 OA
ATOM     22  N   UNL     1      32.019  -8.912 -19.967  0.00  0.00    -0.280 N 
ATOM     23  C   UNL     1      32.205 -12.076 -22.708  0.00  0.00    +0.139 C 
ATOM     24  C   UNL     1      32.622 -10.799 -23.091  0.00  0.00    +0.038 C 
ATOM     25  C   UNL     1      32.560  -9.742 -22.178  0.00  0.00    +0.017 C 
ATOM     26  C   UNL     1      31.727 -12.301 -21.415  0.00  0.00    +0.038 C 
ATOM     27  C   UNL     1      32.079  -9.976 -20.885  0.00  0.00    +0.051 C 
ATOM     28  C   UNL     1      31.663 -11.252 -20.500  0.00  0.00    +0.018 C 
ATOM     29  C   UNL     1      32.987  -8.393 -22.540  0.00  0.00    +0.006 C 
ATOM     30  C   UNL     1      32.920  -7.394 -21.651  0.00  0.00    +0.058 C 
ATOM     31  C   UNL     1      32.412  -7.623 -20.271  0.00  0.00    +0.250 C 
ATOM     32  H   UNL     1      31.678  -9.095 -19.062  0.00  0.00    +0.155 HD
ENDBRANCH  20  23
ENDBRANCH  19  20
ENDBRANCH  18  19
ENDBRANCH  17  18
ENDBRANCH   3  17
TORSDOF 8
ENDMDL
MODEL 8
REMARK VINA RESULT:     -10.3      5.079     12.912
REMARK  Name = 9908900
REMARK  8 active torsions:
REMARK  status: ('A' for Active; 'I' for Inactive)
REMARK    1  A    between atoms: N_2  and  C_6
REMARK    2  A    between atoms: N_2  and  C_14
REMARK    3  A    between atoms: N_3  and  C_17
REMARK    4  A    between atoms: C_7  and  O_12
REMARK    5  A    between atoms: C_17  and  C_18
REMARK    6  A    between atoms: C_18  and  C_19
REMARK    7  A    between atoms: C_19  and  O_20
REMARK    8  A    between atoms: O_20  and  C_23
REMARK                            x       y       z     vdW  Elec       q    Type
REMARK                         _______ _______ _______ _____ _____    ______ ____
ROOT
ATOM      1  O   UNL     1      33.476 -10.587 -24.374  0.00  0.00    -0.253 OA
ATOM      2  N   UNL     1      32.201 -10.255 -22.447  0.00  0.00    -0.265 N 
ATOM      3  N   UNL     1      33.066 -12.381 -22.988  0.00  0.00    -0.289 N 
ATOM      4  C   UNL     1      32.956 -11.042 -23.350  0.00  0.00    +0.304 C 
ATOM      5  H   UNL     1      32.630 -12.687 -22.161  0.00  0.00    +0.151 HD
ENDROOT
BRANCH   2   6
ATOM      6  C   UNL     1      32.433  -8.850 -22.188  0.00  0.00    +0.103 C 
ATOM      7  C   UNL     1      31.355  -7.988 -22.858  0.00  0.00    +0.129 C 
ATOM      8  C   UNL     1      32.493  -8.606 -20.678  0.00  0.00    +0.022 C 
ATOM      9  C   UNL     1      31.513  -6.509 -22.502  0.00  0.00    +0.031 C 
ATOM     10  C   UNL     1      32.655  -7.127 -20.345  0.00  0.00    +0.002 C 
ATOM     11  C   UNL     1      31.561  -6.285 -20.996  0.00  0.00    +0.003 C 
BRANCH   7  12
ATOM     12  O   UNL     1      31.464  -8.130 -24.274  0.00  0.00    -0.383 OA
ATOM     13  H   UNL     1      31.682  -7.272 -24.669  0.00  0.00    +0.210 HD
ENDBRANCH   7  12
ENDBRANCH   2   6
BRANCH   2  14
ATOM     14  C   UNL     1      31.127 -10.900 -21.700  0.00  0.00    +0.077 C 
ATOM     15  C   UNL     1      31.092 -10.862 -20.201  0.00  0.00    +0.022 C 
ATOM     16  C   UNL     1      31.376 -12.153 -20.912  0.00  0.00    +0.022 C 
ENDBRANCH   2  14
BRANCH   3  17
ATOM     17  C   UNL     1      33.800 -13.337 -23.786  0.00  0.00    +0.095 C 
BRANCH  17  18
ATOM     18  C   UNL     1      33.404 -14.776 -23.481  0.00  0.00    +0.069 C 
BRANCH  18  19
ATOM     19  C   UNL     1      34.502 -15.552 -22.764  0.00  0.00    +0.207 C 
BRANCH  19  20
ATOM     20  O   UNL     1      34.523 -16.882 -23.264  0.00  0.00    -0.475 OA
BRANCH  20  23
ATOM     21  O   UNL     1      35.195 -22.602 -18.250  0.00  0.00    -0.270 OA
ATOM     22  N   UNL     1      35.849 -20.894 -19.649  0.00  0.00    -0.280 N 
ATOM     23  C   UNL     1      34.849 -17.872 -22.374  0.00  0.00    +0.139 C 
ATOM     24  C   UNL     1      33.844 -18.661 -21.811  0.00  0.00    +0.038 C 
ATOM     25  C   UNL     1      34.175 -19.670 -20.902  0.00  0.00    +0.017 C 
ATOM     26  C   UNL     1      36.186 -18.087 -22.031  0.00  0.00    +0.038 C 
ATOM     27  C   UNL     1      35.517 -19.879 -20.565  0.00  0.00    +0.051 C 
ATOM     28  C   UNL     1      36.523 -19.091 -21.126  0.00  0.00    +0.018 C 
ATOM     29  C   UNL     1      33.152 -20.516 -20.292  0.00  0.00    +0.006 C 
ATOM     30  C   UNL     1      33.491 -21.477 -19.424  0.00  0.00    +0.058 C 
ATOM     31  C   UNL     1      34.912 -21.714 -19.051  0.00  0.00    +0.250 C 
ATOM     32  H   UNL     1      36.798 -21.026 -19.423  0.00  0.00    +0.155 HD
ENDBRANCH  20  23
ENDBRANCH  19  20
ENDBRANCH  18  19
ENDBRANCH  17  18
ENDBRANCH   3  17
TORSDOF 8
ENDMDL
MODEL 9
REMARK VINA RESULT:     -10.2      6.393     12.736
REMARK  Name = 9908900
REMARK  8 active torsions:
REMARK  status: ('A' for Active; 'I' for Inactive)
REMARK    1  A    between atoms: N_2  and  C_6
REMARK    2  A    between atoms: N_2  and  C_14
REMARK    3  A    between atoms: N_3  and  C_17
REMARK    4  A    between atoms: C_7  and  O_12
REMARK    5  A    between atoms: C_17  and  C_18
REMARK    6  A    between atoms: C_18  and  C_19
REMARK    7  A    between atoms: C_19  and  O_20
REMARK    8  A    between atoms: O_20  and  C_23
REMARK                            x       y       z     vdW  Elec       q    Type
REMARK                         _______ _______ _______ _____ _____    ______ ____
ROOT
ATOM      1  O   UNL     1      34.138 -10.909 -22.971  0.00  0.00    -0.253 OA
ATOM      2  N   UNL     1      32.319  -9.478 -23.266  0.00  0.00    -0.265 N 
ATOM      3  N   UNL     1      33.241 -10.671 -25.079  0.00  0.00    -0.289 N 
ATOM      4  C   UNL     1      33.299 -10.394 -23.717  0.00  0.00    +0.304 C 
ATOM      5  H   UNL     1      32.551 -10.230 -25.624  0.00  0.00    +0.151 HD
ENDROOT
BRANCH   2   6
ATOM      6  C   UNL     1      31.727  -9.489 -21.946  0.00  0.00    +0.103 C 
ATOM      7  C   UNL     1      31.511 -10.928 -21.459  0.00  0.00    +0.129 C 
ATOM      8  C   UNL     1      32.605  -8.692 -20.979  0.00  0.00    +0.022 C 
ATOM      9  C   UNL     1      30.993 -10.964 -20.020  0.00  0.00    +0.031 C 
ATOM     10  C   UNL     1      32.069  -8.737 -19.552  0.00  0.00    +0.002 C 
ATOM     11  C   UNL     1      31.885 -10.174 -19.071  0.00  0.00    +0.003 C 
BRANCH   7  12
ATOM     12  O   UNL     1      30.551 -11.562 -22.304  0.00  0.00    -0.383 OA
ATOM     13  H   UNL     1      30.070 -10.889 -22.810  0.00  0.00    +0.210 HD
ENDBRANCH   7  12
ENDBRANCH   2   6
BRANCH   2  14
ATOM     14  C   UNL     1      31.845  -8.460 -24.199  0.00  0.00    +0.077 C 
ATOM     15  C   UNL     1      32.121  -7.005 -23.965  0.00  0.00    +0.022 C 
ATOM     16  C   UNL     1      30.723  -7.534 -23.831  0.00  0.00    +0.022 C 
ENDBRANCH   2  14
BRANCH   3  17
ATOM     17  C   UNL     1      34.161 -11.584 -25.720  0.00  0.00    +0.095 C 
BRANCH  17  18
ATOM     18  C   UNL     1      33.449 -12.618 -26.582  0.00  0.00    +0.069 C 
BRANCH  18  19
ATOM     19  C   UNL     1      33.137 -13.904 -25.826  0.00  0.00    +0.207 C 
BRANCH  19  20
ATOM     20  O   UNL     1      32.970 -13.596 -24.449  0.00  0.00    -0.475 OA
BRANCH  20  23
ATOM     21  O   UNL     1      36.249 -19.153 -20.363  0.00  0.00    -0.270 OA
ATOM     22  N   UNL     1      35.134 -17.184 -20.792  0.00  0.00    -0.280 N 
ATOM     23  C   UNL     1      33.505 -14.480 -23.548  0.00  0.00    +0.139 C 
ATOM     24  C   UNL     1      34.132 -15.643 -24.002  0.00  0.00    +0.038 C 
ATOM     25  C   UNL     1      34.676 -16.546 -23.085  0.00  0.00    +0.017 C 
ATOM     26  C   UNL     1      33.419 -14.216 -22.180  0.00  0.00    +0.038 C 
ATOM     27  C   UNL     1      34.587 -16.273 -21.715  0.00  0.00    +0.051 C 
ATOM     28  C   UNL     1      33.960 -15.112 -21.259  0.00  0.00    +0.018 C 
ATOM     29  C   UNL     1      35.339 -17.772 -23.520  0.00  0.00    +0.006 C 
ATOM     30  C   UNL     1      35.854 -18.624 -22.625  0.00  0.00    +0.058 C 
ATOM     31  C   UNL     1      35.769 -18.353 -21.164  0.00  0.00    +0.250 C 
ATOM     32  H   UNL     1      35.062 -16.976 -19.833  0.00  0.00    +0.155 HD
ENDBRANCH  20  23
ENDBRANCH  19  20
ENDBRANCH  18  19
ENDBRANCH  17  18
ENDBRANCH   3  17
TORSDOF 8
ENDMDL
