MODEL 1
REMARK VINA RESULT:     -11.1      0.000      0.000
REMARK  Name = 97226
REMARK  3 active torsions:
REMARK  status: ('A' for Active; 'I' for Inactive)
REMARK    1  A    between atoms: C_6  and  O_24
REMARK    2  A    between atoms: C_6  and  C_28
REMARK    3  A    between atoms: C_22  and  O_26
REMARK                            x       y       z     vdW  Elec       q    Type
REMARK                         _______ _______ _______ _____ _____    ______ ____
ROOT
ATOM      1  O   UNL     1      35.783 -25.406 -14.035  0.00  0.00    -0.442 OA
ATOM      2  O   UNL     1      32.617 -23.951 -16.436  0.00  0.00    -0.270 OA
ATOM      3  O   UNL     1      38.007 -25.702 -13.944  0.00  0.00    -0.247 OA
ATOM      4  N   UNL     1      34.077 -22.648 -17.667  0.00  0.00    -0.249 N 
ATOM      5  N   UNL     1      36.352 -20.587 -19.543  0.00  0.00    -0.405 NA
ATOM      6  C   UNL     1      37.233 -23.659 -14.974  0.00  0.00    +0.196 C 
ATOM      7  C   UNL     1      36.113 -23.337 -15.924  0.00  0.00    +0.017 C 
ATOM      8  C   UNL     1      35.348 -22.132 -17.858  0.00  0.00    +0.084 C 
ATOM      9  C   UNL     1      34.884 -23.840 -15.707  0.00  0.00    +0.074 C 
ATOM     10  C   UNL     1      33.144 -22.157 -18.702  0.00  0.00    +0.128 C 
ATOM     11  C   UNL     1      36.358 -22.434 -17.039  0.00  0.00    +0.016 C 
ATOM     12  C   UNL     1      34.025 -21.282 -19.532  0.00  0.00    +0.029 C 
ATOM     13  C   UNL     1      35.319 -21.270 -19.031  0.00  0.00    +0.142 C 
ATOM     14  C   UNL     1      33.742 -23.497 -16.628  0.00  0.00    +0.252 C 
ATOM     15  C   UNL     1      34.611 -24.736 -14.548  0.00  0.00    +0.239 C 
ATOM     16  C   UNL     1      37.052 -25.010 -14.293  0.00  0.00    +0.346 C 
ATOM     17  C   UNL     1      33.748 -20.534 -20.652  0.00  0.00    +0.002 C 
ATOM     18  C   UNL     1      34.792 -19.796 -21.231  0.00  0.00    +0.029 C 
ATOM     19  C   UNL     1      36.087 -19.851 -20.641  0.00  0.00    +0.114 C 
ATOM     20  C   UNL     1      34.573 -19.012 -22.375  0.00  0.00    +0.038 C 
ATOM     21  C   UNL     1      37.106 -19.110 -21.233  0.00  0.00    +0.088 C 
ATOM     22  C   UNL     1      35.615 -18.284 -22.942  0.00  0.00    +0.130 C 
ATOM     23  C   UNL     1      36.880 -18.333 -22.372  0.00  0.00    +0.018 C 
ENDROOT
BRANCH   6  24
ATOM     24  O   UNL     1      38.459 -23.787 -15.701  0.00  0.00    -0.373 OA
ATOM     25  H   UNL     1      38.269 -24.082 -16.605  0.00  0.00    +0.211 HD
ENDBRANCH   6  24
BRANCH  22  26
ATOM     26  O   UNL     1      35.395 -17.528 -24.052  0.00  0.00    -0.506 OA
ATOM     27  H   UNL     1      35.924 -17.651 -24.815  0.00  0.00    +0.292 HD
ENDBRANCH  22  26
BRANCH   6  28
ATOM     28  C   UNL     1      37.400 -22.574 -13.908  0.00  0.00    +0.042 C 
ATOM     29  C   UNL     1      37.221 -23.142 -12.515  0.00  0.00    +0.003 C 
ENDBRANCH   6  28
TORSDOF 3
ENDMDL
MODEL 2
REMARK VINA RESULT:     -10.4      1.157      1.531
REMARK  Name = 97226
REMARK  3 active torsions:
REMARK  status: ('A' for Active; 'I' for Inactive)
REMARK    1  A    between atoms: C_6  and  O_24
REMARK    2  A    between atoms: C_6  and  C_28
REMARK    3  A    between atoms: C_22  and  O_26
REMARK                            x       y       z     vdW  Elec       q    Type
REMARK                         _______ _______ _______ _____ _____    ______ ____
ROOT
ATOM      1  O   UNL     1      36.435 -25.731 -12.561  0.00  0.00    -0.442 OA
ATOM      2  O   UNL     1      32.963 -24.633 -14.718  0.00  0.00    -0.270 OA
ATOM      3  O   UNL     1      38.668 -25.919 -12.687  0.00  0.00    -0.247 OA
ATOM      4  N   UNL     1      34.217 -23.380 -16.203  0.00  0.00    -0.249 N 
ATOM      5  N   UNL     1      36.172 -21.393 -18.477  0.00  0.00    -0.405 NA
ATOM      6  C   UNL     1      37.684 -24.011 -13.793  0.00  0.00    +0.196 C 
ATOM      7  C   UNL     1      36.456 -23.823 -14.639  0.00  0.00    +0.017 C 
ATOM      8  C   UNL     1      35.432 -22.828 -16.572  0.00  0.00    +0.084 C 
ATOM      9  C   UNL     1      35.285 -24.359 -14.250  0.00  0.00    +0.074 C 
ATOM     10  C   UNL     1      33.156 -23.024 -17.167  0.00  0.00    +0.128 C 
ATOM     11  C   UNL     1      36.536 -23.012 -15.845  0.00  0.00    +0.016 C 
ATOM     12  C   UNL     1      33.898 -22.187 -18.158  0.00  0.00    +0.029 C 
ATOM     13  C   UNL     1      35.235 -22.074 -17.802  0.00  0.00    +0.142 C 
ATOM     14  C   UNL     1      34.037 -24.149 -15.067  0.00  0.00    +0.252 C 
ATOM     15  C   UNL     1      35.182 -25.161 -12.998  0.00  0.00    +0.239 C 
ATOM     16  C   UNL     1      37.646 -25.303 -12.986  0.00  0.00    +0.346 C 
ATOM     17  C   UNL     1      33.467 -21.553 -19.299  0.00  0.00    +0.002 C 
ATOM     18  C   UNL     1      34.404 -20.823 -20.046  0.00  0.00    +0.029 C 
ATOM     19  C   UNL     1      35.754 -20.769 -19.597  0.00  0.00    +0.114 C 
ATOM     20  C   UNL     1      34.027 -20.154 -21.221  0.00  0.00    +0.038 C 
ATOM     21  C   UNL     1      36.666 -20.039 -20.355  0.00  0.00    +0.088 C 
ATOM     22  C   UNL     1      34.964 -19.433 -21.956  0.00  0.00    +0.130 C 
ATOM     23  C   UNL     1      36.282 -19.376 -21.523  0.00  0.00    +0.018 C 
ENDROOT
BRANCH   6  24
ATOM     24  O   UNL     1      38.833 -24.148 -14.634  0.00  0.00    -0.373 OA
ATOM     25  H   UNL     1      39.502 -24.685 -14.182  0.00  0.00    +0.211 HD
ENDBRANCH   6  24
BRANCH  22  26
ATOM     26  O   UNL     1      34.590 -18.787 -23.093  0.00  0.00    -0.506 OA
ATOM     27  H   UNL     1      33.888 -19.125 -23.615  0.00  0.00    +0.292 HD
ENDBRANCH  22  26
BRANCH   6  28
ATOM     28  C   UNL     1      37.903 -22.831 -12.843  0.00  0.00    +0.042 C 
ATOM     29  C   UNL     1      37.130 -23.012 -11.553  0.00  0.00    +0.003 C 
ENDBRANCH   6  28
TORSDOF 3
ENDMDL
MODEL 3
REMARK VINA RESULT:      -9.9      2.321      4.450
REMARK  Name = 97226
REMARK  3 active torsions:
REMARK  status: ('A' for Active; 'I' for Inactive)
REMARK    1  A    between atoms: C_6  and  O_24
REMARK    2  A    between atoms: C_6  and  C_28
REMARK    3  A    between atoms: C_22  and  O_26
REMARK                            x       y       z     vdW  Elec       q    Type
REMARK                         _______ _______ _______ _____ _____    ______ ____
ROOT
ATOM      1  O   UNL     1      31.736 -24.853 -13.102  0.00  0.00    -0.442 OA
ATOM      2  O   UNL     1      35.530 -24.474 -14.938  0.00  0.00    -0.270 OA
ATOM      3  O   UNL     1      29.694 -23.932 -12.944  0.00  0.00    -0.247 OA
ATOM      4  N   UNL     1      34.644 -23.160 -16.622  0.00  0.00    -0.249 N 
ATOM      5  N   UNL     1      33.245 -21.159 -19.264  0.00  0.00    -0.405 NA
ATOM      6  C   UNL     1      30.715 -23.918 -15.133  0.00  0.00    +0.196 C 
ATOM      7  C   UNL     1      32.109 -23.644 -15.624  0.00  0.00    +0.017 C 
ATOM      8  C   UNL     1      33.541 -22.612 -17.255  0.00  0.00    +0.084 C 
ATOM      9  C   UNL     1      33.162 -24.202 -14.999  0.00  0.00    +0.074 C 
ATOM     10  C   UNL     1      35.895 -22.782 -17.311  0.00  0.00    +0.128 C 
ATOM     11  C   UNL     1      32.300 -22.823 -16.810  0.00  0.00    +0.016 C 
ATOM     12  C   UNL     1      35.393 -21.938 -18.436  0.00  0.00    +0.029 C 
ATOM     13  C   UNL     1      34.008 -21.842 -18.399  0.00  0.00    +0.142 C 
ATOM     14  C   UNL     1      34.563 -23.968 -15.501  0.00  0.00    +0.252 C 
ATOM     15  C   UNL     1      32.977 -25.075 -13.806  0.00  0.00    +0.239 C 
ATOM     16  C   UNL     1      30.669 -24.214 -13.638  0.00  0.00    +0.346 C 
ATOM     17  C   UNL     1      36.068 -21.286 -19.440  0.00  0.00    +0.002 C 
ATOM     18  C   UNL     1      35.321 -20.554 -20.376  0.00  0.00    +0.029 C 
ATOM     19  C   UNL     1      33.903 -20.517 -20.251  0.00  0.00    +0.114 C 
ATOM     20  C   UNL     1      35.952 -19.867 -21.425  0.00  0.00    +0.038 C 
ATOM     21  C   UNL     1      33.183 -19.785 -21.191  0.00  0.00    +0.088 C 
ATOM     22  C   UNL     1      35.202 -19.144 -22.348  0.00  0.00    +0.130 C 
ATOM     23  C   UNL     1      33.819 -19.103 -22.232  0.00  0.00    +0.018 C 
ENDROOT
BRANCH   6  24
ATOM     24  O   UNL     1      29.910 -22.746 -15.290  0.00  0.00    -0.373 OA
ATOM     25  H   UNL     1      28.977 -23.003 -15.364  0.00  0.00    +0.211 HD
ENDBRANCH   6  24
BRANCH  22  26
ATOM     26  O   UNL     1      35.821 -18.479 -23.361  0.00  0.00    -0.506 OA
ATOM     27  H   UNL     1      35.997 -17.562 -23.281  0.00  0.00    +0.292 HD
ENDBRANCH  22  26
BRANCH   6  28
ATOM     28  C   UNL     1      30.063 -25.073 -15.895  0.00  0.00    +0.042 C 
ATOM     29  C   UNL     1      28.730 -24.660 -16.484  0.00  0.00    +0.003 C 
ENDBRANCH   6  28
TORSDOF 3
ENDMDL
MODEL 4
REMARK VINA RESULT:      -9.5      6.438     10.366
REMARK  Name = 97226
REMARK  3 active torsions:
REMARK  status: ('A' for Active; 'I' for Inactive)
REMARK    1  A    between atoms: C_6  and  O_24
REMARK    2  A    between atoms: C_6  and  C_28
REMARK    3  A    between atoms: C_22  and  O_26
REMARK                            x       y       z     vdW  Elec       q    Type
REMARK                         _______ _______ _______ _____ _____    ______ ____
ROOT
ATOM      1  O   UNL     1      35.687 -18.835 -23.213  0.00  0.00    -0.442 OA
ATOM      2  O   UNL     1      34.360 -16.053 -26.114  0.00  0.00    -0.270 OA
ATOM      3  O   UNL     1      36.417 -19.048 -21.101  0.00  0.00    -0.247 OA
ATOM      4  N   UNL     1      33.830 -14.513 -24.472  0.00  0.00    -0.249 N 
ATOM      5  N   UNL     1      32.962 -12.144 -21.907  0.00  0.00    -0.405 NA
ATOM      6  C   UNL     1      34.655 -17.439 -21.474  0.00  0.00    +0.196 C 
ATOM      7  C   UNL     1      34.395 -16.417 -22.546  0.00  0.00    +0.017 C 
ATOM      8  C   UNL     1      33.682 -14.198 -23.132  0.00  0.00    +0.084 C 
ATOM      9  C   UNL     1      34.532 -16.754 -23.841  0.00  0.00    +0.074 C 
ATOM     10  C   UNL     1      33.479 -13.363 -25.330  0.00  0.00    +0.128 C 
ATOM     11  C   UNL     1      33.939 -15.087 -22.170  0.00  0.00    +0.016 C 
ATOM     12  C   UNL     1      33.102 -12.323 -24.326  0.00  0.00    +0.029 C 
ATOM     13  C   UNL     1      33.222 -12.819 -23.036  0.00  0.00    +0.142 C 
ATOM     14  C   UNL     1      34.239 -15.753 -24.928  0.00  0.00    +0.252 C 
ATOM     15  C   UNL     1      34.962 -18.124 -24.240  0.00  0.00    +0.239 C 
ATOM     16  C   UNL     1      35.670 -18.491 -21.904  0.00  0.00    +0.346 C 
ATOM     17  C   UNL     1      32.679 -11.026 -24.493  0.00  0.00    +0.002 C 
ATOM     18  C   UNL     1      32.390 -10.270 -23.346  0.00  0.00    +0.029 C 
ATOM     19  C   UNL     1      32.546 -10.872 -22.065  0.00  0.00    +0.114 C 
ATOM     20  C   UNL     1      31.953  -8.940 -23.449  0.00  0.00    +0.038 C 
ATOM     21  C   UNL     1      32.254 -10.102 -20.942  0.00  0.00    +0.088 C 
ATOM     22  C   UNL     1      31.670  -8.198 -22.306  0.00  0.00    +0.130 C 
ATOM     23  C   UNL     1      31.820  -8.778 -21.054  0.00  0.00    +0.018 C 
ENDROOT
BRANCH   6  24
ATOM     24  O   UNL     1      35.255 -16.806 -20.341  0.00  0.00    -0.373 OA
ATOM     25  H   UNL     1      35.626 -17.482 -19.752  0.00  0.00    +0.211 HD
ENDBRANCH   6  24
BRANCH  22  26
ATOM     26  O   UNL     1      31.249  -6.909 -22.415  0.00  0.00    -0.506 OA
ATOM     27  H   UNL     1      30.551  -6.597 -21.873  0.00  0.00    +0.292 HD
ENDBRANCH  22  26
BRANCH   6  28
ATOM     28  C   UNL     1      33.366 -18.133 -21.029  0.00  0.00    +0.042 C 
ATOM     29  C   UNL     1      33.531 -19.639 -21.011  0.00  0.00    +0.003 C 
ENDBRANCH   6  28
TORSDOF 3
ENDMDL
MODEL 5
REMARK VINA RESULT:      -9.4      3.968      6.241
REMARK  Name = 97226
REMARK  3 active torsions:
REMARK  status: ('A' for Active; 'I' for Inactive)
REMARK    1  A    between atoms: C_6  and  O_24
REMARK    2  A    between atoms: C_6  and  C_28
REMARK    3  A    between atoms: C_22  and  O_26
REMARK                            x       y       z     vdW  Elec       q    Type
REMARK                         _______ _______ _______ _____ _____    ______ ____
ROOT
ATOM      1  O   UNL     1      39.073 -24.292 -13.378  0.00  0.00    -0.442 OA
ATOM      2  O   UNL     1      37.246 -22.680 -16.838  0.00  0.00    -0.270 OA
ATOM      3  O   UNL     1      38.720 -24.863 -11.235  0.00  0.00    -0.247 OA
ATOM      4  N   UNL     1      35.143 -23.221 -16.045  0.00  0.00    -0.249 N 
ATOM      5  N   UNL     1      31.878 -24.112 -14.823  0.00  0.00    -0.405 NA
ATOM      6  C   UNL     1      36.923 -25.323 -12.783  0.00  0.00    +0.196 C 
ATOM      7  C   UNL     1      36.318 -24.555 -13.926  0.00  0.00    +0.017 C 
ATOM      8  C   UNL     1      34.346 -23.852 -15.105  0.00  0.00    +0.084 C 
ATOM      9  C   UNL     1      37.116 -23.963 -14.833  0.00  0.00    +0.074 C 
ATOM     10  C   UNL     1      34.322 -22.572 -17.088  0.00  0.00    +0.128 C 
ATOM     11  C   UNL     1      34.871 -24.512 -14.069  0.00  0.00    +0.016 C 
ATOM     12  C   UNL     1      32.933 -22.900 -16.646  0.00  0.00    +0.029 C 
ATOM     13  C   UNL     1      32.953 -23.654 -15.481  0.00  0.00    +0.142 C 
ATOM     14  C   UNL     1      36.525 -23.223 -16.004  0.00  0.00    +0.252 C 
ATOM     15  C   UNL     1      38.600 -24.033 -14.717  0.00  0.00    +0.239 C 
ATOM     16  C   UNL     1      38.299 -24.797 -12.389  0.00  0.00    +0.346 C 
ATOM     17  C   UNL     1      31.716 -22.581 -17.199  0.00  0.00    +0.002 C 
ATOM     18  C   UNL     1      30.554 -23.034 -16.554  0.00  0.00    +0.029 C 
ATOM     19  C   UNL     1      30.682 -23.802 -15.362  0.00  0.00    +0.114 C 
ATOM     20  C   UNL     1      29.282 -22.741 -17.070  0.00  0.00    +0.038 C 
ATOM     21  C   UNL     1      29.516 -24.240 -14.740  0.00  0.00    +0.088 C 
ATOM     22  C   UNL     1      28.136 -23.195 -16.422  0.00  0.00    +0.130 C 
ATOM     23  C   UNL     1      28.253 -23.944 -15.259  0.00  0.00    +0.018 C 
ENDROOT
BRANCH   6  24
ATOM     24  O   UNL     1      36.125 -25.149 -11.609  0.00  0.00    -0.373 OA
ATOM     25  H   UNL     1      36.644 -24.691 -10.930  0.00  0.00    +0.211 HD
ENDBRANCH   6  24
BRANCH  22  26
ATOM     26  O   UNL     1      26.906 -22.906 -16.927  0.00  0.00    -0.506 OA
ATOM     27  H   UNL     1      26.774 -22.117 -17.416  0.00  0.00    +0.292 HD
ENDBRANCH  22  26
BRANCH   6  28
ATOM     28  C   UNL     1      37.026 -26.817 -13.096  0.00  0.00    +0.042 C 
ATOM     29  C   UNL     1      37.150 -27.059 -14.586  0.00  0.00    +0.003 C 
ENDBRANCH   6  28
TORSDOF 3
ENDMDL
MODEL 6
REMARK VINA RESULT:      -9.3      2.828      8.198
REMARK  Name = 97226
REMARK  3 active torsions:
REMARK  status: ('A' for Active; 'I' for Inactive)
REMARK    1  A    between atoms: C_6  and  O_24
REMARK    2  A    between atoms: C_6  and  C_28
REMARK    3  A    between atoms: C_22  and  O_26
REMARK                            x       y       z     vdW  Elec       q    Type
REMARK                         _______ _______ _______ _____ _____    ______ ____
ROOT
ATOM      1  O   UNL     1      36.471 -19.544 -21.964  0.00  0.00    -0.442 OA
ATOM      2  O   UNL     1      37.068 -21.853 -18.468  0.00  0.00    -0.270 OA
ATOM      3  O   UNL     1      35.002 -19.060 -23.592  0.00  0.00    -0.247 OA
ATOM      4  N   UNL     1      34.788 -22.097 -18.174  0.00  0.00    -0.249 N 
ATOM      5  N   UNL     1      31.237 -22.428 -17.700  0.00  0.00    -0.405 NA
ATOM      6  C   UNL     1      34.092 -19.358 -21.375  0.00  0.00    +0.196 C 
ATOM      7  C   UNL     1      34.361 -20.340 -20.268  0.00  0.00    +0.017 C 
ATOM      8  C   UNL     1      33.493 -21.768 -18.541  0.00  0.00    +0.084 C 
ATOM      9  C   UNL     1      35.628 -20.631 -19.923  0.00  0.00    +0.074 C 
ATOM     10  C   UNL     1      34.794 -23.044 -17.040  0.00  0.00    +0.128 C 
ATOM     11  C   UNL     1      33.242 -20.921 -19.542  0.00  0.00    +0.016 C 
ATOM     12  C   UNL     1      33.336 -23.235 -16.780  0.00  0.00    +0.029 C 
ATOM     13  C   UNL     1      32.576 -22.482 -17.664  0.00  0.00    +0.142 C 
ATOM     14  C   UNL     1      35.914 -21.583 -18.791  0.00  0.00    +0.252 C 
ATOM     15  C   UNL     1      36.783 -20.013 -20.634  0.00  0.00    +0.239 C 
ATOM     16  C   UNL     1      35.211 -19.323 -22.409  0.00  0.00    +0.346 C 
ATOM     17  C   UNL     1      32.684 -24.003 -15.845  0.00  0.00    +0.002 C 
ATOM     18  C   UNL     1      31.280 -23.986 -15.834  0.00  0.00    +0.029 C 
ATOM     19  C   UNL     1      30.592 -23.179 -16.785  0.00  0.00    +0.114 C 
ATOM     20  C   UNL     1      30.557 -24.749 -14.904  0.00  0.00    +0.038 C 
ATOM     21  C   UNL     1      29.200 -23.179 -16.754  0.00  0.00    +0.088 C 
ATOM     22  C   UNL     1      29.164 -24.725 -14.901  0.00  0.00    +0.130 C 
ATOM     23  C   UNL     1      28.487 -23.941 -15.826  0.00  0.00    +0.018 C 
ENDROOT
BRANCH   6  24
ATOM     24  O   UNL     1      32.937 -19.768 -22.113  0.00  0.00    -0.373 OA
ATOM     25  H   UNL     1      32.177 -19.834 -21.513  0.00  0.00    +0.211 HD
ENDBRANCH   6  24
BRANCH  22  26
ATOM     26  O   UNL     1      28.470 -25.468 -13.998  0.00  0.00    -0.506 OA
ATOM     27  H   UNL     1      28.774 -26.322 -13.761  0.00  0.00    +0.292 HD
ENDBRANCH  22  26
BRANCH   6  28
ATOM     28  C   UNL     1      33.860 -17.945 -20.835  0.00  0.00    +0.042 C 
ATOM     29  C   UNL     1      34.950 -16.997 -21.289  0.00  0.00    +0.003 C 
ENDBRANCH   6  28
TORSDOF 3
ENDMDL
MODEL 7
REMARK VINA RESULT:      -8.9      7.281     11.101
REMARK  Name = 97226
REMARK  3 active torsions:
REMARK  status: ('A' for Active; 'I' for Inactive)
REMARK    1  A    between atoms: C_6  and  O_24
REMARK    2  A    between atoms: C_6  and  C_28
REMARK    3  A    between atoms: C_22  and  O_26
REMARK                            x       y       z     vdW  Elec       q    Type
REMARK                         _______ _______ _______ _____ _____    ______ ____
ROOT
ATOM      1  O   UNL     1      35.308 -18.075 -22.968  0.00  0.00    -0.442 OA
ATOM      2  O   UNL     1      34.246 -15.394 -26.065  0.00  0.00    -0.270 OA
ATOM      3  O   UNL     1      35.949 -18.207 -20.820  0.00  0.00    -0.247 OA
ATOM      4  N   UNL     1      33.747 -13.736 -24.533  0.00  0.00    -0.249 N 
ATOM      5  N   UNL     1      32.925 -11.181 -22.137  0.00  0.00    -0.405 NA
ATOM      6  C   UNL     1      34.296 -16.527 -21.349  0.00  0.00    +0.196 C 
ATOM      7  C   UNL     1      34.133 -15.556 -22.485  0.00  0.00    +0.017 C 
ATOM      8  C   UNL     1      33.570 -13.338 -23.219  0.00  0.00    +0.084 C 
ATOM      9  C   UNL     1      34.297 -15.973 -23.753  0.00  0.00    +0.074 C 
ATOM     10  C   UNL     1      33.492 -12.620 -25.466  0.00  0.00    +0.128 C 
ATOM     11  C   UNL     1      33.741 -14.183 -22.200  0.00  0.00    +0.016 C 
ATOM     12  C   UNL     1      33.140 -11.505 -24.536  0.00  0.00    +0.029 C 
ATOM     13  C   UNL     1      33.186 -11.933 -23.216  0.00  0.00    +0.142 C 
ATOM     14  C   UNL     1      34.100 -15.021 -24.904  0.00  0.00    +0.252 C 
ATOM     15  C   UNL     1      34.662 -17.385 -24.059  0.00  0.00    +0.239 C 
ATOM     16  C   UNL     1      35.264 -17.657 -21.681  0.00  0.00    +0.346 C 
ATOM     17  C   UNL     1      32.797 -10.198 -24.789  0.00  0.00    +0.002 C 
ATOM     18  C   UNL     1      32.512  -9.363 -23.698  0.00  0.00    +0.029 C 
ATOM     19  C   UNL     1      32.588  -9.899 -22.380  0.00  0.00    +0.114 C 
ATOM     20  C   UNL     1      32.156  -8.019 -23.891  0.00  0.00    +0.038 C 
ATOM     21  C   UNL     1      32.301  -9.051 -21.314  0.00  0.00    +0.088 C 
ATOM     22  C   UNL     1      31.875  -7.199 -22.802  0.00  0.00    +0.130 C 
ATOM     23  C   UNL     1      31.947  -7.714 -21.515  0.00  0.00    +0.018 C 
ENDROOT
BRANCH   6  24
ATOM     24  O   UNL     1      34.891 -15.865 -20.230  0.00  0.00    -0.373 OA
ATOM     25  H   UNL     1      34.419 -15.035 -20.058  0.00  0.00    +0.211 HD
ENDBRANCH   6  24
BRANCH  22  26
ATOM     26  O   UNL     1      31.532  -5.897 -22.998  0.00  0.00    -0.506 OA
ATOM     27  H   UNL     1      32.050  -5.355 -23.559  0.00  0.00    +0.292 HD
ENDBRANCH  22  26
BRANCH   6  28
ATOM     28  C   UNL     1      32.955 -17.124 -20.917  0.00  0.00    +0.042 C 
ATOM     29  C   UNL     1      31.999 -16.045 -20.450  0.00  0.00    +0.003 C 
ENDBRANCH   6  28
TORSDOF 3
ENDMDL
MODEL 8
REMARK VINA RESULT:      -8.8      8.237     12.873
REMARK  Name = 97226
REMARK  3 active torsions:
REMARK  status: ('A' for Active; 'I' for Inactive)
REMARK    1  A    between atoms: C_6  and  O_24
REMARK    2  A    between atoms: C_6  and  C_28
REMARK    3  A    between atoms: C_22  and  O_26
REMARK                            x       y       z     vdW  Elec       q    Type
REMARK                         _______ _______ _______ _____ _____    ______ ____
ROOT
ATOM      1  O   UNL     1      31.842  -7.636 -20.668  0.00  0.00    -0.442 OA
ATOM      2  O   UNL     1      31.507 -11.431 -18.826  0.00  0.00    -0.270 OA
ATOM      3  O   UNL     1      32.874  -6.495 -22.304  0.00  0.00    -0.247 OA
ATOM      4  N   UNL     1      32.351 -12.478 -20.707  0.00  0.00    -0.249 N 
ATOM      5  N   UNL     1      33.618 -14.101 -23.658  0.00  0.00    -0.405 NA
ATOM      6  C   UNL     1      32.234  -8.767 -22.815  0.00  0.00    +0.196 C 
ATOM      7  C   UNL     1      32.290 -10.057 -22.045  0.00  0.00    +0.017 C 
ATOM      8  C   UNL     1      32.760 -12.414 -22.029  0.00  0.00    +0.084 C 
ATOM      9  C   UNL     1      31.873 -10.095 -20.767  0.00  0.00    +0.074 C 
ATOM     10  C   UNL     1      32.461 -13.855 -20.184  0.00  0.00    +0.128 C 
ATOM     11  C   UNL     1      32.743 -11.268 -22.714  0.00  0.00    +0.016 C 
ATOM     12  C   UNL     1      32.988 -14.602 -21.365  0.00  0.00    +0.029 C 
ATOM     13  C   UNL     1      33.161 -13.750 -22.448  0.00  0.00    +0.142 C 
ATOM     14  C   UNL     1      31.888 -11.388 -19.994  0.00  0.00    +0.252 C 
ATOM     15  C   UNL     1      31.372  -8.869 -20.083  0.00  0.00    +0.239 C 
ATOM     16  C   UNL     1      32.363  -7.544 -21.915  0.00  0.00    +0.346 C 
ATOM     17  C   UNL     1      33.304 -15.930 -21.520  0.00  0.00    +0.002 C 
ATOM     18  C   UNL     1      33.786 -16.357 -22.767  0.00  0.00    +0.029 C 
ATOM     19  C   UNL     1      33.929 -15.404 -23.815  0.00  0.00    +0.114 C 
ATOM     20  C   UNL     1      34.126 -17.701 -22.988  0.00  0.00    +0.038 C 
ATOM     21  C   UNL     1      34.410 -15.850 -25.043  0.00  0.00    +0.088 C 
ATOM     22  C   UNL     1      34.605 -18.114 -24.229  0.00  0.00    +0.130 C 
ATOM     23  C   UNL     1      34.746 -17.190 -25.255  0.00  0.00    +0.018 C 
ENDROOT
BRANCH   6  24
ATOM     24  O   UNL     1      33.356  -8.682 -23.696  0.00  0.00    -0.373 OA
ATOM     25  H   UNL     1      34.047  -9.295 -23.399  0.00  0.00    +0.211 HD
ENDBRANCH   6  24
BRANCH  22  26
ATOM     26  O   UNL     1      34.933 -19.418 -24.434  0.00  0.00    -0.506 OA
ATOM     27  H   UNL     1      34.259 -20.057 -24.557  0.00  0.00    +0.292 HD
ENDBRANCH  22  26
BRANCH   6  28
ATOM     28  C   UNL     1      30.948  -8.654 -23.637  0.00  0.00    +0.042 C 
ATOM     29  C   UNL     1      30.891  -7.342 -24.391  0.00  0.00    +0.003 C 
ENDBRANCH   6  28
TORSDOF 3
ENDMDL
MODEL 9
REMARK VINA RESULT:      -8.8     12.732     18.466
REMARK  Name = 97226
REMARK  3 active torsions:
REMARK  status: ('A' for Active; 'I' for Inactive)
REMARK    1  A    between atoms: C_6  and  O_24
REMARK    2  A    between atoms: C_6  and  C_28
REMARK    3  A    between atoms: C_22  and  O_26
REMARK                            x       y       z     vdW  Elec       q    Type
REMARK                         _______ _______ _______ _____ _____    ______ ____
ROOT
ATOM      1  O   UNL     1      32.599  -1.786 -25.773  0.00  0.00    -0.442 OA
ATOM      2  O   UNL     1      30.529  -3.857 -22.718  0.00  0.00    -0.270 OA
ATOM      3  O   UNL     1      34.380  -1.867 -27.138  0.00  0.00    -0.247 OA
ATOM      4  N   UNL     1      31.509  -5.858 -23.336  0.00  0.00    -0.249 N 
ATOM      5  N   UNL     1      33.001  -8.974 -24.338  0.00  0.00    -0.405 NA
ATOM      6  C   UNL     1      33.224  -3.952 -26.750  0.00  0.00    +0.196 C 
ATOM      7  C   UNL     1      32.631  -4.596 -25.527  0.00  0.00    +0.017 C 
ATOM      8  C   UNL     1      32.290  -6.584 -24.220  0.00  0.00    +0.084 C 
ATOM      9  C   UNL     1      31.864  -3.872 -24.693  0.00  0.00    +0.074 C 
ATOM     10  C   UNL     1      31.008  -6.715 -22.242  0.00  0.00    +0.128 C 
ATOM     11  C   UNL     1      32.847  -6.016 -25.292  0.00  0.00    +0.016 C 
ATOM     12  C   UNL     1      31.593  -8.045 -22.590  0.00  0.00    +0.029 C 
ATOM     13  C   UNL     1      32.344  -7.962 -23.754  0.00  0.00    +0.142 C 
ATOM     14  C   UNL     1      31.232  -4.511 -23.484  0.00  0.00    +0.252 C 
ATOM     15  C   UNL     1      31.605  -2.425 -24.943  0.00  0.00    +0.239 C 
ATOM     16  C   UNL     1      33.467  -2.459 -26.564  0.00  0.00    +0.346 C 
ATOM     17  C   UNL     1      31.495  -9.262 -21.959  0.00  0.00    +0.002 C 
ATOM     18  C   UNL     1      32.162 -10.359 -22.526  0.00  0.00    +0.029 C 
ATOM     19  C   UNL     1      32.908 -10.170 -23.723  0.00  0.00    +0.114 C 
ATOM     20  C   UNL     1      32.100 -11.628 -21.928  0.00  0.00    +0.038 C 
ATOM     21  C   UNL     1      33.561 -11.273 -24.266  0.00  0.00    +0.088 C 
ATOM     22  C   UNL     1      32.766 -12.710 -22.498  0.00  0.00    +0.130 C 
ATOM     23  C   UNL     1      33.495 -12.533 -23.666  0.00  0.00    +0.018 C 
ENDROOT
BRANCH   6  24
ATOM     24  O   UNL     1      34.523  -4.497 -26.999  0.00  0.00    -0.373 OA
ATOM     25  H   UNL     1      34.459  -5.187 -27.678  0.00  0.00    +0.211 HD
ENDBRANCH   6  24
BRANCH  22  26
ATOM     26  O   UNL     1      32.702 -13.936 -21.912  0.00  0.00    -0.506 OA
ATOM     27  H   UNL     1      31.964 -14.493 -22.068  0.00  0.00    +0.292 HD
ENDBRANCH  22  26
BRANCH   6  28
ATOM     28  C   UNL     1      32.349  -4.171 -27.986  0.00  0.00    +0.042 C 
ATOM     29  C   UNL     1      33.192  -4.395 -29.224  0.00  0.00    +0.003 C 
ENDBRANCH   6  28
TORSDOF 3
ENDMDL
