MODEL 1
REMARK VINA RESULT:      -5.8      0.000      0.000
REMARK  Name = 657087
REMARK  7 active torsions:
REMARK  status: ('A' for Active; 'I' for Inactive)
REMARK    1  A    between atoms: C_1  and  N_2
REMARK    2  A    between atoms: C_1  and  CA_11
REMARK    3  A    between atoms: N_2  and  C_5
REMARK    4  A    between atoms: N_3  and  O_9
REMARK    5  A    between atoms: CA_11  and  N_12
REMARK    6  A    between atoms: CA_11  and  C_17
REMARK    7  A    between atoms: C_17  and  O_18
REMARK                            x       y       z     vdW  Elec       q    Type
REMARK                         _______ _______ _______ _____ _____    ______ ____
ROOT
ATOM      1  C   UNL     1      37.522 -23.911 -14.377  0.00  0.00    +0.118 C 
ENDROOT
BRANCH   1   2
ATOM      2  N   UNL     1      36.797 -24.645 -15.418  0.00  0.00    -0.240 NA
BRANCH   2   5
ATOM      3  N   UNL     1      35.977 -26.835 -15.286  0.00  0.00    -0.237 N 
ATOM      4  N   UNL     1      34.751 -25.198 -14.300  0.00  0.00    -0.368 N 
ATOM      5  C   UNL     1      35.891 -25.484 -15.022  0.00  0.00    +0.215 C 
ATOM      6  H   UNL     1      35.391 -27.486 -14.839  0.00  0.00    +0.197 HD
ATOM      7  H   UNL     1      34.555 -24.269 -14.037  0.00  0.00    +0.159 HD
ATOM      8  H   UNL     1      34.133 -25.921 -14.048  0.00  0.00    +0.159 HD
BRANCH   3   9
ATOM      9  O   UNL     1      36.924 -27.227 -16.207  0.00  0.00    -0.287 OA
ATOM     10  H   UNL     1      36.536 -27.214 -17.095  0.00  0.00    +0.244 HD
ENDBRANCH   3   9
ENDBRANCH   2   5
ENDBRANCH   1   2
BRANCH   1  11
ATOM     11  CA  UNL     1      38.206 -24.898 -13.433  0.00  0.00    +0.060 C 
BRANCH  11  12
ATOM     12  N   UNL     1      38.609 -24.203 -12.210  0.00  0.00    +0.390 N 
ATOM     13  H1  UNL     1      38.493 -23.197 -12.336  0.00  0.00    -0.088 HD
ATOM     14  H2  UNL     1      39.587 -24.410 -12.009  0.00  0.00    -0.088 HD
ATOM     15  H3  UNL     1      38.027 -24.518 -11.433  0.00  0.00    -0.088 HD
ENDBRANCH  11  12
BRANCH  11  17
ATOM     16  OXT UNL     1      40.577 -24.963 -14.018  0.00  0.00    -0.253 OA
ATOM     17  C   UNL     1      39.465 -25.473 -14.061  0.00  0.00    +0.295 C 
BRANCH  17  18
ATOM     18  O   UNL     1      39.226 -26.655 -14.689  0.00  0.00    -0.482 OA
ATOM     19  H   UNL     1      39.490 -26.774 -15.579  0.00  0.00    +0.295 HD
ENDBRANCH  17  18
ENDBRANCH  11  17
ENDBRANCH   1  11
TORSDOF 7
ENDMDL
MODEL 2
REMARK VINA RESULT:      -5.7      2.191      3.115
REMARK  Name = 657087
REMARK  7 active torsions:
REMARK  status: ('A' for Active; 'I' for Inactive)
REMARK    1  A    between atoms: C_1  and  N_2
REMARK    2  A    between atoms: C_1  and  CA_11
REMARK    3  A    between atoms: N_2  and  C_5
REMARK    4  A    between atoms: N_3  and  O_9
REMARK    5  A    between atoms: CA_11  and  N_12
REMARK    6  A    between atoms: CA_11  and  C_17
REMARK    7  A    between atoms: C_17  and  O_18
REMARK                            x       y       z     vdW  Elec       q    Type
REMARK                         _______ _______ _______ _____ _____    ______ ____
ROOT
ATOM      1  C   UNL     1      37.617 -24.937 -14.857  0.00  0.00    +0.118 C 
ENDROOT
BRANCH   1   2
ATOM      2  N   UNL     1      37.905 -23.662 -14.194  0.00  0.00    -0.240 NA
BRANCH   2   5
ATOM      3  N   UNL     1      37.543 -22.947 -11.994  0.00  0.00    -0.237 N 
ATOM      4  N   UNL     1      35.722 -23.182 -13.330  0.00  0.00    -0.368 N 
ATOM      5  C   UNL     1      37.095 -23.295 -13.251  0.00  0.00    +0.215 C 
ATOM      6  H   UNL     1      36.955 -22.503 -11.341  0.00  0.00    +0.197 HD
ATOM      7  H   UNL     1      35.258 -23.399 -14.170  0.00  0.00    +0.159 HD
ATOM      8  H   UNL     1      35.206 -22.886 -12.545  0.00  0.00    +0.159 HD
BRANCH   3   9
ATOM      9  O   UNL     1      38.854 -23.251 -11.697  0.00  0.00    -0.287 OA
ATOM     10  H   UNL     1      38.981 -24.211 -11.741  0.00  0.00    +0.244 HD
ENDBRANCH   3   9
ENDBRANCH   2   5
ENDBRANCH   1   2
BRANCH   1  11
ATOM     11  CA  UNL     1      38.647 -25.981 -14.432  0.00  0.00    +0.060 C 
BRANCH  11  12
ATOM     12  N   UNL     1      38.643 -26.105 -12.973  0.00  0.00    +0.390 N 
ATOM     13  H1  UNL     1      39.355 -25.490 -12.578  0.00  0.00    -0.088 HD
ATOM     14  H2  UNL     1      38.845 -27.070 -12.713  0.00  0.00    -0.088 HD
ATOM     15  H3  UNL     1      37.726 -25.839 -12.613  0.00  0.00    -0.088 HD
ENDBRANCH  11  12
BRANCH  11  17
ATOM     16  OXT UNL     1      40.641 -25.954 -15.844  0.00  0.00    -0.253 OA
ATOM     17  C   UNL     1      40.050 -25.566 -14.844  0.00  0.00    +0.295 C 
BRANCH  17  18
ATOM     18  O   UNL     1      40.598 -24.685 -13.966  0.00  0.00    -0.482 OA
ATOM     19  H   UNL     1      40.081 -24.338 -13.266  0.00  0.00    +0.295 HD
ENDBRANCH  17  18
ENDBRANCH  11  17
ENDBRANCH   1  11
TORSDOF 7
ENDMDL
MODEL 3
REMARK VINA RESULT:      -5.6      3.027      3.945
REMARK  Name = 657087
REMARK  7 active torsions:
REMARK  status: ('A' for Active; 'I' for Inactive)
REMARK    1  A    between atoms: C_1  and  N_2
REMARK    2  A    between atoms: C_1  and  CA_11
REMARK    3  A    between atoms: N_2  and  C_5
REMARK    4  A    between atoms: N_3  and  O_9
REMARK    5  A    between atoms: CA_11  and  N_12
REMARK    6  A    between atoms: CA_11  and  C_17
REMARK    7  A    between atoms: C_17  and  O_18
REMARK                            x       y       z     vdW  Elec       q    Type
REMARK                         _______ _______ _______ _____ _____    ______ ____
ROOT
ATOM      1  C   UNL     1      37.553 -25.916 -12.559  0.00  0.00    +0.118 C 
ENDROOT
BRANCH   1   2
ATOM      2  N   UNL     1      38.834 -25.873 -13.270  0.00  0.00    -0.240 NA
BRANCH   2   5
ATOM      3  N   UNL     1      39.885 -25.396 -15.307  0.00  0.00    -0.237 N 
ATOM      4  N   UNL     1      37.695 -25.991 -15.375  0.00  0.00    -0.368 N 
ATOM      5  C   UNL     1      38.785 -25.764 -14.561  0.00  0.00    +0.215 C 
ATOM      6  H   UNL     1      39.897 -25.485 -16.287  0.00  0.00    +0.197 HD
ATOM      7  H   UNL     1      36.834 -26.262 -14.980  0.00  0.00    +0.159 HD
ATOM      8  H   UNL     1      37.776 -25.882 -16.349  0.00  0.00    +0.159 HD
BRANCH   3   9
ATOM      9  O   UNL     1      40.967 -24.898 -14.613  0.00  0.00    -0.287 OA
ATOM     10  H   UNL     1      41.560 -24.438 -15.226  0.00  0.00    +0.244 HD
ENDBRANCH   3   9
ENDBRANCH   2   5
ENDBRANCH   1   2
BRANCH   1  11
ATOM     11  CA  UNL     1      37.132 -24.498 -12.175  0.00  0.00    +0.060 C 
BRANCH  11  12
ATOM     12  N   UNL     1      38.267 -23.800 -11.570  0.00  0.00    +0.390 N 
ATOM     13  H1  UNL     1      39.074 -24.424 -11.540  0.00  0.00    -0.088 HD
ATOM     14  H2  UNL     1      38.023 -23.514 -10.621  0.00  0.00    -0.088 HD
ATOM     15  H3  UNL     1      38.494 -22.975 -12.126  0.00  0.00    -0.088 HD
ENDBRANCH  11  12
BRANCH  11  17
ATOM     16  OXT UNL     1      36.117 -24.166  -9.977  0.00  0.00    -0.253 OA
ATOM     17  C   UNL     1      36.015 -24.520 -11.144  0.00  0.00    +0.295 C 
BRANCH  17  18
ATOM     18  O   UNL     1      34.848 -24.980 -11.669  0.00  0.00    -0.482 OA
ATOM     19  H   UNL     1      34.040 -24.827 -11.220  0.00  0.00    +0.295 HD
ENDBRANCH  17  18
ENDBRANCH  11  17
ENDBRANCH   1  11
TORSDOF 7
ENDMDL
MODEL 4
REMARK VINA RESULT:      -5.5      2.539      3.567
REMARK  Name = 657087
REMARK  7 active torsions:
REMARK  status: ('A' for Active; 'I' for Inactive)
REMARK    1  A    between atoms: C_1  and  N_2
REMARK    2  A    between atoms: C_1  and  CA_11
REMARK    3  A    between atoms: N_2  and  C_5
REMARK    4  A    between atoms: N_3  and  O_9
REMARK    5  A    between atoms: CA_11  and  N_12
REMARK    6  A    between atoms: CA_11  and  C_17
REMARK    7  A    between atoms: C_17  and  O_18
REMARK                            x       y       z     vdW  Elec       q    Type
REMARK                         _______ _______ _______ _____ _____    ______ ____
ROOT
ATOM      1  C   UNL     1      37.291 -24.016 -14.213  0.00  0.00    +0.118 C 
ENDROOT
BRANCH   1   2
ATOM      2  N   UNL     1      36.237 -23.487 -13.343  0.00  0.00    -0.240 NA
BRANCH   2   5
ATOM      3  N   UNL     1      35.793 -24.395 -11.231  0.00  0.00    -0.237 N 
ATOM      4  N   UNL     1      37.351 -22.747 -11.354  0.00  0.00    -0.368 N 
ATOM      5  C   UNL     1      36.458 -23.522 -12.066  0.00  0.00    +0.215 C 
ATOM      6  H   UNL     1      36.084 -24.544 -10.302  0.00  0.00    +0.197 HD
ATOM      7  H   UNL     1      37.899 -22.075 -11.819  0.00  0.00    +0.159 HD
ATOM      8  H   UNL     1      37.439 -22.866 -10.381  0.00  0.00    +0.159 HD
BRANCH   3   9
ATOM      9  O   UNL     1      34.701 -25.048 -11.759  0.00  0.00    -0.287 OA
ATOM     10  H   UNL     1      34.399 -25.728 -11.138  0.00  0.00    +0.244 HD
ENDBRANCH   3   9
ENDBRANCH   2   5
ENDBRANCH   1   2
BRANCH   1  11
ATOM     11  CA  UNL     1      36.812 -25.310 -14.870  0.00  0.00    +0.060 C 
BRANCH  11  12
ATOM     12  N   UNL     1      35.356 -25.404 -14.757  0.00  0.00    +0.390 N 
ATOM     13  H1  UNL     1      34.984 -24.520 -14.408  0.00  0.00    -0.088 HD
ATOM     14  H2  UNL     1      35.113 -26.154 -14.109  0.00  0.00    -0.088 HD
ATOM     15  H3  UNL     1      34.956 -25.603 -15.674  0.00  0.00    -0.088 HD
ENDBRANCH  11  12
BRANCH  11  17
ATOM     16  OXT UNL     1      38.296 -27.234 -14.611  0.00  0.00    -0.253 OA
ATOM     17  C   UNL     1      37.398 -26.527 -14.173  0.00  0.00    +0.295 C 
BRANCH  17  18
ATOM     18  O   UNL     1      36.809 -26.754 -12.968  0.00  0.00    -0.482 OA
ATOM     19  H   UNL     1      36.417 -27.585 -12.788  0.00  0.00    +0.295 HD
ENDBRANCH  17  18
ENDBRANCH  11  17
ENDBRANCH   1  11
TORSDOF 7
ENDMDL
MODEL 5
REMARK VINA RESULT:      -5.5      2.769      3.427
REMARK  Name = 657087
REMARK  7 active torsions:
REMARK  status: ('A' for Active; 'I' for Inactive)
REMARK    1  A    between atoms: C_1  and  N_2
REMARK    2  A    between atoms: C_1  and  CA_11
REMARK    3  A    between atoms: N_2  and  C_5
REMARK    4  A    between atoms: N_3  and  O_9
REMARK    5  A    between atoms: CA_11  and  N_12
REMARK    6  A    between atoms: CA_11  and  C_17
REMARK    7  A    between atoms: C_17  and  O_18
REMARK                            x       y       z     vdW  Elec       q    Type
REMARK                         _______ _______ _______ _____ _____    ______ ____
ROOT
ATOM      1  C   UNL     1      38.237 -25.096 -12.332  0.00  0.00    +0.118 C 
ENDROOT
BRANCH   1   2
ATOM      2  N   UNL     1      37.941 -26.191 -13.260  0.00  0.00    -0.240 NA
BRANCH   2   5
ATOM      3  N   UNL     1      37.068 -26.188 -15.432  0.00  0.00    -0.237 N 
ATOM      4  N   UNL     1      39.183 -25.411 -15.155  0.00  0.00    -0.368 N 
ATOM      5  C   UNL     1      38.077 -25.942 -14.525  0.00  0.00    +0.215 C 
ATOM      6  H   UNL     1      37.104 -25.838 -16.352  0.00  0.00    +0.197 HD
ATOM      7  H   UNL     1      39.985 -25.184 -14.631  0.00  0.00    +0.159 HD
ATOM      8  H   UNL     1      39.171 -25.259 -16.127  0.00  0.00    +0.159 HD
BRANCH   3   9
ATOM      9  O   UNL     1      36.006 -26.947 -14.989  0.00  0.00    -0.287 OA
ATOM     10  H   UNL     1      35.732 -26.639 -14.112  0.00  0.00    +0.244 HD
ENDBRANCH   3   9
ENDBRANCH   2   5
ENDBRANCH   1   2
BRANCH   1  11
ATOM     11  CA  UNL     1      37.079 -24.100 -12.327  0.00  0.00    +0.060 C 
BRANCH  11  12
ATOM     12  N   UNL     1      37.316 -23.082 -11.302  0.00  0.00    +0.390 N 
ATOM     13  H1  UNL     1      37.285 -23.516 -10.379  0.00  0.00    -0.088 HD
ATOM     14  H2  UNL     1      36.594 -22.364 -11.364  0.00  0.00    -0.088 HD
ATOM     15  H3  UNL     1      38.232 -22.659 -11.449  0.00  0.00    -0.088 HD
ENDBRANCH  11  12
BRANCH  11  17
ATOM     16  OXT UNL     1      35.396 -25.088 -10.856  0.00  0.00    -0.253 OA
ATOM     17  C   UNL     1      35.768 -24.788 -11.983  0.00  0.00    +0.295 C 
BRANCH  17  18
ATOM     18  O   UNL     1      35.020 -25.039 -13.091  0.00  0.00    -0.482 OA
ATOM     19  H   UNL     1      34.166 -24.664 -13.174  0.00  0.00    +0.295 HD
ENDBRANCH  17  18
ENDBRANCH  11  17
ENDBRANCH   1  11
TORSDOF 7
ENDMDL
MODEL 6
REMARK VINA RESULT:      -5.5      2.741      3.643
REMARK  Name = 657087
REMARK  7 active torsions:
REMARK  status: ('A' for Active; 'I' for Inactive)
REMARK    1  A    between atoms: C_1  and  N_2
REMARK    2  A    between atoms: C_1  and  CA_11
REMARK    3  A    between atoms: N_2  and  C_5
REMARK    4  A    between atoms: N_3  and  O_9
REMARK    5  A    between atoms: CA_11  and  N_12
REMARK    6  A    between atoms: CA_11  and  C_17
REMARK    7  A    between atoms: C_17  and  O_18
REMARK                            x       y       z     vdW  Elec       q    Type
REMARK                         _______ _______ _______ _____ _____    ______ ____
ROOT
ATOM      1  C   UNL     1      37.906 -25.886 -12.294  0.00  0.00    +0.118 C 
ENDROOT
BRANCH   1   2
ATOM      2  N   UNL     1      37.956 -26.304 -13.698  0.00  0.00    -0.240 NA
BRANCH   2   5
ATOM      3  N   UNL     1      38.837 -24.872 -15.328  0.00  0.00    -0.237 N 
ATOM      4  N   UNL     1      40.264 -26.339 -14.343  0.00  0.00    -0.368 N 
ATOM      5  C   UNL     1      38.962 -25.884 -14.399  0.00  0.00    +0.215 C 
ATOM      6  H   UNL     1      39.625 -24.437 -15.727  0.00  0.00    +0.197 HD
ATOM      7  H   UNL     1      40.505 -27.064 -13.723  0.00  0.00    +0.159 HD
ATOM      8  H   UNL     1      40.950 -25.939 -14.923  0.00  0.00    +0.159 HD
BRANCH   3   9
ATOM      9  O   UNL     1      37.555 -24.498 -15.669  0.00  0.00    -0.287 OA
ATOM     10  H   UNL     1      37.445 -23.547 -15.521  0.00  0.00    +0.244 HD
ENDBRANCH   3   9
ENDBRANCH   2   5
ENDBRANCH   1   2
BRANCH   1  11
ATOM     11  CA  UNL     1      36.739 -24.922 -12.086  0.00  0.00    +0.060 C 
BRANCH  11  12
ATOM     12  N   UNL     1      35.803 -25.042 -13.204  0.00  0.00    +0.390 N 
ATOM     13  H1  UNL     1      36.137 -25.756 -13.852  0.00  0.00    -0.088 HD
ATOM     14  H2  UNL     1      35.737 -24.147 -13.690  0.00  0.00    -0.088 HD
ATOM     15  H3  UNL     1      34.883 -25.306 -12.851  0.00  0.00    -0.088 HD
ENDBRANCH  11  12
BRANCH  11  17
ATOM     16  OXT UNL     1      37.312 -22.785 -11.050  0.00  0.00    -0.253 OA
ATOM     17  C   UNL     1      37.219 -23.480 -12.053  0.00  0.00    +0.295 C 
BRANCH  17  18
ATOM     18  O   UNL     1      37.554 -23.028 -13.291  0.00  0.00    -0.482 OA
ATOM     19  H   UNL     1      37.127 -22.273 -13.645  0.00  0.00    +0.295 HD
ENDBRANCH  17  18
ENDBRANCH  11  17
ENDBRANCH   1  11
TORSDOF 7
ENDMDL
MODEL 7
REMARK VINA RESULT:      -5.4      3.014      3.362
REMARK  Name = 657087
REMARK  7 active torsions:
REMARK  status: ('A' for Active; 'I' for Inactive)
REMARK    1  A    between atoms: C_1  and  N_2
REMARK    2  A    between atoms: C_1  and  CA_11
REMARK    3  A    between atoms: N_2  and  C_5
REMARK    4  A    between atoms: N_3  and  O_9
REMARK    5  A    between atoms: CA_11  and  N_12
REMARK    6  A    between atoms: CA_11  and  C_17
REMARK    7  A    between atoms: C_17  and  O_18
REMARK                            x       y       z     vdW  Elec       q    Type
REMARK                         _______ _______ _______ _____ _____    ______ ____
ROOT
ATOM      1  C   UNL     1      36.477 -23.280 -13.312  0.00  0.00    +0.118 C 
ENDROOT
BRANCH   1   2
ATOM      2  N   UNL     1      37.346 -24.226 -14.018  0.00  0.00    -0.240 NA
BRANCH   2   5
ATOM      3  N   UNL     1      37.484 -26.195 -15.279  0.00  0.00    -0.237 N 
ATOM      4  N   UNL     1      35.413 -25.477 -14.683  0.00  0.00    -0.368 N 
ATOM      5  C   UNL     1      36.767 -25.221 -14.615  0.00  0.00    +0.215 C 
ATOM      6  H   UNL     1      37.062 -27.034 -15.576  0.00  0.00    +0.197 HD
ATOM      7  H   UNL     1      34.774 -24.864 -14.253  0.00  0.00    +0.159 HD
ATOM      8  H   UNL     1      35.086 -26.272 -15.163  0.00  0.00    +0.159 HD
BRANCH   3   9
ATOM      9  O   UNL     1      38.818 -25.936 -15.507  0.00  0.00    -0.287 OA
ATOM     10  H   UNL     1      39.348 -26.698 -15.228  0.00  0.00    +0.244 HD
ENDBRANCH   3   9
ENDBRANCH   2   5
ENDBRANCH   1   2
BRANCH   1  11
ATOM     11  CA  UNL     1      36.794 -23.308 -11.818  0.00  0.00    +0.060 C 
BRANCH  11  12
ATOM     12  N   UNL     1      38.147 -23.828 -11.616  0.00  0.00    +0.390 N 
ATOM     13  H1  UNL     1      38.177 -24.812 -11.885  0.00  0.00    -0.088 HD
ATOM     14  H2  UNL     1      38.403 -23.736 -10.633  0.00  0.00    -0.088 HD
ATOM     15  H3  UNL     1      38.803 -23.298 -12.190  0.00  0.00    -0.088 HD
ENDBRANCH  11  12
BRANCH  11  17
ATOM     16  OXT UNL     1      34.974 -24.923 -11.591  0.00  0.00    -0.253 OA
ATOM     17  C   UNL     1      35.842 -24.231 -11.075  0.00  0.00    +0.295 C 
BRANCH  17  18
ATOM     18  O   UNL     1      36.064 -24.217  -9.733  0.00  0.00    -0.482 OA
ATOM     19  H   UNL     1      35.410 -24.543  -9.147  0.00  0.00    +0.295 HD
ENDBRANCH  17  18
ENDBRANCH  11  17
ENDBRANCH   1  11
TORSDOF 7
ENDMDL
MODEL 8
REMARK VINA RESULT:      -5.3      2.882      3.054
REMARK  Name = 657087
REMARK  7 active torsions:
REMARK  status: ('A' for Active; 'I' for Inactive)
REMARK    1  A    between atoms: C_1  and  N_2
REMARK    2  A    between atoms: C_1  and  CA_11
REMARK    3  A    between atoms: N_2  and  C_5
REMARK    4  A    between atoms: N_3  and  O_9
REMARK    5  A    between atoms: CA_11  and  N_12
REMARK    6  A    between atoms: CA_11  and  C_17
REMARK    7  A    between atoms: C_17  and  O_18
REMARK                            x       y       z     vdW  Elec       q    Type
REMARK                         _______ _______ _______ _____ _____    ______ ____
ROOT
ATOM      1  C   UNL     1      37.339 -24.301 -14.218  0.00  0.00    +0.118 C 
ENDROOT
BRANCH   1   2
ATOM      2  N   UNL     1      36.157 -23.579 -13.738  0.00  0.00    -0.240 NA
BRANCH   2   5
ATOM      3  N   UNL     1      34.126 -24.630 -13.234  0.00  0.00    -0.237 N 
ATOM      4  N   UNL     1      34.464 -23.986 -15.385  0.00  0.00    -0.368 N 
ATOM      5  C   UNL     1      35.001 -24.030 -14.115  0.00  0.00    +0.215 C 
ATOM      6  H   UNL     1      33.189 -24.809 -13.479  0.00  0.00    +0.197 HD
ATOM      7  H   UNL     1      34.978 -23.584 -16.123  0.00  0.00    +0.159 HD
ATOM      8  H   UNL     1      33.569 -24.356 -15.555  0.00  0.00    +0.159 HD
BRANCH   3   9
ATOM      9  O   UNL     1      34.627 -24.968 -11.995  0.00  0.00    -0.287 OA
ATOM     10  H   UNL     1      33.894 -25.087 -11.372  0.00  0.00    +0.244 HD
ENDBRANCH   3   9
ENDBRANCH   2   5
ENDBRANCH   1   2
BRANCH   1  11
ATOM     11  CA  UNL     1      38.086 -24.909 -13.032  0.00  0.00    +0.060 C 
BRANCH  11  12
ATOM     12  N   UNL     1      37.411 -26.137 -12.609  0.00  0.00    +0.390 N 
ATOM     13  H1  UNL     1      36.521 -26.223 -13.101  0.00  0.00    -0.088 HD
ATOM     14  H2  UNL     1      37.240 -26.101 -11.604  0.00  0.00    -0.088 HD
ATOM     15  H3  UNL     1      37.999 -26.941 -12.826  0.00  0.00    -0.088 HD
ENDBRANCH  11  12
BRANCH  11  17
ATOM     16  OXT UNL     1      38.844 -23.012 -11.692  0.00  0.00    -0.253 OA
ATOM     17  C   UNL     1      38.087 -23.962 -11.843  0.00  0.00    +0.295 C 
BRANCH  17  18
ATOM     18  O   UNL     1      37.126 -24.283 -10.937  0.00  0.00    -0.482 OA
ATOM     19  H   UNL     1      36.638 -23.606 -10.512  0.00  0.00    +0.295 HD
ENDBRANCH  17  18
ENDBRANCH  11  17
ENDBRANCH   1  11
TORSDOF 7
ENDMDL
MODEL 9
REMARK VINA RESULT:      -5.2     10.466     11.771
REMARK  Name = 657087
REMARK  7 active torsions:
REMARK  status: ('A' for Active; 'I' for Inactive)
REMARK    1  A    between atoms: C_1  and  N_2
REMARK    2  A    between atoms: C_1  and  CA_11
REMARK    3  A    between atoms: N_2  and  C_5
REMARK    4  A    between atoms: N_3  and  O_9
REMARK    5  A    between atoms: CA_11  and  N_12
REMARK    6  A    between atoms: CA_11  and  C_17
REMARK    7  A    between atoms: C_17  and  O_18
REMARK                            x       y       z     vdW  Elec       q    Type
REMARK                         _______ _______ _______ _____ _____    ______ ____
ROOT
ATOM      1  C   UNL     1      41.653 -14.930 -18.334  0.00  0.00    +0.118 C 
ENDROOT
BRANCH   1   2
ATOM      2  N   UNL     1      40.911 -14.458 -17.161  0.00  0.00    -0.240 NA
BRANCH   2   5
ATOM      3  N   UNL     1      41.424 -13.549 -15.065  0.00  0.00    -0.237 N 
ATOM      4  N   UNL     1      42.187 -12.446 -16.897  0.00  0.00    -0.368 N 
ATOM      5  C   UNL     1      41.473 -13.536 -16.443  0.00  0.00    +0.215 C 
ATOM      6  H   UNL     1      41.993 -12.956 -14.522  0.00  0.00    +0.197 HD
ATOM      7  H   UNL     1      42.306 -12.304 -17.864  0.00  0.00    +0.159 HD
ATOM      8  H   UNL     1      42.576 -11.810 -16.255  0.00  0.00    +0.159 HD
BRANCH   3   9
ATOM      9  O   UNL     1      40.539 -14.432 -14.484  0.00  0.00    -0.287 OA
ATOM     10  H   UNL     1      41.030 -15.155 -14.066  0.00  0.00    +0.244 HD
ENDBRANCH   3   9
ENDBRANCH   2   5
ENDBRANCH   1   2
BRANCH   1  11
ATOM     11  CA  UNL     1      42.658 -15.999 -17.910  0.00  0.00    +0.060 C 
BRANCH  11  12
ATOM     12  N   UNL     1      43.016 -16.818 -19.069  0.00  0.00    +0.390 N 
ATOM     13  H1  UNL     1      43.205 -16.212 -19.868  0.00  0.00    -0.088 HD
ATOM     14  H2  UNL     1      42.244 -17.446 -19.293  0.00  0.00    -0.088 HD
ATOM     15  H3  UNL     1      43.849 -17.366 -18.853  0.00  0.00    -0.088 HD
ENDBRANCH  11  12
BRANCH  11  17
ATOM     16  OXT UNL     1      41.358 -17.905 -17.105  0.00  0.00    -0.253 OA
ATOM     17  C   UNL     1      42.059 -16.930 -16.868  0.00  0.00    +0.295 C 
BRANCH  17  18
ATOM     18  O   UNL     1      42.399 -16.563 -15.604  0.00  0.00    -0.482 OA
ATOM     19  H   UNL     1      41.995 -15.816 -15.208  0.00  0.00    +0.295 HD
ENDBRANCH  17  18
ENDBRANCH  11  17
ENDBRANCH   1  11
TORSDOF 7
ENDMDL
