MODEL 1
REMARK VINA RESULT:      -9.9      0.000      0.000
REMARK  Name = 46191454
REMARK  3 active torsions:
REMARK  status: ('A' for Active; 'I' for Inactive)
REMARK    1  A    between atoms: C_11  and  C_19
REMARK    2  A    between atoms: C_15  and  C_26
REMARK    3  A    between atoms: C_26  and  C_27
REMARK                            x       y       z     vdW  Elec       q    Type
REMARK                         _______ _______ _______ _____ _____    ______ ____
ROOT
ATOM      1  O   UNL     1      34.162 -24.778 -12.367  0.00  0.00    -0.275 OA
ATOM      2  O   UNL     1      32.528 -21.181 -20.442  0.00  0.00    -0.275 OA
ATOM      3  N   UNL     1      33.982 -23.828 -14.482  0.00  0.00    -0.274 N 
ATOM      4  N   UNL     1      31.301 -22.891 -16.718  0.00  0.00    -0.277 N 
ATOM      5  N   UNL     1      31.752 -22.357 -17.880  0.00  0.00    -0.158 NA
ATOM      6  N   UNL     1      33.957 -21.918 -18.720  0.00  0.00    -0.268 N 
ATOM      7  C   UNL     1      32.462 -23.837 -14.555  0.00  0.00    +0.095 C 
ATOM      8  C   UNL     1      32.315 -23.235 -15.897  0.00  0.00    +0.068 A 
ATOM      9  C   UNL     1      34.643 -23.256 -15.709  0.00  0.00    +0.124 C 
ATOM     10  C   UNL     1      33.479 -22.920 -16.525  0.00  0.00    +0.046 A 
ATOM     11  C   UNL     1      34.684 -24.307 -13.379  0.00  0.00    +0.225 C 
ATOM     12  C   UNL     1      31.839 -22.947 -13.478  0.00  0.00    +0.026 C 
ATOM     13  C   UNL     1      31.903 -25.260 -14.523  0.00  0.00    +0.026 C 
ATOM     14  C   UNL     1      33.092 -22.380 -17.748  0.00  0.00    +0.152 A 
ATOM     15  C   UNL     1      33.650 -21.358 -19.981  0.00  0.00    +0.227 C 
ATOM     16  H   UNL     1      30.348 -23.015 -16.500  0.00  0.00    +0.189 HD
ATOM     17  H   UNL     1      34.915 -21.987 -18.505  0.00  0.00    +0.156 HD
ENDROOT
BRANCH  11  19
ATOM     18  N   UNL     1      38.723 -25.652 -13.625  0.00  0.00    +0.386 N 
ATOM     19  C   UNL     1      36.176 -24.223 -13.478  0.00  0.00    +0.073 C 
ATOM     20  C   UNL     1      36.823 -24.862 -12.251  0.00  0.00    -0.014 C 
ATOM     21  C   UNL     1      36.645 -24.924 -14.752  0.00  0.00    -0.014 C 
ATOM     22  C   UNL     1      38.345 -24.934 -12.400  0.00  0.00    -0.077 C 
ATOM     23  C   UNL     1      38.171 -24.995 -14.818  0.00  0.00    -0.077 C 
ATOM     24  C   UNL     1      40.179 -25.757 -13.726  0.00  0.00    -0.101 C 
ATOM     25  H   UNL     1      38.330 -26.591 -13.574  0.00  0.00    -0.080 HD
ENDBRANCH  11  19
BRANCH  15  26
ATOM     26  C   UNL     1      34.912 -21.007 -20.765  0.00  0.00    +0.085 C 
BRANCH  26  27
ATOM     27  C   UNL     1      35.025 -19.519 -21.127  0.00  0.00    +0.009 C 
ATOM     28  C   UNL     1      34.583 -19.295 -22.574  0.00  0.00    +0.001 C 
ATOM     29  C   UNL     1      36.457 -19.008 -20.941  0.00  0.00    +0.001 C 
ENDBRANCH  26  27
ENDBRANCH  15  26
TORSDOF 3
ENDMDL
MODEL 2
REMARK VINA RESULT:      -9.9      2.372      5.464
REMARK  Name = 46191454
REMARK  3 active torsions:
REMARK  status: ('A' for Active; 'I' for Inactive)
REMARK    1  A    between atoms: C_11  and  C_19
REMARK    2  A    between atoms: C_15  and  C_26
REMARK    3  A    between atoms: C_26  and  C_27
REMARK                            x       y       z     vdW  Elec       q    Type
REMARK                         _______ _______ _______ _____ _____    ______ ____
ROOT
ATOM      1  O   UNL     1      32.744 -25.052 -13.868  0.00  0.00    -0.275 OA
ATOM      2  O   UNL     1      37.205 -20.450 -20.170  0.00  0.00    -0.275 OA
ATOM      3  N   UNL     1      33.681 -23.828 -15.608  0.00  0.00    -0.274 N 
ATOM      4  N   UNL     1      36.992 -22.731 -16.558  0.00  0.00    -0.277 N 
ATOM      5  N   UNL     1      36.994 -22.013 -17.709  0.00  0.00    -0.158 NA
ATOM      6  N   UNL     1      35.248 -21.347 -19.213  0.00  0.00    -0.268 N 
ATOM      7  C   UNL     1      35.123 -23.906 -15.127  0.00  0.00    +0.095 C 
ATOM      8  C   UNL     1      35.748 -23.132 -16.220  0.00  0.00    +0.068 A 
ATOM      9  C   UNL     1      33.512 -23.057 -16.891  0.00  0.00    +0.124 C 
ATOM     10  C   UNL     1      34.894 -22.671 -17.171  0.00  0.00    +0.046 A 
ATOM     11  C   UNL     1      32.626 -24.418 -14.918  0.00  0.00    +0.225 C 
ATOM     12  C   UNL     1      35.635 -25.346 -15.106  0.00  0.00    +0.026 C 
ATOM     13  C   UNL     1      35.307 -23.208 -13.779  0.00  0.00    +0.026 C 
ATOM     14  C   UNL     1      35.699 -21.985 -18.075  0.00  0.00    +0.152 A 
ATOM     15  C   UNL     1      35.993 -20.632 -20.179  0.00  0.00    +0.227 C 
ATOM     16  H   UNL     1      37.799 -22.935 -16.032  0.00  0.00    +0.189 HD
ATOM     17  H   UNL     1      34.278 -21.398 -19.374  0.00  0.00    +0.156 HD
ENDROOT
BRANCH  11  19
ATOM     18  N   UNL     1      28.662 -22.930 -15.418  0.00  0.00    +0.386 N 
ATOM     19  C   UNL     1      31.273 -24.241 -15.534  0.00  0.00    +0.073 C 
ATOM     20  C   UNL     1      30.185 -24.677 -14.554  0.00  0.00    -0.014 C 
ATOM     21  C   UNL     1      31.077 -22.778 -15.929  0.00  0.00    -0.014 C 
ATOM     22  C   UNL     1      28.790 -24.358 -15.096  0.00  0.00    -0.077 C 
ATOM     23  C   UNL     1      29.654 -22.522 -16.423  0.00  0.00    -0.077 C 
ATOM     24  C   UNL     1      27.308 -22.632 -15.886  0.00  0.00    -0.101 C 
ATOM     25  H   UNL     1      28.839 -22.397 -14.568  0.00  0.00    -0.080 HD
ENDBRANCH  11  19
BRANCH  15  26
ATOM     26  C   UNL     1      35.094 -20.052 -21.268  0.00  0.00    +0.085 C 
BRANCH  26  27
ATOM     27  C   UNL     1      35.652 -18.780 -21.923  0.00  0.00    +0.009 C 
ATOM     28  C   UNL     1      35.151 -17.542 -21.177  0.00  0.00    +0.001 C 
ATOM     29  C   UNL     1      35.251 -18.691 -23.398  0.00  0.00    +0.001 C 
ENDBRANCH  26  27
ENDBRANCH  15  26
TORSDOF 3
ENDMDL
MODEL 3
REMARK VINA RESULT:      -9.1      1.646      6.954
REMARK  Name = 46191454
REMARK  3 active torsions:
REMARK  status: ('A' for Active; 'I' for Inactive)
REMARK    1  A    between atoms: C_11  and  C_19
REMARK    2  A    between atoms: C_15  and  C_26
REMARK    3  A    between atoms: C_26  and  C_27
REMARK                            x       y       z     vdW  Elec       q    Type
REMARK                         _______ _______ _______ _____ _____    ______ ____
ROOT
ATOM      1  O   UNL     1      31.535 -22.476 -17.863  0.00  0.00    -0.275 OA
ATOM      2  O   UNL     1      37.013 -25.689 -11.502  0.00  0.00    -0.275 OA
ATOM      3  N   UNL     1      33.137 -23.264 -16.373  0.00  0.00    -0.274 N 
ATOM      4  N   UNL     1      33.158 -24.650 -13.035  0.00  0.00    -0.277 N 
ATOM      5  N   UNL     1      34.407 -24.958 -12.605  0.00  0.00    -0.158 NA
ATOM      6  N   UNL     1      36.571 -24.765 -13.623  0.00  0.00    -0.268 N 
ATOM      7  C   UNL     1      32.175 -23.627 -15.250  0.00  0.00    +0.095 C 
ATOM      8  C   UNL     1      33.170 -24.134 -14.282  0.00  0.00    +0.068 A 
ATOM      9  C   UNL     1      34.581 -23.550 -16.050  0.00  0.00    +0.124 C 
ATOM     10  C   UNL     1      34.463 -24.097 -14.699  0.00  0.00    +0.046 A 
ATOM     11  C   UNL     1      32.710 -22.717 -17.580  0.00  0.00    +0.225 C 
ATOM     12  C   UNL     1      31.203 -24.729 -15.673  0.00  0.00    +0.026 C 
ATOM     13  C   UNL     1      31.452 -22.395 -14.706  0.00  0.00    +0.026 C 
ATOM     14  C   UNL     1      35.199 -24.614 -13.637  0.00  0.00    +0.152 A 
ATOM     15  C   UNL     1      37.392 -25.278 -12.592  0.00  0.00    +0.227 C 
ATOM     16  H   UNL     1      32.341 -24.786 -12.502  0.00  0.00    +0.189 HD
ATOM     17  H   UNL     1      37.040 -24.478 -14.439  0.00  0.00    +0.156 HD
ENDROOT
BRANCH  11  19
ATOM     18  N   UNL     1      35.723 -20.483 -19.609  0.00  0.00    +0.386 N 
ATOM     19  C   UNL     1      33.792 -22.419 -18.571  0.00  0.00    +0.073 C 
ATOM     20  C   UNL     1      33.378 -21.258 -19.473  0.00  0.00    -0.014 C 
ATOM     21  C   UNL     1      35.086 -22.082 -17.832  0.00  0.00    -0.014 C 
ATOM     22  C   UNL     1      34.526 -20.828 -20.388  0.00  0.00    -0.077 C 
ATOM     23  C   UNL     1      36.177 -21.624 -18.800  0.00  0.00    -0.077 C 
ATOM     24  C   UNL     1      36.794 -20.026 -20.494  0.00  0.00    -0.101 C 
ATOM     25  H   UNL     1      35.478 -19.726 -18.973  0.00  0.00    -0.080 HD
ENDBRANCH  11  19
BRANCH  15  26
ATOM     26  C   UNL     1      38.869 -25.238 -12.976  0.00  0.00    +0.085 C 
BRANCH  26  27
ATOM     27  C   UNL     1      39.138 -25.576 -14.450  0.00  0.00    +0.009 C 
ATOM     28  C   UNL     1      40.520 -26.213 -14.599  0.00  0.00    +0.001 C 
ATOM     29  C   UNL     1      39.047 -24.328 -15.332  0.00  0.00    +0.001 C 
ENDBRANCH  26  27
ENDBRANCH  15  26
TORSDOF 3
ENDMDL
MODEL 4
REMARK VINA RESULT:      -8.8      3.200      6.895
REMARK  Name = 46191454
REMARK  3 active torsions:
REMARK  status: ('A' for Active; 'I' for Inactive)
REMARK    1  A    between atoms: C_11  and  C_19
REMARK    2  A    between atoms: C_15  and  C_26
REMARK    3  A    between atoms: C_26  and  C_27
REMARK                            x       y       z     vdW  Elec       q    Type
REMARK                         _______ _______ _______ _____ _____    ______ ____
ROOT
ATOM      1  O   UNL     1      36.909 -22.523 -17.439  0.00  0.00    -0.275 OA
ATOM      2  O   UNL     1      28.439 -24.325 -15.027  0.00  0.00    -0.275 OA
ATOM      3  N   UNL     1      34.650 -22.894 -17.031  0.00  0.00    -0.274 N 
ATOM      4  N   UNL     1      32.663 -24.284 -14.351  0.00  0.00    -0.277 N 
ATOM      5  N   UNL     1      31.334 -24.270 -14.625  0.00  0.00    -0.158 NA
ATOM      6  N   UNL     1      30.071 -23.507 -16.517  0.00  0.00    -0.268 N 
ATOM      7  C   UNL     1      34.816 -23.513 -15.651  0.00  0.00    +0.095 C 
ATOM      8  C   UNL     1      33.388 -23.762 -15.362  0.00  0.00    +0.068 A 
ATOM      9  C   UNL     1      33.216 -22.804 -17.486  0.00  0.00    +0.124 C 
ATOM     10  C   UNL     1      32.521 -23.386 -16.339  0.00  0.00    +0.046 A 
ATOM     11  C   UNL     1      35.730 -22.457 -17.793  0.00  0.00    +0.225 C 
ATOM     12  C   UNL     1      35.417 -22.521 -14.654  0.00  0.00    +0.026 C 
ATOM     13  C   UNL     1      35.604 -24.822 -15.710  0.00  0.00    +0.026 C 
ATOM     14  C   UNL     1      31.261 -23.716 -15.848  0.00  0.00    +0.152 A 
ATOM     15  C   UNL     1      28.756 -23.810 -16.093  0.00  0.00    +0.227 C 
ATOM     16  H   UNL     1      33.051 -24.634 -13.516  0.00  0.00    +0.189 HD
ATOM     17  H   UNL     1      30.149 -23.092 -17.406  0.00  0.00    +0.156 HD
ENDROOT
BRANCH  11  19
ATOM     18  N   UNL     1      34.677 -19.496 -20.675  0.00  0.00    +0.386 N 
ATOM     19  C   UNL     1      35.384 -21.876 -19.128  0.00  0.00    +0.073 C 
ATOM     20  C   UNL     1      33.983 -21.266 -19.092  0.00  0.00    -0.014 C 
ATOM     21  C   UNL     1      36.415 -20.814 -19.508  0.00  0.00    -0.014 C 
ATOM     22  C   UNL     1      33.666 -20.525 -20.393  0.00  0.00    -0.077 C 
ATOM     23  C   UNL     1      36.018 -20.088 -20.793  0.00  0.00    -0.077 C 
ATOM     24  C   UNL     1      34.333 -18.763 -21.893  0.00  0.00    -0.101 C 
ATOM     25  H   UNL     1      34.690 -18.844 -19.892  0.00  0.00    -0.080 HD
ENDBRANCH  11  19
BRANCH  15  26
ATOM     26  C   UNL     1      27.724 -23.445 -17.156  0.00  0.00    +0.085 C 
BRANCH  26  27
ATOM     27  C   UNL     1      27.141 -22.033 -16.999  0.00  0.00    +0.009 C 
ATOM     28  C   UNL     1      26.287 -21.955 -15.732  0.00  0.00    +0.001 C 
ATOM     29  C   UNL     1      26.298 -21.639 -18.214  0.00  0.00    +0.001 C 
ENDBRANCH  26  27
ENDBRANCH  15  26
TORSDOF 3
ENDMDL
MODEL 5
REMARK VINA RESULT:      -8.4      5.121      9.018
REMARK  Name = 46191454
REMARK  3 active torsions:
REMARK  status: ('A' for Active; 'I' for Inactive)
REMARK    1  A    between atoms: C_11  and  C_19
REMARK    2  A    between atoms: C_15  and  C_26
REMARK    3  A    between atoms: C_26  and  C_27
REMARK                            x       y       z     vdW  Elec       q    Type
REMARK                         _______ _______ _______ _____ _____    ______ ____
ROOT
ATOM      1  O   UNL     1      35.928 -21.238 -21.659  0.00  0.00    -0.275 OA
ATOM      2  O   UNL     1      33.087 -12.748 -22.461  0.00  0.00    -0.275 OA
ATOM      3  N   UNL     1      35.069 -19.077 -21.658  0.00  0.00    -0.274 N 
ATOM      4  N   UNL     1      35.305 -16.160 -23.778  0.00  0.00    -0.277 N 
ATOM      5  N   UNL     1      34.582 -15.112 -23.308  0.00  0.00    -0.158 NA
ATOM      6  N   UNL     1      33.195 -14.833 -21.371  0.00  0.00    -0.268 N 
ATOM      7  C   UNL     1      35.735 -18.618 -22.947  0.00  0.00    +0.095 C 
ATOM      8  C   UNL     1      35.205 -17.239 -22.975  0.00  0.00    +0.068 A 
ATOM      9  C   UNL     1      34.218 -18.018 -21.006  0.00  0.00    +0.124 C 
ATOM     10  C   UNL     1      34.391 -16.906 -21.938  0.00  0.00    +0.046 A 
ATOM     11  C   UNL     1      35.238 -20.359 -21.141  0.00  0.00    +0.225 C 
ATOM     12  C   UNL     1      35.249 -19.422 -24.153  0.00  0.00    +0.026 C 
ATOM     13  C   UNL     1      37.260 -18.622 -22.827  0.00  0.00    +0.026 C 
ATOM     14  C   UNL     1      34.025 -15.585 -22.178  0.00  0.00    +0.152 A 
ATOM     15  C   UNL     1      32.775 -13.493 -21.540  0.00  0.00    +0.227 C 
ATOM     16  H   UNL     1      35.839 -16.135 -24.606  0.00  0.00    +0.189 HD
ATOM     17  H   UNL     1      32.848 -15.292 -20.571  0.00  0.00    +0.156 HD
ENDROOT
BRANCH  11  19
ATOM     18  N   UNL     1      32.932 -22.531 -18.286  0.00  0.00    +0.386 N 
ATOM     19  C   UNL     1      34.509 -20.639 -19.863  0.00  0.00    +0.073 C 
ATOM     20  C   UNL     1      33.031 -20.901 -20.144  0.00  0.00    -0.014 C 
ATOM     21  C   UNL     1      35.139 -21.845 -19.169  0.00  0.00    -0.014 C 
ATOM     22  C   UNL     1      32.295 -21.346 -18.879  0.00  0.00    -0.077 C 
ATOM     23  C   UNL     1      34.334 -22.261 -17.937  0.00  0.00    -0.077 C 
ATOM     24  C   UNL     1      32.188 -22.975 -17.108  0.00  0.00    -0.101 C 
ATOM     25  H   UNL     1      32.920 -23.276 -18.981  0.00  0.00    -0.080 HD
ENDBRANCH  11  19
BRANCH  15  26
ATOM     26  C   UNL     1      31.879 -13.034 -20.393  0.00  0.00    +0.085 C 
BRANCH  26  27
ATOM     27  C   UNL     1      31.626 -11.520 -20.369  0.00  0.00    +0.009 C 
ATOM     28  C   UNL     1      31.448 -11.039 -18.928  0.00  0.00    +0.001 C 
ATOM     29  C   UNL     1      30.390 -11.149 -21.193  0.00  0.00    +0.001 C 
ENDBRANCH  26  27
ENDBRANCH  15  26
TORSDOF 3
ENDMDL
MODEL 6
REMARK VINA RESULT:      -8.4     11.184     15.076
REMARK  Name = 46191454
REMARK  3 active torsions:
REMARK  status: ('A' for Active; 'I' for Inactive)
REMARK    1  A    between atoms: C_11  and  C_19
REMARK    2  A    between atoms: C_15  and  C_26
REMARK    3  A    between atoms: C_26  and  C_27
REMARK                            x       y       z     vdW  Elec       q    Type
REMARK                         _______ _______ _______ _____ _____    ______ ____
ROOT
ATOM      1  O   UNL     1      32.043 -13.704 -21.025  0.00  0.00    -0.275 OA
ATOM      2  O   UNL     1      32.994  -5.354 -24.214  0.00  0.00    -0.275 OA
ATOM      3  N   UNL     1      32.433 -11.641 -22.023  0.00  0.00    -0.274 N 
ATOM      4  N   UNL     1      31.436  -8.216 -21.443  0.00  0.00    -0.277 N 
ATOM      5  N   UNL     1      31.960  -7.357 -22.353  0.00  0.00    -0.158 NA
ATOM      6  N   UNL     1      33.404  -7.674 -24.243  0.00  0.00    -0.268 N 
ATOM      7  C   UNL     1      31.589 -10.814 -21.063  0.00  0.00    +0.095 C 
ATOM      8  C   UNL     1      31.819  -9.488 -21.675  0.00  0.00    +0.068 A 
ATOM      9  C   UNL     1      33.094 -10.826 -23.105  0.00  0.00    +0.124 C 
ATOM     10  C   UNL     1      32.623  -9.483 -22.771  0.00  0.00    +0.046 A 
ATOM     11  C   UNL     1      32.574 -13.021 -21.902  0.00  0.00    +0.225 C 
ATOM     12  C   UNL     1      32.138 -10.868 -19.637  0.00  0.00    +0.026 C 
ATOM     13  C   UNL     1      30.113 -11.206 -21.130  0.00  0.00    +0.026 C 
ATOM     14  C   UNL     1      32.688  -8.149 -23.162  0.00  0.00    +0.152 A 
ATOM     15  C   UNL     1      33.523  -6.343 -24.708  0.00  0.00    +0.227 C 
ATOM     16  H   UNL     1      30.847  -7.943 -20.702  0.00  0.00    +0.189 HD
ATOM     17  H   UNL     1      33.898  -8.352 -24.758  0.00  0.00    +0.156 HD
ENDROOT
BRANCH  11  19
ATOM     18  N   UNL     1      34.061 -16.085 -24.467  0.00  0.00    +0.386 N 
ATOM     19  C   UNL     1      33.440 -13.673 -22.934  0.00  0.00    +0.073 C 
ATOM     20  C   UNL     1      34.189 -14.857 -22.324  0.00  0.00    -0.014 C 
ATOM     21  C   UNL     1      32.579 -14.138 -24.107  0.00  0.00    -0.014 C 
ATOM     22  C   UNL     1      34.957 -15.639 -23.391  0.00  0.00    -0.077 C 
ATOM     23  C   UNL     1      33.399 -14.944 -25.115  0.00  0.00    -0.077 C 
ATOM     24  C   UNL     1      34.800 -16.874 -25.453  0.00  0.00    -0.101 C 
ATOM     25  H   UNL     1      33.339 -16.673 -24.053  0.00  0.00    -0.080 HD
ENDBRANCH  11  19
BRANCH  15  26
ATOM     26  C   UNL     1      34.389  -6.259 -25.961  0.00  0.00    +0.085 C 
BRANCH  26  27
ATOM     27  C   UNL     1      34.345  -4.891 -26.657  0.00  0.00    +0.009 C 
ATOM     28  C   UNL     1      33.119  -4.804 -27.568  0.00  0.00    +0.001 C 
ATOM     29  C   UNL     1      35.614  -4.641 -27.476  0.00  0.00    +0.001 C 
ENDBRANCH  26  27
ENDBRANCH  15  26
TORSDOF 3
ENDMDL
MODEL 7
REMARK VINA RESULT:      -8.3      2.642      6.844
REMARK  Name = 46191454
REMARK  3 active torsions:
REMARK  status: ('A' for Active; 'I' for Inactive)
REMARK    1  A    between atoms: C_11  and  C_19
REMARK    2  A    between atoms: C_15  and  C_26
REMARK    3  A    between atoms: C_26  and  C_27
REMARK                            x       y       z     vdW  Elec       q    Type
REMARK                         _______ _______ _______ _____ _____    ______ ____
ROOT
ATOM      1  O   UNL     1      37.662 -22.314 -17.184  0.00  0.00    -0.275 OA
ATOM      2  O   UNL     1      29.952 -25.087 -13.488  0.00  0.00    -0.275 OA
ATOM      3  N   UNL     1      35.559 -22.968 -16.439  0.00  0.00    -0.274 N 
ATOM      4  N   UNL     1      34.171 -24.382 -13.416  0.00  0.00    -0.277 N 
ATOM      5  N   UNL     1      32.832 -24.583 -13.500  0.00  0.00    -0.158 NA
ATOM      6  N   UNL     1      31.234 -24.181 -15.245  0.00  0.00    -0.268 N 
ATOM      7  C   UNL     1      35.994 -23.430 -15.055  0.00  0.00    +0.095 C 
ATOM      8  C   UNL     1      34.671 -23.854 -14.553  0.00  0.00    +0.068 A 
ATOM      9  C   UNL     1      34.082 -23.124 -16.692  0.00  0.00    +0.124 C 
ATOM     10  C   UNL     1      33.638 -23.695 -15.422  0.00  0.00    +0.046 A 
ATOM     11  C   UNL     1      36.452 -22.451 -17.373  0.00  0.00    +0.225 C 
ATOM     12  C   UNL     1      36.558 -22.276 -14.225  0.00  0.00    +0.026 C 
ATOM     13  C   UNL     1      36.961 -24.612 -15.133  0.00  0.00    +0.026 C 
ATOM     14  C   UNL     1      32.518 -24.156 -14.737  0.00  0.00    +0.152 A 
ATOM     15  C   UNL     1      30.046 -24.629 -14.621  0.00  0.00    +0.227 C 
ATOM     16  H   UNL     1      34.712 -24.595 -12.622  0.00  0.00    +0.189 HD
ATOM     17  H   UNL     1      31.132 -23.840 -16.163  0.00  0.00    +0.156 HD
ENDROOT
BRANCH  11  19
ATOM     18  N   UNL     1      34.518 -19.969 -20.251  0.00  0.00    +0.386 N 
ATOM     19  C   UNL     1      35.852 -22.047 -18.684  0.00  0.00    +0.073 C 
ATOM     20  C   UNL     1      34.370 -21.718 -18.508  0.00  0.00    -0.014 C 
ATOM     21  C   UNL     1      36.602 -20.837 -19.240  0.00  0.00    -0.014 C 
ATOM     22  C   UNL     1      33.771 -21.150 -19.795  0.00  0.00    -0.077 C 
ATOM     23  C   UNL     1      35.928 -20.298 -20.502  0.00  0.00    -0.077 C 
ATOM     24  C   UNL     1      33.902 -19.407 -21.453  0.00  0.00    -0.101 C 
ATOM     25  H   UNL     1      34.485 -19.270 -19.509  0.00  0.00    -0.080 HD
ENDBRANCH  11  19
BRANCH  15  26
ATOM     26  C   UNL     1      28.842 -24.513 -15.551  0.00  0.00    +0.085 C 
BRANCH  26  27
ATOM     27  C   UNL     1      28.717 -23.145 -16.238  0.00  0.00    +0.009 C 
ATOM     28  C   UNL     1      28.181 -22.108 -15.250  0.00  0.00    +0.001 C 
ATOM     29  C   UNL     1      27.797 -23.217 -17.460  0.00  0.00    +0.001 C 
ENDBRANCH  26  27
ENDBRANCH  15  26
TORSDOF 3
ENDMDL
MODEL 8
REMARK VINA RESULT:      -8.3      4.144     10.100
REMARK  Name = 46191454
REMARK  3 active torsions:
REMARK  status: ('A' for Active; 'I' for Inactive)
REMARK    1  A    between atoms: C_11  and  C_19
REMARK    2  A    between atoms: C_15  and  C_26
REMARK    3  A    between atoms: C_26  and  C_27
REMARK                            x       y       z     vdW  Elec       q    Type
REMARK                         _______ _______ _______ _____ _____    ______ ____
ROOT
ATOM      1  O   UNL     1      35.401 -16.322 -23.209  0.00  0.00    -0.275 OA
ATOM      2  O   UNL     1      33.461 -23.518 -18.183  0.00  0.00    -0.275 OA
ATOM      3  N   UNL     1      34.712 -18.053 -21.819  0.00  0.00    -0.274 N 
ATOM      4  N   UNL     1      35.805 -21.419 -21.081  0.00  0.00    -0.277 N 
ATOM      5  N   UNL     1      35.023 -22.032 -20.157  0.00  0.00    -0.158 NA
ATOM      6  N   UNL     1      33.085 -21.317 -18.936  0.00  0.00    -0.268 N 
ATOM      7  C   UNL     1      35.795 -19.046 -22.216  0.00  0.00    +0.095 C 
ATOM      8  C   UNL     1      35.382 -20.165 -21.343  0.00  0.00    +0.068 A 
ATOM      9  C   UNL     1      33.752 -18.587 -20.787  0.00  0.00    +0.124 C 
ATOM     10  C   UNL     1      34.287 -19.930 -20.573  0.00  0.00    +0.046 A 
ATOM     11  C   UNL     1      34.626 -16.776 -22.365  0.00  0.00    +0.225 C 
ATOM     12  C   UNL     1      37.189 -18.540 -21.844  0.00  0.00    +0.026 C 
ATOM     13  C   UNL     1      35.695 -19.430 -23.693  0.00  0.00    +0.026 C 
ATOM     14  C   UNL     1      34.095 -21.106 -19.853  0.00  0.00    +0.152 A 
ATOM     15  C   UNL     1      32.819 -22.473 -18.166  0.00  0.00    +0.227 C 
ATOM     16  H   UNL     1      36.586 -21.838 -21.509  0.00  0.00    +0.189 HD
ATOM     17  H   UNL     1      32.468 -20.562 -18.799  0.00  0.00    +0.156 HD
ENDROOT
BRANCH  11  19
ATOM     18  N   UNL     1      32.582 -13.293 -20.997  0.00  0.00    +0.386 N 
ATOM     19  C   UNL     1      33.496 -15.933 -21.860  0.00  0.00    +0.073 C 
ATOM     20  C   UNL     1      33.836 -15.363 -20.484  0.00  0.00    -0.014 C 
ATOM     21  C   UNL     1      33.219 -14.803 -22.850  0.00  0.00    -0.014 C 
ATOM     22  C   UNL     1      32.770 -14.371 -20.015  0.00  0.00    -0.077 C 
ATOM     23  C   UNL     1      32.174 -13.829 -22.303  0.00  0.00    -0.077 C 
ATOM     24  C   UNL     1      31.598 -12.326 -20.511  0.00  0.00    -0.101 C 
ATOM     25  H   UNL     1      33.476 -12.818 -21.118  0.00  0.00    -0.080 HD
ENDBRANCH  11  19
BRANCH  15  26
ATOM     26  C   UNL     1      31.578 -22.298 -17.295  0.00  0.00    +0.085 C 
BRANCH  26  27
ATOM     27  C   UNL     1      31.401 -23.397 -16.237  0.00  0.00    +0.009 C 
ATOM     28  C   UNL     1      29.918 -23.732 -16.070  0.00  0.00    +0.001 C 
ATOM     29  C   UNL     1      31.989 -22.972 -14.889  0.00  0.00    +0.001 C 
ENDBRANCH  26  27
ENDBRANCH  15  26
TORSDOF 3
ENDMDL
MODEL 9
REMARK VINA RESULT:      -8.2      6.298     10.540
REMARK  Name = 46191454
REMARK  3 active torsions:
REMARK  status: ('A' for Active; 'I' for Inactive)
REMARK    1  A    between atoms: C_11  and  C_19
REMARK    2  A    between atoms: C_15  and  C_26
REMARK    3  A    between atoms: C_26  and  C_27
REMARK                            x       y       z     vdW  Elec       q    Type
REMARK                         _______ _______ _______ _____ _____    ______ ____
ROOT
ATOM      1  O   UNL     1      35.391 -19.391 -24.063  0.00  0.00    -0.275 OA
ATOM      2  O   UNL     1      31.640 -11.383 -22.453  0.00  0.00    -0.275 OA
ATOM      3  N   UNL     1      34.442 -17.373 -23.408  0.00  0.00    -0.274 N 
ATOM      4  N   UNL     1      33.090 -14.453 -25.055  0.00  0.00    -0.277 N 
ATOM      5  N   UNL     1      32.648 -13.517 -24.179  0.00  0.00    -0.158 NA
ATOM      6  N   UNL     1      32.590 -13.432 -21.781  0.00  0.00    -0.268 N 
ATOM      7  C   UNL     1      34.198 -16.826 -24.808  0.00  0.00    +0.095 C 
ATOM      8  C   UNL     1      33.591 -15.534 -24.422  0.00  0.00    +0.068 A 
ATOM      9  C   UNL     1      33.999 -16.442 -22.309  0.00  0.00    +0.124 C 
ATOM     10  C   UNL     1      33.480 -15.318 -23.085  0.00  0.00    +0.046 A 
ATOM     11  C   UNL     1      35.023 -18.617 -23.178  0.00  0.00    +0.225 C 
ATOM     12  C   UNL     1      33.208 -17.692 -25.588  0.00  0.00    +0.026 C 
ATOM     13  C   UNL     1      35.507 -16.617 -25.568  0.00  0.00    +0.026 C 
ATOM     14  C   UNL     1      32.893 -14.061 -22.972  0.00  0.00    +0.152 A 
ATOM     15  C   UNL     1      31.997 -12.164 -21.578  0.00  0.00    +0.227 C 
ATOM     16  H   UNL     1      33.051 -14.355 -26.034  0.00  0.00    +0.189 HD
ATOM     17  H   UNL     1      32.816 -13.933 -20.965  0.00  0.00    +0.156 HD
ENDROOT
BRANCH  11  19
ATOM     18  N   UNL     1      35.980 -21.036 -19.800  0.00  0.00    +0.386 N 
ATOM     19  C   UNL     1      35.190 -18.995 -21.740  0.00  0.00    +0.073 C 
ATOM     20  C   UNL     1      34.295 -20.185 -21.399  0.00  0.00    -0.014 C 
ATOM     21  C   UNL     1      36.653 -19.336 -21.466  0.00  0.00    -0.014 C 
ATOM     22  C   UNL     1      34.563 -20.693 -19.980  0.00  0.00    -0.077 C 
ATOM     23  C   UNL     1      36.843 -19.872 -20.047  0.00  0.00    -0.077 C 
ATOM     24  C   UNL     1      36.210 -21.568 -18.457  0.00  0.00    -0.101 C 
ATOM     25  H   UNL     1      36.220 -21.755 -20.483  0.00  0.00    -0.080 HD
ENDBRANCH  11  19
BRANCH  15  26
ATOM     26  C   UNL     1      31.868 -11.833 -20.094  0.00  0.00    +0.085 C 
BRANCH  26  27
ATOM     27  C   UNL     1      31.204 -10.477 -19.815  0.00  0.00    +0.009 C 
ATOM     28  C   UNL     1      32.235  -9.353 -19.936  0.00  0.00    +0.001 C 
ATOM     29  C   UNL     1      30.568 -10.444 -18.423  0.00  0.00    +0.001 C 
ENDBRANCH  26  27
ENDBRANCH  15  26
TORSDOF 3
ENDMDL
