MODEL 1
REMARK VINA RESULT:      -9.3      0.000      0.000
REMARK  Name = 9910224
REMARK  5 active torsions:
REMARK  status: ('A' for Active; 'I' for Inactive)
REMARK    1  A    between atoms: C_2  and  S_18
REMARK    2  A    between atoms: C_3  and  C_7
REMARK    3  A    between atoms: C_10  and  C_16
REMARK    4  A    between atoms: S_18  and  N_21
REMARK    5  A    between atoms: C_25  and  O_30
REMARK                            x       y       z     vdW  Elec       q    Type
REMARK                         _______ _______ _______ _____ _____    ______ ____
ROOT
ATOM      1  N   UNL     1      32.546  -6.682 -21.057  0.00  0.00    -0.242 NA
ATOM      2  C   UNL     1      32.596  -8.930 -21.945  0.00  0.00    +0.143 C 
ATOM      3  C   UNL     1      32.731  -7.556 -22.070  0.00  0.00    +0.100 C 
ATOM      4  C   UNL     1      32.247  -9.438 -20.699  0.00  0.00    +0.023 C 
ATOM      5  C   UNL     1      32.048  -8.571 -19.631  0.00  0.00    +0.022 C 
ATOM      6  C   UNL     1      32.208  -7.214 -19.860  0.00  0.00    +0.099 C 
ENDROOT
BRANCH   3   7
ATOM      7  C   UNL     1      33.091  -6.926 -23.322  0.00  0.00    +0.019 C 
ATOM      8  C   UNL     1      32.161  -6.137 -23.998  0.00  0.00    +0.002 C 
ATOM      9  C   UNL     1      34.369  -7.107 -23.852  0.00  0.00    +0.002 C 
ATOM     10  C   UNL     1      33.786  -5.711 -25.735  0.00  0.00    +0.055 C 
ATOM     11  C   UNL     1      32.508  -5.529 -25.205  0.00  0.00    +0.005 C 
ATOM     12  C   UNL     1      34.715  -6.499 -25.058  0.00  0.00    +0.005 C 
BRANCH  10  16
ATOM     13  O   UNL     1      35.474  -4.921 -27.201  0.00  0.00    -0.412 OA
ATOM     14  N   UNL     1      33.386  -4.641 -27.952  0.00  0.00    -0.107 NA
ATOM     15  N   UNL     1      34.254  -4.137 -28.904  0.00  0.00    -0.102 NA
ATOM     16  C   UNL     1      34.144  -5.084 -26.983  0.00  0.00    +0.250 C 
ATOM     17  C   UNL     1      35.461  -4.322 -28.423  0.00  0.00    +0.306 C 
ENDBRANCH  10  16
ENDBRANCH   3   7
BRANCH   2  18
ATOM     18  S   UNL     1      32.844 -10.031 -23.279  0.00  0.00    +0.076 S 
ATOM     19  O   UNL     1      34.281 -10.181 -23.468  0.00  0.00    -0.150 OA
ATOM     20  O   UNL     1      32.029  -9.590 -24.403  0.00  0.00    -0.150 OA
BRANCH  18  21
ATOM     21  N   UNL     1      32.227 -11.518 -22.665  0.00  0.00    -0.194 N 
ATOM     22  N   UNL     1      32.974 -12.730 -24.545  0.00  0.00    -0.243 NA
ATOM     23  N   UNL     1      33.419 -14.999 -22.956  0.00  0.00    -0.372 NA
ATOM     24  C   UNL     1      32.731 -12.742 -23.224  0.00  0.00    +0.210 C 
ATOM     25  C   UNL     1      32.946 -13.847 -22.440  0.00  0.00    +0.311 C 
ATOM     26  C   UNL     1      33.665 -14.996 -24.281  0.00  0.00    +0.115 C 
ATOM     27  C   UNL     1      33.447 -13.882 -25.062  0.00  0.00    +0.181 C 
ATOM     28  C   UNL     1      34.187 -16.252 -24.887  0.00  0.00    +0.064 C 
ATOM     29  H   UNL     1      31.549 -11.529 -21.950  0.00  0.00    +0.175 HD
BRANCH  25  30
ATOM     30  O   UNL     1      32.689 -13.827 -21.097  0.00  0.00    -0.446 OA
ATOM     31  C   UNL     1      32.780 -15.069 -20.406  0.00  0.00    +0.255 C 
ENDBRANCH  25  30
ENDBRANCH  18  21
ENDBRANCH   2  18
TORSDOF 5
ENDMDL
MODEL 2
REMARK VINA RESULT:      -8.9      4.047     10.516
REMARK  Name = 9910224
REMARK  5 active torsions:
REMARK  status: ('A' for Active; 'I' for Inactive)
REMARK    1  A    between atoms: C_2  and  S_18
REMARK    2  A    between atoms: C_3  and  C_7
REMARK    3  A    between atoms: C_10  and  C_16
REMARK    4  A    between atoms: S_18  and  N_21
REMARK    5  A    between atoms: C_25  and  O_30
REMARK                            x       y       z     vdW  Elec       q    Type
REMARK                         _______ _______ _______ _____ _____    ______ ____
ROOT
ATOM      1  N   UNL     1      34.174 -16.244 -25.849  0.00  0.00    -0.242 NA
ATOM      2  C   UNL     1      33.262 -14.689 -24.238  0.00  0.00    +0.143 C 
ATOM      3  C   UNL     1      33.897 -15.872 -24.581  0.00  0.00    +0.100 C 
ATOM      4  C   UNL     1      32.888 -13.831 -25.266  0.00  0.00    +0.023 C 
ATOM      5  C   UNL     1      33.157 -14.177 -26.586  0.00  0.00    +0.022 C 
ATOM      6  C   UNL     1      33.795 -15.383 -26.822  0.00  0.00    +0.099 C 
ENDROOT
BRANCH   3   7
ATOM      7  C   UNL     1      34.327 -16.833 -23.588  0.00  0.00    +0.019 C 
ATOM      8  C   UNL     1      34.945 -16.396 -22.417  0.00  0.00    +0.002 C 
ATOM      9  C   UNL     1      34.121 -18.197 -23.802  0.00  0.00    +0.002 C 
ATOM     10  C   UNL     1      35.153 -18.687 -21.674  0.00  0.00    +0.055 C 
ATOM     11  C   UNL     1      35.359 -17.324 -21.459  0.00  0.00    +0.005 C 
ATOM     12  C   UNL     1      34.534 -19.123 -22.844  0.00  0.00    +0.005 C 
BRANCH  10  16
ATOM     13  O   UNL     1      34.675 -20.599 -20.356  0.00  0.00    -0.412 OA
ATOM     14  N   UNL     1      36.719 -19.744 -20.045  0.00  0.00    -0.107 NA
ATOM     15  N   UNL     1      36.584 -20.844 -19.218  0.00  0.00    -0.102 NA
ATOM     16  C   UNL     1      35.582 -19.645 -20.685  0.00  0.00    +0.250 C 
ATOM     17  C   UNL     1      35.376 -21.311 -19.432  0.00  0.00    +0.306 C 
ENDBRANCH  10  16
ENDBRANCH   3   7
BRANCH   2  18
ATOM     18  S   UNL     1      32.920 -14.241 -22.585  0.00  0.00    +0.076 S 
ATOM     19  O   UNL     1      34.165 -13.779 -21.984  0.00  0.00    -0.150 OA
ATOM     20  O   UNL     1      32.195 -15.333 -21.948  0.00  0.00    -0.150 OA
BRANCH  18  21
ATOM     21  N   UNL     1      31.877 -12.882 -22.765  0.00  0.00    -0.194 N 
ATOM     22  N   UNL     1      31.883 -12.431 -20.450  0.00  0.00    -0.243 NA
ATOM     23  N   UNL     1      31.647  -9.680 -20.944  0.00  0.00    -0.372 NA
ATOM     24  C   UNL     1      31.818 -11.926 -21.693  0.00  0.00    +0.210 C 
ATOM     25  C   UNL     1      31.703 -10.583 -21.943  0.00  0.00    +0.311 C 
ATOM     26  C   UNL     1      31.711 -10.178 -19.693  0.00  0.00    +0.115 C 
ATOM     27  C   UNL     1      31.827 -11.529 -19.450  0.00  0.00    +0.181 C 
ATOM     28  C   UNL     1      31.651  -9.210 -18.563  0.00  0.00    +0.064 C 
ATOM     29  H   UNL     1      31.338 -12.762 -23.581  0.00  0.00    +0.175 HD
BRANCH  25  30
ATOM     30  O   UNL     1      31.640 -10.100 -23.221  0.00  0.00    -0.446 OA
ATOM     31  C   UNL     1      31.582  -8.685 -23.373  0.00  0.00    +0.255 C 
ENDBRANCH  25  30
ENDBRANCH  18  21
ENDBRANCH   2  18
TORSDOF 5
ENDMDL
MODEL 3
REMARK VINA RESULT:      -8.6      5.334     12.247
REMARK  Name = 9910224
REMARK  5 active torsions:
REMARK  status: ('A' for Active; 'I' for Inactive)
REMARK    1  A    between atoms: C_2  and  S_18
REMARK    2  A    between atoms: C_3  and  C_7
REMARK    3  A    between atoms: C_10  and  C_16
REMARK    4  A    between atoms: S_18  and  N_21
REMARK    5  A    between atoms: C_25  and  O_30
REMARK                            x       y       z     vdW  Elec       q    Type
REMARK                         _______ _______ _______ _____ _____    ______ ____
ROOT
ATOM      1  N   UNL     1      34.984 -19.052 -24.267  0.00  0.00    -0.242 NA
ATOM      2  C   UNL     1      34.264 -17.078 -23.071  0.00  0.00    +0.143 C 
ATOM      3  C   UNL     1      34.551 -18.432 -23.148  0.00  0.00    +0.100 C 
ATOM      4  C   UNL     1      34.434 -16.311 -24.218  0.00  0.00    +0.023 C 
ATOM      5  C   UNL     1      34.879 -16.912 -25.390  0.00  0.00    +0.022 C 
ATOM      6  C   UNL     1      35.138 -18.273 -25.362  0.00  0.00    +0.099 C 
ENDROOT
BRANCH   3   7
ATOM      7  C   UNL     1      34.407 -19.317 -22.013  0.00  0.00    +0.019 C 
ATOM      8  C   UNL     1      35.530 -19.693 -21.276  0.00  0.00    +0.002 C 
ATOM      9  C   UNL     1      33.145 -19.793 -21.654  0.00  0.00    +0.002 C 
ATOM     10  C   UNL     1      34.129 -21.023 -19.823  0.00  0.00    +0.055 C 
ATOM     11  C   UNL     1      35.391 -20.547 -20.180  0.00  0.00    +0.005 C 
ATOM     12  C   UNL     1      33.007 -20.646 -20.559  0.00  0.00    +0.005 C 
BRANCH  10  16
ATOM     13  O   UNL     1      32.718 -22.294 -18.403  0.00  0.00    -0.412 OA
ATOM     14  N   UNL     1      34.892 -22.401 -17.888  0.00  0.00    -0.107 NA
ATOM     15  N   UNL     1      34.199 -23.184 -16.983  0.00  0.00    -0.102 NA
ATOM     16  C   UNL     1      33.986 -21.906 -18.691  0.00  0.00    +0.250 C 
ATOM     17  C   UNL     1      32.935 -23.091 -17.321  0.00  0.00    +0.306 C 
ENDBRANCH  10  16
ENDBRANCH   3   7
BRANCH   2  18
ATOM     18  S   UNL     1      33.705 -16.310 -21.605  0.00  0.00    +0.076 S 
ATOM     19  O   UNL     1      34.830 -15.589 -21.025  0.00  0.00    -0.150 OA
ATOM     20  O   UNL     1      33.014 -17.304 -20.793  0.00  0.00    -0.150 OA
BRANCH  18  21
ATOM     21  N   UNL     1      32.571 -15.152 -22.189  0.00  0.00    -0.194 N 
ATOM     22  N   UNL     1      32.363 -14.126 -20.076  0.00  0.00    -0.243 NA
ATOM     23  N   UNL     1      31.943 -11.630 -21.283  0.00  0.00    -0.372 NA
ATOM     24  C   UNL     1      32.353 -13.965 -21.409  0.00  0.00    +0.210 C 
ATOM     25  C   UNL     1      32.148 -12.748 -22.008  0.00  0.00    +0.311 C 
ATOM     26  C   UNL     1      31.952 -11.782 -19.945  0.00  0.00    +0.115 C 
ATOM     27  C   UNL     1      32.158 -13.008 -19.350  0.00  0.00    +0.181 C 
ATOM     28  C   UNL     1      31.727 -10.568 -19.112  0.00  0.00    +0.064 C 
ATOM     29  H   UNL     1      32.088 -15.298 -23.035  0.00  0.00    +0.175 HD
BRANCH  25  30
ATOM     30  O   UNL     1      32.143 -12.616 -23.369  0.00  0.00    -0.446 OA
ATOM     31  C   UNL     1      33.392 -12.336 -23.993  0.00  0.00    +0.255 C 
ENDBRANCH  25  30
ENDBRANCH  18  21
ENDBRANCH   2  18
TORSDOF 5
ENDMDL
MODEL 4
REMARK VINA RESULT:      -8.4      3.935      6.507
REMARK  Name = 9910224
REMARK  5 active torsions:
REMARK  status: ('A' for Active; 'I' for Inactive)
REMARK    1  A    between atoms: C_2  and  S_18
REMARK    2  A    between atoms: C_3  and  C_7
REMARK    3  A    between atoms: C_10  and  C_16
REMARK    4  A    between atoms: S_18  and  N_21
REMARK    5  A    between atoms: C_25  and  O_30
REMARK                            x       y       z     vdW  Elec       q    Type
REMARK                         _______ _______ _______ _____ _____    ______ ____
ROOT
ATOM      1  N   UNL     1      32.927 -12.611 -26.182  0.00  0.00    -0.242 NA
ATOM      2  C   UNL     1      33.559 -14.177 -24.451  0.00  0.00    +0.143 C 
ATOM      3  C   UNL     1      33.172 -12.920 -24.890  0.00  0.00    +0.100 C 
ATOM      4  C   UNL     1      33.702 -15.181 -25.402  0.00  0.00    +0.023 C 
ATOM      5  C   UNL     1      33.457 -14.903 -26.742  0.00  0.00    +0.022 C 
ATOM      6  C   UNL     1      33.076 -13.614 -27.077  0.00  0.00    +0.099 C 
ENDROOT
BRANCH   3   7
ATOM      7  C   UNL     1      32.995 -11.807 -23.983  0.00  0.00    +0.019 C 
ATOM      8  C   UNL     1      33.805 -10.678 -24.098  0.00  0.00    +0.002 C 
ATOM      9  C   UNL     1      32.012 -11.863 -22.994  0.00  0.00    +0.002 C 
ATOM     10  C   UNL     1      32.650  -9.661 -22.234  0.00  0.00    +0.055 C 
ATOM     11  C   UNL     1      33.633  -9.604 -23.223  0.00  0.00    +0.005 C 
ATOM     12  C   UNL     1      31.840 -10.789 -22.120  0.00  0.00    +0.005 C 
BRANCH  10  16
ATOM     13  O   UNL     1      32.004  -7.405 -21.886  0.00  0.00    -0.412 OA
ATOM     14  N   UNL     1      32.694  -8.470 -20.043  0.00  0.00    -0.107 NA
ATOM     15  N   UNL     1      32.353  -7.177 -19.689  0.00  0.00    -0.102 NA
ATOM     16  C   UNL     1      32.473  -8.551 -21.329  0.00  0.00    +0.250 C 
ATOM     17  C   UNL     1      31.957  -6.593 -20.796  0.00  0.00    +0.306 C 
ENDBRANCH  10  16
ENDBRANCH   3   7
BRANCH   2  18
ATOM     18  S   UNL     1      33.868 -14.540 -22.771  0.00  0.00    +0.076 S 
ATOM     19  O   UNL     1      32.610 -14.967 -22.171  0.00  0.00    -0.150 OA
ATOM     20  O   UNL     1      34.585 -13.419 -22.177  0.00  0.00    -0.150 OA
BRANCH  18  21
ATOM     21  N   UNL     1      34.909 -15.910 -22.862  0.00  0.00    -0.194 N 
ATOM     22  N   UNL     1      33.801 -17.007 -21.093  0.00  0.00    -0.243 NA
ATOM     23  N   UNL     1      34.329 -19.504 -22.258  0.00  0.00    -0.372 NA
ATOM     24  C   UNL     1      34.472 -17.134 -22.249  0.00  0.00    +0.210 C 
ATOM     25  C   UNL     1      34.735 -18.351 -22.826  0.00  0.00    +0.311 C 
ATOM     26  C   UNL     1      33.655 -19.386 -21.097  0.00  0.00    +0.115 C 
ATOM     27  C   UNL     1      33.395 -18.161 -20.524  0.00  0.00    +0.181 C 
ATOM     28  C   UNL     1      33.191 -20.640 -20.440  0.00  0.00    +0.064 C 
ATOM     29  H   UNL     1      35.778 -15.855 -23.323  0.00  0.00    +0.175 HD
BRANCH  25  30
ATOM     30  O   UNL     1      35.421 -18.447 -24.005  0.00  0.00    -0.446 OA
ATOM     31  C   UNL     1      34.654 -18.699 -25.178  0.00  0.00    +0.255 C 
ENDBRANCH  25  30
ENDBRANCH  18  21
ENDBRANCH   2  18
TORSDOF 5
ENDMDL
MODEL 5
REMARK VINA RESULT:      -7.8      1.734      2.542
REMARK  Name = 9910224
REMARK  5 active torsions:
REMARK  status: ('A' for Active; 'I' for Inactive)
REMARK    1  A    between atoms: C_2  and  S_18
REMARK    2  A    between atoms: C_3  and  C_7
REMARK    3  A    between atoms: C_10  and  C_16
REMARK    4  A    between atoms: S_18  and  N_21
REMARK    5  A    between atoms: C_25  and  O_30
REMARK                            x       y       z     vdW  Elec       q    Type
REMARK                         _______ _______ _______ _____ _____    ______ ____
ROOT
ATOM      1  N   UNL     1      32.646  -6.178 -20.869  0.00  0.00    -0.242 NA
ATOM      2  C   UNL     1      31.878  -8.274 -21.796  0.00  0.00    +0.143 C 
ATOM      3  C   UNL     1      32.268  -6.950 -21.911  0.00  0.00    +0.100 C 
ATOM      4  C   UNL     1      31.876  -8.843 -20.527  0.00  0.00    +0.023 C 
ATOM      5  C   UNL     1      32.260  -8.082 -19.429  0.00  0.00    +0.022 C 
ATOM      6  C   UNL     1      32.632  -6.766 -19.651  0.00  0.00    +0.099 C 
ENDROOT
BRANCH   3   7
ATOM      7  C   UNL     1      32.304  -6.264 -23.185  0.00  0.00    +0.019 C 
ATOM      8  C   UNL     1      31.286  -5.376 -23.528  0.00  0.00    +0.002 C 
ATOM      9  C   UNL     1      33.360  -6.490 -24.069  0.00  0.00    +0.002 C 
ATOM     10  C   UNL     1      32.377  -4.941 -25.640  0.00  0.00    +0.055 C 
ATOM     11  C   UNL     1      31.322  -4.715 -24.757  0.00  0.00    +0.005 C 
ATOM     12  C   UNL     1      33.396  -5.828 -25.296  0.00  0.00    +0.005 C 
BRANCH  10  16
ATOM     13  O   UNL     1      33.148  -4.859 -27.881  0.00  0.00    -0.412 OA
ATOM     14  N   UNL     1      31.846  -3.140 -27.282  0.00  0.00    -0.107 NA
ATOM     15  N   UNL     1      32.216  -2.957 -28.602  0.00  0.00    -0.102 NA
ATOM     16  C   UNL     1      32.414  -4.258 -26.910  0.00  0.00    +0.250 C 
ATOM     17  C   UNL     1      32.975  -3.983 -28.909  0.00  0.00    +0.306 C 
ENDBRANCH  10  16
ENDBRANCH   3   7
BRANCH   2  18
ATOM     18  S   UNL     1      31.395  -9.243 -23.167  0.00  0.00    +0.076 S 
ATOM     19  O   UNL     1      30.814  -8.347 -24.159  0.00  0.00    -0.150 OA
ATOM     20  O   UNL     1      30.603 -10.368 -22.687  0.00  0.00    -0.150 OA
BRANCH  18  21
ATOM     21  N   UNL     1      32.901  -9.815 -23.779  0.00  0.00    -0.194 N 
ATOM     22  N   UNL     1      32.675 -11.897 -22.696  0.00  0.00    -0.243 NA
ATOM     23  N   UNL     1      34.048 -13.177 -24.781  0.00  0.00    -0.372 NA
ATOM     24  C   UNL     1      33.143 -11.231 -23.764  0.00  0.00    +0.210 C 
ATOM     25  C   UNL     1      33.816 -11.849 -24.787  0.00  0.00    +0.311 C 
ATOM     26  C   UNL     1      33.581 -13.853 -23.713  0.00  0.00    +0.115 C 
ATOM     27  C   UNL     1      32.907 -13.226 -22.688  0.00  0.00    +0.181 C 
ATOM     28  C   UNL     1      33.820 -15.322 -23.671  0.00  0.00    +0.064 C 
ATOM     29  H   UNL     1      33.575  -9.189 -24.131  0.00  0.00    +0.175 HD
BRANCH  25  30
ATOM     30  O   UNL     1      34.281 -11.142 -25.862  0.00  0.00    -0.446 OA
ATOM     31  C   UNL     1      35.503 -10.433 -25.686  0.00  0.00    +0.255 C 
ENDBRANCH  25  30
ENDBRANCH  18  21
ENDBRANCH   2  18
TORSDOF 5
ENDMDL
MODEL 6
REMARK VINA RESULT:      -7.8      1.532      2.400
REMARK  Name = 9910224
REMARK  5 active torsions:
REMARK  status: ('A' for Active; 'I' for Inactive)
REMARK    1  A    between atoms: C_2  and  S_18
REMARK    2  A    between atoms: C_3  and  C_7
REMARK    3  A    between atoms: C_10  and  C_16
REMARK    4  A    between atoms: S_18  and  N_21
REMARK    5  A    between atoms: C_25  and  O_30
REMARK                            x       y       z     vdW  Elec       q    Type
REMARK                         _______ _______ _______ _____ _____    ______ ____
ROOT
ATOM      1  N   UNL     1      33.054  -6.624 -20.794  0.00  0.00    -0.242 NA
ATOM      2  C   UNL     1      31.986  -8.575 -21.740  0.00  0.00    +0.143 C 
ATOM      3  C   UNL     1      32.642  -7.360 -21.849  0.00  0.00    +0.100 C 
ATOM      4  C   UNL     1      31.737  -9.067 -20.464  0.00  0.00    +0.023 C 
ATOM      5  C   UNL     1      32.147  -8.340 -19.351  0.00  0.00    +0.022 C 
ATOM      6  C   UNL     1      32.795  -7.135 -19.568  0.00  0.00    +0.099 C 
ENDROOT
BRANCH   3   7
ATOM      7  C   UNL     1      32.949  -6.760 -23.129  0.00  0.00    +0.019 C 
ATOM      8  C   UNL     1      34.128  -7.097 -23.792  0.00  0.00    +0.002 C 
ATOM      9  C   UNL     1      32.063  -5.846 -23.702  0.00  0.00    +0.002 C 
ATOM     10  C   UNL     1      33.539  -5.605 -25.599  0.00  0.00    +0.055 C 
ATOM     11  C   UNL     1      34.424  -6.519 -25.028  0.00  0.00    +0.005 C 
ATOM     12  C   UNL     1      32.359  -5.269 -24.937  0.00  0.00    +0.005 C 
BRANCH  10  16
ATOM     13  O   UNL     1      32.775  -4.631 -27.622  0.00  0.00    -0.412 OA
ATOM     14  N   UNL     1      35.000  -4.764 -27.437  0.00  0.00    -0.107 NA
ATOM     15  N   UNL     1      34.706  -4.181 -28.656  0.00  0.00    -0.102 NA
ATOM     16  C   UNL     1      33.844  -5.007 -26.876  0.00  0.00    +0.250 C 
ATOM     17  C   UNL     1      33.396  -4.123 -28.721  0.00  0.00    +0.306 C 
ENDBRANCH  10  16
ENDBRANCH   3   7
BRANCH   2  18
ATOM     18  S   UNL     1      31.467  -9.500 -23.128  0.00  0.00    +0.076 S 
ATOM     19  O   UNL     1      31.033  -8.557 -24.151  0.00  0.00    -0.150 OA
ATOM     20  O   UNL     1      30.538 -10.529 -22.681  0.00  0.00    -0.150 OA
BRANCH  18  21
ATOM     21  N   UNL     1      32.930 -10.235 -23.665  0.00  0.00    -0.194 N 
ATOM     22  N   UNL     1      32.623 -12.116 -22.275  0.00  0.00    -0.243 NA
ATOM     23  N   UNL     1      33.889 -13.765 -24.159  0.00  0.00    -0.372 NA
ATOM     24  C   UNL     1      33.103 -11.644 -23.438  0.00  0.00    +0.210 C 
ATOM     25  C   UNL     1      33.723 -12.443 -24.364  0.00  0.00    +0.311 C 
ATOM     26  C   UNL     1      33.410 -14.248 -22.995  0.00  0.00    +0.115 C 
ATOM     27  C   UNL     1      32.788 -13.439 -22.070  0.00  0.00    +0.181 C 
ATOM     28  C   UNL     1      33.577 -15.704 -22.734  0.00  0.00    +0.064 C 
ATOM     29  H   UNL     1      33.628  -9.706 -24.116  0.00  0.00    +0.175 HD
BRANCH  25  30
ATOM     30  O   UNL     1      34.201 -11.932 -25.539  0.00  0.00    -0.446 OA
ATOM     31  C   UNL     1      33.680 -12.487 -26.742  0.00  0.00    +0.255 C 
ENDBRANCH  25  30
ENDBRANCH  18  21
ENDBRANCH   2  18
TORSDOF 5
ENDMDL
MODEL 7
REMARK VINA RESULT:      -7.7      2.275      7.916
REMARK  Name = 9910224
REMARK  5 active torsions:
REMARK  status: ('A' for Active; 'I' for Inactive)
REMARK    1  A    between atoms: C_2  and  S_18
REMARK    2  A    between atoms: C_3  and  C_7
REMARK    3  A    between atoms: C_10  and  C_16
REMARK    4  A    between atoms: S_18  and  N_21
REMARK    5  A    between atoms: C_25  and  O_30
REMARK                            x       y       z     vdW  Elec       q    Type
REMARK                         _______ _______ _______ _____ _____    ______ ____
ROOT
ATOM      1  N   UNL     1      32.223  -9.676 -20.280  0.00  0.00    -0.242 NA
ATOM      2  C   UNL     1      32.332  -8.015 -22.033  0.00  0.00    +0.143 C 
ATOM      3  C   UNL     1      32.375  -9.322 -21.575  0.00  0.00    +0.100 C 
ATOM      4  C   UNL     1      32.118  -7.006 -21.101  0.00  0.00    +0.023 C 
ATOM      5  C   UNL     1      31.955  -7.329 -19.758  0.00  0.00    +0.022 C 
ATOM      6  C   UNL     1      32.016  -8.667 -19.403  0.00  0.00    +0.099 C 
ENDROOT
BRANCH   3   7
ATOM      7  C   UNL     1      32.592 -10.444 -22.461  0.00  0.00    +0.019 C 
ATOM      8  C   UNL     1      33.587 -10.380 -23.436  0.00  0.00    +0.002 C 
ATOM      9  C   UNL     1      31.807 -11.591 -22.340  0.00  0.00    +0.002 C 
ATOM     10  C   UNL     1      33.010 -12.609 -24.170  0.00  0.00    +0.055 C 
ATOM     11  C   UNL     1      33.796 -11.463 -24.291  0.00  0.00    +0.005 C 
ATOM     12  C   UNL     1      32.016 -12.673 -23.195  0.00  0.00    +0.005 C 
BRANCH  10  16
ATOM     13  O   UNL     1      33.681 -14.865 -24.468  0.00  0.00    -0.412 OA
ATOM     14  N   UNL     1      33.051 -13.827 -26.347  0.00  0.00    -0.107 NA
ATOM     15  N   UNL     1      33.412 -15.121 -26.673  0.00  0.00    -0.102 NA
ATOM     16  C   UNL     1      33.226 -13.728 -25.055  0.00  0.00    +0.250 C 
ATOM     17  C   UNL     1      33.773 -15.689 -25.546  0.00  0.00    +0.306 C 
ENDBRANCH  10  16
ENDBRANCH   3   7
BRANCH   2  18
ATOM     18  S   UNL     1      32.534  -7.594 -23.716  0.00  0.00    +0.076 S 
ATOM     19  O   UNL     1      31.432  -8.194 -24.458  0.00  0.00    -0.150 OA
ATOM     20  O   UNL     1      33.901  -7.906 -24.114  0.00  0.00    -0.150 OA
BRANCH  18  21
ATOM     21  N   UNL     1      32.308  -5.886 -23.712  0.00  0.00    -0.194 N 
ATOM     22  N   UNL     1      33.282  -5.642 -25.846  0.00  0.00    -0.243 NA
ATOM     23  N   UNL     1      31.590  -3.478 -26.416  0.00  0.00    -0.372 NA
ATOM     24  C   UNL     1      32.370  -5.192 -24.970  0.00  0.00    +0.210 C 
ATOM     25  C   UNL     1      31.539  -4.134 -25.240  0.00  0.00    +0.311 C 
ATOM     26  C   UNL     1      32.502  -3.923 -27.302  0.00  0.00    +0.115 C 
ATOM     27  C   UNL     1      33.334  -4.986 -27.023  0.00  0.00    +0.181 C 
ATOM     28  C   UNL     1      32.588  -3.221 -28.613  0.00  0.00    +0.064 C 
ATOM     29  H   UNL     1      32.140  -5.399 -22.872  0.00  0.00    +0.175 HD
BRANCH  25  30
ATOM     30  O   UNL     1      30.620  -3.700 -24.325  0.00  0.00    -0.446 OA
ATOM     31  C   UNL     1      30.949  -2.525 -23.590  0.00  0.00    +0.255 C 
ENDBRANCH  25  30
ENDBRANCH  18  21
ENDBRANCH   2  18
TORSDOF 5
ENDMDL
MODEL 8
REMARK VINA RESULT:      -7.3     11.538     16.484
REMARK  Name = 9910224
REMARK  5 active torsions:
REMARK  status: ('A' for Active; 'I' for Inactive)
REMARK    1  A    between atoms: C_2  and  S_18
REMARK    2  A    between atoms: C_3  and  C_7
REMARK    3  A    between atoms: C_10  and  C_16
REMARK    4  A    between atoms: S_18  and  N_21
REMARK    5  A    between atoms: C_25  and  O_30
REMARK                            x       y       z     vdW  Elec       q    Type
REMARK                         _______ _______ _______ _____ _____    ______ ____
ROOT
ATOM      1  N   UNL     1      30.755 -23.819 -16.495  0.00  0.00    -0.242 NA
ATOM      2  C   UNL     1      32.844 -24.065 -15.302  0.00  0.00    +0.143 C 
ATOM      3  C   UNL     1      32.080 -23.595 -16.359  0.00  0.00    +0.100 C 
ATOM      4  C   UNL     1      32.204 -24.814 -14.321  0.00  0.00    +0.023 C 
ATOM      5  C   UNL     1      30.841 -25.067 -14.425  0.00  0.00    +0.022 C 
ATOM      6  C   UNL     1      30.168 -24.552 -15.522  0.00  0.00    +0.099 C 
ENDROOT
BRANCH   3   7
ATOM      7  C   UNL     1      32.649 -22.806 -17.430  0.00  0.00    +0.019 C 
ATOM      8  C   UNL     1      33.962 -23.031 -17.841  0.00  0.00    +0.002 C 
ATOM      9  C   UNL     1      31.881 -21.821 -18.054  0.00  0.00    +0.002 C 
ATOM     10  C   UNL     1      33.742 -21.285 -19.497  0.00  0.00    +0.055 C 
ATOM     11  C   UNL     1      34.509 -22.270 -18.875  0.00  0.00    +0.005 C 
ATOM     12  C   UNL     1      32.429 -21.061 -19.087  0.00  0.00    +0.005 C 
BRANCH  10  16
ATOM     13  O   UNL     1      33.415 -19.896 -21.392  0.00  0.00    -0.412 OA
ATOM     14  N   UNL     1      35.559 -20.267 -20.870  0.00  0.00    -0.107 NA
ATOM     15  N   UNL     1      35.525 -19.449 -21.985  0.00  0.00    -0.102 NA
ATOM     16  C   UNL     1      34.309 -20.498 -20.565  0.00  0.00    +0.250 C 
ATOM     17  C   UNL     1      34.254 -19.259 -22.254  0.00  0.00    +0.306 C 
ENDBRANCH  10  16
ENDBRANCH   3   7
BRANCH   2  18
ATOM     18  S   UNL     1      34.557 -23.754 -15.158  0.00  0.00    +0.076 S 
ATOM     19  O   UNL     1      34.720 -22.414 -14.610  0.00  0.00    -0.150 OA
ATOM     20  O   UNL     1      35.196 -24.077 -16.427  0.00  0.00    -0.150 OA
BRANCH  18  21
ATOM     21  N   UNL     1      35.050 -24.887 -13.958  0.00  0.00    -0.194 N 
ATOM     22  N   UNL     1      37.107 -25.300 -15.036  0.00  0.00    -0.243 NA
ATOM     23  N   UNL     1      38.363 -25.730 -12.565  0.00  0.00    -0.372 NA
ATOM     24  C   UNL     1      36.448 -25.214 -13.869  0.00  0.00    +0.210 C 
ATOM     25  C   UNL     1      37.054 -25.423 -12.657  0.00  0.00    +0.311 C 
ATOM     26  C   UNL     1      39.033 -25.818 -13.731  0.00  0.00    +0.115 C 
ATOM     27  C   UNL     1      38.417 -25.607 -14.945  0.00  0.00    +0.181 C 
ATOM     28  C   UNL     1      40.481 -26.157 -13.669  0.00  0.00    +0.064 C 
ATOM     29  H   UNL     1      34.394 -25.297 -13.348  0.00  0.00    +0.175 HD
BRANCH  25  30
ATOM     30  O   UNL     1      36.354 -25.328 -11.485  0.00  0.00    -0.446 OA
ATOM     31  C   UNL     1      36.200 -24.026 -10.931  0.00  0.00    +0.255 C 
ENDBRANCH  25  30
ENDBRANCH  18  21
ENDBRANCH   2  18
TORSDOF 5
ENDMDL
MODEL 9
REMARK VINA RESULT:      -6.7      9.938     14.345
REMARK  Name = 9910224
REMARK  5 active torsions:
REMARK  status: ('A' for Active; 'I' for Inactive)
REMARK    1  A    between atoms: C_2  and  S_18
REMARK    2  A    between atoms: C_3  and  C_7
REMARK    3  A    between atoms: C_10  and  C_16
REMARK    4  A    between atoms: S_18  and  N_21
REMARK    5  A    between atoms: C_25  and  O_30
REMARK                            x       y       z     vdW  Elec       q    Type
REMARK                         _______ _______ _______ _____ _____    ______ ____
ROOT
ATOM      1  N   UNL     1      37.254 -21.887 -17.226  0.00  0.00    -0.242 NA
ATOM      2  C   UNL     1      35.047 -22.863 -17.071  0.00  0.00    +0.143 C 
ATOM      3  C   UNL     1      35.997 -22.063 -17.688  0.00  0.00    +0.100 C 
ATOM      4  C   UNL     1      35.413 -23.524 -15.905  0.00  0.00    +0.023 C 
ATOM      5  C   UNL     1      36.699 -23.370 -15.398  0.00  0.00    +0.022 C 
ATOM      6  C   UNL     1      37.573 -22.547 -16.089  0.00  0.00    +0.099 C 
ENDROOT
BRANCH   3   7
ATOM      7  C   UNL     1      35.718 -21.333 -18.905  0.00  0.00    +0.019 C 
ATOM      8  C   UNL     1      34.447 -21.388 -19.476  0.00  0.00    +0.002 C 
ATOM      9  C   UNL     1      36.721 -20.572 -19.507  0.00  0.00    +0.002 C 
ATOM     10  C   UNL     1      35.181 -19.922 -21.252  0.00  0.00    +0.055 C 
ATOM     11  C   UNL     1      34.178 -20.683 -20.650  0.00  0.00    +0.005 C 
ATOM     12  C   UNL     1      36.452 -19.867 -20.680  0.00  0.00    +0.005 C 
BRANCH  10  16
ATOM     13  O   UNL     1      34.744 -17.854 -22.326  0.00  0.00    -0.412 OA
ATOM     14  N   UNL     1      34.780 -19.622 -23.695  0.00  0.00    -0.107 NA
ATOM     15  N   UNL     1      34.516 -18.497 -24.455  0.00  0.00    -0.102 NA
ATOM     16  C   UNL     1      34.904 -19.194 -22.466  0.00  0.00    +0.250 C 
ATOM     17  C   UNL     1      34.504 -17.489 -23.615  0.00  0.00    +0.306 C 
ENDBRANCH  10  16
ENDBRANCH   3   7
BRANCH   2  18
ATOM     18  S   UNL     1      33.430 -23.067 -17.698  0.00  0.00    +0.076 S 
ATOM     19  O   UNL     1      33.448 -24.201 -18.613  0.00  0.00    -0.150 OA
ATOM     20  O   UNL     1      32.953 -21.779 -18.186  0.00  0.00    -0.150 OA
BRANCH  18  21
ATOM     21  N   UNL     1      32.533 -23.523 -16.299  0.00  0.00    -0.194 N 
ATOM     22  N   UNL     1      30.668 -22.227 -16.937  0.00  0.00    -0.243 NA
ATOM     23  N   UNL     1      28.926 -24.072 -15.742  0.00  0.00    -0.372 NA
ATOM     24  C   UNL     1      31.108 -23.334 -16.317  0.00  0.00    +0.210 C 
ATOM     25  C   UNL     1      30.263 -24.242 -15.730  0.00  0.00    +0.311 C 
ATOM     26  C   UNL     1      28.476 -22.964 -16.362  0.00  0.00    +0.115 C 
ATOM     27  C   UNL     1      29.331 -22.057 -16.949  0.00  0.00    +0.181 C 
ATOM     28  C   UNL     1      27.004 -22.743 -16.394  0.00  0.00    +0.064 C 
ATOM     29  H   UNL     1      32.984 -23.904 -15.510  0.00  0.00    +0.175 HD
BRANCH  25  30
ATOM     30  O   UNL     1      30.743 -25.360 -15.105  0.00  0.00    -0.446 OA
ATOM     31  C   UNL     1      31.117 -25.224 -13.738  0.00  0.00    +0.255 C 
ENDBRANCH  25  30
ENDBRANCH  18  21
ENDBRANCH   2  18
TORSDOF 5
ENDMDL
