MODEL 1
REMARK VINA RESULT:      -5.2      0.000      0.000
REMARK  Name = 130021
REMARK  8 active torsions:
REMARK  status: ('A' for Active; 'I' for Inactive)
REMARK    1  A    between atoms: P_1  and  O_3
REMARK    2  A    between atoms: P_1  and  C_5
REMARK    3  A    between atoms: P_1  and  C_9
REMARK    4  A    between atoms: C_5  and  C_6
REMARK    5  A    between atoms: C_6  and  C_7
REMARK    6  A    between atoms: C_9  and  C_10
REMARK    7  A    between atoms: C_10  and  C_11
REMARK    8  A    between atoms: C_11  and  N_12
REMARK                            x       y       z     vdW  Elec       q    Type
REMARK                         _______ _______ _______ _____ _____    ______ ____
ROOT
ATOM      1  P   UNL     1      35.644 -18.477 -21.501  0.00  0.00    +0.220 P 
ATOM      2  O   UNL     1      35.299 -17.326 -20.623  0.00  0.00    -0.290 OA
ENDROOT
BRANCH   1   3
ATOM      3  O   UNL     1      36.937 -18.255 -22.436  0.00  0.00    -0.343 OA
ATOM      4  H   UNL     1      37.724 -18.606 -21.989  0.00  0.00    +0.218 HD
ENDBRANCH   1   3
BRANCH   1   5
ATOM      5  C   UNL     1      36.083 -19.968 -20.581  0.00  0.00    +0.087 C 
BRANCH   5   6
ATOM      6  C   UNL     1      34.882 -20.812 -20.175  0.00  0.00    +0.010 C 
BRANCH   6   7
ATOM      7  C   UNL     1      35.239 -21.852 -19.114  0.00  0.00    +0.001 C 
ATOM      8  C   UNL     1      36.583 -21.548 -18.470  0.00  0.00    +0.000 C 
ENDBRANCH   6   7
ENDBRANCH   5   6
ENDBRANCH   1   5
BRANCH   1   9
ATOM      9  C   UNL     1      34.377 -18.963 -22.638  0.00  0.00    +0.085 C 
BRANCH   9  10
ATOM     10  C   UNL     1      34.883 -19.187 -24.058  0.00  0.00    -0.014 C 
BRANCH  10  11
ATOM     11  C   UNL     1      34.440 -18.074 -25.006  0.00  0.00    -0.086 C 
BRANCH  11  12
ATOM     12  N   UNL     1      35.186 -16.851 -24.731  0.00  0.00    +0.380 N 
ATOM     13  H   UNL     1      35.666 -16.939 -23.835  0.00  0.00    -0.089 HD
ATOM     14  H   UNL     1      34.542 -16.061 -24.694  0.00  0.00    -0.089 HD
ATOM     15  H   UNL     1      35.871 -16.697 -25.470  0.00  0.00    -0.089 HD
ENDBRANCH  11  12
ENDBRANCH  10  11
ENDBRANCH   9  10
ENDBRANCH   1   9
TORSDOF 8
ENDMDL
MODEL 2
REMARK VINA RESULT:      -5.2      3.003      5.152
REMARK  Name = 130021
REMARK  8 active torsions:
REMARK  status: ('A' for Active; 'I' for Inactive)
REMARK    1  A    between atoms: P_1  and  O_3
REMARK    2  A    between atoms: P_1  and  C_5
REMARK    3  A    between atoms: P_1  and  C_9
REMARK    4  A    between atoms: C_5  and  C_6
REMARK    5  A    between atoms: C_6  and  C_7
REMARK    6  A    between atoms: C_9  and  C_10
REMARK    7  A    between atoms: C_10  and  C_11
REMARK    8  A    between atoms: C_11  and  N_12
REMARK                            x       y       z     vdW  Elec       q    Type
REMARK                         _______ _______ _______ _____ _____    ______ ____
ROOT
ATOM      1  P   UNL     1      35.084 -18.616 -21.362  0.00  0.00    +0.220 P 
ATOM      2  O   UNL     1      36.144 -18.978 -20.382  0.00  0.00    -0.290 OA
ENDROOT
BRANCH   1   3
ATOM      3  O   UNL     1      34.321 -17.230 -21.057  0.00  0.00    -0.343 OA
ATOM      4  H   UNL     1      34.129 -17.170 -20.107  0.00  0.00    +0.218 HD
ENDBRANCH   1   3
BRANCH   1   5
ATOM      5  C   UNL     1      35.720 -18.348 -23.032  0.00  0.00    +0.087 C 
BRANCH   5   6
ATOM      6  C   UNL     1      34.902 -19.038 -24.116  0.00  0.00    +0.010 C 
BRANCH   6   7
ATOM      7  C   UNL     1      34.385 -18.053 -25.164  0.00  0.00    +0.001 C 
ATOM      8  C   UNL     1      34.666 -16.614 -24.760  0.00  0.00    +0.000 C 
ENDBRANCH   6   7
ENDBRANCH   5   6
ENDBRANCH   1   5
BRANCH   1   9
ATOM      9  C   UNL     1      33.773 -19.795 -21.525  0.00  0.00    +0.085 C 
BRANCH   9  10
ATOM     10  C   UNL     1      33.113 -20.160 -20.202  0.00  0.00    -0.014 C 
BRANCH  10  11
ATOM     11  C   UNL     1      33.697 -21.438 -19.604  0.00  0.00    -0.086 C 
BRANCH  11  12
ATOM     12  N   UNL     1      32.690 -22.125 -18.801  0.00  0.00    +0.380 N 
ATOM     13  H   UNL     1      32.610 -23.093 -19.111  0.00  0.00    -0.089 HD
ATOM     14  H   UNL     1      31.790 -21.657 -18.912  0.00  0.00    -0.089 HD
ATOM     15  H   UNL     1      32.965 -22.104 -17.819  0.00  0.00    -0.089 HD
ENDBRANCH  11  12
ENDBRANCH  10  11
ENDBRANCH   9  10
ENDBRANCH   1   9
TORSDOF 8
ENDMDL
MODEL 3
REMARK VINA RESULT:      -5.1      3.245      3.925
REMARK  Name = 130021
REMARK  8 active torsions:
REMARK  status: ('A' for Active; 'I' for Inactive)
REMARK    1  A    between atoms: P_1  and  O_3
REMARK    2  A    between atoms: P_1  and  C_5
REMARK    3  A    between atoms: P_1  and  C_9
REMARK    4  A    between atoms: C_5  and  C_6
REMARK    5  A    between atoms: C_6  and  C_7
REMARK    6  A    between atoms: C_9  and  C_10
REMARK    7  A    between atoms: C_10  and  C_11
REMARK    8  A    between atoms: C_11  and  N_12
REMARK                            x       y       z     vdW  Elec       q    Type
REMARK                         _______ _______ _______ _____ _____    ______ ____
ROOT
ATOM      1  P   UNL     1      34.223 -15.950 -21.299  0.00  0.00    +0.220 P 
ATOM      2  O   UNL     1      32.763 -16.094 -21.047  0.00  0.00    -0.290 OA
ENDROOT
BRANCH   1   3
ATOM      3  O   UNL     1      34.988 -14.938 -20.306  0.00  0.00    -0.343 OA
ATOM      4  H   UNL     1      34.457 -14.809 -19.504  0.00  0.00    +0.218 HD
ENDBRANCH   1   3
BRANCH   1   5
ATOM      5  C   UNL     1      35.141 -17.488 -21.068  0.00  0.00    +0.087 C 
BRANCH   5   6
ATOM      6  C   UNL     1      34.560 -18.669 -21.834  0.00  0.00    +0.010 C 
BRANCH   6   7
ATOM      7  C   UNL     1      34.292 -19.869 -20.927  0.00  0.00    +0.001 C 
ATOM      8  C   UNL     1      32.827 -19.944 -20.524  0.00  0.00    +0.000 C 
ENDBRANCH   6   7
ENDBRANCH   5   6
ENDBRANCH   1   5
BRANCH   1   9
ATOM      9  C   UNL     1      34.654 -15.365 -22.914  0.00  0.00    +0.085 C 
BRANCH   9  10
ATOM     10  C   UNL     1      33.478 -14.780 -23.686  0.00  0.00    -0.014 C 
BRANCH  10  11
ATOM     11  C   UNL     1      33.180 -13.341 -23.269  0.00  0.00    -0.086 C 
BRANCH  11  12
ATOM     12  N   UNL     1      31.957 -13.291 -22.473  0.00  0.00    +0.380 N 
ATOM     13  H   UNL     1      31.673 -14.239 -22.225  0.00  0.00    -0.089 HD
ATOM     14  H   UNL     1      31.217 -12.844 -23.014  0.00  0.00    -0.089 HD
ATOM     15  H   UNL     1      32.127 -12.755 -21.622  0.00  0.00    -0.089 HD
ENDBRANCH  11  12
ENDBRANCH  10  11
ENDBRANCH   9  10
ENDBRANCH   1   9
TORSDOF 8
ENDMDL
MODEL 4
REMARK VINA RESULT:      -5.0      9.388     10.723
REMARK  Name = 130021
REMARK  8 active torsions:
REMARK  status: ('A' for Active; 'I' for Inactive)
REMARK    1  A    between atoms: P_1  and  O_3
REMARK    2  A    between atoms: P_1  and  C_5
REMARK    3  A    between atoms: P_1  and  C_9
REMARK    4  A    between atoms: C_5  and  C_6
REMARK    5  A    between atoms: C_6  and  C_7
REMARK    6  A    between atoms: C_9  and  C_10
REMARK    7  A    between atoms: C_10  and  C_11
REMARK    8  A    between atoms: C_11  and  N_12
REMARK                            x       y       z     vdW  Elec       q    Type
REMARK                         _______ _______ _______ _____ _____    ______ ____
ROOT
ATOM      1  P   UNL     1      36.324 -24.581 -11.958  0.00  0.00    +0.220 P 
ATOM      2  O   UNL     1      36.798 -24.097 -10.632  0.00  0.00    -0.290 OA
ENDROOT
BRANCH   1   3
ATOM      3  O   UNL     1      34.753 -24.930 -12.032  0.00  0.00    -0.343 OA
ATOM      4  H   UNL     1      34.254 -24.289 -11.500  0.00  0.00    +0.218 HD
ENDBRANCH   1   3
BRANCH   1   5
ATOM      5  C   UNL     1      36.511 -23.356 -13.272  0.00  0.00    +0.087 C 
BRANCH   5   6
ATOM      6  C   UNL     1      35.365 -23.354 -14.275  0.00  0.00    +0.010 C 
BRANCH   6   7
ATOM      7  C   UNL     1      35.860 -23.244 -15.717  0.00  0.00    +0.001 C 
ATOM      8  C   UNL     1      37.292 -22.734 -15.775  0.00  0.00    +0.000 C 
ENDBRANCH   6   7
ENDBRANCH   5   6
ENDBRANCH   1   5
BRANCH   1   9
ATOM      9  C   UNL     1      37.112 -26.052 -12.549  0.00  0.00    +0.085 C 
BRANCH   9  10
ATOM     10  C   UNL     1      38.061 -25.810 -13.716  0.00  0.00    -0.014 C 
BRANCH  10  11
ATOM     11  C   UNL     1      37.602 -26.524 -14.985  0.00  0.00    -0.086 C 
BRANCH  11  12
ATOM     12  N   UNL     1      36.191 -26.880 -14.880  0.00  0.00    +0.380 N 
ATOM     13  H   UNL     1      36.067 -27.563 -14.131  0.00  0.00    -0.089 HD
ATOM     14  H   UNL     1      35.875 -27.283 -15.762  0.00  0.00    -0.089 HD
ATOM     15  H   UNL     1      35.643 -26.045 -14.672  0.00  0.00    -0.089 HD
ENDBRANCH  11  12
ENDBRANCH  10  11
ENDBRANCH   9  10
ENDBRANCH   1   9
TORSDOF 8
ENDMDL
MODEL 5
REMARK VINA RESULT:      -5.0      2.434      2.763
REMARK  Name = 130021
REMARK  8 active torsions:
REMARK  status: ('A' for Active; 'I' for Inactive)
REMARK    1  A    between atoms: P_1  and  O_3
REMARK    2  A    between atoms: P_1  and  C_5
REMARK    3  A    between atoms: P_1  and  C_9
REMARK    4  A    between atoms: C_5  and  C_6
REMARK    5  A    between atoms: C_6  and  C_7
REMARK    6  A    between atoms: C_9  and  C_10
REMARK    7  A    between atoms: C_10  and  C_11
REMARK    8  A    between atoms: C_11  and  N_12
REMARK                            x       y       z     vdW  Elec       q    Type
REMARK                         _______ _______ _______ _____ _____    ______ ____
ROOT
ATOM      1  P   UNL     1      35.303 -17.856 -21.927  0.00  0.00    +0.220 P 
ATOM      2  O   UNL     1      35.331 -17.224 -20.579  0.00  0.00    -0.290 OA
ENDROOT
BRANCH   1   3
ATOM      3  O   UNL     1      36.747 -18.248 -22.523  0.00  0.00    -0.343 OA
ATOM      4  H   UNL     1      36.811 -17.942 -23.443  0.00  0.00    +0.218 HD
ENDBRANCH   1   3
BRANCH   1   5
ATOM      5  C   UNL     1      34.430 -19.436 -21.955  0.00  0.00    +0.087 C 
BRANCH   5   6
ATOM      6  C   UNL     1      33.258 -19.505 -20.985  0.00  0.00    +0.010 C 
BRANCH   6   7
ATOM      7  C   UNL     1      33.373 -20.687 -20.022  0.00  0.00    +0.001 C 
ATOM      8  C   UNL     1      34.820 -21.120 -19.846  0.00  0.00    +0.000 C 
ENDBRANCH   6   7
ENDBRANCH   5   6
ENDBRANCH   1   5
BRANCH   1   9
ATOM      9  C   UNL     1      34.570 -16.873 -23.203  0.00  0.00    +0.085 C 
BRANCH   9  10
ATOM     10  C   UNL     1      34.513 -15.386 -22.874  0.00  0.00    -0.014 C 
BRANCH  10  11
ATOM     11  C   UNL     1      33.180 -14.991 -22.242  0.00  0.00    -0.086 C 
BRANCH  11  12
ATOM     12  N   UNL     1      33.345 -14.786 -20.806  0.00  0.00    +0.380 N 
ATOM     13  H   UNL     1      34.183 -14.231 -20.636  0.00  0.00    -0.089 HD
ATOM     14  H   UNL     1      33.435 -15.690 -20.342  0.00  0.00    -0.089 HD
ATOM     15  H   UNL     1      32.531 -14.294 -20.438  0.00  0.00    -0.089 HD
ENDBRANCH  11  12
ENDBRANCH  10  11
ENDBRANCH   9  10
ENDBRANCH   1   9
TORSDOF 8
ENDMDL
MODEL 6
REMARK VINA RESULT:      -5.0     10.014     10.927
REMARK  Name = 130021
REMARK  8 active torsions:
REMARK  status: ('A' for Active; 'I' for Inactive)
REMARK    1  A    between atoms: P_1  and  O_3
REMARK    2  A    between atoms: P_1  and  C_5
REMARK    3  A    between atoms: P_1  and  C_9
REMARK    4  A    between atoms: C_5  and  C_6
REMARK    5  A    between atoms: C_6  and  C_7
REMARK    6  A    between atoms: C_9  and  C_10
REMARK    7  A    between atoms: C_10  and  C_11
REMARK    8  A    between atoms: C_11  and  N_12
REMARK                            x       y       z     vdW  Elec       q    Type
REMARK                         _______ _______ _______ _____ _____    ______ ____
ROOT
ATOM      1  P   UNL     1      36.368 -24.317 -11.571  0.00  0.00    +0.220 P 
ATOM      2  O   UNL     1      35.350 -24.955 -10.692  0.00  0.00    -0.290 OA
ENDROOT
BRANCH   1   3
ATOM      3  O   UNL     1      37.245 -23.163 -10.868  0.00  0.00    -0.343 OA
ATOM      4  H   UNL     1      38.059 -23.550 -10.507  0.00  0.00    +0.218 HD
ENDBRANCH   1   3
BRANCH   1   5
ATOM      5  C   UNL     1      37.634 -25.470 -12.146  0.00  0.00    +0.087 C 
BRANCH   5   6
ATOM      6  C   UNL     1      38.674 -24.832 -13.058  0.00  0.00    +0.010 C 
BRANCH   6   7
ATOM      7  C   UNL     1      39.047 -25.738 -14.231  0.00  0.00    +0.001 C 
ATOM      8  C   UNL     1      40.554 -25.898 -14.351  0.00  0.00    +0.000 C 
ENDBRANCH   6   7
ENDBRANCH   5   6
ENDBRANCH   1   5
BRANCH   1   9
ATOM      9  C   UNL     1      35.726 -23.536 -13.024  0.00  0.00    +0.085 C 
BRANCH   9  10
ATOM     10  C   UNL     1      34.805 -24.431 -13.843  0.00  0.00    -0.014 C 
BRANCH  10  11
ATOM     11  C   UNL     1      35.465 -24.900 -15.138  0.00  0.00    -0.086 C 
BRANCH  11  12
ATOM     12  N   UNL     1      35.679 -26.343 -15.101  0.00  0.00    +0.380 N 
ATOM     13  H   UNL     1      35.599 -26.674 -14.139  0.00  0.00    -0.089 HD
ATOM     14  H   UNL     1      36.611 -26.557 -15.458  0.00  0.00    -0.089 HD
ATOM     15  H   UNL     1      34.979 -26.806 -15.679  0.00  0.00    -0.089 HD
ENDBRANCH  11  12
ENDBRANCH  10  11
ENDBRANCH   9  10
ENDBRANCH   1   9
TORSDOF 8
ENDMDL
MODEL 7
REMARK VINA RESULT:      -5.0      9.258     10.817
REMARK  Name = 130021
REMARK  8 active torsions:
REMARK  status: ('A' for Active; 'I' for Inactive)
REMARK    1  A    between atoms: P_1  and  O_3
REMARK    2  A    between atoms: P_1  and  C_5
REMARK    3  A    between atoms: P_1  and  C_9
REMARK    4  A    between atoms: C_5  and  C_6
REMARK    5  A    between atoms: C_6  and  C_7
REMARK    6  A    between atoms: C_9  and  C_10
REMARK    7  A    between atoms: C_10  and  C_11
REMARK    8  A    between atoms: C_11  and  N_12
REMARK                            x       y       z     vdW  Elec       q    Type
REMARK                         _______ _______ _______ _____ _____    ______ ____
ROOT
ATOM      1  P   UNL     1      37.320 -23.678 -11.943  0.00  0.00    +0.220 P 
ATOM      2  O   UNL     1      38.159 -22.449 -11.909  0.00  0.00    -0.290 OA
ENDROOT
BRANCH   1   3
ATOM      3  O   UNL     1      36.676 -24.101 -10.528  0.00  0.00    -0.343 OA
ATOM      4  H   UNL     1      36.721 -23.350  -9.915  0.00  0.00    +0.218 HD
ENDBRANCH   1   3
BRANCH   1   5
ATOM      5  C   UNL     1      35.863 -23.517 -12.999  0.00  0.00    +0.087 C 
BRANCH   5   6
ATOM      6  C   UNL     1      36.188 -23.116 -14.431  0.00  0.00    +0.010 C 
BRANCH   6   7
ATOM      7  C   UNL     1      35.009 -23.347 -15.377  0.00  0.00    +0.001 C 
ATOM      8  C   UNL     1      33.856 -24.040 -14.667  0.00  0.00    +0.000 C 
ENDBRANCH   6   7
ENDBRANCH   5   6
ENDBRANCH   1   5
BRANCH   1   9
ATOM      9  C   UNL     1      38.153 -25.144 -12.484  0.00  0.00    +0.085 C 
BRANCH   9  10
ATOM     10  C   UNL     1      37.210 -26.254 -12.929  0.00  0.00    -0.014 C 
BRANCH  10  11
ATOM     11  C   UNL     1      37.443 -26.656 -14.383  0.00  0.00    -0.086 C 
BRANCH  11  12
ATOM     12  N   UNL     1      36.167 -26.861 -15.061  0.00  0.00    +0.380 N 
ATOM     13  H   UNL     1      35.579 -27.476 -14.499  0.00  0.00    -0.089 HD
ATOM     14  H   UNL     1      36.331 -27.288 -15.973  0.00  0.00    -0.089 HD
ATOM     15  H   UNL     1      35.700 -25.963 -15.185  0.00  0.00    -0.089 HD
ENDBRANCH  11  12
ENDBRANCH  10  11
ENDBRANCH   9  10
ENDBRANCH   1   9
TORSDOF 8
ENDMDL
MODEL 8
REMARK VINA RESULT:      -5.0      3.331      4.988
REMARK  Name = 130021
REMARK  8 active torsions:
REMARK  status: ('A' for Active; 'I' for Inactive)
REMARK    1  A    between atoms: P_1  and  O_3
REMARK    2  A    between atoms: P_1  and  C_5
REMARK    3  A    between atoms: P_1  and  C_9
REMARK    4  A    between atoms: C_5  and  C_6
REMARK    5  A    between atoms: C_6  and  C_7
REMARK    6  A    between atoms: C_9  and  C_10
REMARK    7  A    between atoms: C_10  and  C_11
REMARK    8  A    between atoms: C_11  and  N_12
REMARK                            x       y       z     vdW  Elec       q    Type
REMARK                         _______ _______ _______ _____ _____    ______ ____
ROOT
ATOM      1  P   UNL     1      34.677 -16.690 -24.320  0.00  0.00    +0.220 P 
ATOM      2  O   UNL     1      34.822 -16.491 -25.788  0.00  0.00    -0.290 OA
ENDROOT
BRANCH   1   3
ATOM      3  O   UNL     1      36.036 -16.517 -23.473  0.00  0.00    -0.343 OA
ATOM      4  H   UNL     1      35.924 -15.805 -22.823  0.00  0.00    +0.218 HD
ENDBRANCH   1   3
BRANCH   1   5
ATOM      5  C   UNL     1      33.580 -15.484 -23.543  0.00  0.00    +0.087 C 
BRANCH   5   6
ATOM      6  C   UNL     1      34.298 -14.509 -22.619  0.00  0.00    +0.010 C 
BRANCH   6   7
ATOM      7  C   UNL     1      33.984 -14.770 -21.147  0.00  0.00    +0.001 C 
ATOM      8  C   UNL     1      32.672 -15.521 -20.984  0.00  0.00    +0.000 C 
ENDBRANCH   6   7
ENDBRANCH   5   6
ENDBRANCH   1   5
BRANCH   1   9
ATOM      9  C   UNL     1      34.074 -18.282 -23.832  0.00  0.00    +0.085 C 
BRANCH   9  10
ATOM     10  C   UNL     1      35.009 -19.028 -22.890  0.00  0.00    -0.014 C 
BRANCH  10  11
ATOM     11  C   UNL     1      34.600 -18.863 -21.428  0.00  0.00    -0.086 C 
BRANCH  11  12
ATOM     12  N   UNL     1      35.524 -17.964 -20.744  0.00  0.00    +0.380 N 
ATOM     13  H   UNL     1      36.123 -17.505 -21.431  0.00  0.00    -0.089 HD
ATOM     14  H   UNL     1      36.101 -18.499 -20.095  0.00  0.00    -0.089 HD
ATOM     15  H   UNL     1      34.996 -17.260 -20.229  0.00  0.00    -0.089 HD
ENDBRANCH  11  12
ENDBRANCH  10  11
ENDBRANCH   9  10
ENDBRANCH   1   9
TORSDOF 8
ENDMDL
MODEL 9
REMARK VINA RESULT:      -5.0      3.461      4.584
REMARK  Name = 130021
REMARK  8 active torsions:
REMARK  status: ('A' for Active; 'I' for Inactive)
REMARK    1  A    between atoms: P_1  and  O_3
REMARK    2  A    between atoms: P_1  and  C_5
REMARK    3  A    between atoms: P_1  and  C_9
REMARK    4  A    between atoms: C_5  and  C_6
REMARK    5  A    between atoms: C_6  and  C_7
REMARK    6  A    between atoms: C_9  and  C_10
REMARK    7  A    between atoms: C_10  and  C_11
REMARK    8  A    between atoms: C_11  and  N_12
REMARK                            x       y       z     vdW  Elec       q    Type
REMARK                         _______ _______ _______ _____ _____    ______ ____
ROOT
ATOM      1  P   UNL     1      33.990 -15.933 -21.348  0.00  0.00    +0.220 P 
ATOM      2  O   UNL     1      32.527 -15.774 -21.123  0.00  0.00    -0.290 OA
ENDROOT
BRANCH   1   3
ATOM      3  O   UNL     1      34.928 -15.265 -20.221  0.00  0.00    -0.343 OA
ATOM      4  H   UNL     1      34.916 -14.300 -20.320  0.00  0.00    +0.218 HD
ENDBRANCH   1   3
BRANCH   1   5
ATOM      5  C   UNL     1      34.531 -17.656 -21.332  0.00  0.00    +0.087 C 
BRANCH   5   6
ATOM      6  C   UNL     1      35.443 -18.022 -22.495  0.00  0.00    +0.010 C 
BRANCH   6   7
ATOM      7  C   UNL     1      34.832 -19.100 -23.391  0.00  0.00    +0.001 C 
ATOM      8  C   UNL     1      34.457 -18.542 -24.755  0.00  0.00    +0.000 C 
ENDBRANCH   6   7
ENDBRANCH   5   6
ENDBRANCH   1   5
BRANCH   1   9
ATOM      9  C   UNL     1      34.597 -15.248 -22.864  0.00  0.00    +0.085 C 
BRANCH   9  10
ATOM     10  C   UNL     1      33.505 -14.665 -23.752  0.00  0.00    -0.014 C 
BRANCH  10  11
ATOM     11  C   UNL     1      33.215 -13.203 -23.419  0.00  0.00    -0.086 C 
BRANCH  11  12
ATOM     12  N   UNL     1      31.940 -13.089 -22.720  0.00  0.00    +0.380 N 
ATOM     13  H   UNL     1      31.315 -13.834 -23.028  0.00  0.00    -0.089 HD
ATOM     14  H   UNL     1      31.518 -12.184 -22.928  0.00  0.00    -0.089 HD
ATOM     15  H   UNL     1      32.094 -13.170 -21.715  0.00  0.00    -0.089 HD
ENDBRANCH  11  12
ENDBRANCH  10  11
ENDBRANCH   9  10
ENDBRANCH   1   9
TORSDOF 8
ENDMDL
