MODEL 1
REMARK VINA RESULT:      -2.5      0.000      0.000
REMARK  Name = 33746
REMARK  1 active torsions:
REMARK  status: ('A' for Active; 'I' for Inactive)
REMARK    1  A    between atoms: C_7  and  C_21
REMARK                            x       y       z     vdW  Elec       q    Type
REMARK                         _______ _______ _______ _____ _____    ______ ____
ROOT
ATOM      1 CL   UNL     1      30.405 -23.853 -14.754  0.00  0.00    -0.082 Cl
ATOM      2  O   UNL     1      35.013 -24.417 -12.628  0.00  0.00    -0.463 OA
ATOM      3  O   UNL     1      38.075 -21.833 -12.140  0.00  0.00    -0.270 OA
ATOM      4  O   UNL     1      38.090 -21.882 -16.174  0.00  0.00    -0.273 OA
ATOM      5  N   UNL     1      36.420 -22.718 -13.537  0.00  0.00    -0.232 N 
ATOM      6  N   UNL     1      35.962 -22.717 -16.613  0.00  0.00    -0.256 N 
ATOM      7  C   UNL     1      35.589 -23.911 -13.862  0.00  0.00    +0.237 C 
ATOM      8  C   UNL     1      34.423 -23.526 -14.817  0.00  0.00    +0.051 C 
ATOM      9  C   UNL     1      36.465 -21.596 -14.467  0.00  0.00    +0.183 C 
ATOM     10  C   UNL     1      34.650 -23.059 -16.139  0.00  0.00    +0.055 C 
ATOM     11  C   UNL     1      37.226 -22.683 -12.400  0.00  0.00    +0.255 C 
ATOM     12  C   UNL     1      36.925 -22.083 -15.822  0.00  0.00    +0.250 C 
ATOM     13  C   UNL     1      33.086 -23.746 -14.412  0.00  0.00    +0.014 C 
ATOM     14  C   UNL     1      35.873 -24.517 -11.558  0.00  0.00    +0.123 C 
ATOM     15  C   UNL     1      36.970 -23.764 -11.425  0.00  0.00    +0.090 C 
ATOM     16  C   UNL     1      33.556 -22.919 -17.017  0.00  0.00    +0.016 C 
ATOM     17  C   UNL     1      36.277 -22.980 -18.016  0.00  0.00    +0.120 C 
ATOM     18  C   UNL     1      32.016 -23.563 -15.287  0.00  0.00    +0.058 C 
ATOM     19  C   UNL     1      32.253 -23.165 -16.593  0.00  0.00    +0.013 C 
ATOM     20  C   UNL     1      35.474 -25.551 -10.555  0.00  0.00    +0.072 C 
ENDROOT
BRANCH   7  21
ATOM     21  C   UNL     1      36.382 -25.103 -14.463  0.00  0.00    +0.036 C 
ATOM     22  C   UNL     1      37.762 -25.146 -14.322  0.00  0.00    +0.001 C 
ATOM     23  C   UNL     1      35.701 -26.109 -15.134  0.00  0.00    +0.001 C 
ATOM     24  C   UNL     1      38.476 -26.217 -14.862  0.00  0.00    -0.000 C 
ATOM     25  C   UNL     1      36.414 -27.180 -15.675  0.00  0.00    -0.000 C 
ATOM     26  C   UNL     1      37.801 -27.233 -15.538  0.00  0.00    -0.000 C 
ENDBRANCH   7  21
TORSDOF 1
ENDMDL
MODEL 2
REMARK VINA RESULT:      -0.7      2.579      4.699
REMARK  Name = 33746
REMARK  1 active torsions:
REMARK  status: ('A' for Active; 'I' for Inactive)
REMARK    1  A    between atoms: C_7  and  C_21
REMARK                            x       y       z     vdW  Elec       q    Type
REMARK                         _______ _______ _______ _____ _____    ______ ____
ROOT
ATOM      1 CL   UNL     1      37.574 -20.507 -18.323  0.00  0.00    -0.082 Cl
ATOM      2  O   UNL     1      38.896 -24.137 -14.985  0.00  0.00    -0.463 OA
ATOM      3  O   UNL     1      37.993 -28.067 -14.799  0.00  0.00    -0.270 OA
ATOM      4  O   UNL     1      34.242 -26.660 -14.324  0.00  0.00    -0.273 OA
ATOM      5  N   UNL     1      37.264 -25.871 -15.148  0.00  0.00    -0.232 N 
ATOM      6  N   UNL     1      34.478 -24.490 -15.134  0.00  0.00    -0.256 N 
ATOM      7  C   UNL     1      37.483 -24.433 -14.823  0.00  0.00    +0.237 C 
ATOM      8  C   UNL     1      36.685 -23.521 -15.798  0.00  0.00    +0.051 C 
ATOM      9  C   UNL     1      36.040 -26.278 -15.826  0.00  0.00    +0.183 C 
ATOM     10  C   UNL     1      35.265 -23.516 -15.837  0.00  0.00    +0.055 C 
ATOM     11  C   UNL     1      38.168 -26.852 -14.741  0.00  0.00    +0.255 C 
ATOM     12  C   UNL     1      34.844 -25.835 -15.015  0.00  0.00    +0.250 C 
ATOM     13  C   UNL     1      37.373 -22.582 -16.599  0.00  0.00    +0.014 C 
ATOM     14  C   UNL     1      39.770 -25.050 -14.438  0.00  0.00    +0.123 C 
ATOM     15  C   UNL     1      39.460 -26.336 -14.242  0.00  0.00    +0.090 C 
ATOM     16  C   UNL     1      34.601 -22.530 -16.594  0.00  0.00    +0.016 C 
ATOM     17  C   UNL     1      33.194 -24.067 -14.579  0.00  0.00    +0.120 C 
ATOM     18  C   UNL     1      36.694 -21.639 -17.371  0.00  0.00    +0.058 C 
ATOM     19  C   UNL     1      35.309 -21.604 -17.356  0.00  0.00    +0.013 C 
ATOM     20  C   UNL     1      41.099 -24.472 -14.074  0.00  0.00    +0.072 C 
ENDROOT
BRANCH   7  21
ATOM     21  C   UNL     1      37.149 -24.047 -13.357  0.00  0.00    +0.036 C 
ATOM     22  C   UNL     1      37.584 -22.827 -12.856  0.00  0.00    +0.001 C 
ATOM     23  C   UNL     1      36.420 -24.925 -12.566  0.00  0.00    +0.001 C 
ATOM     24  C   UNL     1      37.283 -22.479 -11.538  0.00  0.00    -0.000 C 
ATOM     25  C   UNL     1      36.120 -24.577 -11.249  0.00  0.00    -0.000 C 
ATOM     26  C   UNL     1      36.552 -23.354 -10.736  0.00  0.00    -0.000 C 
ENDBRANCH   7  21
TORSDOF 1
ENDMDL
MODEL 3
REMARK VINA RESULT:      -0.5      2.158      3.293
REMARK  Name = 33746
REMARK  1 active torsions:
REMARK  status: ('A' for Active; 'I' for Inactive)
REMARK    1  A    between atoms: C_7  and  C_21
REMARK                            x       y       z     vdW  Elec       q    Type
REMARK                         _______ _______ _______ _____ _____    ______ ____
ROOT
ATOM      1 CL   UNL     1      34.386 -21.403 -19.106  0.00  0.00    -0.082 Cl
ATOM      2  O   UNL     1      33.896 -24.173 -14.845  0.00  0.00    -0.463 OA
ATOM      3  O   UNL     1      35.066 -23.478 -11.045  0.00  0.00    -0.270 OA
ATOM      4  O   UNL     1      38.745 -23.607 -12.695  0.00  0.00    -0.273 OA
ATOM      5  N   UNL     1      35.582 -23.434 -13.327  0.00  0.00    -0.232 N 
ATOM      6  N   UNL     1      38.235 -23.262 -14.939  0.00  0.00    -0.256 N 
ATOM      7  C   UNL     1      35.331 -24.051 -14.659  0.00  0.00    +0.237 C 
ATOM      8  C   UNL     1      35.889 -23.149 -15.797  0.00  0.00    +0.051 C 
ATOM      9  C   UNL     1      36.694 -22.507 -13.160  0.00  0.00    +0.183 C 
ATOM     10  C   UNL     1      37.278 -22.887 -15.942  0.00  0.00    +0.055 C 
ATOM     11  C   UNL     1      34.826 -23.789 -12.210  0.00  0.00    +0.255 C 
ATOM     12  C   UNL     1      37.981 -23.185 -13.566  0.00  0.00    +0.250 C 
ATOM     13  C   UNL     1      35.014 -22.656 -16.792  0.00  0.00    +0.014 C 
ATOM     14  C   UNL     1      33.190 -24.673 -13.773  0.00  0.00    +0.123 C 
ATOM     15  C   UNL     1      33.610 -24.573 -12.507  0.00  0.00    +0.090 C 
ATOM     16  C   UNL     1      37.737 -22.231 -17.102  0.00  0.00    +0.016 C 
ATOM     17  C   UNL     1      39.566 -23.676 -15.379  0.00  0.00    +0.120 C 
ATOM     18  C   UNL     1      35.488 -21.976 -17.913  0.00  0.00    +0.058 C 
ATOM     19  C   UNL     1      36.850 -21.777 -18.075  0.00  0.00    +0.013 C 
ATOM     20  C   UNL     1      31.909 -25.344 -14.152  0.00  0.00    +0.072 C 
ENDROOT
BRANCH   7  21
ATOM     21  C   UNL     1      35.889 -25.492 -14.816  0.00  0.00    +0.036 C 
ATOM     22  C   UNL     1      35.772 -26.140 -16.038  0.00  0.00    +0.001 C 
ATOM     23  C   UNL     1      36.497 -26.112 -13.734  0.00  0.00    +0.001 C 
ATOM     24  C   UNL     1      36.273 -27.435 -16.179  0.00  0.00    -0.000 C 
ATOM     25  C   UNL     1      36.998 -27.407 -13.875  0.00  0.00    -0.000 C 
ATOM     26  C   UNL     1      36.886 -28.067 -15.098  0.00  0.00    -0.000 C 
ENDBRANCH   7  21
TORSDOF 1
ENDMDL
