MODEL 1
REMARK VINA RESULT:      -9.0      0.000      0.000
REMARK  Name = 5330
REMARK  4 active torsions:
REMARK  status: ('A' for Active; 'I' for Inactive)
REMARK    1  A    between atoms: S_1  and  N_4
REMARK    2  A    between atoms: S_1  and  C_14
REMARK    3  A    between atoms: C_10  and  O_12
REMARK    4  A    between atoms: C_17  and  N_20
REMARK                            x       y       z     vdW  Elec       q    Type
REMARK                         _______ _______ _______ _____ _____    ______ ____
ROOT
ATOM      1  S   UNL     1      35.271 -18.406 -22.922  0.00  0.00    +0.075 S 
ATOM      2  O   UNL     1      36.700 -18.222 -22.698  0.00  0.00    -0.150 OA
ATOM      3  O   UNL     1      34.824 -19.557 -23.696  0.00  0.00    -0.150 OA
ENDROOT
BRANCH   1   4
ATOM      4  N   UNL     1      34.484 -18.401 -21.389  0.00  0.00    -0.197 N 
ATOM      5  N   UNL     1      35.587 -20.119 -20.202  0.00  0.00    -0.129 NA
ATOM      6  N   UNL     1      35.586 -21.287 -19.503  0.00  0.00    -0.109 NA
ATOM      7  C   UNL     1      34.418 -19.638 -20.658  0.00  0.00    +0.169 C 
ATOM      8  C   UNL     1      33.207 -20.257 -20.461  0.00  0.00    +0.042 C 
ATOM      9  C   UNL     1      33.205 -21.444 -19.750  0.00  0.00    +0.062 C 
ATOM     10  C   UNL     1      34.415 -21.923 -19.290  0.00  0.00    +0.244 C 
ATOM     11  H   UNL     1      34.092 -17.575 -21.024  0.00  0.00    +0.175 HD
BRANCH  10  12
ATOM     12  O   UNL     1      34.455 -23.094 -18.584  0.00  0.00    -0.455 OA
ATOM     13  C   UNL     1      33.532 -23.226 -17.507  0.00  0.00    +0.254 C 
ENDBRANCH  10  12
ENDBRANCH   1   4
BRANCH   1  14
ATOM     14  C   UNL     1      34.659 -16.954 -23.675  0.00  0.00    +0.125 C 
ATOM     15  C   UNL     1      34.605 -15.763 -22.952  0.00  0.00    +0.021 C 
ATOM     16  C   UNL     1      34.225 -16.987 -25.000  0.00  0.00    +0.021 C 
ATOM     17  C   UNL     1      33.681 -14.635 -24.879  0.00  0.00    +0.042 C 
ATOM     18  C   UNL     1      34.116 -14.603 -23.554  0.00  0.00    +0.015 C 
ATOM     19  C   UNL     1      33.736 -15.827 -25.602  0.00  0.00    +0.015 C 
BRANCH  17  20
ATOM     20  N   UNL     1      33.187 -13.463 -25.488  0.00  0.00    -0.357 N 
ATOM     21  H   UNL     1      33.650 -13.081 -26.269  0.00  0.00    +0.142 HD
ATOM     22  H   UNL     1      32.379 -13.027 -25.133  0.00  0.00    +0.142 HD
ENDBRANCH  17  20
ENDBRANCH   1  14
TORSDOF 4
ENDMDL
MODEL 2
REMARK VINA RESULT:      -8.8      5.124      8.611
REMARK  Name = 5330
REMARK  4 active torsions:
REMARK  status: ('A' for Active; 'I' for Inactive)
REMARK    1  A    between atoms: S_1  and  N_4
REMARK    2  A    between atoms: S_1  and  C_14
REMARK    3  A    between atoms: C_10  and  O_12
REMARK    4  A    between atoms: C_17  and  N_20
REMARK                            x       y       z     vdW  Elec       q    Type
REMARK                         _______ _______ _______ _____ _____    ______ ____
ROOT
ATOM      1  S   UNL     1      33.131 -13.401 -23.521  0.00  0.00    +0.075 S 
ATOM      2  O   UNL     1      32.668 -13.876 -24.819  0.00  0.00    -0.150 OA
ATOM      3  O   UNL     1      34.047 -12.268 -23.473  0.00  0.00    -0.150 OA
ENDROOT
BRANCH   1   4
ATOM      4  N   UNL     1      31.747 -13.066 -22.550  0.00  0.00    -0.197 N 
ATOM      5  N   UNL     1      31.813 -10.718 -22.294  0.00  0.00    -0.129 NA
ATOM      6  N   UNL     1      31.853  -9.596 -21.527  0.00  0.00    -0.109 NA
ATOM      7  C   UNL     1      31.789 -11.917 -21.686  0.00  0.00    +0.169 C 
ATOM      8  C   UNL     1      31.801 -12.083 -20.321  0.00  0.00    +0.042 C 
ATOM      9  C   UNL     1      31.842 -10.941 -19.541  0.00  0.00    +0.062 C 
ATOM     10  C   UNL     1      31.867  -9.720 -20.182  0.00  0.00    +0.244 C 
ATOM     11  H   UNL     1      30.951 -13.644 -22.587  0.00  0.00    +0.175 HD
BRANCH  10  12
ATOM     12  O   UNL     1      31.908  -8.568 -19.445  0.00  0.00    -0.455 OA
ATOM     13  C   UNL     1      32.310  -7.384 -20.127  0.00  0.00    +0.254 C 
ENDBRANCH  10  12
ENDBRANCH   1   4
BRANCH   1  14
ATOM     14  C   UNL     1      33.867 -14.750 -22.692  0.00  0.00    +0.125 C 
ATOM     15  C   UNL     1      33.974 -14.740 -21.301  0.00  0.00    +0.021 C 
ATOM     16  C   UNL     1      34.350 -15.836 -23.421  0.00  0.00    +0.021 C 
ATOM     17  C   UNL     1      35.046 -16.905 -21.369  0.00  0.00    +0.042 C 
ATOM     18  C   UNL     1      34.563 -15.818 -20.640  0.00  0.00    +0.015 C 
ATOM     19  C   UNL     1      34.938 -16.914 -22.759  0.00  0.00    +0.015 C 
BRANCH  17  20
ATOM     20  N   UNL     1      35.641 -17.995 -20.700  0.00  0.00    -0.357 N 
ATOM     21  H   UNL     1      36.467 -18.398 -21.053  0.00  0.00    +0.142 HD
ATOM     22  H   UNL     1      35.230 -18.352 -19.880  0.00  0.00    +0.142 HD
ENDBRANCH  17  20
ENDBRANCH   1  14
TORSDOF 4
ENDMDL
MODEL 3
REMARK VINA RESULT:      -8.5      2.515      7.503
REMARK  Name = 5330
REMARK  4 active torsions:
REMARK  status: ('A' for Active; 'I' for Inactive)
REMARK    1  A    between atoms: S_1  and  N_4
REMARK    2  A    between atoms: S_1  and  C_14
REMARK    3  A    between atoms: C_10  and  O_12
REMARK    4  A    between atoms: C_17  and  N_20
REMARK                            x       y       z     vdW  Elec       q    Type
REMARK                         _______ _______ _______ _____ _____    ______ ____
ROOT
ATOM      1  S   UNL     1      35.191 -17.750 -21.455  0.00  0.00    +0.075 S 
ATOM      2  O   UNL     1      36.181 -17.993 -22.497  0.00  0.00    -0.150 OA
ATOM      3  O   UNL     1      35.527 -16.843 -20.365  0.00  0.00    -0.150 OA
ENDROOT
BRANCH   1   4
ATOM      4  N   UNL     1      33.735 -17.227 -22.213  0.00  0.00    -0.197 N 
ATOM      5  N   UNL     1      34.391 -15.275 -23.370  0.00  0.00    -0.129 NA
ATOM      6  N   UNL     1      34.278 -13.947 -23.643  0.00  0.00    -0.109 NA
ATOM      7  C   UNL     1      33.567 -15.820 -22.458  0.00  0.00    +0.169 C 
ATOM      8  C   UNL     1      32.606 -15.112 -21.776  0.00  0.00    +0.042 C 
ATOM      9  C   UNL     1      32.491 -13.762 -22.053  0.00  0.00    +0.062 C 
ATOM     10  C   UNL     1      33.345 -13.220 -22.992  0.00  0.00    +0.244 C 
ATOM     11  H   UNL     1      33.038 -17.873 -22.472  0.00  0.00    +0.175 HD
BRANCH  10  12
ATOM     12  O   UNL     1      33.264 -11.888 -23.294  0.00  0.00    -0.455 OA
ATOM     13  C   UNL     1      33.901 -11.461 -24.494  0.00  0.00    +0.254 C 
ENDBRANCH  10  12
ENDBRANCH   1   4
BRANCH   1  14
ATOM     14  C   UNL     1      34.740 -19.296 -20.778  0.00  0.00    +0.125 C 
ATOM     15  C   UNL     1      33.394 -19.621 -20.617  0.00  0.00    +0.021 C 
ATOM     16  C   UNL     1      35.728 -20.203 -20.396  0.00  0.00    +0.021 C 
ATOM     17  C   UNL     1      34.022 -21.764 -19.693  0.00  0.00    +0.042 C 
ATOM     18  C   UNL     1      33.034 -20.856 -20.076  0.00  0.00    +0.015 C 
ATOM     19  C   UNL     1      35.369 -21.438 -19.855  0.00  0.00    +0.015 C 
BRANCH  17  20
ATOM     20  N   UNL     1      33.659 -23.012 -19.147  0.00  0.00    -0.357 N 
ATOM     21  H   UNL     1      34.356 -23.641 -18.850  0.00  0.00    +0.142 HD
ATOM     22  H   UNL     1      32.709 -23.254 -19.061  0.00  0.00    +0.142 HD
ENDBRANCH  17  20
ENDBRANCH   1  14
TORSDOF 4
ENDMDL
MODEL 4
REMARK VINA RESULT:      -8.5      2.810      7.130
REMARK  Name = 5330
REMARK  4 active torsions:
REMARK  status: ('A' for Active; 'I' for Inactive)
REMARK    1  A    between atoms: S_1  and  N_4
REMARK    2  A    between atoms: S_1  and  C_14
REMARK    3  A    between atoms: C_10  and  O_12
REMARK    4  A    between atoms: C_17  and  N_20
REMARK                            x       y       z     vdW  Elec       q    Type
REMARK                         _______ _______ _______ _____ _____    ______ ____
ROOT
ATOM      1  S   UNL     1      35.452 -18.436 -21.723  0.00  0.00    +0.075 S 
ATOM      2  O   UNL     1      34.549 -18.243 -22.852  0.00  0.00    -0.150 OA
ATOM      3  O   UNL     1      36.868 -18.658 -21.987  0.00  0.00    -0.150 OA
ENDROOT
BRANCH   1   4
ATOM      4  N   UNL     1      35.266 -17.098 -20.654  0.00  0.00    -0.197 N 
ATOM      5  N   UNL     1      33.090 -16.312 -21.135  0.00  0.00    -0.129 NA
ATOM      6  N   UNL     1      32.225 -15.334 -21.514  0.00  0.00    -0.109 NA
ATOM      7  C   UNL     1      34.401 -16.023 -21.060  0.00  0.00    +0.169 C 
ATOM      8  C   UNL     1      34.929 -14.786 -21.345  0.00  0.00    +0.042 C 
ATOM      9  C   UNL     1      34.049 -13.791 -21.731  0.00  0.00    +0.062 C 
ATOM     10  C   UNL     1      32.707 -14.106 -21.802  0.00  0.00    +0.244 C 
ATOM     11  H   UNL     1      35.736 -17.071 -19.790  0.00  0.00    +0.175 HD
BRANCH  10  12
ATOM     12  O   UNL     1      31.806 -13.149 -22.180  0.00  0.00    -0.455 OA
ATOM     13  C   UNL     1      31.614 -12.058 -21.284  0.00  0.00    +0.254 C 
ENDBRANCH  10  12
ENDBRANCH   1   4
BRANCH   1  14
ATOM     14  C   UNL     1      34.843 -19.774 -20.779  0.00  0.00    +0.125 C 
ATOM     15  C   UNL     1      33.469 -19.932 -20.599  0.00  0.00    +0.021 C 
ATOM     16  C   UNL     1      35.732 -20.681 -20.204  0.00  0.00    +0.021 C 
ATOM     17  C   UNL     1      33.872 -21.909 -19.269  0.00  0.00    +0.042 C 
ATOM     18  C   UNL     1      32.983 -21.000 -19.844  0.00  0.00    +0.015 C 
ATOM     19  C   UNL     1      35.246 -21.750 -19.449  0.00  0.00    +0.015 C 
BRANCH  17  20
ATOM     20  N   UNL     1      33.381 -22.989 -18.506  0.00  0.00    -0.357 N 
ATOM     21  H   UNL     1      33.654 -23.092 -17.566  0.00  0.00    +0.142 HD
ATOM     22  H   UNL     1      32.765 -23.639 -18.914  0.00  0.00    +0.142 HD
ENDBRANCH  17  20
ENDBRANCH   1  14
TORSDOF 4
ENDMDL
MODEL 5
REMARK VINA RESULT:      -8.3      1.917      2.204
REMARK  Name = 5330
REMARK  4 active torsions:
REMARK  status: ('A' for Active; 'I' for Inactive)
REMARK    1  A    between atoms: S_1  and  N_4
REMARK    2  A    between atoms: S_1  and  C_14
REMARK    3  A    between atoms: C_10  and  O_12
REMARK    4  A    between atoms: C_17  and  N_20
REMARK                            x       y       z     vdW  Elec       q    Type
REMARK                         _______ _______ _______ _____ _____    ______ ____
ROOT
ATOM      1  S   UNL     1      34.076 -16.589 -21.499  0.00  0.00    +0.075 S 
ATOM      2  O   UNL     1      32.794 -16.757 -20.825  0.00  0.00    -0.150 OA
ATOM      3  O   UNL     1      35.149 -15.892 -20.801  0.00  0.00    -0.150 OA
ENDROOT
BRANCH   1   4
ATOM      4  N   UNL     1      34.626 -18.144 -21.997  0.00  0.00    -0.197 N 
ATOM      5  N   UNL     1      32.948 -19.601 -21.197  0.00  0.00    -0.129 NA
ATOM      6  N   UNL     1      32.537 -20.667 -20.459  0.00  0.00    -0.109 NA
ATOM      7  C   UNL     1      34.254 -19.281 -21.200  0.00  0.00    +0.169 C 
ATOM      8  C   UNL     1      35.212 -19.972 -20.498  0.00  0.00    +0.042 C 
ATOM      9  C   UNL     1      34.794 -21.058 -19.748  0.00  0.00    +0.062 C 
ATOM     10  C   UNL     1      33.450 -21.370 -19.756  0.00  0.00    +0.244 C 
ATOM     11  H   UNL     1      35.179 -18.250 -22.805  0.00  0.00    +0.175 HD
BRANCH  10  12
ATOM     12  O   UNL     1      32.998 -22.436 -19.027  0.00  0.00    -0.455 OA
ATOM     13  C   UNL     1      33.830 -22.885 -17.962  0.00  0.00    +0.254 C 
ENDBRANCH  10  12
ENDBRANCH   1   4
BRANCH   1  14
ATOM     14  C   UNL     1      33.778 -15.779 -23.017  0.00  0.00    +0.125 C 
ATOM     15  C   UNL     1      33.192 -14.513 -23.029  0.00  0.00    +0.021 C 
ATOM     16  C   UNL     1      34.123 -16.400 -24.217  0.00  0.00    +0.021 C 
ATOM     17  C   UNL     1      33.298 -14.487 -25.443  0.00  0.00    +0.042 C 
ATOM     18  C   UNL     1      32.953 -13.867 -24.242  0.00  0.00    +0.015 C 
ATOM     19  C   UNL     1      33.884 -15.753 -25.430  0.00  0.00    +0.015 C 
BRANCH  17  20
ATOM     20  N   UNL     1      33.057 -13.834 -26.669  0.00  0.00    -0.357 N 
ATOM     21  H   UNL     1      33.455 -14.183 -27.499  0.00  0.00    +0.142 HD
ATOM     22  H   UNL     1      32.490 -13.029 -26.695  0.00  0.00    +0.142 HD
ENDBRANCH  17  20
ENDBRANCH   1  14
TORSDOF 4
ENDMDL
MODEL 6
REMARK VINA RESULT:      -8.1      4.233      5.706
REMARK  Name = 5330
REMARK  4 active torsions:
REMARK  status: ('A' for Active; 'I' for Inactive)
REMARK    1  A    between atoms: S_1  and  N_4
REMARK    2  A    between atoms: S_1  and  C_14
REMARK    3  A    between atoms: C_10  and  O_12
REMARK    4  A    between atoms: C_17  and  N_20
REMARK                            x       y       z     vdW  Elec       q    Type
REMARK                         _______ _______ _______ _____ _____    ______ ____
ROOT
ATOM      1  S   UNL     1      33.227 -13.076 -23.803  0.00  0.00    +0.075 S 
ATOM      2  O   UNL     1      33.214 -13.535 -25.187  0.00  0.00    -0.150 OA
ATOM      3  O   UNL     1      32.048 -13.302 -22.978  0.00  0.00    -0.150 OA
ENDROOT
BRANCH   1   4
ATOM      4  N   UNL     1      34.612 -13.749 -23.030  0.00  0.00    -0.197 N 
ATOM      5  N   UNL     1      34.641 -15.980 -23.804  0.00  0.00    -0.129 NA
ATOM      6  N   UNL     1      34.639 -17.324 -23.592  0.00  0.00    -0.109 NA
ATOM      7  C   UNL     1      34.608 -15.158 -22.742  0.00  0.00    +0.169 C 
ATOM      8  C   UNL     1      34.572 -15.593 -21.438  0.00  0.00    +0.042 C 
ATOM      9  C   UNL     1      34.570 -16.960 -21.222  0.00  0.00    +0.062 C 
ATOM     10  C   UNL     1      34.604 -17.789 -22.325  0.00  0.00    +0.244 C 
ATOM     11  H   UNL     1      35.383 -13.185 -22.793  0.00  0.00    +0.175 HD
BRANCH  10  12
ATOM     12  O   UNL     1      34.603 -19.146 -22.154  0.00  0.00    -0.455 OA
ATOM     13  C   UNL     1      33.743 -19.665 -21.143  0.00  0.00    +0.254 C 
ENDBRANCH  10  12
ENDBRANCH   1   4
BRANCH   1  14
ATOM     14  C   UNL     1      33.583 -11.366 -23.813  0.00  0.00    +0.125 C 
ATOM     15  C   UNL     1      32.784 -10.483 -23.085  0.00  0.00    +0.021 C 
ATOM     16  C   UNL     1      34.663 -10.883 -24.550  0.00  0.00    +0.021 C 
ATOM     17  C   UNL     1      34.149  -8.634 -23.831  0.00  0.00    +0.042 C 
ATOM     18  C   UNL     1      33.068  -9.118 -23.094  0.00  0.00    +0.015 C 
ATOM     19  C   UNL     1      34.947  -9.517 -24.559  0.00  0.00    +0.015 C 
BRANCH  17  20
ATOM     20  N   UNL     1      34.437  -7.254 -23.840  0.00  0.00    -0.357 N 
ATOM     21  H   UNL     1      33.943  -6.644 -23.245  0.00  0.00    +0.142 HD
ATOM     22  H   UNL     1      35.131  -6.899 -24.441  0.00  0.00    +0.142 HD
ENDBRANCH  17  20
ENDBRANCH   1  14
TORSDOF 4
ENDMDL
MODEL 7
REMARK VINA RESULT:      -8.1      4.352      6.516
REMARK  Name = 5330
REMARK  4 active torsions:
REMARK  status: ('A' for Active; 'I' for Inactive)
REMARK    1  A    between atoms: S_1  and  N_4
REMARK    2  A    between atoms: S_1  and  C_14
REMARK    3  A    between atoms: C_10  and  O_12
REMARK    4  A    between atoms: C_17  and  N_20
REMARK                            x       y       z     vdW  Elec       q    Type
REMARK                         _______ _______ _______ _____ _____    ______ ____
ROOT
ATOM      1  S   UNL     1      33.831 -22.863 -18.161  0.00  0.00    +0.075 S 
ATOM      2  O   UNL     1      33.790 -24.111 -18.914  0.00  0.00    -0.150 OA
ATOM      3  O   UNL     1      32.744 -22.565 -17.237  0.00  0.00    -0.150 OA
ENDROOT
BRANCH   1   4
ATOM      4  N   UNL     1      35.336 -22.793 -17.324  0.00  0.00    -0.197 N 
ATOM      5  N   UNL     1      35.277 -24.701 -15.933  0.00  0.00    -0.129 NA
ATOM      6  N   UNL     1      35.334 -25.298 -14.712  0.00  0.00    -0.109 NA
ATOM      7  C   UNL     1      35.404 -23.365 -16.006  0.00  0.00    +0.169 C 
ATOM      8  C   UNL     1      35.590 -22.553 -14.913  0.00  0.00    +0.042 C 
ATOM      9  C   UNL     1      35.648 -23.160 -13.671  0.00  0.00    +0.062 C 
ATOM     10  C   UNL     1      35.516 -24.532 -13.615  0.00  0.00    +0.244 C 
ATOM     11  H   UNL     1      36.125 -22.374 -17.737  0.00  0.00    +0.175 HD
BRANCH  10  12
ATOM     12  O   UNL     1      35.567 -25.169 -12.405  0.00  0.00    -0.455 OA
ATOM     13  C   UNL     1      35.684 -24.345 -11.249  0.00  0.00    +0.254 C 
ENDBRANCH  10  12
ENDBRANCH   1   4
BRANCH   1  14
ATOM     14  C   UNL     1      33.965 -21.553 -19.308  0.00  0.00    +0.125 C 
ATOM     15  C   UNL     1      35.217 -21.182 -19.800  0.00  0.00    +0.021 C 
ATOM     16  C   UNL     1      32.821 -20.877 -19.731  0.00  0.00    +0.021 C 
ATOM     17  C   UNL     1      34.179 -19.458 -21.139  0.00  0.00    +0.042 C 
ATOM     18  C   UNL     1      35.323 -20.135 -20.716  0.00  0.00    +0.015 C 
ATOM     19  C   UNL     1      32.928 -19.830 -20.647  0.00  0.00    +0.015 C 
BRANCH  17  20
ATOM     20  N   UNL     1      34.286 -18.401 -22.065  0.00  0.00    -0.357 N 
ATOM     21  H   UNL     1      35.074 -17.810 -22.048  0.00  0.00    +0.142 HD
ATOM     22  H   UNL     1      33.574 -18.254 -22.729  0.00  0.00    +0.142 HD
ENDBRANCH  17  20
ENDBRANCH   1  14
TORSDOF 4
ENDMDL
MODEL 8
REMARK VINA RESULT:      -8.0      2.278      7.435
REMARK  Name = 5330
REMARK  4 active torsions:
REMARK  status: ('A' for Active; 'I' for Inactive)
REMARK    1  A    between atoms: S_1  and  N_4
REMARK    2  A    between atoms: S_1  and  C_14
REMARK    3  A    between atoms: C_10  and  O_12
REMARK    4  A    between atoms: C_17  and  N_20
REMARK                            x       y       z     vdW  Elec       q    Type
REMARK                         _______ _______ _______ _____ _____    ______ ____
ROOT
ATOM      1  S   UNL     1      35.249 -17.885 -21.481  0.00  0.00    +0.075 S 
ATOM      2  O   UNL     1      36.136 -18.162 -22.605  0.00  0.00    -0.150 OA
ATOM      3  O   UNL     1      35.716 -17.004 -20.419  0.00  0.00    -0.150 OA
ENDROOT
BRANCH   1   4
ATOM      4  N   UNL     1      33.759 -17.292 -22.110  0.00  0.00    -0.197 N 
ATOM      5  N   UNL     1      34.109 -17.298 -24.446  0.00  0.00    -0.129 NA
ATOM      6  N   UNL     1      34.152 -16.674 -25.654  0.00  0.00    -0.109 NA
ATOM      7  C   UNL     1      33.787 -16.577 -23.358  0.00  0.00    +0.169 C 
ATOM      8  C   UNL     1      33.495 -15.235 -23.388  0.00  0.00    +0.042 C 
ATOM      9  C   UNL     1      33.538 -14.600 -24.617  0.00  0.00    +0.062 C 
ATOM     10  C   UNL     1      33.871 -15.356 -25.723  0.00  0.00    +0.244 C 
ATOM     11  H   UNL     1      32.912 -17.439 -21.629  0.00  0.00    +0.175 HD
BRANCH  10  12
ATOM     12  O   UNL     1      33.925 -14.765 -26.956  0.00  0.00    -0.455 OA
ATOM     13  C   UNL     1      33.230 -13.531 -27.108  0.00  0.00    +0.254 C 
ENDBRANCH  10  12
ENDBRANCH   1   4
BRANCH   1  14
ATOM     14  C   UNL     1      34.789 -19.416 -20.777  0.00  0.00    +0.125 C 
ATOM     15  C   UNL     1      35.771 -20.311 -20.352  0.00  0.00    +0.021 C 
ATOM     16  C   UNL     1      33.441 -19.743 -20.641  0.00  0.00    +0.021 C 
ATOM     17  C   UNL     1      34.055 -21.862 -19.653  0.00  0.00    +0.042 C 
ATOM     18  C   UNL     1      35.404 -21.533 -19.789  0.00  0.00    +0.015 C 
ATOM     19  C   UNL     1      33.074 -20.966 -20.078  0.00  0.00    +0.015 C 
BRANCH  17  20
ATOM     20  N   UNL     1      33.684 -23.097 -19.084  0.00  0.00    -0.357 N 
ATOM     21  H   UNL     1      32.871 -23.558 -19.395  0.00  0.00    +0.142 HD
ATOM     22  H   UNL     1      34.238 -23.500 -18.377  0.00  0.00    +0.142 HD
ENDBRANCH  17  20
ENDBRANCH   1  14
TORSDOF 4
ENDMDL
MODEL 9
REMARK VINA RESULT:      -7.9      6.608     11.157
REMARK  Name = 5330
REMARK  4 active torsions:
REMARK  status: ('A' for Active; 'I' for Inactive)
REMARK    1  A    between atoms: S_1  and  N_4
REMARK    2  A    between atoms: S_1  and  C_14
REMARK    3  A    between atoms: C_10  and  O_12
REMARK    4  A    between atoms: C_17  and  N_20
REMARK                            x       y       z     vdW  Elec       q    Type
REMARK                         _______ _______ _______ _____ _____    ______ ____
ROOT
ATOM      1  S   UNL     1      35.257 -24.268 -13.099  0.00  0.00    +0.075 S 
ATOM      2  O   UNL     1      35.293 -22.847 -13.427  0.00  0.00    -0.150 OA
ATOM      3  O   UNL     1      34.912 -24.666 -11.741  0.00  0.00    -0.150 OA
ENDROOT
BRANCH   1   4
ATOM      4  N   UNL     1      34.201 -25.047 -14.216  0.00  0.00    -0.197 N 
ATOM      5  N   UNL     1      34.673 -23.964 -16.262  0.00  0.00    -0.129 NA
ATOM      6  N   UNL     1      34.295 -23.251 -17.356  0.00  0.00    -0.109 NA
ATOM      7  C   UNL     1      33.741 -24.293 -15.351  0.00  0.00    +0.169 C 
ATOM      8  C   UNL     1      32.414 -23.950 -15.456  0.00  0.00    +0.042 C 
ATOM      9  C   UNL     1      32.029 -23.224 -16.570  0.00  0.00    +0.062 C 
ATOM     10  C   UNL     1      32.999 -22.896 -17.494  0.00  0.00    +0.244 C 
ATOM     11  H   UNL     1      33.922 -25.981 -14.081  0.00  0.00    +0.175 HD
BRANCH  10  12
ATOM     12  O   UNL     1      32.659 -22.179 -18.608  0.00  0.00    -0.455 OA
ATOM     13  C   UNL     1      33.729 -21.726 -19.432  0.00  0.00    +0.254 C 
ENDBRANCH  10  12
ENDBRANCH   1   4
BRANCH   1  14
ATOM     14  C   UNL     1      36.815 -24.946 -13.502  0.00  0.00    +0.125 C 
ATOM     15  C   UNL     1      36.904 -25.986 -14.428  0.00  0.00    +0.021 C 
ATOM     16  C   UNL     1      37.969 -24.450 -12.897  0.00  0.00    +0.021 C 
ATOM     17  C   UNL     1      39.303 -26.032 -14.144  0.00  0.00    +0.042 C 
ATOM     18  C   UNL     1      38.149 -26.528 -14.750  0.00  0.00    +0.015 C 
ATOM     19  C   UNL     1      39.213 -24.992 -13.219  0.00  0.00    +0.015 C 
BRANCH  17  20
ATOM     20  N   UNL     1      40.562 -26.579 -14.469  0.00  0.00    -0.357 N 
ATOM     21  H   UNL     1      41.303 -25.987 -14.732  0.00  0.00    +0.142 HD
ATOM     22  H   UNL     1      40.698 -27.554 -14.433  0.00  0.00    +0.142 HD
ENDBRANCH  17  20
ENDBRANCH   1  14
TORSDOF 4
ENDMDL
