MODEL 1
REMARK VINA RESULT:      -7.6      0.000      0.000
REMARK  Name = 4499
REMARK  8 active torsions:
REMARK  status: ('A' for Active; 'I' for Inactive)
REMARK    1  A    between atoms: C_2  and  C_10
REMARK    2  A    between atoms: C_3  and  C_20
REMARK    3  A    between atoms: C_4  and  C_27
REMARK    4  A    between atoms: C_11  and  N_18
REMARK    5  A    between atoms: C_20  and  O_21
REMARK    6  A    between atoms: O_21  and  C_22
REMARK    7  A    between atoms: C_22  and  C_23
REMARK    8  A    between atoms: C_27  and  O_28
REMARK                            x       y       z     vdW  Elec       q    Type
REMARK                         _______ _______ _______ _____ _____    ______ ____
ROOT
ATOM      1  N   UNL     1      33.863 -22.883 -17.312  0.00  0.00    -0.334 N 
ATOM      2  C   UNL     1      35.115 -23.277 -14.800  0.00  0.00    +0.013 C 
ATOM      3  C   UNL     1      35.842 -22.711 -16.026  0.00  0.00    +0.071 C 
ATOM      4  C   UNL     1      33.609 -23.451 -15.029  0.00  0.00    +0.085 C 
ATOM      5  C   UNL     1      35.206 -22.554 -17.208  0.00  0.00    +0.098 C 
ATOM      6  C   UNL     1      33.062 -23.279 -16.253  0.00  0.00    +0.028 C 
ATOM      7  C   UNL     1      35.835 -22.046 -18.478  0.00  0.00    +0.026 C 
ATOM      8  C   UNL     1      31.610 -23.474 -16.595  0.00  0.00    +0.047 C 
ATOM      9  H   UNL     1      33.448 -22.833 -18.203  0.00  0.00    +0.147 HD
ENDROOT
BRANCH   2  10
ATOM     10  C   UNL     1      35.727 -24.588 -14.401  0.00  0.00    +0.023 C 
ATOM     11  C   UNL     1      36.159 -24.812 -13.098  0.00  0.00    +0.143 C 
ATOM     12  C   UNL     1      35.855 -25.581 -15.368  0.00  0.00    +0.002 C 
ATOM     13  C   UNL     1      36.725 -26.041 -12.758  0.00  0.00    +0.024 C 
ATOM     14  C   UNL     1      36.422 -26.810 -15.028  0.00  0.00    +0.000 C 
ATOM     15  C   UNL     1      36.856 -27.039 -13.722  0.00  0.00    +0.002 C 
BRANCH  11  18
ATOM     16  O   UNL     1      36.876 -22.878 -12.069  0.00  0.00    -0.126 OA
ATOM     17  O   UNL     1      35.093 -23.882 -11.277  0.00  0.00    -0.126 OA
ATOM     18  N   UNL     1      36.037 -23.808 -12.099  0.00  0.00    +0.058 N 
ENDBRANCH  11  18
ENDBRANCH   2  10
BRANCH   3  20
ATOM     19  O   UNL     1      37.706 -21.273 -16.300  0.00  0.00    -0.245 OA
ATOM     20  C   UNL     1      37.239 -22.292 -15.827  0.00  0.00    +0.339 C 
BRANCH  20  21
ATOM     21  O   UNL     1      37.858 -23.218 -15.055  0.00  0.00    -0.446 OA
BRANCH  21  22
ATOM     22  C   UNL     1      38.999 -23.842 -15.653  0.00  0.00    +0.209 C 
BRANCH  22  23
ATOM     23  C   UNL     1      39.425 -25.055 -14.822  0.00  0.00    +0.044 C 
ATOM     24  C   UNL     1      39.775 -24.628 -13.397  0.00  0.00    +0.004 C 
ATOM     25  C   UNL     1      40.607 -25.784 -15.463  0.00  0.00    +0.004 C 
ENDBRANCH  22  23
ENDBRANCH  21  22
ENDBRANCH  20  21
ENDBRANCH   3  20
BRANCH   4  27
ATOM     26  O   UNL     1      32.563 -22.959 -12.961  0.00  0.00    -0.245 OA
ATOM     27  C   UNL     1      32.796 -23.764 -13.843  0.00  0.00    +0.342 C 
BRANCH  27  28
ATOM     28  O   UNL     1      32.386 -25.052 -13.932  0.00  0.00    -0.441 OA
ATOM     29  C   UNL     1      30.996 -25.267 -13.664  0.00  0.00    +0.256 C 
ENDBRANCH  27  28
ENDBRANCH   4  27
TORSDOF 8
ENDMDL
MODEL 2
REMARK VINA RESULT:      -6.7      1.668      3.678
REMARK  Name = 4499
REMARK  8 active torsions:
REMARK  status: ('A' for Active; 'I' for Inactive)
REMARK    1  A    between atoms: C_2  and  C_10
REMARK    2  A    between atoms: C_3  and  C_20
REMARK    3  A    between atoms: C_4  and  C_27
REMARK    4  A    between atoms: C_11  and  N_18
REMARK    5  A    between atoms: C_20  and  O_21
REMARK    6  A    between atoms: O_21  and  C_22
REMARK    7  A    between atoms: C_22  and  C_23
REMARK    8  A    between atoms: C_27  and  O_28
REMARK                            x       y       z     vdW  Elec       q    Type
REMARK                         _______ _______ _______ _____ _____    ______ ____
ROOT
ATOM      1  N   UNL     1      32.971 -23.957 -15.758  0.00  0.00    -0.334 N 
ATOM      2  C   UNL     1      35.477 -23.445 -14.536  0.00  0.00    +0.013 C 
ATOM      3  C   UNL     1      35.184 -23.156 -16.014  0.00  0.00    +0.071 C 
ATOM      4  C   UNL     1      34.233 -23.882 -13.756  0.00  0.00    +0.085 C 
ATOM      5  C   UNL     1      33.976 -23.431 -16.555  0.00  0.00    +0.098 C 
ATOM      6  C   UNL     1      33.065 -24.142 -14.388  0.00  0.00    +0.028 C 
ATOM      7  C   UNL     1      33.599 -23.223 -17.997  0.00  0.00    +0.026 C 
ATOM      8  C   UNL     1      31.803 -24.624 -13.725  0.00  0.00    +0.047 C 
ATOM      9  H   UNL     1      32.131 -24.219 -16.197  0.00  0.00    +0.147 HD
ENDROOT
BRANCH   2  10
ATOM     10  C   UNL     1      36.547 -24.491 -14.421  0.00  0.00    +0.023 C 
ATOM     11  C   UNL     1      37.654 -24.299 -13.600  0.00  0.00    +0.143 C 
ATOM     12  C   UNL     1      36.409 -25.664 -15.158  0.00  0.00    +0.002 C 
ATOM     13  C   UNL     1      38.632 -25.290 -13.515  0.00  0.00    +0.024 C 
ATOM     14  C   UNL     1      37.388 -26.654 -15.073  0.00  0.00    +0.000 C 
ATOM     15  C   UNL     1      38.499 -26.467 -14.250  0.00  0.00    +0.002 C 
BRANCH  11  18
ATOM     16  O   UNL     1      37.472 -22.014 -13.355  0.00  0.00    -0.126 OA
ATOM     17  O   UNL     1      38.285 -23.182 -11.684  0.00  0.00    -0.126 OA
ATOM     18  N   UNL     1      37.812 -23.107 -12.843  0.00  0.00    +0.058 N 
ENDBRANCH  11  18
ENDBRANCH   2  10
BRANCH   3  20
ATOM     19  O   UNL     1      37.380 -22.329 -16.345  0.00  0.00    -0.245 OA
ATOM     20  C   UNL     1      36.260 -22.510 -16.784  0.00  0.00    +0.339 C 
BRANCH  20  21
ATOM     21  O   UNL     1      35.773 -22.180 -18.004  0.00  0.00    -0.446 OA
BRANCH  21  22
ATOM     22  C   UNL     1      36.600 -21.293 -18.767  0.00  0.00    +0.209 C 
BRANCH  22  23
ATOM     23  C   UNL     1      35.918 -20.963 -20.098  0.00  0.00    +0.044 C 
ATOM     24  C   UNL     1      36.524 -19.700 -20.707  0.00  0.00    +0.004 C 
ATOM     25  C   UNL     1      34.408 -20.797 -19.925  0.00  0.00    +0.004 C 
ENDBRANCH  22  23
ENDBRANCH  21  22
ENDBRANCH  20  21
ENDBRANCH   3  20
BRANCH   4  27
ATOM     26  O   UNL     1      33.948 -23.092 -11.541  0.00  0.00    -0.245 OA
ATOM     27  C   UNL     1      34.365 -23.953 -12.293  0.00  0.00    +0.342 C 
BRANCH  27  28
ATOM     28  O   UNL     1      35.006 -25.104 -11.976  0.00  0.00    -0.441 OA
ATOM     29  C   UNL     1      35.636 -25.114 -10.691  0.00  0.00    +0.256 C 
ENDBRANCH  27  28
ENDBRANCH   4  27
TORSDOF 8
ENDMDL
MODEL 3
REMARK VINA RESULT:      -6.1      2.401      4.704
REMARK  Name = 4499
REMARK  8 active torsions:
REMARK  status: ('A' for Active; 'I' for Inactive)
REMARK    1  A    between atoms: C_2  and  C_10
REMARK    2  A    between atoms: C_3  and  C_20
REMARK    3  A    between atoms: C_4  and  C_27
REMARK    4  A    between atoms: C_11  and  N_18
REMARK    5  A    between atoms: C_20  and  O_21
REMARK    6  A    between atoms: O_21  and  C_22
REMARK    7  A    between atoms: C_22  and  C_23
REMARK    8  A    between atoms: C_27  and  O_28
REMARK                            x       y       z     vdW  Elec       q    Type
REMARK                         _______ _______ _______ _____ _____    ______ ____
ROOT
ATOM      1  N   UNL     1      33.312 -23.514 -13.511  0.00  0.00    -0.334 N 
ATOM      2  C   UNL     1      34.059 -23.895 -16.219  0.00  0.00    +0.013 C 
ATOM      3  C   UNL     1      34.817 -24.516 -15.039  0.00  0.00    +0.071 C 
ATOM      4  C   UNL     1      32.768 -23.187 -15.792  0.00  0.00    +0.085 C 
ATOM      5  C   UNL     1      34.430 -24.294 -13.763  0.00  0.00    +0.098 C 
ATOM      6  C   UNL     1      32.469 -23.004 -14.486  0.00  0.00    +0.028 C 
ATOM      7  C   UNL     1      35.124 -24.822 -12.536  0.00  0.00    +0.026 C 
ATOM      8  C   UNL     1      31.258 -22.280 -13.961  0.00  0.00    +0.047 C 
ATOM      9  H   UNL     1      33.103 -23.305 -12.573  0.00  0.00    +0.147 HD
ENDROOT
BRANCH   2  10
ATOM     10  C   UNL     1      34.950 -22.936 -16.952  0.00  0.00    +0.023 C 
ATOM     11  C   UNL     1      34.834 -22.754 -18.327  0.00  0.00    +0.143 C 
ATOM     12  C   UNL     1      35.903 -22.227 -16.225  0.00  0.00    +0.002 C 
ATOM     13  C   UNL     1      35.677 -21.856 -18.980  0.00  0.00    +0.024 C 
ATOM     14  C   UNL     1      36.747 -21.330 -16.879  0.00  0.00    +0.000 C 
ATOM     15  C   UNL     1      36.633 -21.144 -18.257  0.00  0.00    +0.002 C 
BRANCH  11  18
ATOM     16  O   UNL     1      33.767 -24.710 -18.923  0.00  0.00    -0.126 OA
ATOM     17  O   UNL     1      33.144 -22.843 -19.894  0.00  0.00    -0.126 OA
ATOM     18  N   UNL     1      33.868 -23.471 -19.085  0.00  0.00    +0.058 N 
ENDBRANCH  11  18
ENDBRANCH   2  10
BRANCH   3  20
ATOM     19  O   UNL     1      35.789 -26.498 -15.901  0.00  0.00    -0.245 OA
ATOM     20  C   UNL     1      35.936 -25.411 -15.374  0.00  0.00    +0.339 C 
BRANCH  20  21
ATOM     21  O   UNL     1      37.091 -24.811 -14.999  0.00  0.00    -0.446 OA
BRANCH  21  22
ATOM     22  C   UNL     1      38.251 -25.649 -15.038  0.00  0.00    +0.209 C 
BRANCH  22  23
ATOM     23  C   UNL     1      39.238 -25.222 -13.947  0.00  0.00    +0.044 C 
ATOM     24  C   UNL     1      40.564 -25.963 -14.110  0.00  0.00    +0.004 C 
ATOM     25  C   UNL     1      38.663 -25.464 -12.550  0.00  0.00    +0.004 C 
ENDBRANCH  22  23
ENDBRANCH  21  22
ENDBRANCH  20  21
ENDBRANCH   3  20
BRANCH   4  27
ATOM     26  O   UNL     1      32.024 -21.754 -17.526  0.00  0.00    -0.245 OA
ATOM     27  C   UNL     1      31.860 -22.767 -16.871  0.00  0.00    +0.342 C 
BRANCH  27  28
ATOM     28  O   UNL     1      30.868 -23.683 -16.977  0.00  0.00    -0.441 OA
ATOM     29  C   UNL     1      29.549 -23.182 -16.733  0.00  0.00    +0.256 C 
ENDBRANCH  27  28
ENDBRANCH   4  27
TORSDOF 8
ENDMDL
MODEL 4
REMARK VINA RESULT:      -5.8     13.741     17.202
REMARK  Name = 4499
REMARK  8 active torsions:
REMARK  status: ('A' for Active; 'I' for Inactive)
REMARK    1  A    between atoms: C_2  and  C_10
REMARK    2  A    between atoms: C_3  and  C_20
REMARK    3  A    between atoms: C_4  and  C_27
REMARK    4  A    between atoms: C_11  and  N_18
REMARK    5  A    between atoms: C_20  and  O_21
REMARK    6  A    between atoms: O_21  and  C_22
REMARK    7  A    between atoms: C_22  and  C_23
REMARK    8  A    between atoms: C_27  and  O_28
REMARK                            x       y       z     vdW  Elec       q    Type
REMARK                         _______ _______ _______ _____ _____    ______ ____
ROOT
ATOM      1  N   UNL     1      33.835 -11.536 -24.897  0.00  0.00    -0.334 N 
ATOM      2  C   UNL     1      33.259  -9.637 -22.874  0.00  0.00    +0.013 C 
ATOM      3  C   UNL     1      32.681 -11.058 -22.886  0.00  0.00    +0.071 C 
ATOM      4  C   UNL     1      34.302  -9.408 -23.972  0.00  0.00    +0.085 C 
ATOM      5  C   UNL     1      32.975 -11.924 -23.882  0.00  0.00    +0.098 C 
ATOM      6  C   UNL     1      34.522 -10.333 -24.933  0.00  0.00    +0.028 C 
ATOM      7  C   UNL     1      32.433 -13.323 -24.009  0.00  0.00    +0.026 C 
ATOM      8  C   UNL     1      35.483 -10.187 -26.082  0.00  0.00    +0.047 C 
ATOM      9  H   UNL     1      33.967 -12.159 -25.647  0.00  0.00    +0.147 HD
ENDROOT
BRANCH   2  10
ATOM     10  C   UNL     1      32.151  -8.633 -23.003  0.00  0.00    +0.023 C 
ATOM     11  C   UNL     1      31.804  -7.806 -21.938  0.00  0.00    +0.143 C 
ATOM     12  C   UNL     1      31.473  -8.546 -24.215  0.00  0.00    +0.002 C 
ATOM     13  C   UNL     1      30.769  -6.883 -22.089  0.00  0.00    +0.024 C 
ATOM     14  C   UNL     1      30.438  -7.623 -24.364  0.00  0.00    +0.000 C 
ATOM     15  C   UNL     1      30.086  -6.791 -23.301  0.00  0.00    +0.002 C 
BRANCH  11  18
ATOM     16  O   UNL     1      32.037  -8.645 -19.804  0.00  0.00    -0.126 OA
ATOM     17  O   UNL     1      33.513  -7.188 -20.520  0.00  0.00    -0.126 OA
ATOM     18  N   UNL     1      32.484  -7.883 -20.693  0.00  0.00    +0.058 N 
ENDBRANCH  11  18
ENDBRANCH   2  10
BRANCH   3  20
ATOM     19  O   UNL     1      30.657 -11.218 -21.664  0.00  0.00    -0.245 OA
ATOM     20  C   UNL     1      31.852 -11.441 -21.733  0.00  0.00    +0.339 C 
BRANCH  20  21
ATOM     21  O   UNL     1      32.643 -12.054 -20.821  0.00  0.00    -0.446 OA
BRANCH  21  22
ATOM     22  C   UNL     1      32.143 -13.299 -20.321  0.00  0.00    +0.209 C 
BRANCH  22  23
ATOM     23  C   UNL     1      32.834 -14.463 -21.036  0.00  0.00    +0.044 C 
ATOM     24  C   UNL     1      32.172 -15.788 -20.658  0.00  0.00    +0.004 C 
ATOM     25  C   UNL     1      34.329 -14.506 -20.716  0.00  0.00    +0.004 C 
ENDBRANCH  22  23
ENDBRANCH  21  22
ENDBRANCH  20  21
ENDBRANCH   3  20
BRANCH   4  27
ATOM     26  O   UNL     1      35.630  -7.778 -22.878  0.00  0.00    -0.245 OA
ATOM     27  C   UNL     1      35.077  -8.160 -23.894  0.00  0.00    +0.342 C 
BRANCH  27  28
ATOM     28  O   UNL     1      35.051  -7.562 -25.109  0.00  0.00    -0.441 OA
ATOM     29  C   UNL     1      34.293  -6.349 -25.173  0.00  0.00    +0.256 C 
ENDBRANCH  27  28
ENDBRANCH   4  27
TORSDOF 8
ENDMDL
MODEL 5
REMARK VINA RESULT:      -5.5     12.439     16.075
REMARK  Name = 4499
REMARK  8 active torsions:
REMARK  status: ('A' for Active; 'I' for Inactive)
REMARK    1  A    between atoms: C_2  and  C_10
REMARK    2  A    between atoms: C_3  and  C_20
REMARK    3  A    between atoms: C_4  and  C_27
REMARK    4  A    between atoms: C_11  and  N_18
REMARK    5  A    between atoms: C_20  and  O_21
REMARK    6  A    between atoms: O_21  and  C_22
REMARK    7  A    between atoms: C_22  and  C_23
REMARK    8  A    between atoms: C_27  and  O_28
REMARK                            x       y       z     vdW  Elec       q    Type
REMARK                         _______ _______ _______ _____ _____    ______ ____
ROOT
ATOM      1  N   UNL     1      31.495 -12.968 -21.333  0.00  0.00    -0.334 N 
ATOM      2  C   UNL     1      33.542 -12.332 -23.187  0.00  0.00    +0.013 C 
ATOM      3  C   UNL     1      32.454 -11.340 -22.758  0.00  0.00    +0.071 C 
ATOM      4  C   UNL     1      33.504 -13.640 -22.389  0.00  0.00    +0.085 C 
ATOM      5  C   UNL     1      31.489 -11.694 -21.880  0.00  0.00    +0.098 C 
ATOM      6  C   UNL     1      32.490 -13.910 -21.535  0.00  0.00    +0.028 C 
ATOM      7  C   UNL     1      30.357 -10.813 -21.425  0.00  0.00    +0.026 C 
ATOM      8  C   UNL     1      32.331 -15.181 -20.745  0.00  0.00    +0.047 C 
ATOM      9  H   UNL     1      30.737 -13.221 -20.759  0.00  0.00    +0.147 HD
ENDROOT
BRANCH   2  10
ATOM     10  C   UNL     1      33.420 -12.624 -24.654  0.00  0.00    +0.023 C 
ATOM     11  C   UNL     1      34.144 -11.896 -25.594  0.00  0.00    +0.143 C 
ATOM     12  C   UNL     1      32.563 -13.643 -25.058  0.00  0.00    +0.002 C 
ATOM     13  C   UNL     1      34.008 -12.191 -26.950  0.00  0.00    +0.024 C 
ATOM     14  C   UNL     1      32.427 -13.937 -26.414  0.00  0.00    +0.000 C 
ATOM     15  C   UNL     1      33.150 -13.210 -27.361  0.00  0.00    +0.002 C 
BRANCH  11  18
ATOM     16  O   UNL     1      35.397 -10.793 -24.004  0.00  0.00    -0.126 OA
ATOM     17  O   UNL     1      35.397 -10.017 -26.057  0.00  0.00    -0.126 OA
ATOM     18  N   UNL     1      35.022 -10.851 -25.199  0.00  0.00    +0.058 N 
ENDBRANCH  11  18
ENDBRANCH   2  10
BRANCH   3  20
ATOM     19  O   UNL     1      32.009  -9.621 -24.328  0.00  0.00    -0.245 OA
ATOM     20  C   UNL     1      32.557  -9.976 -23.301  0.00  0.00    +0.339 C 
BRANCH  20  21
ATOM     21  O   UNL     1      33.339  -9.243 -22.473  0.00  0.00    -0.446 OA
BRANCH  21  22
ATOM     22  C   UNL     1      33.143  -7.826 -22.548  0.00  0.00    +0.209 C 
BRANCH  22  23
ATOM     23  C   UNL     1      32.022  -7.404 -21.594  0.00  0.00    +0.044 C 
ATOM     24  C   UNL     1      31.802  -5.894 -21.668  0.00  0.00    +0.004 C 
ATOM     25  C   UNL     1      32.324  -7.828 -20.156  0.00  0.00    +0.004 C 
ENDBRANCH  22  23
ENDBRANCH  21  22
ENDBRANCH  20  21
ENDBRANCH   3  20
BRANCH   4  27
ATOM     26  O   UNL     1      35.476 -14.758 -21.699  0.00  0.00    -0.245 OA
ATOM     27  C   UNL     1      34.645 -14.551 -22.564  0.00  0.00    +0.342 C 
BRANCH  27  28
ATOM     28  O   UNL     1      34.584 -15.080 -23.810  0.00  0.00    -0.441 OA
ATOM     29  C   UNL     1      34.687 -16.507 -23.870  0.00  0.00    +0.256 C 
ENDBRANCH  27  28
ENDBRANCH   4  27
TORSDOF 8
ENDMDL
MODEL 6
REMARK VINA RESULT:      -5.3      2.311      5.201
REMARK  Name = 4499
REMARK  8 active torsions:
REMARK  status: ('A' for Active; 'I' for Inactive)
REMARK    1  A    between atoms: C_2  and  C_10
REMARK    2  A    between atoms: C_3  and  C_20
REMARK    3  A    between atoms: C_4  and  C_27
REMARK    4  A    between atoms: C_11  and  N_18
REMARK    5  A    between atoms: C_20  and  O_21
REMARK    6  A    between atoms: O_21  and  C_22
REMARK    7  A    between atoms: C_22  and  C_23
REMARK    8  A    between atoms: C_27  and  O_28
REMARK                            x       y       z     vdW  Elec       q    Type
REMARK                         _______ _______ _______ _____ _____    ______ ____
ROOT
ATOM      1  N   UNL     1      38.783 -23.315 -16.041  0.00  0.00    -0.334 N 
ATOM      2  C   UNL     1      36.594 -24.500 -14.686  0.00  0.00    +0.013 C 
ATOM      3  C   UNL     1      36.456 -23.285 -15.611  0.00  0.00    +0.071 C 
ATOM      4  C   UNL     1      38.003 -25.104 -14.701  0.00  0.00    +0.085 C 
ATOM      5  C   UNL     1      37.533 -22.746 -16.225  0.00  0.00    +0.098 C 
ATOM      6  C   UNL     1      39.023 -24.486 -15.339  0.00  0.00    +0.028 C 
ATOM      7  C   UNL     1      37.512 -21.535 -17.118  0.00  0.00    +0.026 C 
ATOM      8  C   UNL     1      40.449 -24.964 -15.372  0.00  0.00    +0.047 C 
ATOM      9  H   UNL     1      39.557 -22.855 -16.437  0.00  0.00    +0.147 HD
ENDROOT
BRANCH   2  10
ATOM     10  C   UNL     1      36.215 -24.123 -13.284  0.00  0.00    +0.023 C 
ATOM     11  C   UNL     1      34.928 -24.347 -12.802  0.00  0.00    +0.143 C 
ATOM     12  C   UNL     1      37.181 -23.539 -12.469  0.00  0.00    +0.002 C 
ATOM     13  C   UNL     1      34.605 -23.985 -11.495  0.00  0.00    +0.024 C 
ATOM     14  C   UNL     1      36.857 -23.176 -11.162  0.00  0.00    +0.000 C 
ATOM     15  C   UNL     1      35.569 -23.399 -10.675  0.00  0.00    +0.002 C 
BRANCH  11  18
ATOM     16  O   UNL     1      32.724 -24.679 -13.393  0.00  0.00    -0.126 OA
ATOM     17  O   UNL     1      34.281 -25.707 -14.549  0.00  0.00    -0.126 OA
ATOM     18  N   UNL     1      33.929 -24.940 -13.621  0.00  0.00    +0.058 N 
ENDBRANCH  11  18
ENDBRANCH   2  10
BRANCH   3  20
ATOM     19  O   UNL     1      34.519 -22.027 -15.079  0.00  0.00    -0.245 OA
ATOM     20  C   UNL     1      35.091 -22.785 -15.840  0.00  0.00    +0.339 C 
BRANCH  20  21
ATOM     21  O   UNL     1      34.632 -23.311 -17.001  0.00  0.00    -0.446 OA
BRANCH  21  22
ATOM     22  C   UNL     1      33.473 -22.668 -17.542  0.00  0.00    +0.209 C 
BRANCH  22  23
ATOM     23  C   UNL     1      33.689 -22.370 -19.028  0.00  0.00    +0.044 C 
ATOM     24  C   UNL     1      35.178 -22.197 -19.325  0.00  0.00    +0.004 C 
ATOM     25  C   UNL     1      32.913 -21.127 -19.466  0.00  0.00    +0.004 C 
ENDBRANCH  22  23
ENDBRANCH  21  22
ENDBRANCH  20  21
ENDBRANCH   3  20
BRANCH   4  27
ATOM     26  O   UNL     1      38.369 -26.519 -12.836  0.00  0.00    -0.245 OA
ATOM     27  C   UNL     1      38.170 -26.403 -14.031  0.00  0.00    +0.342 C 
BRANCH  27  28
ATOM     28  O   UNL     1      38.061 -27.382 -14.962  0.00  0.00    -0.441 OA
ATOM     29  C   UNL     1      36.873 -27.333 -15.760  0.00  0.00    +0.256 C 
ENDBRANCH  27  28
ENDBRANCH   4  27
TORSDOF 8
ENDMDL
MODEL 7
REMARK VINA RESULT:      -5.2     13.540     16.897
REMARK  Name = 4499
REMARK  8 active torsions:
REMARK  status: ('A' for Active; 'I' for Inactive)
REMARK    1  A    between atoms: C_2  and  C_10
REMARK    2  A    between atoms: C_3  and  C_20
REMARK    3  A    between atoms: C_4  and  C_27
REMARK    4  A    between atoms: C_11  and  N_18
REMARK    5  A    between atoms: C_20  and  O_21
REMARK    6  A    between atoms: O_21  and  C_22
REMARK    7  A    between atoms: C_22  and  C_23
REMARK    8  A    between atoms: C_27  and  O_28
REMARK                            x       y       z     vdW  Elec       q    Type
REMARK                         _______ _______ _______ _____ _____    ______ ____
ROOT
ATOM      1  N   UNL     1      35.148  -9.644 -24.990  0.00  0.00    -0.334 N 
ATOM      2  C   UNL     1      32.913 -11.074 -23.994  0.00  0.00    +0.013 C 
ATOM      3  C   UNL     1      33.388  -9.738 -23.410  0.00  0.00    +0.071 C 
ATOM      4  C   UNL     1      33.668 -11.470 -25.268  0.00  0.00    +0.085 C 
ATOM      5  C   UNL     1      34.469  -9.099 -23.911  0.00  0.00    +0.098 C 
ATOM      6  C   UNL     1      34.747 -10.771 -25.688  0.00  0.00    +0.028 C 
ATOM      7  C   UNL     1      35.039  -7.808 -23.388  0.00  0.00    +0.026 C 
ATOM      8  C   UNL     1      35.588 -11.104 -26.891  0.00  0.00    +0.047 C 
ATOM      9  H   UNL     1      35.976  -9.198 -25.280  0.00  0.00    +0.147 HD
ENDROOT
BRANCH   2  10
ATOM     10  C   UNL     1      33.043 -12.158 -22.965  0.00  0.00    +0.023 C 
ATOM     11  C   UNL     1      32.030 -12.398 -22.041  0.00  0.00    +0.143 C 
ATOM     12  C   UNL     1      34.206 -12.923 -22.950  0.00  0.00    +0.002 C 
ATOM     13  C   UNL     1      32.181 -13.412 -21.096  0.00  0.00    +0.024 C 
ATOM     14  C   UNL     1      34.357 -13.937 -22.004  0.00  0.00    +0.000 C 
ATOM     15  C   UNL     1      33.344 -14.181 -21.077  0.00  0.00    +0.002 C 
BRANCH  11  18
ATOM     16  O   UNL     1      30.329 -11.293 -23.137  0.00  0.00    -0.126 OA
ATOM     17  O   UNL     1      30.327 -11.298 -20.942  0.00  0.00    -0.126 OA
ATOM     18  N   UNL     1      30.837 -11.625 -22.040  0.00  0.00    +0.058 N 
ENDBRANCH  11  18
ENDBRANCH   2  10
BRANCH   3  20
ATOM     19  O   UNL     1      32.809  -9.333 -21.148  0.00  0.00    -0.245 OA
ATOM     20  C   UNL     1      32.570  -9.165 -22.329  0.00  0.00    +0.339 C 
BRANCH  20  21
ATOM     21  O   UNL     1      31.559  -8.456 -22.887  0.00  0.00    -0.446 OA
BRANCH  21  22
ATOM     22  C   UNL     1      31.301  -7.185 -22.280  0.00  0.00    +0.209 C 
BRANCH  22  23
ATOM     23  C   UNL     1      31.940  -6.071 -23.112  0.00  0.00    +0.044 C 
ATOM     24  C   UNL     1      31.360  -4.713 -22.719  0.00  0.00    +0.004 C 
ATOM     25  C   UNL     1      31.751  -6.315 -24.610  0.00  0.00    +0.004 C 
ENDBRANCH  22  23
ENDBRANCH  21  22
ENDBRANCH  20  21
ENDBRANCH   3  20
BRANCH   4  27
ATOM     26  O   UNL     1      32.370 -12.486 -26.969  0.00  0.00    -0.245 OA
ATOM     27  C   UNL     1      33.129 -12.610 -26.025  0.00  0.00    +0.342 C 
BRANCH  27  28
ATOM     28  O   UNL     1      33.621 -13.753 -25.489  0.00  0.00    -0.441 OA
ATOM     29  C   UNL     1      33.052 -14.960 -26.007  0.00  0.00    +0.256 C 
ENDBRANCH  27  28
ENDBRANCH   4  27
TORSDOF 8
ENDMDL
MODEL 8
REMARK VINA RESULT:      -4.8      2.132      4.741
REMARK  Name = 4499
REMARK  8 active torsions:
REMARK  status: ('A' for Active; 'I' for Inactive)
REMARK    1  A    between atoms: C_2  and  C_10
REMARK    2  A    between atoms: C_3  and  C_20
REMARK    3  A    between atoms: C_4  and  C_27
REMARK    4  A    between atoms: C_11  and  N_18
REMARK    5  A    between atoms: C_20  and  O_21
REMARK    6  A    between atoms: O_21  and  C_22
REMARK    7  A    between atoms: C_22  and  C_23
REMARK    8  A    between atoms: C_27  and  O_28
REMARK                            x       y       z     vdW  Elec       q    Type
REMARK                         _______ _______ _______ _____ _____    ______ ____
ROOT
ATOM      1  N   UNL     1      33.898 -23.463 -12.777  0.00  0.00    -0.334 N 
ATOM      2  C   UNL     1      36.281 -23.711 -14.291  0.00  0.00    +0.013 C 
ATOM      3  C   UNL     1      34.908 -23.441 -14.918  0.00  0.00    +0.071 C 
ATOM      4  C   UNL     1      36.256 -23.669 -12.760  0.00  0.00    +0.085 C 
ATOM      5  C   UNL     1      33.796 -23.345 -14.155  0.00  0.00    +0.098 C 
ATOM      6  C   UNL     1      35.090 -23.578 -12.080  0.00  0.00    +0.028 C 
ATOM      7  C   UNL     1      32.400 -23.121 -14.671  0.00  0.00    +0.026 C 
ATOM      8  C   UNL     1      34.951 -23.580 -10.582  0.00  0.00    +0.047 C 
ATOM      9  H   UNL     1      33.063 -23.468 -12.257  0.00  0.00    +0.147 HD
ENDROOT
BRANCH   2  10
ATOM     10  C   UNL     1      36.806 -25.037 -14.758  0.00  0.00    +0.023 C 
ATOM     11  C   UNL     1      38.126 -25.182 -15.176  0.00  0.00    +0.143 C 
ATOM     12  C   UNL     1      35.940 -26.127 -14.766  0.00  0.00    +0.002 C 
ATOM     13  C   UNL     1      38.583 -26.427 -15.605  0.00  0.00    +0.024 C 
ATOM     14  C   UNL     1      36.398 -27.372 -15.196  0.00  0.00    +0.000 C 
ATOM     15  C   UNL     1      37.720 -27.522 -15.616  0.00  0.00    +0.002 C 
BRANCH  11  18
ATOM     16  O   UNL     1      40.152 -24.215 -14.647  0.00  0.00    -0.126 OA
ATOM     17  O   UNL     1      38.659 -23.001 -15.704  0.00  0.00    -0.126 OA
ATOM     18  N   UNL     1      39.023 -24.079 -15.176  0.00  0.00    +0.058 N 
ENDBRANCH  11  18
ENDBRANCH   2  10
BRANCH   3  20
ATOM     19  O   UNL     1      34.282 -23.959 -17.144  0.00  0.00    -0.245 OA
ATOM     20  C   UNL     1      34.880 -23.230 -16.374  0.00  0.00    +0.339 C 
BRANCH  20  21
ATOM     21  O   UNL     1      35.611 -22.127 -16.662  0.00  0.00    -0.446 OA
BRANCH  21  22
ATOM     22  C   UNL     1      36.309 -22.170 -17.911  0.00  0.00    +0.209 C 
BRANCH  22  23
ATOM     23  C   UNL     1      35.632 -21.238 -18.919  0.00  0.00    +0.044 C 
ATOM     24  C   UNL     1      34.487 -21.961 -19.627  0.00  0.00    +0.004 C 
ATOM     25  C   UNL     1      36.633 -20.699 -19.942  0.00  0.00    +0.004 C 
ENDBRANCH  22  23
ENDBRANCH  21  22
ENDBRANCH  20  21
ENDBRANCH   3  20
BRANCH   4  27
ATOM     26  O   UNL     1      38.363 -22.770 -12.152  0.00  0.00    -0.245 OA
ATOM     27  C   UNL     1      37.561 -23.682 -12.079  0.00  0.00    +0.342 C 
BRANCH  27  28
ATOM     28  O   UNL     1      37.676 -24.848 -11.397  0.00  0.00    -0.441 OA
ATOM     29  C   UNL     1      38.509 -25.834 -12.017  0.00  0.00    +0.256 C 
ENDBRANCH  27  28
ENDBRANCH   4  27
TORSDOF 8
ENDMDL
MODEL 9
REMARK VINA RESULT:      -4.7     11.295     14.806
REMARK  Name = 4499
REMARK  8 active torsions:
REMARK  status: ('A' for Active; 'I' for Inactive)
REMARK    1  A    between atoms: C_2  and  C_10
REMARK    2  A    between atoms: C_3  and  C_20
REMARK    3  A    between atoms: C_4  and  C_27
REMARK    4  A    between atoms: C_11  and  N_18
REMARK    5  A    between atoms: C_20  and  O_21
REMARK    6  A    between atoms: O_21  and  C_22
REMARK    7  A    between atoms: C_22  and  C_23
REMARK    8  A    between atoms: C_27  and  O_28
REMARK                            x       y       z     vdW  Elec       q    Type
REMARK                         _______ _______ _______ _____ _____    ______ ____
ROOT
ATOM      1  N   UNL     1      33.026 -13.411 -20.592  0.00  0.00    -0.334 N 
ATOM      2  C   UNL     1      32.655 -12.928 -23.360  0.00  0.00    +0.013 C 
ATOM      3  C   UNL     1      33.394 -14.154 -22.809  0.00  0.00    +0.071 C 
ATOM      4  C   UNL     1      32.000 -12.083 -22.261  0.00  0.00    +0.085 C 
ATOM      5  C   UNL     1      33.558 -14.334 -21.479  0.00  0.00    +0.098 C 
ATOM      6  C   UNL     1      32.230 -12.336 -20.953  0.00  0.00    +0.028 C 
ATOM      7  C   UNL     1      34.297 -15.478 -20.838  0.00  0.00    +0.026 C 
ATOM      8  C   UNL     1      31.680 -11.539 -19.801  0.00  0.00    +0.047 C 
ATOM      9  H   UNL     1      33.229 -13.528 -19.636  0.00  0.00    +0.147 HD
ENDROOT
BRANCH   2  10
ATOM     10  C   UNL     1      33.598 -12.080 -24.163  0.00  0.00    +0.023 C 
ATOM     11  C   UNL     1      33.738 -12.265 -25.536  0.00  0.00    +0.143 C 
ATOM     12  C   UNL     1      34.335 -11.101 -23.504  0.00  0.00    +0.002 C 
ATOM     13  C   UNL     1      34.623 -11.462 -26.255  0.00  0.00    +0.024 C 
ATOM     14  C   UNL     1      35.220 -10.298 -24.223  0.00  0.00    +0.000 C 
ATOM     15  C   UNL     1      35.364 -10.479 -25.599  0.00  0.00    +0.002 C 
BRANCH  11  18
ATOM     16  O   UNL     1      33.581 -13.977 -27.072  0.00  0.00    -0.126 OA
ATOM     17  O   UNL     1      31.776 -13.398 -25.964  0.00  0.00    -0.126 OA
ATOM     18  N   UNL     1      32.995 -13.262 -26.224  0.00  0.00    +0.058 N 
ENDBRANCH  11  18
ENDBRANCH   2  10
BRANCH   3  20
ATOM     19  O   UNL     1      33.128 -15.621 -24.651  0.00  0.00    -0.245 OA
ATOM     20  C   UNL     1      33.852 -15.145 -23.796  0.00  0.00    +0.339 C 
BRANCH  20  21
ATOM     21  O   UNL     1      35.163 -15.400 -23.571  0.00  0.00    -0.446 OA
BRANCH  21  22
ATOM     22  C   UNL     1      35.644 -16.634 -24.115  0.00  0.00    +0.209 C 
BRANCH  22  23
ATOM     23  C   UNL     1      35.099 -17.810 -23.300  0.00  0.00    +0.044 C 
ATOM     24  C   UNL     1      36.159 -18.318 -22.324  0.00  0.00    +0.004 C 
ATOM     25  C   UNL     1      34.625 -18.946 -24.209  0.00  0.00    +0.004 C 
ENDBRANCH  22  23
ENDBRANCH  21  22
ENDBRANCH  20  21
ENDBRANCH   3  20
BRANCH   4  27
ATOM     26  O   UNL     1      29.867 -11.133 -22.664  0.00  0.00    -0.245 OA
ATOM     27  C   UNL     1      31.079 -11.026 -22.706  0.00  0.00    +0.342 C 
BRANCH  27  28
ATOM     28  O   UNL     1      31.813  -9.974 -23.144  0.00  0.00    -0.441 OA
ATOM     29  C   UNL     1      31.615  -8.754 -22.422  0.00  0.00    +0.256 C 
ENDBRANCH  27  28
ENDBRANCH   4  27
TORSDOF 8
ENDMDL
