MODEL 1
REMARK VINA RESULT:      -8.6      0.000      0.000
REMARK  Name = 1708
REMARK  7 active torsions:
REMARK  status: ('A' for Active; 'I' for Inactive)
REMARK    1  A    between atoms: C_1  and  N_13
REMARK    2  A    between atoms: C_2  and  N_8
REMARK    3  A    between atoms: C_4  and  C_22
REMARK    4  A    between atoms: C_14  and  C_16
REMARK    5  A    between atoms: C_16  and  C_17
REMARK    6  A    between atoms: C_16  and  C_19
REMARK    7  A    between atoms: C_22  and  O_23
REMARK                            x       y       z     vdW  Elec       q    Type
REMARK                         _______ _______ _______ _____ _____    ______ ____
ROOT
ATOM      1  C   UNL     1      32.491 -23.264 -16.280  0.00  0.00    +0.064 C 
ATOM      2  C   UNL     1      33.278 -23.592 -15.187  0.00  0.00    +0.064 C 
ATOM      3  C   UNL     1      31.152 -23.619 -16.334  0.00  0.00    +0.022 C 
ATOM      4  C   UNL     1      30.586 -24.320 -15.269  0.00  0.00    +0.077 C 
ATOM      5  C   UNL     1      32.712 -24.292 -14.122  0.00  0.00    +0.016 C 
ATOM      6  C   UNL     1      31.366 -24.657 -14.163  0.00  0.00    +0.008 C 
ENDROOT
BRANCH   2   8
ATOM      7  O   UNL     1      35.753 -25.221 -15.719  0.00  0.00    -0.275 OA
ATOM      8  N   UNL     1      34.628 -23.238 -15.122  0.00  0.00    -0.283 N 
ATOM      9  C   UNL     1      35.744 -24.042 -15.381  0.00  0.00    +0.227 C 
ATOM     10  C   UNL     1      37.034 -23.282 -15.199  0.00  0.00    +0.095 C 
ATOM     11  H   UNL     1      34.819 -22.307 -14.863  0.00  0.00    +0.155 HD
ENDBRANCH   2   8
BRANCH   1  13
ATOM     12  O   UNL     1      33.704 -24.266 -18.831  0.00  0.00    -0.275 OA
ATOM     13  N   UNL     1      33.042 -22.553 -17.373  0.00  0.00    -0.283 N 
ATOM     14  C   UNL     1      33.601 -23.080 -18.534  0.00  0.00    +0.226 C 
ATOM     15  H   UNL     1      33.029 -21.571 -17.304  0.00  0.00    +0.155 HD
BRANCH  14  16
ATOM     16  C   UNL     1      34.088 -21.970 -19.477  0.00  0.00    +0.077 C 
BRANCH  16  17
ATOM     17  C   UNL     1      35.443 -21.415 -18.991  0.00  0.00    +0.009 C 
ATOM     18  C   UNL     1      36.553 -21.443 -20.033  0.00  0.00    +0.001 C 
ENDBRANCH  16  17
BRANCH  16  19
ATOM     19  C   UNL     1      33.041 -20.855 -19.655  0.00  0.00    +0.009 C 
ATOM     20  C   UNL     1      33.384 -19.917 -20.807  0.00  0.00    +0.001 C 
ENDBRANCH  16  19
ENDBRANCH  14  16
ENDBRANCH   1  13
BRANCH   4  22
ATOM     21  O   UNL     1      28.368 -24.337 -16.167  0.00  0.00    -0.245 OA
ATOM     22  C   UNL     1      29.182 -24.699 -15.311  0.00  0.00    +0.338 C 
BRANCH  22  23
ATOM     23  O   UNL     1      28.834 -25.520 -14.283  0.00  0.00    -0.477 OA
ATOM     24  H   UNL     1      28.492 -26.374 -14.460  0.00  0.00    +0.295 HD
ENDBRANCH  22  23
ENDBRANCH   4  22
TORSDOF 7
ENDMDL
MODEL 2
REMARK VINA RESULT:      -8.0      1.694      2.313
REMARK  Name = 1708
REMARK  7 active torsions:
REMARK  status: ('A' for Active; 'I' for Inactive)
REMARK    1  A    between atoms: C_1  and  N_13
REMARK    2  A    between atoms: C_2  and  N_8
REMARK    3  A    between atoms: C_4  and  C_22
REMARK    4  A    between atoms: C_14  and  C_16
REMARK    5  A    between atoms: C_16  and  C_17
REMARK    6  A    between atoms: C_16  and  C_19
REMARK    7  A    between atoms: C_22  and  O_23
REMARK                            x       y       z     vdW  Elec       q    Type
REMARK                         _______ _______ _______ _____ _____    ______ ____
ROOT
ATOM      1  C   UNL     1      32.800 -23.492 -15.673  0.00  0.00    +0.064 C 
ATOM      2  C   UNL     1      32.952 -24.334 -14.582  0.00  0.00    +0.064 C 
ATOM      3  C   UNL     1      31.542 -23.122 -16.125  0.00  0.00    +0.022 C 
ATOM      4  C   UNL     1      30.409 -23.608 -15.471  0.00  0.00    +0.077 C 
ATOM      5  C   UNL     1      31.820 -24.819 -13.928  0.00  0.00    +0.016 C 
ATOM      6  C   UNL     1      30.548 -24.456 -14.373  0.00  0.00    +0.008 C 
ENDROOT
BRANCH   2   8
ATOM      7  O   UNL     1      34.357 -23.691 -11.999  0.00  0.00    -0.275 OA
ATOM      8  N   UNL     1      34.215 -24.712 -14.118  0.00  0.00    -0.283 N 
ATOM      9  C   UNL     1      34.821 -24.380 -12.901  0.00  0.00    +0.227 C 
ATOM     10  C   UNL     1      36.196 -24.989 -12.778  0.00  0.00    +0.095 C 
ATOM     11  H   UNL     1      34.744 -25.283 -14.721  0.00  0.00    +0.155 HD
ENDBRANCH   2   8
BRANCH   1  13
ATOM     12  O   UNL     1      33.558 -23.660 -18.568  0.00  0.00    -0.275 OA
ATOM     13  N   UNL     1      33.934 -22.986 -16.353  0.00  0.00    -0.283 N 
ATOM     14  C   UNL     1      34.234 -23.104 -17.707  0.00  0.00    +0.226 C 
ATOM     15  H   UNL     1      34.586 -22.493 -15.804  0.00  0.00    +0.155 HD
BRANCH  14  16
ATOM     16  C   UNL     1      35.564 -22.415 -18.050  0.00  0.00    +0.077 C 
BRANCH  16  17
ATOM     17  C   UNL     1      36.186 -21.800 -16.779  0.00  0.00    +0.009 C 
ATOM     18  C   UNL     1      37.483 -22.458 -16.323  0.00  0.00    +0.001 C 
ENDBRANCH  16  17
BRANCH  16  19
ATOM     19  C   UNL     1      35.409 -21.376 -19.175  0.00  0.00    +0.009 C 
ATOM     20  C   UNL     1      36.738 -21.048 -19.847  0.00  0.00    +0.001 C 
ENDBRANCH  16  19
ENDBRANCH  14  16
ENDBRANCH   1  13
BRANCH   4  22
ATOM     21  O   UNL     1      28.017 -23.629 -15.456  0.00  0.00    -0.245 OA
ATOM     22  C   UNL     1      29.084 -23.228 -15.934  0.00  0.00    +0.338 C 
BRANCH  22  23
ATOM     23  O   UNL     1      29.128 -22.358 -16.979  0.00  0.00    -0.477 OA
ATOM     24  H   UNL     1      28.414 -21.768 -17.129  0.00  0.00    +0.295 HD
ENDBRANCH  22  23
ENDBRANCH   4  22
TORSDOF 7
ENDMDL
MODEL 3
REMARK VINA RESULT:      -7.9     11.219     13.946
REMARK  Name = 1708
REMARK  7 active torsions:
REMARK  status: ('A' for Active; 'I' for Inactive)
REMARK    1  A    between atoms: C_1  and  N_13
REMARK    2  A    between atoms: C_2  and  N_8
REMARK    3  A    between atoms: C_4  and  C_22
REMARK    4  A    between atoms: C_14  and  C_16
REMARK    5  A    between atoms: C_16  and  C_17
REMARK    6  A    between atoms: C_16  and  C_19
REMARK    7  A    between atoms: C_22  and  O_23
REMARK                            x       y       z     vdW  Elec       q    Type
REMARK                         _______ _______ _______ _____ _____    ______ ____
ROOT
ATOM      1  C   UNL     1      32.977 -12.456 -23.444  0.00  0.00    +0.064 C 
ATOM      2  C   UNL     1      32.839 -13.164 -22.260  0.00  0.00    +0.064 C 
ATOM      3  C   UNL     1      33.271 -13.101 -24.636  0.00  0.00    +0.022 C 
ATOM      4  C   UNL     1      33.431 -14.487 -24.644  0.00  0.00    +0.077 C 
ATOM      5  C   UNL     1      32.998 -14.549 -22.267  0.00  0.00    +0.016 C 
ATOM      6  C   UNL     1      33.295 -15.211 -23.459  0.00  0.00    +0.008 C 
ENDROOT
BRANCH   2   8
ATOM      7  O   UNL     1      30.487 -11.452 -21.484  0.00  0.00    -0.275 OA
ATOM      8  N   UNL     1      32.542 -12.523 -21.053  0.00  0.00    -0.283 N 
ATOM      9  C   UNL     1      31.427 -11.734 -20.748  0.00  0.00    +0.227 C 
ATOM     10  C   UNL     1      31.477 -11.223 -19.330  0.00  0.00    +0.095 C 
ATOM     11  H   UNL     1      33.197 -12.643 -20.328  0.00  0.00    +0.155 HD
ENDBRANCH   2   8
BRANCH   1  13
ATOM     12  O   UNL     1      34.974 -10.289 -23.989  0.00  0.00    -0.275 OA
ATOM     13  N   UNL     1      32.819 -11.050 -23.463  0.00  0.00    -0.283 N 
ATOM     14  C   UNL     1      33.794 -10.089 -23.717  0.00  0.00    +0.226 C 
ATOM     15  H   UNL     1      31.913 -10.712 -23.274  0.00  0.00    +0.155 HD
BRANCH  14  16
ATOM     16  C   UNL     1      33.215  -8.668 -23.641  0.00  0.00    +0.077 C 
BRANCH  16  17
ATOM     17  C   UNL     1      34.353  -7.638 -23.487  0.00  0.00    +0.009 C 
ATOM     18  C   UNL     1      34.536  -6.708 -24.679  0.00  0.00    +0.001 C 
ENDBRANCH  16  17
BRANCH  16  19
ATOM     19  C   UNL     1      32.158  -8.527 -22.531  0.00  0.00    +0.009 C 
ATOM     20  C   UNL     1      32.768  -8.099 -21.200  0.00  0.00    +0.001 C 
ENDBRANCH  16  19
ENDBRANCH  14  16
ENDBRANCH   1  13
BRANCH   4  22
ATOM     21  O   UNL     1      33.446 -14.779 -27.018  0.00  0.00    -0.245 OA
ATOM     22  C   UNL     1      33.739 -15.177 -25.886  0.00  0.00    +0.338 C 
BRANCH  22  23
ATOM     23  O   UNL     1      34.405 -16.346 -25.680  0.00  0.00    -0.477 OA
ATOM     24  H   UNL     1      34.059 -16.985 -25.088  0.00  0.00    +0.295 HD
ENDBRANCH  22  23
ENDBRANCH   4  22
TORSDOF 7
ENDMDL
MODEL 4
REMARK VINA RESULT:      -7.9     12.265     14.801
REMARK  Name = 1708
REMARK  7 active torsions:
REMARK  status: ('A' for Active; 'I' for Inactive)
REMARK    1  A    between atoms: C_1  and  N_13
REMARK    2  A    between atoms: C_2  and  N_8
REMARK    3  A    between atoms: C_4  and  C_22
REMARK    4  A    between atoms: C_14  and  C_16
REMARK    5  A    between atoms: C_16  and  C_17
REMARK    6  A    between atoms: C_16  and  C_19
REMARK    7  A    between atoms: C_22  and  O_23
REMARK                            x       y       z     vdW  Elec       q    Type
REMARK                         _______ _______ _______ _____ _____    ______ ____
ROOT
ATOM      1  C   UNL     1      33.437 -11.718 -23.810  0.00  0.00    +0.064 C 
ATOM      2  C   UNL     1      32.827 -12.517 -22.856  0.00  0.00    +0.064 C 
ATOM      3  C   UNL     1      33.672 -12.184 -25.094  0.00  0.00    +0.022 C 
ATOM      4  C   UNL     1      33.288 -13.483 -25.432  0.00  0.00    +0.077 C 
ATOM      5  C   UNL     1      32.442 -13.814 -23.194  0.00  0.00    +0.016 C 
ATOM      6  C   UNL     1      32.673 -14.297 -24.482  0.00  0.00    +0.008 C 
ENDROOT
BRANCH   2   8
ATOM      7  O   UNL     1      30.380 -11.228 -21.666  0.00  0.00    -0.275 OA
ATOM      8  N   UNL     1      32.584 -12.056 -21.558  0.00  0.00    -0.283 N 
ATOM      9  C   UNL     1      31.421 -11.460 -21.059  0.00  0.00    +0.227 C 
ATOM     10  C   UNL     1      31.560 -11.103 -19.600  0.00  0.00    +0.095 C 
ATOM     11  H   UNL     1      33.323 -12.165 -20.916  0.00  0.00    +0.155 HD
ENDBRANCH   2   8
BRANCH   1  13
ATOM     12  O   UNL     1      31.887  -9.154 -23.885  0.00  0.00    -0.275 OA
ATOM     13  N   UNL     1      33.836 -10.398 -23.491  0.00  0.00    -0.283 N 
ATOM     14  C   UNL     1      33.066  -9.239 -23.554  0.00  0.00    +0.226 C 
ATOM     15  H   UNL     1      34.766 -10.286 -23.190  0.00  0.00    +0.155 HD
BRANCH  14  16
ATOM     16  C   UNL     1      33.872  -8.005 -23.124  0.00  0.00    +0.077 C 
BRANCH  16  17
ATOM     17  C   UNL     1      33.029  -7.121 -22.182  0.00  0.00    +0.009 C 
ATOM     18  C   UNL     1      32.806  -7.704 -20.792  0.00  0.00    +0.001 C 
ENDBRANCH  16  17
BRANCH  16  19
ATOM     19  C   UNL     1      34.410  -7.211 -24.328  0.00  0.00    +0.009 C 
ATOM     20  C   UNL     1      33.417  -6.166 -24.825  0.00  0.00    +0.001 C 
ENDBRANCH  16  19
ENDBRANCH  14  16
ENDBRANCH   1  13
BRANCH   4  22
ATOM     21  O   UNL     1      33.830 -13.296 -27.755  0.00  0.00    -0.245 OA
ATOM     22  C   UNL     1      33.528 -13.986 -26.776  0.00  0.00    +0.338 C 
BRANCH  22  23
ATOM     23  O   UNL     1      33.383 -15.336 -26.858  0.00  0.00    -0.477 OA
ATOM     24  H   UNL     1      34.120 -15.874 -27.075  0.00  0.00    +0.295 HD
ENDBRANCH  22  23
ENDBRANCH   4  22
TORSDOF 7
ENDMDL
MODEL 5
REMARK VINA RESULT:      -7.9      1.668      4.843
REMARK  Name = 1708
REMARK  7 active torsions:
REMARK  status: ('A' for Active; 'I' for Inactive)
REMARK    1  A    between atoms: C_1  and  N_13
REMARK    2  A    between atoms: C_2  and  N_8
REMARK    3  A    between atoms: C_4  and  C_22
REMARK    4  A    between atoms: C_14  and  C_16
REMARK    5  A    between atoms: C_16  and  C_17
REMARK    6  A    between atoms: C_16  and  C_19
REMARK    7  A    between atoms: C_22  and  O_23
REMARK                            x       y       z     vdW  Elec       q    Type
REMARK                         _______ _______ _______ _____ _____    ______ ____
ROOT
ATOM      1  C   UNL     1      33.708 -23.685 -15.312  0.00  0.00    +0.064 C 
ATOM      2  C   UNL     1      33.401 -23.183 -16.567  0.00  0.00    +0.064 C 
ATOM      3  C   UNL     1      32.719 -24.178 -14.474  0.00  0.00    +0.022 C 
ATOM      4  C   UNL     1      31.390 -24.168 -14.902  0.00  0.00    +0.077 C 
ATOM      5  C   UNL     1      32.074 -23.173 -16.996  0.00  0.00    +0.016 C 
ATOM      6  C   UNL     1      31.069 -23.665 -16.163  0.00  0.00    +0.008 C 
ENDROOT
BRANCH   2   8
ATOM      7  O   UNL     1      33.254 -22.350 -19.456  0.00  0.00    -0.275 OA
ATOM      8  N   UNL     1      34.391 -22.684 -17.419  0.00  0.00    -0.283 N 
ATOM      9  C   UNL     1      34.265 -22.313 -18.763  0.00  0.00    +0.227 C 
ATOM     10  C   UNL     1      35.573 -21.821 -19.330  0.00  0.00    +0.095 C 
ATOM     11  H   UNL     1      35.288 -22.581 -17.026  0.00  0.00    +0.155 HD
ENDBRANCH   2   8
BRANCH   1  13
ATOM     12  O   UNL     1      35.813 -25.801 -15.579  0.00  0.00    -0.275 OA
ATOM     13  N   UNL     1      35.047 -23.706 -14.855  0.00  0.00    -0.283 N 
ATOM     14  C   UNL     1      35.979 -24.729 -15.005  0.00  0.00    +0.226 C 
ATOM     15  H   UNL     1      35.355 -22.904 -14.375  0.00  0.00    +0.155 HD
BRANCH  14  16
ATOM     16  C   UNL     1      37.325 -24.361 -14.363  0.00  0.00    +0.077 C 
BRANCH  16  17
ATOM     17  C   UNL     1      38.089 -25.639 -13.958  0.00  0.00    +0.009 C 
ATOM     18  C   UNL     1      39.563 -25.650 -14.343  0.00  0.00    +0.001 C 
ENDBRANCH  16  17
BRANCH  16  19
ATOM     19  C   UNL     1      37.162 -23.389 -13.181  0.00  0.00    +0.009 C 
ATOM     20  C   UNL     1      37.266 -24.094 -11.833  0.00  0.00    +0.001 C 
ENDBRANCH  16  19
ENDBRANCH  14  16
ENDBRANCH   1  13
BRANCH   4  22
ATOM     21  O   UNL     1      29.200 -24.986 -14.395  0.00  0.00    -0.245 OA
ATOM     22  C   UNL     1      30.342 -24.682 -14.035  0.00  0.00    +0.338 C 
BRANCH  22  23
ATOM     23  O   UNL     1      30.750 -24.803 -12.743  0.00  0.00    -0.477 OA
ATOM     24  H   UNL     1      30.144 -25.080 -12.083  0.00  0.00    +0.295 HD
ENDBRANCH  22  23
ENDBRANCH   4  22
TORSDOF 7
ENDMDL
MODEL 6
REMARK VINA RESULT:      -7.8      2.397      6.421
REMARK  Name = 1708
REMARK  7 active torsions:
REMARK  status: ('A' for Active; 'I' for Inactive)
REMARK    1  A    between atoms: C_1  and  N_13
REMARK    2  A    between atoms: C_2  and  N_8
REMARK    3  A    between atoms: C_4  and  C_22
REMARK    4  A    between atoms: C_14  and  C_16
REMARK    5  A    between atoms: C_16  and  C_17
REMARK    6  A    between atoms: C_16  and  C_19
REMARK    7  A    between atoms: C_22  and  O_23
REMARK                            x       y       z     vdW  Elec       q    Type
REMARK                         _______ _______ _______ _____ _____    ______ ____
ROOT
ATOM      1  C   UNL     1      35.324 -22.834 -16.487  0.00  0.00    +0.064 C 
ATOM      2  C   UNL     1      34.027 -23.319 -16.548  0.00  0.00    +0.064 C 
ATOM      3  C   UNL     1      35.876 -22.123 -17.542  0.00  0.00    +0.022 C 
ATOM      4  C   UNL     1      35.112 -21.894 -18.687  0.00  0.00    +0.077 C 
ATOM      5  C   UNL     1      33.263 -23.089 -17.692  0.00  0.00    +0.016 C 
ATOM      6  C   UNL     1      33.806 -22.376 -18.762  0.00  0.00    +0.008 C 
ENDROOT
BRANCH   2   8
ATOM      7  O   UNL     1      31.716 -22.638 -14.744  0.00  0.00    -0.275 OA
ATOM      8  N   UNL     1      33.461 -24.035 -15.490  0.00  0.00    -0.283 N 
ATOM      9  C   UNL     1      32.381 -23.666 -14.680  0.00  0.00    +0.227 C 
ATOM     10  C   UNL     1      32.076 -24.720 -13.644  0.00  0.00    +0.095 C 
ATOM     11  H   UNL     1      33.872 -24.907 -15.290  0.00  0.00    +0.155 HD
ENDBRANCH   2   8
BRANCH   1  13
ATOM     12  O   UNL     1      36.531 -25.361 -15.420  0.00  0.00    -0.275 OA
ATOM     13  N   UNL     1      36.119 -23.054 -15.337  0.00  0.00    -0.283 N 
ATOM     14  C   UNL     1      36.647 -24.261 -14.888  0.00  0.00    +0.226 C 
ATOM     15  H   UNL     1      36.323 -22.260 -14.791  0.00  0.00    +0.155 HD
BRANCH  14  16
ATOM     16  C   UNL     1      37.455 -24.075 -13.595  0.00  0.00    +0.077 C 
BRANCH  16  17
ATOM     17  C   UNL     1      38.165 -25.391 -13.217  0.00  0.00    +0.009 C 
ATOM     18  C   UNL     1      39.594 -25.514 -13.732  0.00  0.00    +0.001 C 
ENDBRANCH  16  17
BRANCH  16  19
ATOM     19  C   UNL     1      36.592 -23.536 -12.440  0.00  0.00    +0.009 C 
ATOM     20  C   UNL     1      35.473 -24.497 -12.054  0.00  0.00    +0.001 C 
ENDBRANCH  16  19
ENDBRANCH  14  16
ENDBRANCH   1  13
BRANCH   4  22
ATOM     21  O   UNL     1      36.852 -21.208 -20.180  0.00  0.00    -0.245 OA
ATOM     22  C   UNL     1      35.677 -21.150 -19.802  0.00  0.00    +0.338 C 
BRANCH  22  23
ATOM     23  O   UNL     1      34.759 -20.353 -20.414  0.00  0.00    -0.477 OA
ATOM     24  H   UNL     1      35.041 -19.643 -20.956  0.00  0.00    +0.295 HD
ENDBRANCH  22  23
ENDBRANCH   4  22
TORSDOF 7
ENDMDL
MODEL 7
REMARK VINA RESULT:      -7.8      9.039     12.275
REMARK  Name = 1708
REMARK  7 active torsions:
REMARK  status: ('A' for Active; 'I' for Inactive)
REMARK    1  A    between atoms: C_1  and  N_13
REMARK    2  A    between atoms: C_2  and  N_8
REMARK    3  A    between atoms: C_4  and  C_22
REMARK    4  A    between atoms: C_14  and  C_16
REMARK    5  A    between atoms: C_16  and  C_17
REMARK    6  A    between atoms: C_16  and  C_19
REMARK    7  A    between atoms: C_22  and  O_23
REMARK                            x       y       z     vdW  Elec       q    Type
REMARK                         _______ _______ _______ _____ _____    ______ ____
ROOT
ATOM      1  C   UNL     1      33.684 -13.931 -22.589  0.00  0.00    +0.064 C 
ATOM      2  C   UNL     1      32.591 -13.994 -21.738  0.00  0.00    +0.064 C 
ATOM      3  C   UNL     1      34.606 -14.965 -22.651  0.00  0.00    +0.022 C 
ATOM      4  C   UNL     1      34.431 -16.088 -21.842  0.00  0.00    +0.077 C 
ATOM      5  C   UNL     1      32.415 -15.116 -20.930  0.00  0.00    +0.016 C 
ATOM      6  C   UNL     1      33.336 -16.163 -20.981  0.00  0.00    +0.008 C 
ENDROOT
BRANCH   2   8
ATOM      7  O   UNL     1      32.126 -11.919 -19.607  0.00  0.00    -0.275 OA
ATOM      8  N   UNL     1      31.655 -12.958 -21.669  0.00  0.00    -0.283 N 
ATOM      9  C   UNL     1      31.483 -12.018 -20.646  0.00  0.00    +0.227 C 
ATOM     10  C   UNL     1      30.358 -11.061 -20.952  0.00  0.00    +0.095 C 
ATOM     11  H   UNL     1      31.041 -12.879 -22.435  0.00  0.00    +0.155 HD
ENDBRANCH   2   8
BRANCH   1  13
ATOM     12  O   UNL     1      33.054 -13.525 -25.491  0.00  0.00    -0.275 OA
ATOM     13  N   UNL     1      33.883 -12.802 -23.420  0.00  0.00    -0.283 N 
ATOM     14  C   UNL     1      33.573 -12.677 -24.771  0.00  0.00    +0.226 C 
ATOM     15  H   UNL     1      34.287 -12.013 -22.991  0.00  0.00    +0.155 HD
BRANCH  14  16
ATOM     16  C   UNL     1      33.947 -11.288 -25.307  0.00  0.00    +0.077 C 
BRANCH  16  17
ATOM     17  C   UNL     1      35.008 -11.414 -26.420  0.00  0.00    +0.009 C 
ATOM     18  C   UNL     1      35.959 -10.229 -26.532  0.00  0.00    +0.001 C 
ENDBRANCH  16  17
BRANCH  16  19
ATOM     19  C   UNL     1      34.400 -10.333 -24.187  0.00  0.00    +0.009 C 
ATOM     20  C   UNL     1      33.265  -9.447 -23.686  0.00  0.00    +0.001 C 
ENDBRANCH  16  19
ENDBRANCH  14  16
ENDBRANCH   1  13
BRANCH   4  22
ATOM     21  O   UNL     1      35.697 -17.912 -20.949  0.00  0.00    -0.245 OA
ATOM     22  C   UNL     1      35.390 -17.180 -21.896  0.00  0.00    +0.338 C 
BRANCH  22  23
ATOM     23  O   UNL     1      35.938 -17.329 -23.133  0.00  0.00    -0.477 OA
ATOM     24  H   UNL     1      36.616 -16.747 -23.419  0.00  0.00    +0.295 HD
ENDBRANCH  22  23
ENDBRANCH   4  22
TORSDOF 7
ENDMDL
MODEL 8
REMARK VINA RESULT:      -7.8      2.506      4.952
REMARK  Name = 1708
REMARK  7 active torsions:
REMARK  status: ('A' for Active; 'I' for Inactive)
REMARK    1  A    between atoms: C_1  and  N_13
REMARK    2  A    between atoms: C_2  and  N_8
REMARK    3  A    between atoms: C_4  and  C_22
REMARK    4  A    between atoms: C_14  and  C_16
REMARK    5  A    between atoms: C_16  and  C_17
REMARK    6  A    between atoms: C_16  and  C_19
REMARK    7  A    between atoms: C_22  and  O_23
REMARK                            x       y       z     vdW  Elec       q    Type
REMARK                         _______ _______ _______ _____ _____    ______ ____
ROOT
ATOM      1  C   UNL     1      34.228 -24.237 -14.803  0.00  0.00    +0.064 C 
ATOM      2  C   UNL     1      34.048 -23.448 -15.929  0.00  0.00    +0.064 C 
ATOM      3  C   UNL     1      33.147 -24.667 -14.047  0.00  0.00    +0.022 C 
ATOM      4  C   UNL     1      31.856 -24.297 -14.425  0.00  0.00    +0.077 C 
ATOM      5  C   UNL     1      32.757 -23.079 -16.307  0.00  0.00    +0.016 C 
ATOM      6  C   UNL     1      31.661 -23.503 -15.555  0.00  0.00    +0.008 C 
ENDROOT
BRANCH   2   8
ATOM      7  O   UNL     1      36.529 -21.940 -15.133  0.00  0.00    -0.275 OA
ATOM      8  N   UNL     1      35.129 -23.010 -16.698  0.00  0.00    -0.283 N 
ATOM      9  C   UNL     1      36.262 -22.308 -16.272  0.00  0.00    +0.227 C 
ATOM     10  C   UNL     1      37.204 -22.022 -17.416  0.00  0.00    +0.095 C 
ATOM     11  H   UNL     1      35.090 -23.223 -17.659  0.00  0.00    +0.155 HD
ENDBRANCH   2   8
BRANCH   1  13
ATOM     12  O   UNL     1      35.964 -26.484 -15.760  0.00  0.00    -0.275 OA
ATOM     13  N   UNL     1      35.527 -24.625 -14.399  0.00  0.00    -0.283 N 
ATOM     14  C   UNL     1      36.284 -25.690 -14.880  0.00  0.00    +0.226 C 
ATOM     15  H   UNL     1      35.945 -24.077 -13.696  0.00  0.00    +0.155 HD
BRANCH  14  16
ATOM     16  C   UNL     1      37.647 -25.773 -14.178  0.00  0.00    +0.077 C 
BRANCH  16  17
ATOM     17  C   UNL     1      37.473 -25.595 -12.656  0.00  0.00    +0.009 C 
ATOM     18  C   UNL     1      38.152 -24.359 -12.077  0.00  0.00    +0.001 C 
ENDBRANCH  16  17
BRANCH  16  19
ATOM     19  C   UNL     1      38.665 -24.776 -14.761  0.00  0.00    +0.009 C 
ATOM     20  C   UNL     1      40.021 -25.420 -15.027  0.00  0.00    +0.001 C 
ENDBRANCH  16  19
ENDBRANCH  14  16
ENDBRANCH   1  13
BRANCH   4  22
ATOM     21  O   UNL     1      30.456 -24.386 -12.487  0.00  0.00    -0.245 OA
ATOM     22  C   UNL     1      30.713 -24.741 -13.642  0.00  0.00    +0.338 C 
BRANCH  22  23
ATOM     23  O   UNL     1      29.924 -25.614 -14.325  0.00  0.00    -0.477 OA
ATOM     24  H   UNL     1      30.200 -25.944 -15.158  0.00  0.00    +0.295 HD
ENDBRANCH  22  23
ENDBRANCH   4  22
TORSDOF 7
ENDMDL
MODEL 9
REMARK VINA RESULT:      -7.8      8.930     12.657
REMARK  Name = 1708
REMARK  7 active torsions:
REMARK  status: ('A' for Active; 'I' for Inactive)
REMARK    1  A    between atoms: C_1  and  N_13
REMARK    2  A    between atoms: C_2  and  N_8
REMARK    3  A    between atoms: C_4  and  C_22
REMARK    4  A    between atoms: C_14  and  C_16
REMARK    5  A    between atoms: C_16  and  C_17
REMARK    6  A    between atoms: C_16  and  C_19
REMARK    7  A    between atoms: C_22  and  O_23
REMARK                            x       y       z     vdW  Elec       q    Type
REMARK                         _______ _______ _______ _____ _____    ______ ____
ROOT
ATOM      1  C   UNL     1      33.150 -14.151 -22.794  0.00  0.00    +0.064 C 
ATOM      2  C   UNL     1      33.493 -14.499 -24.092  0.00  0.00    +0.064 C 
ATOM      3  C   UNL     1      33.618 -14.876 -21.708  0.00  0.00    +0.022 C 
ATOM      4  C   UNL     1      34.449 -15.975 -21.926  0.00  0.00    +0.077 C 
ATOM      5  C   UNL     1      34.324 -15.598 -24.309  0.00  0.00    +0.016 C 
ATOM      6  C   UNL     1      34.802 -16.336 -23.226  0.00  0.00    +0.008 C 
ENDROOT
BRANCH   2   8
ATOM      7  O   UNL     1      33.412 -15.222 -27.013  0.00  0.00    -0.275 OA
ATOM      8  N   UNL     1      33.027 -13.775 -25.193  0.00  0.00    -0.283 N 
ATOM      9  C   UNL     1      33.015 -14.163 -26.537  0.00  0.00    +0.227 C 
ATOM     10  C   UNL     1      32.427 -13.092 -27.422  0.00  0.00    +0.095 C 
ATOM     11  H   UNL     1      32.661 -12.882 -24.998  0.00  0.00    +0.155 HD
ENDBRANCH   2   8
BRANCH   1  13
ATOM     12  O   UNL     1      33.534 -11.249 -23.438  0.00  0.00    -0.275 OA
ATOM     13  N   UNL     1      32.308 -13.040 -22.548  0.00  0.00    -0.283 N 
ATOM     14  C   UNL     1      32.548 -11.706 -22.867  0.00  0.00    +0.226 C 
ATOM     15  H   UNL     1      31.453 -13.233 -22.099  0.00  0.00    +0.155 HD
BRANCH  14  16
ATOM     16  C   UNL     1      31.383 -10.806 -22.429  0.00  0.00    +0.077 C 
BRANCH  16  17
ATOM     17  C   UNL     1      31.863  -9.348 -22.284  0.00  0.00    +0.009 C 
ATOM     18  C   UNL     1      31.272  -8.378 -23.300  0.00  0.00    +0.001 C 
ENDBRANCH  16  17
BRANCH  16  19
ATOM     19  C   UNL     1      30.701 -11.317 -21.146  0.00  0.00    +0.009 C 
ATOM     20  C   UNL     1      31.319 -10.723 -19.886  0.00  0.00    +0.001 C 
ENDBRANCH  16  19
ENDBRANCH  14  16
ENDBRANCH   1  13
BRANCH   4  22
ATOM     21  O   UNL     1      35.260 -17.939 -20.826  0.00  0.00    -0.245 OA
ATOM     22  C   UNL     1      34.949 -16.744 -20.797  0.00  0.00    +0.338 C 
BRANCH  22  23
ATOM     23  O   UNL     1      35.045 -15.998 -19.662  0.00  0.00    -0.477 OA
ATOM     24  H   UNL     1      35.153 -15.069 -19.720  0.00  0.00    +0.295 HD
ENDBRANCH  22  23
ENDBRANCH   4  22
TORSDOF 7
ENDMDL
