MODEL 1
REMARK VINA RESULT:      -5.4      0.000      0.000
REMARK  Name = 5284380
REMARK  9 active torsions:
REMARK  status: ('A' for Active; 'I' for Inactive)
REMARK    1  A    between atoms: C_1  and  O_2
REMARK    2  A    between atoms: C_1  and  C_4
REMARK    3  A    between atoms: C_1  and  C_12
REMARK    4  A    between atoms: C_4  and  O_5
REMARK    5  A    between atoms: C_4  and  C_7
REMARK    6  A    between atoms: C_7  and  C_9
REMARK    7  A    between atoms: C_7  and  O_10
REMARK    8  A    between atoms: C_12  and  C_14
REMARK    9  A    between atoms: C_12  and  O_15
REMARK                            x       y       z     vdW  Elec       q    Type
REMARK                         _______ _______ _______ _____ _____    ______ ____
ROOT
ATOM      1  C   UNL     1      35.171 -18.540 -22.265  0.00  0.00    +0.167 C 
ENDROOT
BRANCH   1   2
ATOM      2  O   UNL     1      34.587 -18.822 -23.541  0.00  0.00    -0.379 OA
ATOM      3  H   UNL     1      35.289 -18.956 -24.197  0.00  0.00    +0.211 HD
ENDBRANCH   1   2
BRANCH   1   4
ATOM      4  C   UNL     1      34.545 -17.234 -21.730  0.00  0.00    +0.167 C 
BRANCH   4   5
ATOM      5  O   UNL     1      35.269 -16.804 -20.570  0.00  0.00    -0.379 OA
ATOM      6  H   UNL     1      34.871 -17.197 -19.778  0.00  0.00    +0.211 HD
ENDBRANCH   4   5
BRANCH   4   7
ATOM      7  C   UNL     1      34.488 -16.061 -22.725  0.00  0.00    +0.151 C 
BRANCH   7   9
ATOM      8 BR   UNL     1      32.621 -14.382 -21.359  0.00  0.00    -0.078 Br
ATOM      9  C   UNL     1      34.424 -14.699 -22.049  0.00  0.00    +0.099 C 
ENDBRANCH   7   9
BRANCH   7  10
ATOM     10  O   UNL     1      35.692 -16.127 -23.503  0.00  0.00    -0.381 OA
ATOM     11  H   UNL     1      36.383 -16.575 -22.990  0.00  0.00    +0.210 HD
ENDBRANCH   7  10
ENDBRANCH   4   7
ENDBRANCH   1   4
BRANCH   1  12
ATOM     12  C   UNL     1      35.020 -19.779 -21.361  0.00  0.00    +0.151 C 
BRANCH  12  14
ATOM     13 BR   UNL     1      33.488 -21.395 -19.566  0.00  0.00    -0.078 Br
ATOM     14  C   UNL     1      33.594 -19.913 -20.836  0.00  0.00    +0.099 C 
ENDBRANCH  12  14
BRANCH  12  15
ATOM     15  O   UNL     1      35.908 -19.666 -20.250  0.00  0.00    -0.381 OA
ATOM     16  H   UNL     1      36.118 -20.550 -19.911  0.00  0.00    +0.210 HD
ENDBRANCH  12  15
ENDBRANCH   1  12
TORSDOF 9
ENDMDL
MODEL 2
REMARK VINA RESULT:      -5.3      2.182      2.424
REMARK  Name = 5284380
REMARK  9 active torsions:
REMARK  status: ('A' for Active; 'I' for Inactive)
REMARK    1  A    between atoms: C_1  and  O_2
REMARK    2  A    between atoms: C_1  and  C_4
REMARK    3  A    between atoms: C_1  and  C_12
REMARK    4  A    between atoms: C_4  and  O_5
REMARK    5  A    between atoms: C_4  and  C_7
REMARK    6  A    between atoms: C_7  and  C_9
REMARK    7  A    between atoms: C_7  and  O_10
REMARK    8  A    between atoms: C_12  and  C_14
REMARK    9  A    between atoms: C_12  and  O_15
REMARK                            x       y       z     vdW  Elec       q    Type
REMARK                         _______ _______ _______ _____ _____    ______ ____
ROOT
ATOM      1  C   UNL     1      35.171 -18.360 -23.524  0.00  0.00    +0.167 C 
ENDROOT
BRANCH   1   2
ATOM      2  O   UNL     1      34.295 -19.133 -24.352  0.00  0.00    -0.379 OA
ATOM      3  H   UNL     1      33.442 -18.678 -24.435  0.00  0.00    +0.211 HD
ENDBRANCH   1   2
BRANCH   1   4
ATOM      4  C   UNL     1      34.677 -16.898 -23.539  0.00  0.00    +0.167 C 
BRANCH   4   5
ATOM      5  O   UNL     1      35.790 -16.021 -23.319  0.00  0.00    -0.379 OA
ATOM      6  H   UNL     1      35.481 -15.102 -23.314  0.00  0.00    +0.211 HD
ENDBRANCH   4   5
BRANCH   4   7
ATOM      7  C   UNL     1      33.954 -16.447 -24.821  0.00  0.00    +0.151 C 
BRANCH   7   9
ATOM      8 BR   UNL     1      32.939 -14.427 -26.571  0.00  0.00    -0.078 Br
ATOM      9  C   UNL     1      33.521 -14.988 -24.789  0.00  0.00    +0.099 C 
ENDBRANCH   7   9
BRANCH   7  10
ATOM     10  O   UNL     1      34.886 -16.621 -25.897  0.00  0.00    -0.381 OA
ATOM     11  H   UNL     1      34.404 -16.837 -26.711  0.00  0.00    +0.210 HD
ENDBRANCH   7  10
ENDBRANCH   4   7
ENDBRANCH   1   4
BRANCH   1  12
ATOM     12  C   UNL     1      35.264 -19.025 -22.137  0.00  0.00    +0.151 C 
BRANCH  12  14
ATOM     13 BR   UNL     1      33.127 -20.166 -20.615  0.00  0.00    -0.078 Br
ATOM     14  C   UNL     1      34.110 -18.594 -21.236  0.00  0.00    +0.099 C 
ENDBRANCH  12  14
BRANCH  12  15
ATOM     15  O   UNL     1      36.493 -18.655 -21.515  0.00  0.00    -0.381 OA
ATOM     16  H   UNL     1      36.839 -17.852 -21.935  0.00  0.00    +0.210 HD
ENDBRANCH  12  15
ENDBRANCH   1  12
TORSDOF 9
ENDMDL
MODEL 3
REMARK VINA RESULT:      -5.2      1.319      2.158
REMARK  Name = 5284380
REMARK  9 active torsions:
REMARK  status: ('A' for Active; 'I' for Inactive)
REMARK    1  A    between atoms: C_1  and  O_2
REMARK    2  A    between atoms: C_1  and  C_4
REMARK    3  A    between atoms: C_1  and  C_12
REMARK    4  A    between atoms: C_4  and  O_5
REMARK    5  A    between atoms: C_4  and  C_7
REMARK    6  A    between atoms: C_7  and  C_9
REMARK    7  A    between atoms: C_7  and  O_10
REMARK    8  A    between atoms: C_12  and  C_14
REMARK    9  A    between atoms: C_12  and  O_15
REMARK                            x       y       z     vdW  Elec       q    Type
REMARK                         _______ _______ _______ _____ _____    ______ ____
ROOT
ATOM      1  C   UNL     1      34.661 -16.849 -21.520  0.00  0.00    +0.167 C 
ENDROOT
BRANCH   1   2
ATOM      2  O   UNL     1      35.088 -16.295 -20.271  0.00  0.00    -0.379 OA
ATOM      3  H   UNL     1      36.037 -16.458 -20.152  0.00  0.00    +0.211 HD
ENDBRANCH   1   2
BRANCH   1   4
ATOM      4  C   UNL     1      34.829 -15.766 -22.607  0.00  0.00    +0.167 C 
BRANCH   4   5
ATOM      5  O   UNL     1      35.752 -16.232 -23.600  0.00  0.00    -0.379 OA
ATOM      6  H   UNL     1      35.291 -16.819 -24.219  0.00  0.00    +0.211 HD
ENDBRANCH   4   5
BRANCH   4   7
ATOM      7  C   UNL     1      33.538 -15.323 -23.318  0.00  0.00    +0.151 C 
BRANCH   7   9
ATOM      8 BR   UNL     1      32.464 -13.696 -21.227  0.00  0.00    -0.078 Br
ATOM      9  C   UNL     1      33.165 -13.872 -23.046  0.00  0.00    +0.099 C 
ENDBRANCH   7   9
BRANCH   7  10
ATOM     10  O   UNL     1      33.775 -15.475 -24.725  0.00  0.00    -0.381 OA
ATOM     11  H   UNL     1      33.374 -14.732 -25.202  0.00  0.00    +0.210 HD
ENDBRANCH   7  10
ENDBRANCH   4   7
ENDBRANCH   1   4
BRANCH   1  12
ATOM     12  C   UNL     1      35.415 -18.171 -21.764  0.00  0.00    +0.151 C 
BRANCH  12  14
ATOM     13 BR   UNL     1      33.389 -19.925 -20.763  0.00  0.00    -0.078 Br
ATOM     14  C   UNL     1      34.471 -19.266 -22.252  0.00  0.00    +0.099 C 
ENDBRANCH  12  14
BRANCH  12  15
ATOM     15  O   UNL     1      36.024 -18.601 -20.548  0.00  0.00    -0.381 OA
ATOM     16  H   UNL     1      35.715 -18.043 -19.816  0.00  0.00    +0.210 HD
ENDBRANCH  12  15
ENDBRANCH   1  12
TORSDOF 9
ENDMDL
MODEL 4
REMARK VINA RESULT:      -5.2      8.522     11.196
REMARK  Name = 5284380
REMARK  9 active torsions:
REMARK  status: ('A' for Active; 'I' for Inactive)
REMARK    1  A    between atoms: C_1  and  O_2
REMARK    2  A    between atoms: C_1  and  C_4
REMARK    3  A    between atoms: C_1  and  C_12
REMARK    4  A    between atoms: C_4  and  O_5
REMARK    5  A    between atoms: C_4  and  C_7
REMARK    6  A    between atoms: C_7  and  C_9
REMARK    7  A    between atoms: C_7  and  O_10
REMARK    8  A    between atoms: C_12  and  C_14
REMARK    9  A    between atoms: C_12  and  O_15
REMARK                            x       y       z     vdW  Elec       q    Type
REMARK                         _______ _______ _______ _____ _____    ______ ____
ROOT
ATOM      1  C   UNL     1      35.681 -24.846 -14.878  0.00  0.00    +0.167 C 
ENDROOT
BRANCH   1   2
ATOM      2  O   UNL     1      36.568 -25.621 -15.692  0.00  0.00    -0.379 OA
ATOM      3  H   UNL     1      36.051 -26.206 -16.268  0.00  0.00    +0.211 HD
ENDBRANCH   1   2
BRANCH   1   4
ATOM      4  C   UNL     1      36.224 -24.859 -13.433  0.00  0.00    +0.167 C 
BRANCH   4   5
ATOM      5  O   UNL     1      35.138 -25.081 -12.523  0.00  0.00    -0.379 OA
ATOM      6  H   UNL     1      34.406 -25.508 -12.993  0.00  0.00    +0.211 HD
ENDBRANCH   4   5
BRANCH   4   7
ATOM      7  C   UNL     1      37.321 -25.898 -13.138  0.00  0.00    +0.151 C 
BRANCH   7   9
ATOM      8 BR   UNL     1      39.907 -25.648 -14.330  0.00  0.00    -0.078 Br
ATOM      9  C   UNL     1      38.680 -25.275 -12.852  0.00  0.00    +0.099 C 
ENDBRANCH   7   9
BRANCH   7  10
ATOM     10  O   UNL     1      36.896 -26.618 -11.973  0.00  0.00    -0.381 OA
ATOM     11  H   UNL     1      37.565 -27.281 -11.741  0.00  0.00    +0.210 HD
ENDBRANCH   7  10
ENDBRANCH   4   7
ENDBRANCH   1   4
BRANCH   1  12
ATOM     12  C   UNL     1      35.503 -23.455 -15.518  0.00  0.00    +0.151 C 
BRANCH  12  14
ATOM     13 BR   UNL     1      36.805 -21.792 -17.448  0.00  0.00    -0.078 Br
ATOM     14  C   UNL     1      36.849 -22.778 -15.760  0.00  0.00    +0.099 C 
ENDBRANCH  12  14
BRANCH  12  15
ATOM     15  O   UNL     1      34.726 -22.630 -14.651  0.00  0.00    -0.381 OA
ATOM     16  H   UNL     1      34.007 -23.154 -14.264  0.00  0.00    +0.210 HD
ENDBRANCH  12  15
ENDBRANCH   1  12
TORSDOF 9
ENDMDL
MODEL 5
REMARK VINA RESULT:      -5.2      9.340     11.516
REMARK  Name = 5284380
REMARK  9 active torsions:
REMARK  status: ('A' for Active; 'I' for Inactive)
REMARK    1  A    between atoms: C_1  and  O_2
REMARK    2  A    between atoms: C_1  and  C_4
REMARK    3  A    between atoms: C_1  and  C_12
REMARK    4  A    between atoms: C_4  and  O_5
REMARK    5  A    between atoms: C_4  and  C_7
REMARK    6  A    between atoms: C_7  and  C_9
REMARK    7  A    between atoms: C_7  and  O_10
REMARK    8  A    between atoms: C_12  and  C_14
REMARK    9  A    between atoms: C_12  and  O_15
REMARK                            x       y       z     vdW  Elec       q    Type
REMARK                         _______ _______ _______ _____ _____    ______ ____
ROOT
ATOM      1  C   UNL     1      34.949 -24.111 -13.901  0.00  0.00    +0.167 C 
ENDROOT
BRANCH   1   2
ATOM      2  O   UNL     1      35.322 -22.787 -14.297  0.00  0.00    -0.379 OA
ATOM      3  H   UNL     1      35.052 -22.635 -15.216  0.00  0.00    +0.211 HD
ENDBRANCH   1   2
BRANCH   1   4
ATOM      4  C   UNL     1      35.764 -24.483 -12.645  0.00  0.00    +0.167 C 
BRANCH   4   5
ATOM      5  O   UNL     1      34.888 -25.062 -11.668  0.00  0.00    -0.379 OA
ATOM      6  H   UNL     1      34.175 -24.439 -11.464  0.00  0.00    +0.211 HD
ENDBRANCH   4   5
BRANCH   4   7
ATOM      7  C   UNL     1      36.941 -25.450 -12.870  0.00  0.00    +0.151 C 
BRANCH   7   9
ATOM      8 BR   UNL     1      39.568 -25.518 -13.995  0.00  0.00    -0.078 Br
ATOM      9  C   UNL     1      38.303 -24.794 -12.690  0.00  0.00    +0.099 C 
ENDBRANCH   7   9
BRANCH   7  10
ATOM     10  O   UNL     1      36.805 -26.492 -11.894  0.00  0.00    -0.381 OA
ATOM     11  H   UNL     1      37.644 -26.971 -11.814  0.00  0.00    +0.210 HD
ENDBRANCH   7  10
ENDBRANCH   4   7
ENDBRANCH   1   4
BRANCH   1  12
ATOM     12  C   UNL     1      33.416 -24.175 -13.754  0.00  0.00    +0.151 C 
BRANCH  12  14
ATOM     13 BR   UNL     1      31.052 -22.865 -14.690  0.00  0.00    -0.078 Br
ATOM     14  C   UNL     1      32.717 -23.819 -15.063  0.00  0.00    +0.099 C 
ENDBRANCH  12  14
BRANCH  12  15
ATOM     15  O   UNL     1      32.998 -23.255 -12.747  0.00  0.00    -0.381 OA
ATOM     16  H   UNL     1      32.045 -23.354 -12.593  0.00  0.00    +0.210 HD
ENDBRANCH  12  15
ENDBRANCH   1  12
TORSDOF 9
ENDMDL
MODEL 6
REMARK VINA RESULT:      -5.1      8.180     10.937
REMARK  Name = 5284380
REMARK  9 active torsions:
REMARK  status: ('A' for Active; 'I' for Inactive)
REMARK    1  A    between atoms: C_1  and  O_2
REMARK    2  A    between atoms: C_1  and  C_4
REMARK    3  A    between atoms: C_1  and  C_12
REMARK    4  A    between atoms: C_4  and  O_5
REMARK    5  A    between atoms: C_4  and  C_7
REMARK    6  A    between atoms: C_7  and  C_9
REMARK    7  A    between atoms: C_7  and  O_10
REMARK    8  A    between atoms: C_12  and  C_14
REMARK    9  A    between atoms: C_12  and  O_15
REMARK                            x       y       z     vdW  Elec       q    Type
REMARK                         _______ _______ _______ _____ _____    ______ ____
ROOT
ATOM      1  C   UNL     1      36.241 -23.603 -14.148  0.00  0.00    +0.167 C 
ENDROOT
BRANCH   1   2
ATOM      2  O   UNL     1      35.661 -23.274 -12.881  0.00  0.00    -0.379 OA
ATOM      3  H   UNL     1      36.128 -23.751 -12.177  0.00  0.00    +0.211 HD
ENDBRANCH   1   2
BRANCH   1   4
ATOM      4  C   UNL     1      36.323 -25.140 -14.253  0.00  0.00    +0.167 C 
BRANCH   4   5
ATOM      5  O   UNL     1      36.719 -25.502 -15.582  0.00  0.00    -0.379 OA
ATOM      6  H   UNL     1      37.559 -25.985 -15.548  0.00  0.00    +0.211 HD
ENDBRANCH   4   5
BRANCH   4   7
ATOM      7  C   UNL     1      37.275 -25.831 -13.260  0.00  0.00    +0.151 C 
BRANCH   7   9
ATOM      8 BR   UNL     1      39.978 -25.621 -14.167  0.00  0.00    -0.078 Br
ATOM      9  C   UNL     1      38.539 -25.030 -12.980  0.00  0.00    +0.099 C 
ENDBRANCH   7   9
BRANCH   7  10
ATOM     10  O   UNL     1      36.549 -25.977 -12.032  0.00  0.00    -0.381 OA
ATOM     11  H   UNL     1      36.232 -26.890 -11.951  0.00  0.00    +0.210 HD
ENDBRANCH   7  10
ENDBRANCH   4   7
ENDBRANCH   1   4
BRANCH   1  12
ATOM     12  C   UNL     1      35.446 -22.892 -15.260  0.00  0.00    +0.151 C 
BRANCH  12  14
ATOM     13 BR   UNL     1      33.426 -23.257 -17.253  0.00  0.00    -0.078 Br
ATOM     14  C   UNL     1      34.051 -23.492 -15.415  0.00  0.00    +0.099 C 
ENDBRANCH  12  14
BRANCH  12  15
ATOM     15  O   UNL     1      36.141 -23.025 -16.499  0.00  0.00    -0.381 OA
ATOM     16  H   UNL     1      35.702 -23.694 -17.047  0.00  0.00    +0.210 HD
ENDBRANCH  12  15
ENDBRANCH   1  12
TORSDOF 9
ENDMDL
MODEL 7
REMARK VINA RESULT:      -5.1      9.882     10.951
REMARK  Name = 5284380
REMARK  9 active torsions:
REMARK  status: ('A' for Active; 'I' for Inactive)
REMARK    1  A    between atoms: C_1  and  O_2
REMARK    2  A    between atoms: C_1  and  C_4
REMARK    3  A    between atoms: C_1  and  C_12
REMARK    4  A    between atoms: C_4  and  O_5
REMARK    5  A    between atoms: C_4  and  C_7
REMARK    6  A    between atoms: C_7  and  C_9
REMARK    7  A    between atoms: C_7  and  O_10
REMARK    8  A    between atoms: C_12  and  C_14
REMARK    9  A    between atoms: C_12  and  O_15
REMARK                            x       y       z     vdW  Elec       q    Type
REMARK                         _______ _______ _______ _____ _____    ______ ____
ROOT
ATOM      1  C   UNL     1      30.518 -23.987 -13.876  0.00  0.00    +0.167 C 
ENDROOT
BRANCH   1   2
ATOM      2  O   UNL     1      30.420 -24.748 -12.667  0.00  0.00    -0.379 OA
ATOM      3  H   UNL     1      31.217 -24.610 -12.131  0.00  0.00    +0.211 HD
ENDBRANCH   1   2
BRANCH   1   4
ATOM      4  C   UNL     1      31.932 -23.370 -13.939  0.00  0.00    +0.167 C 
BRANCH   4   5
ATOM      5  O   UNL     1      32.223 -22.727 -12.692  0.00  0.00    -0.379 OA
ATOM      6  H   UNL     1      31.746 -21.884 -12.644  0.00  0.00    +0.211 HD
ENDBRANCH   4   5
BRANCH   4   7
ATOM      7  C   UNL     1      33.077 -24.349 -14.256  0.00  0.00    +0.151 C 
BRANCH   7   9
ATOM      8 BR   UNL     1      35.832 -24.840 -14.840  0.00  0.00    -0.078 Br
ATOM      9  C   UNL     1      34.251 -23.694 -14.969  0.00  0.00    +0.099 C 
ENDBRANCH   7   9
BRANCH   7  10
ATOM     10  O   UNL     1      33.537 -24.859 -12.997  0.00  0.00    -0.381 OA
ATOM     11  H   UNL     1      33.867 -25.763 -13.115  0.00  0.00    +0.210 HD
ENDBRANCH   7  10
ENDBRANCH   4   7
ENDBRANCH   1   4
BRANCH   1  12
ATOM     12  C   UNL     1      30.120 -24.883 -15.064  0.00  0.00    +0.151 C 
BRANCH  12  14
ATOM     13 BR   UNL     1      28.724 -22.482 -15.751  0.00  0.00    -0.078 Br
ATOM     14  C   UNL     1      28.797 -24.435 -15.679  0.00  0.00    +0.099 C 
ENDBRANCH  12  14
BRANCH  12  15
ATOM     15  O   UNL     1      29.983 -26.231 -14.616  0.00  0.00    -0.381 OA
ATOM     16  H   UNL     1      30.813 -26.522 -14.207  0.00  0.00    +0.210 HD
ENDBRANCH  12  15
ENDBRANCH   1  12
TORSDOF 9
ENDMDL
MODEL 8
REMARK VINA RESULT:      -5.1     10.332     12.041
REMARK  Name = 5284380
REMARK  9 active torsions:
REMARK  status: ('A' for Active; 'I' for Inactive)
REMARK    1  A    between atoms: C_1  and  O_2
REMARK    2  A    between atoms: C_1  and  C_4
REMARK    3  A    between atoms: C_1  and  C_12
REMARK    4  A    between atoms: C_4  and  O_5
REMARK    5  A    between atoms: C_4  and  C_7
REMARK    6  A    between atoms: C_7  and  C_9
REMARK    7  A    between atoms: C_7  and  O_10
REMARK    8  A    between atoms: C_12  and  C_14
REMARK    9  A    between atoms: C_12  and  O_15
REMARK                            x       y       z     vdW  Elec       q    Type
REMARK                         _______ _______ _______ _____ _____    ______ ____
ROOT
ATOM      1  C   UNL     1      35.989 -24.718 -11.993  0.00  0.00    +0.167 C 
ENDROOT
BRANCH   1   2
ATOM      2  O   UNL     1      35.265 -25.119 -10.825  0.00  0.00    -0.379 OA
ATOM      3  H   UNL     1      35.815 -24.979 -10.038  0.00  0.00    +0.211 HD
ENDBRANCH   1   2
BRANCH   1   4
ATOM      4  C   UNL     1      37.208 -25.652 -12.144  0.00  0.00    +0.167 C 
BRANCH   4   5
ATOM      5  O   UNL     1      36.866 -26.739 -13.014  0.00  0.00    -0.379 OA
ATOM      6  H   UNL     1      37.437 -27.498 -12.823  0.00  0.00    +0.211 HD
ENDBRANCH   4   5
BRANCH   4   7
ATOM      7  C   UNL     1      38.495 -24.995 -12.676  0.00  0.00    +0.151 C 
BRANCH   7   9
ATOM      8 BR   UNL     1      40.335 -25.765 -14.724  0.00  0.00    -0.078 Br
ATOM      9  C   UNL     1      38.603 -25.024 -14.195  0.00  0.00    +0.099 C 
ENDBRANCH   7   9
BRANCH   7  10
ATOM     10  O   UNL     1      38.460 -23.626 -12.249  0.00  0.00    -0.381 OA
ATOM     11  H   UNL     1      39.366 -23.288 -12.173  0.00  0.00    +0.210 HD
ENDBRANCH   7  10
ENDBRANCH   4   7
ENDBRANCH   1   4
BRANCH   1  12
ATOM     12  C   UNL     1      35.020 -24.675 -13.191  0.00  0.00    +0.151 C 
BRANCH  12  14
ATOM     13 BR   UNL     1      33.967 -23.392 -15.520  0.00  0.00    -0.078 Br
ATOM     14  C   UNL     1      35.256 -23.437 -14.051  0.00  0.00    +0.099 C 
ENDBRANCH  12  14
BRANCH  12  15
ATOM     15  O   UNL     1      33.676 -24.650 -12.713  0.00  0.00    -0.381 OA
ATOM     16  H   UNL     1      33.625 -25.119 -11.865  0.00  0.00    +0.210 HD
ENDBRANCH  12  15
ENDBRANCH   1  12
TORSDOF 9
ENDMDL
MODEL 9
REMARK VINA RESULT:      -5.0      1.755      4.806
REMARK  Name = 5284380
REMARK  9 active torsions:
REMARK  status: ('A' for Active; 'I' for Inactive)
REMARK    1  A    between atoms: C_1  and  O_2
REMARK    2  A    between atoms: C_1  and  C_4
REMARK    3  A    between atoms: C_1  and  C_12
REMARK    4  A    between atoms: C_4  and  O_5
REMARK    5  A    between atoms: C_4  and  C_7
REMARK    6  A    between atoms: C_7  and  C_9
REMARK    7  A    between atoms: C_7  and  O_10
REMARK    8  A    between atoms: C_12  and  C_14
REMARK    9  A    between atoms: C_12  and  O_15
REMARK                            x       y       z     vdW  Elec       q    Type
REMARK                         _______ _______ _______ _____ _____    ______ ____
ROOT
ATOM      1  C   UNL     1      34.438 -15.556 -21.750  0.00  0.00    +0.167 C 
ENDROOT
BRANCH   1   2
ATOM      2  O   UNL     1      34.922 -15.939 -20.458  0.00  0.00    -0.379 OA
ATOM      3  H   UNL     1      34.806 -16.894 -20.338  0.00  0.00    +0.211 HD
ENDBRANCH   1   2
BRANCH   1   4
ATOM      4  C   UNL     1      34.801 -16.676 -22.748  0.00  0.00    +0.167 C 
BRANCH   4   5
ATOM      5  O   UNL     1      35.753 -16.173 -23.696  0.00  0.00    -0.379 OA
ATOM      6  H   UNL     1      35.680 -15.208 -23.745  0.00  0.00    +0.211 HD
ENDBRANCH   4   5
BRANCH   4   7
ATOM      7  C   UNL     1      35.371 -17.966 -22.131  0.00  0.00    +0.151 C 
BRANCH   7   9
ATOM      8 BR   UNL     1      33.495 -19.706 -20.855  0.00  0.00    -0.078 Br
ATOM      9  C   UNL     1      34.534 -19.201 -22.434  0.00  0.00    +0.099 C 
ENDBRANCH   7   9
BRANCH   7  10
ATOM     10  O   UNL     1      36.675 -18.149 -22.700  0.00  0.00    -0.381 OA
ATOM     11  H   UNL     1      36.889 -19.095 -22.720  0.00  0.00    +0.210 HD
ENDBRANCH   7  10
ENDBRANCH   4   7
ENDBRANCH   1   4
BRANCH   1  12
ATOM     12  C   UNL     1      32.940 -15.211 -21.640  0.00  0.00    +0.151 C 
BRANCH  12  14
ATOM     13 BR   UNL     1      33.471 -13.266 -23.668  0.00  0.00    -0.078 Br
ATOM     14  C   UNL     1      32.686 -13.737 -21.941  0.00  0.00    +0.099 C 
ENDBRANCH  12  14
BRANCH  12  15
ATOM     15  O   UNL     1      32.485 -15.493 -20.317  0.00  0.00    -0.381 OA
ATOM     16  H   UNL     1      31.844 -14.817 -20.044  0.00  0.00    +0.210 HD
ENDBRANCH  12  15
ENDBRANCH   1  12
TORSDOF 9
ENDMDL
