MODEL 1
REMARK VINA RESULT:     -10.5      0.000      0.000
REMARK  Name = 4447
REMARK  8 active torsions:
REMARK  status: ('A' for Active; 'I' for Inactive)
REMARK    1  A    between atoms: N_1  and  C_15
REMARK    2  A    between atoms: N_2  and  C_7
REMARK    3  A    between atoms: N_3  and  C_28
REMARK    4  A    between atoms: C_12  and  C_14
REMARK    5  A    between atoms: C_15  and  C_16
REMARK    6  A    between atoms: C_15  and  C_22
REMARK    7  A    between atoms: C_28  and  C_30
REMARK    8  A    between atoms: C_30  and  O_31
REMARK                            x       y       z     vdW  Elec       q    Type
REMARK                         _______ _______ _______ _____ _____    ______ ____
ROOT
ATOM      1  N   UNL     1      34.606 -23.632 -15.127  0.00  0.00    -0.340 N 
ATOM      2  N   UNL     1      32.993 -24.569 -13.728  0.00  0.00    -0.325 N 
ATOM      3  N   UNL     1      35.003 -23.775 -12.779  0.00  0.00    -0.227 NA
ATOM      4  C   UNL     1      34.246 -23.970 -13.823  0.00  0.00    +0.200 C 
ATOM      5  H   UNL     1      33.934 -23.812 -15.824  0.00  0.00    +0.164 HD
ATOM      6  H   UNL     1      32.904 -25.253 -13.026  0.00  0.00    +0.169 HD
ENDROOT
BRANCH   2   7
ATOM      7  C   UNL     1      31.830 -24.333 -14.496  0.00  0.00    +0.059 C 
ATOM      8  C   UNL     1      31.773 -23.233 -15.349  0.00  0.00    +0.018 C 
ATOM      9  C   UNL     1      30.745 -25.202 -14.398  0.00  0.00    +0.018 C 
ATOM     10  C   UNL     1      30.625 -22.999 -16.106  0.00  0.00    +0.012 C 
ATOM     11  C   UNL     1      29.597 -24.969 -15.156  0.00  0.00    +0.012 C 
ATOM     12  C   UNL     1      29.538 -23.868 -16.010  0.00  0.00    +0.069 C 
BRANCH  12  14
ATOM     13  N   UNL     1      27.407 -23.433 -17.421  0.00  0.00    -0.191 NA
ATOM     14  C   UNL     1      28.362 -23.629 -16.788  0.00  0.00    +0.100 C 
ENDBRANCH  12  14
ENDBRANCH   2   7
BRANCH   1  15
ATOM     15  C   UNL     1      35.851 -23.047 -15.575  0.00  0.00    +0.125 C 
BRANCH  15  16
ATOM     16  C   UNL     1      35.747 -22.544 -17.003  0.00  0.00    +0.002 C 
ATOM     17  C   UNL     1      36.806 -21.842 -17.546  0.00  0.00    -0.002 C 
ATOM     18  C   UNL     1      34.596 -22.802 -17.723  0.00  0.00    -0.002 C 
ATOM     19  C   UNL     1      36.711 -21.381 -18.859  0.00  0.00    -0.000 C 
ATOM     20  C   UNL     1      34.501 -22.341 -19.036  0.00  0.00    -0.000 C 
ATOM     21  C   UNL     1      35.558 -21.631 -19.604  0.00  0.00    -0.000 C 
ENDBRANCH  15  16
BRANCH  15  22
ATOM     22  C   UNL     1      37.016 -23.999 -15.377  0.00  0.00    +0.002 C 
ATOM     23  C   UNL     1      38.304 -23.500 -15.407  0.00  0.00    -0.002 C 
ATOM     24  C   UNL     1      36.757 -25.341 -15.172  0.00  0.00    -0.002 C 
ATOM     25  C   UNL     1      39.374 -24.376 -15.225  0.00  0.00    -0.000 C 
ATOM     26  C   UNL     1      37.828 -26.217 -14.990  0.00  0.00    -0.000 C 
ATOM     27  C   UNL     1      39.135 -25.734 -15.016  0.00  0.00    -0.000 C 
ENDBRANCH  15  22
ENDBRANCH   1  15
BRANCH   3  28
ATOM     28  C   UNL     1      34.518 -24.200 -11.474  0.00  0.00    +0.237 C 
BRANCH  28  30
ATOM     29  O   UNL     1      36.877 -24.198 -10.875  0.00  0.00    -0.248 OA
ATOM     30  C   UNL     1      35.706 -24.378 -10.573  0.00  0.00    +0.339 C 
BRANCH  30  31
ATOM     31  O   UNL     1      35.298 -24.775  -9.341  0.00  0.00    -0.479 OA
ATOM     32  H   UNL     1      34.758 -24.212  -8.823  0.00  0.00    +0.295 HD
ENDBRANCH  30  31
ENDBRANCH  28  30
ENDBRANCH   3  28
TORSDOF 8
ENDMDL
MODEL 2
REMARK VINA RESULT:      -8.6      2.713      5.798
REMARK  Name = 4447
REMARK  8 active torsions:
REMARK  status: ('A' for Active; 'I' for Inactive)
REMARK    1  A    between atoms: N_1  and  C_15
REMARK    2  A    between atoms: N_2  and  C_7
REMARK    3  A    between atoms: N_3  and  C_28
REMARK    4  A    between atoms: C_12  and  C_14
REMARK    5  A    between atoms: C_15  and  C_16
REMARK    6  A    between atoms: C_15  and  C_22
REMARK    7  A    between atoms: C_28  and  C_30
REMARK    8  A    between atoms: C_30  and  O_31
REMARK                            x       y       z     vdW  Elec       q    Type
REMARK                         _______ _______ _______ _____ _____    ______ ____
ROOT
ATOM      1  N   UNL     1      35.411 -23.364 -15.892  0.00  0.00    -0.340 N 
ATOM      2  N   UNL     1      37.178 -22.189 -16.859  0.00  0.00    -0.325 N 
ATOM      3  N   UNL     1      37.661 -24.046 -15.485  0.00  0.00    -0.227 NA
ATOM      4  C   UNL     1      36.793 -23.254 -16.050  0.00  0.00    +0.200 C 
ATOM      5  H   UNL     1      34.863 -22.715 -16.390  0.00  0.00    +0.164 HD
ATOM      6  H   UNL     1      38.025 -21.754 -16.611  0.00  0.00    +0.169 HD
ENDROOT
BRANCH   2   7
ATOM      7  C   UNL     1      36.525 -21.643 -17.988  0.00  0.00    +0.059 C 
ATOM      8  C   UNL     1      37.169 -20.682 -18.765  0.00  0.00    +0.018 C 
ATOM      9  C   UNL     1      35.240 -22.067 -18.320  0.00  0.00    +0.018 C 
ATOM     10  C   UNL     1      36.526 -20.143 -19.879  0.00  0.00    +0.012 C 
ATOM     11  C   UNL     1      34.596 -21.528 -19.435  0.00  0.00    +0.012 C 
ATOM     12  C   UNL     1      35.239 -20.567 -20.214  0.00  0.00    +0.069 C 
BRANCH  12  14
ATOM     13  N   UNL     1      34.046 -19.564 -22.284  0.00  0.00    -0.191 NA
ATOM     14  C   UNL     1      34.581 -20.015 -21.356  0.00  0.00    +0.100 C 
ENDBRANCH  12  14
ENDBRANCH   2   7
BRANCH   1  15
ATOM     15  C   UNL     1      34.690 -24.321 -15.082  0.00  0.00    +0.125 C 
BRANCH  15  16
ATOM     16  C   UNL     1      33.213 -23.981 -15.002  0.00  0.00    +0.002 C 
ATOM     17  C   UNL     1      32.483 -24.415 -13.912  0.00  0.00    -0.002 C 
ATOM     18  C   UNL     1      32.638 -23.247 -16.022  0.00  0.00    -0.002 C 
ATOM     19  C   UNL     1      31.126 -24.101 -13.839  0.00  0.00    -0.000 C 
ATOM     20  C   UNL     1      31.280 -22.933 -15.948  0.00  0.00    -0.000 C 
ATOM     21  C   UNL     1      30.524 -23.360 -14.857  0.00  0.00    -0.000 C 
ENDBRANCH  15  16
BRANCH  15  22
ATOM     22  C   UNL     1      35.325 -24.480 -13.712  0.00  0.00    +0.002 C 
ATOM     23  C   UNL     1      36.147 -25.565 -13.475  0.00  0.00    -0.002 C 
ATOM     24  C   UNL     1      35.063 -23.535 -12.738  0.00  0.00    -0.002 C 
ATOM     25  C   UNL     1      36.730 -25.710 -12.216  0.00  0.00    -0.000 C 
ATOM     26  C   UNL     1      35.647 -23.681 -11.479  0.00  0.00    -0.000 C 
ATOM     27  C   UNL     1      36.480 -24.767 -11.219  0.00  0.00    -0.000 C 
ENDBRANCH  15  22
ENDBRANCH   1  15
BRANCH   3  28
ATOM     28  C   UNL     1      39.079 -23.804 -15.711  0.00  0.00    +0.237 C 
BRANCH  28  30
ATOM     29  O   UNL     1      40.931 -24.927 -14.600  0.00  0.00    -0.248 OA
ATOM     30  C   UNL     1      39.842 -24.971 -15.155  0.00  0.00    +0.339 C 
BRANCH  30  31
ATOM     31  O   UNL     1      39.144 -26.118 -15.352  0.00  0.00    -0.479 OA
ATOM     32  H   UNL     1      39.310 -26.866 -14.812  0.00  0.00    +0.295 HD
ENDBRANCH  30  31
ENDBRANCH  28  30
ENDBRANCH   3  28
TORSDOF 8
ENDMDL
MODEL 3
REMARK VINA RESULT:      -8.6      2.769      6.423
REMARK  Name = 4447
REMARK  8 active torsions:
REMARK  status: ('A' for Active; 'I' for Inactive)
REMARK    1  A    between atoms: N_1  and  C_15
REMARK    2  A    between atoms: N_2  and  C_7
REMARK    3  A    between atoms: N_3  and  C_28
REMARK    4  A    between atoms: C_12  and  C_14
REMARK    5  A    between atoms: C_15  and  C_16
REMARK    6  A    between atoms: C_15  and  C_22
REMARK    7  A    between atoms: C_28  and  C_30
REMARK    8  A    between atoms: C_30  and  O_31
REMARK                            x       y       z     vdW  Elec       q    Type
REMARK                         _______ _______ _______ _____ _____    ______ ____
ROOT
ATOM      1  N   UNL     1      35.828 -22.660 -15.572  0.00  0.00    -0.340 N 
ATOM      2  N   UNL     1      37.541 -21.972 -16.997  0.00  0.00    -0.325 N 
ATOM      3  N   UNL     1      37.983 -23.673 -15.422  0.00  0.00    -0.227 NA
ATOM      4  C   UNL     1      37.156 -22.825 -15.967  0.00  0.00    +0.200 C 
ATOM      5  H   UNL     1      35.302 -22.000 -16.080  0.00  0.00    +0.164 HD
ATOM      6  H   UNL     1      38.476 -21.667 -16.966  0.00  0.00    +0.169 HD
ENDROOT
BRANCH   2   7
ATOM      7  C   UNL     1      36.780 -21.483 -18.083  0.00  0.00    +0.059 C 
ATOM      8  C   UNL     1      37.283 -20.452 -18.874  0.00  0.00    +0.018 C 
ATOM      9  C   UNL     1      35.529 -22.032 -18.358  0.00  0.00    +0.018 C 
ATOM     10  C   UNL     1      36.532 -19.968 -19.945  0.00  0.00    +0.012 C 
ATOM     11  C   UNL     1      34.778 -21.548 -19.430  0.00  0.00    +0.012 C 
ATOM     12  C   UNL     1      35.280 -20.516 -20.223  0.00  0.00    +0.069 C 
BRANCH  12  14
ATOM     13  N   UNL     1      33.888 -19.618 -22.216  0.00  0.00    -0.191 NA
ATOM     14  C   UNL     1      34.511 -20.021 -21.322  0.00  0.00    +0.100 C 
ENDBRANCH  12  14
ENDBRANCH   2   7
BRANCH   1  15
ATOM     15  C   UNL     1      35.134 -23.347 -14.505  0.00  0.00    +0.125 C 
BRANCH  15  16
ATOM     16  C   UNL     1      35.835 -24.638 -14.127  0.00  0.00    +0.002 C 
ATOM     17  C   UNL     1      35.893 -25.665 -15.050  0.00  0.00    -0.002 C 
ATOM     18  C   UNL     1      36.397 -24.754 -12.870  0.00  0.00    -0.002 C 
ATOM     19  C   UNL     1      36.538 -26.852 -14.703  0.00  0.00    -0.000 C 
ATOM     20  C   UNL     1      37.042 -25.941 -12.523  0.00  0.00    -0.000 C 
ATOM     21  C   UNL     1      37.113 -26.990 -13.439  0.00  0.00    -0.000 C 
ENDBRANCH  15  16
BRANCH  15  22
ATOM     22  C   UNL     1      33.668 -23.557 -14.841  0.00  0.00    +0.002 C 
ATOM     23  C   UNL     1      33.205 -23.187 -16.089  0.00  0.00    -0.002 C 
ATOM     24  C   UNL     1      32.836 -24.113 -13.888  0.00  0.00    -0.002 C 
ATOM     25  C   UNL     1      31.859 -23.382 -16.396  0.00  0.00    -0.000 C 
ATOM     26  C   UNL     1      31.489 -24.308 -14.197  0.00  0.00    -0.000 C 
ATOM     27  C   UNL     1      31.001 -23.942 -15.450  0.00  0.00    -0.000 C 
ENDBRANCH  15  22
ENDBRANCH   1  15
BRANCH   3  28
ATOM     28  C   UNL     1      39.353 -23.725 -15.911  0.00  0.00    +0.237 C 
BRANCH  28  30
ATOM     29  O   UNL     1      40.415 -24.873 -14.045  0.00  0.00    -0.248 OA
ATOM     30  C   UNL     1      40.051 -24.857 -15.212  0.00  0.00    +0.339 C 
BRANCH  30  31
ATOM     31  O   UNL     1      40.229 -25.892 -16.070  0.00  0.00    -0.479 OA
ATOM     32  H   UNL     1      40.385 -26.754 -15.738  0.00  0.00    +0.295 HD
ENDBRANCH  30  31
ENDBRANCH  28  30
ENDBRANCH   3  28
TORSDOF 8
ENDMDL
MODEL 4
REMARK VINA RESULT:      -8.4     11.174     14.227
REMARK  Name = 4447
REMARK  8 active torsions:
REMARK  status: ('A' for Active; 'I' for Inactive)
REMARK    1  A    between atoms: N_1  and  C_15
REMARK    2  A    between atoms: N_2  and  C_7
REMARK    3  A    between atoms: N_3  and  C_28
REMARK    4  A    between atoms: C_12  and  C_14
REMARK    5  A    between atoms: C_15  and  C_16
REMARK    6  A    between atoms: C_15  and  C_22
REMARK    7  A    between atoms: C_28  and  C_30
REMARK    8  A    between atoms: C_30  and  O_31
REMARK                            x       y       z     vdW  Elec       q    Type
REMARK                         _______ _______ _______ _____ _____    ______ ____
ROOT
ATOM      1  N   UNL     1      32.880 -12.743 -22.791  0.00  0.00    -0.340 N 
ATOM      2  N   UNL     1      32.848 -13.383 -20.549  0.00  0.00    -0.325 N 
ATOM      3  N   UNL     1      31.524 -11.552 -21.230  0.00  0.00    -0.227 NA
ATOM      4  C   UNL     1      32.363 -12.508 -21.517  0.00  0.00    +0.200 C 
ATOM      5  H   UNL     1      33.490 -13.511 -22.878  0.00  0.00    +0.164 HD
ATOM      6  H   UNL     1      32.958 -12.999 -19.649  0.00  0.00    +0.169 HD
ENDROOT
BRANCH   2   7
ATOM      7  C   UNL     1      33.204 -14.745 -20.674  0.00  0.00    +0.059 C 
ATOM      8  C   UNL     1      34.548 -15.109 -20.732  0.00  0.00    +0.018 C 
ATOM      9  C   UNL     1      32.210 -15.719 -20.740  0.00  0.00    +0.018 C 
ATOM     10  C   UNL     1      34.899 -16.453 -20.856  0.00  0.00    +0.012 C 
ATOM     11  C   UNL     1      32.561 -17.064 -20.863  0.00  0.00    +0.012 C 
ATOM     12  C   UNL     1      33.906 -17.430 -20.921  0.00  0.00    +0.069 C 
BRANCH  12  14
ATOM     13  N   UNL     1      34.559 -19.928 -21.148  0.00  0.00    -0.191 NA
ATOM     14  C   UNL     1      34.267 -18.808 -21.047  0.00  0.00    +0.100 C 
ENDBRANCH  12  14
ENDBRANCH   2   7
BRANCH   1  15
ATOM     15  C   UNL     1      32.624 -11.990 -23.999  0.00  0.00    +0.125 C 
BRANCH  15  16
ATOM     16  C   UNL     1      32.969 -12.794 -25.239  0.00  0.00    +0.002 C 
ATOM     17  C   UNL     1      32.828 -14.168 -25.208  0.00  0.00    -0.002 C 
ATOM     18  C   UNL     1      33.415 -12.130 -26.366  0.00  0.00    -0.002 C 
ATOM     19  C   UNL     1      33.144 -14.907 -26.347  0.00  0.00    -0.000 C 
ATOM     20  C   UNL     1      33.731 -12.870 -27.506  0.00  0.00    -0.000 C 
ATOM     21  C   UNL     1      33.596 -14.258 -27.497  0.00  0.00    -0.000 C 
ENDBRANCH  15  16
BRANCH  15  22
ATOM     22  C   UNL     1      33.317 -10.639 -23.970  0.00  0.00    +0.002 C 
ATOM     23  C   UNL     1      32.588  -9.517 -23.627  0.00  0.00    -0.002 C 
ATOM     24  C   UNL     1      34.660 -10.569 -24.288  0.00  0.00    -0.002 C 
ATOM     25  C   UNL     1      33.226  -8.277 -23.600  0.00  0.00    -0.000 C 
ATOM     26  C   UNL     1      35.298  -9.328 -24.261  0.00  0.00    -0.000 C 
ATOM     27  C   UNL     1      34.581  -8.183 -23.917  0.00  0.00    -0.000 C 
ENDBRANCH  15  22
ENDBRANCH   1  15
BRANCH   3  28
ATOM     28  C   UNL     1      31.082 -11.399 -19.852  0.00  0.00    +0.237 C 
BRANCH  28  30
ATOM     29  O   UNL     1      32.175 -10.052 -18.144  0.00  0.00    -0.248 OA
ATOM     30  C   UNL     1      31.751 -10.181 -19.284  0.00  0.00    +0.339 C 
BRANCH  30  31
ATOM     31  O   UNL     1      31.829  -9.211 -20.230  0.00  0.00    -0.479 OA
ATOM     32  H   UNL     1      31.908  -8.313 -19.974  0.00  0.00    +0.295 HD
ENDBRANCH  30  31
ENDBRANCH  28  30
ENDBRANCH   3  28
TORSDOF 8
ENDMDL
MODEL 5
REMARK VINA RESULT:      -8.2      3.593      6.589
REMARK  Name = 4447
REMARK  8 active torsions:
REMARK  status: ('A' for Active; 'I' for Inactive)
REMARK    1  A    between atoms: N_1  and  C_15
REMARK    2  A    between atoms: N_2  and  C_7
REMARK    3  A    between atoms: N_3  and  C_28
REMARK    4  A    between atoms: C_12  and  C_14
REMARK    5  A    between atoms: C_15  and  C_16
REMARK    6  A    between atoms: C_15  and  C_22
REMARK    7  A    between atoms: C_28  and  C_30
REMARK    8  A    between atoms: C_30  and  O_31
REMARK                            x       y       z     vdW  Elec       q    Type
REMARK                         _______ _______ _______ _____ _____    ______ ____
ROOT
ATOM      1  N   UNL     1      33.479 -23.571 -16.881  0.00  0.00    -0.340 N 
ATOM      2  N   UNL     1      32.294 -22.388 -18.504  0.00  0.00    -0.325 N 
ATOM      3  N   UNL     1      31.169 -23.077 -16.547  0.00  0.00    -0.227 NA
ATOM      4  C   UNL     1      32.258 -23.013 -17.261  0.00  0.00    +0.200 C 
ATOM      5  H   UNL     1      34.232 -23.433 -17.501  0.00  0.00    +0.164 HD
ATOM      6  H   UNL     1      31.464 -22.448 -19.031  0.00  0.00    +0.169 HD
ENDROOT
BRANCH   2   7
ATOM      7  C   UNL     1      33.352 -21.680 -19.118  0.00  0.00    +0.059 C 
ATOM      8  C   UNL     1      33.071 -20.596 -19.949  0.00  0.00    +0.018 C 
ATOM      9  C   UNL     1      34.670 -22.068 -18.892  0.00  0.00    +0.018 C 
ATOM     10  C   UNL     1      34.114 -19.898 -20.556  0.00  0.00    +0.012 C 
ATOM     11  C   UNL     1      35.715 -21.368 -19.499  0.00  0.00    +0.012 C 
ATOM     12  C   UNL     1      35.436 -20.283 -20.330  0.00  0.00    +0.069 C 
BRANCH  12  14
ATOM     13  N   UNL     1      37.374 -18.984 -21.457  0.00  0.00    -0.191 NA
ATOM     14  C   UNL     1      36.505 -19.566 -20.951  0.00  0.00    +0.100 C 
ENDBRANCH  12  14
ENDBRANCH   2   7
BRANCH   1  15
ATOM     15  C   UNL     1      33.768 -24.327 -15.682  0.00  0.00    +0.125 C 
BRANCH  15  16
ATOM     16  C   UNL     1      32.688 -24.139 -14.633  0.00  0.00    +0.002 C 
ATOM     17  C   UNL     1      32.564 -22.911 -14.011  0.00  0.00    -0.002 C 
ATOM     18  C   UNL     1      31.858 -25.200 -14.327  0.00  0.00    -0.002 C 
ATOM     19  C   UNL     1      31.571 -22.737 -13.047  0.00  0.00    -0.000 C 
ATOM     20  C   UNL     1      30.864 -25.026 -13.363  0.00  0.00    -0.000 C 
ATOM     21  C   UNL     1      30.721 -23.795 -12.723  0.00  0.00    -0.000 C 
ENDBRANCH  15  16
BRANCH  15  22
ATOM     22  C   UNL     1      35.156 -24.017 -15.151  0.00  0.00    +0.002 C 
ATOM     23  C   UNL     1      35.915 -23.049 -15.779  0.00  0.00    -0.002 C 
ATOM     24  C   UNL     1      35.623 -24.713 -14.052  0.00  0.00    -0.002 C 
ATOM     25  C   UNL     1      37.190 -22.765 -15.289  0.00  0.00    -0.000 C 
ATOM     26  C   UNL     1      36.899 -24.429 -13.563  0.00  0.00    -0.000 C 
ATOM     27  C   UNL     1      37.681 -23.455 -14.181  0.00  0.00    -0.000 C 
ENDBRANCH  15  22
ENDBRANCH   1  15
BRANCH   3  28
ATOM     28  C   UNL     1      29.952 -22.475 -17.072  0.00  0.00    +0.237 C 
BRANCH  28  30
ATOM     29  O   UNL     1      28.576 -23.801 -15.565  0.00  0.00    -0.248 OA
ATOM     30  C   UNL     1      28.796 -23.349 -16.679  0.00  0.00    +0.339 C 
BRANCH  30  31
ATOM     31  O   UNL     1      28.001 -23.577 -17.755  0.00  0.00    -0.479 OA
ATOM     32  H   UNL     1      28.332 -23.438 -18.620  0.00  0.00    +0.295 HD
ENDBRANCH  30  31
ENDBRANCH  28  30
ENDBRANCH   3  28
TORSDOF 8
ENDMDL
MODEL 6
REMARK VINA RESULT:      -8.2     12.086     15.154
REMARK  Name = 4447
REMARK  8 active torsions:
REMARK  status: ('A' for Active; 'I' for Inactive)
REMARK    1  A    between atoms: N_1  and  C_15
REMARK    2  A    between atoms: N_2  and  C_7
REMARK    3  A    between atoms: N_3  and  C_28
REMARK    4  A    between atoms: C_12  and  C_14
REMARK    5  A    between atoms: C_15  and  C_16
REMARK    6  A    between atoms: C_15  and  C_22
REMARK    7  A    between atoms: C_28  and  C_30
REMARK    8  A    between atoms: C_30  and  O_31
REMARK                            x       y       z     vdW  Elec       q    Type
REMARK                         _______ _______ _______ _____ _____    ______ ____
ROOT
ATOM      1  N   UNL     1      32.915 -11.716 -23.095  0.00  0.00    -0.340 N 
ATOM      2  N   UNL     1      32.627 -12.798 -21.049  0.00  0.00    -0.325 N 
ATOM      3  N   UNL     1      31.203 -10.997 -21.597  0.00  0.00    -0.227 NA
ATOM      4  C   UNL     1      32.188 -11.793 -21.907  0.00  0.00    +0.200 C 
ATOM      5  H   UNL     1      33.622 -12.391 -23.216  0.00  0.00    +0.164 HD
ATOM      6  H   UNL     1      32.552 -12.595 -20.088  0.00  0.00    +0.169 HD
ENDROOT
BRANCH   2   7
ATOM      7  C   UNL     1      33.164 -14.067 -21.361  0.00  0.00    +0.059 C 
ATOM      8  C   UNL     1      34.094 -14.193 -22.391  0.00  0.00    +0.018 C 
ATOM      9  C   UNL     1      32.761 -15.188 -20.639  0.00  0.00    +0.018 C 
ATOM     10  C   UNL     1      34.623 -15.446 -22.700  0.00  0.00    +0.012 C 
ATOM     11  C   UNL     1      33.292 -16.442 -20.947  0.00  0.00    +0.012 C 
ATOM     12  C   UNL     1      34.222 -16.570 -21.978  0.00  0.00    +0.069 C 
BRANCH  12  14
ATOM     13  N   UNL     1      35.208 -18.898 -22.549  0.00  0.00    -0.191 NA
ATOM     14  C   UNL     1      34.767 -17.854 -22.294  0.00  0.00    +0.100 C 
ENDBRANCH  12  14
ENDBRANCH   2   7
BRANCH   1  15
ATOM     15  C   UNL     1      32.752 -10.761 -24.168  0.00  0.00    +0.125 C 
BRANCH  15  16
ATOM     16  C   UNL     1      33.759 -10.994 -25.279  0.00  0.00    +0.002 C 
ATOM     17  C   UNL     1      33.547 -12.029 -26.171  0.00  0.00    -0.002 C 
ATOM     18  C   UNL     1      34.862 -10.167 -25.369  0.00  0.00    -0.002 C 
ATOM     19  C   UNL     1      34.473 -12.243 -27.191  0.00  0.00    -0.000 C 
ATOM     20  C   UNL     1      35.788 -10.381 -26.391  0.00  0.00    -0.000 C 
ATOM     21  C   UNL     1      35.593 -11.419 -27.302  0.00  0.00    -0.000 C 
ENDBRANCH  15  16
BRANCH  15  22
ATOM     22  C   UNL     1      32.777  -9.334 -23.651  0.00  0.00    +0.002 C 
ATOM     23  C   UNL     1      33.926  -8.858 -23.050  0.00  0.00    -0.002 C 
ATOM     24  C   UNL     1      31.649  -8.548 -23.795  0.00  0.00    -0.002 C 
ATOM     25  C   UNL     1      33.949  -7.546 -22.576  0.00  0.00    -0.000 C 
ATOM     26  C   UNL     1      31.672  -7.236 -23.320  0.00  0.00    -0.000 C 
ATOM     27  C   UNL     1      32.822  -6.736 -22.711  0.00  0.00    -0.000 C 
ENDBRANCH  15  22
ENDBRANCH   1  15
BRANCH   3  28
ATOM     28  C   UNL     1      30.544 -11.168 -20.311  0.00  0.00    +0.237 C 
BRANCH  28  30
ATOM     29  O   UNL     1      31.781  -9.246 -19.475  0.00  0.00    -0.248 OA
ATOM     30  C   UNL     1      31.290 -10.351 -19.296  0.00  0.00    +0.339 C 
BRANCH  30  31
ATOM     31  O   UNL     1      31.347 -11.018 -18.115  0.00  0.00    -0.479 OA
ATOM     32  H   UNL     1      31.134 -11.929 -18.081  0.00  0.00    +0.295 HD
ENDBRANCH  30  31
ENDBRANCH  28  30
ENDBRANCH   3  28
TORSDOF 8
ENDMDL
MODEL 7
REMARK VINA RESULT:      -8.1      3.490      6.857
REMARK  Name = 4447
REMARK  8 active torsions:
REMARK  status: ('A' for Active; 'I' for Inactive)
REMARK    1  A    between atoms: N_1  and  C_15
REMARK    2  A    between atoms: N_2  and  C_7
REMARK    3  A    between atoms: N_3  and  C_28
REMARK    4  A    between atoms: C_12  and  C_14
REMARK    5  A    between atoms: C_15  and  C_16
REMARK    6  A    between atoms: C_15  and  C_22
REMARK    7  A    between atoms: C_28  and  C_30
REMARK    8  A    between atoms: C_30  and  O_31
REMARK                            x       y       z     vdW  Elec       q    Type
REMARK                         _______ _______ _______ _____ _____    ______ ____
ROOT
ATOM      1  N   UNL     1      33.790 -22.828 -16.321  0.00  0.00    -0.340 N 
ATOM      2  N   UNL     1      32.674 -22.720 -18.366  0.00  0.00    -0.325 N 
ATOM      3  N   UNL     1      31.434 -23.190 -16.414  0.00  0.00    -0.227 NA
ATOM      4  C   UNL     1      32.571 -22.920 -16.993  0.00  0.00    +0.200 C 
ATOM      5  H   UNL     1      34.573 -22.597 -16.872  0.00  0.00    +0.164 HD
ATOM      6  H   UNL     1      32.050 -23.245 -18.918  0.00  0.00    +0.169 HD
ENDROOT
BRANCH   2   7
ATOM      7  C   UNL     1      33.547 -21.870 -19.082  0.00  0.00    +0.059 C 
ATOM      8  C   UNL     1      33.028 -20.823 -19.842  0.00  0.00    +0.018 C 
ATOM      9  C   UNL     1      34.923 -22.081 -19.026  0.00  0.00    +0.018 C 
ATOM     10  C   UNL     1      33.889 -19.984 -20.549  0.00  0.00    +0.012 C 
ATOM     11  C   UNL     1      35.785 -21.241 -19.733  0.00  0.00    +0.012 C 
ATOM     12  C   UNL     1      35.268 -20.193 -20.494  0.00  0.00    +0.069 C 
BRANCH  12  14
ATOM     13  N   UNL     1      36.866 -18.631 -21.805  0.00  0.00    -0.191 NA
ATOM     14  C   UNL     1      36.150 -19.332 -21.217  0.00  0.00    +0.100 C 
ENDBRANCH  12  14
ENDBRANCH   2   7
BRANCH   1  15
ATOM     15  C   UNL     1      34.037 -23.031 -14.911  0.00  0.00    +0.125 C 
BRANCH  15  16
ATOM     16  C   UNL     1      35.265 -23.893 -14.681  0.00  0.00    +0.002 C 
ATOM     17  C   UNL     1      36.216 -23.477 -13.768  0.00  0.00    -0.002 C 
ATOM     18  C   UNL     1      35.398 -25.072 -15.389  0.00  0.00    -0.002 C 
ATOM     19  C   UNL     1      37.343 -24.270 -13.556  0.00  0.00    -0.000 C 
ATOM     20  C   UNL     1      36.526 -25.866 -15.176  0.00  0.00    -0.000 C 
ATOM     21  C   UNL     1      37.498 -25.465 -14.260  0.00  0.00    -0.000 C 
ENDBRANCH  15  16
BRANCH  15  22
ATOM     22  C   UNL     1      32.807 -23.568 -14.202  0.00  0.00    +0.002 C 
ATOM     23  C   UNL     1      32.596 -24.934 -14.167  0.00  0.00    -0.002 C 
ATOM     24  C   UNL     1      31.931 -22.678 -13.612  0.00  0.00    -0.002 C 
ATOM     25  C   UNL     1      31.466 -25.427 -13.516  0.00  0.00    -0.000 C 
ATOM     26  C   UNL     1      30.800 -23.173 -12.960  0.00  0.00    -0.000 C 
ATOM     27  C   UNL     1      30.569 -24.546 -12.912  0.00  0.00    -0.000 C 
ENDBRANCH  15  22
ENDBRANCH   1  15
BRANCH   3  28
ATOM     28  C   UNL     1      30.236 -23.285 -17.236  0.00  0.00    +0.237 C 
BRANCH  28  30
ATOM     29  O   UNL     1      28.603 -23.968 -15.566  0.00  0.00    -0.248 OA
ATOM     30  C   UNL     1      29.044 -23.128 -16.337  0.00  0.00    +0.339 C 
BRANCH  30  31
ATOM     31  O   UNL     1      28.502 -21.894 -16.496  0.00  0.00    -0.479 OA
ATOM     32  H   UNL     1      27.573 -21.782 -16.460  0.00  0.00    +0.295 HD
ENDBRANCH  30  31
ENDBRANCH  28  30
ENDBRANCH   3  28
TORSDOF 8
ENDMDL
MODEL 8
REMARK VINA RESULT:      -7.8     11.274     14.328
REMARK  Name = 4447
REMARK  8 active torsions:
REMARK  status: ('A' for Active; 'I' for Inactive)
REMARK    1  A    between atoms: N_1  and  C_15
REMARK    2  A    between atoms: N_2  and  C_7
REMARK    3  A    between atoms: N_3  and  C_28
REMARK    4  A    between atoms: C_12  and  C_14
REMARK    5  A    between atoms: C_15  and  C_16
REMARK    6  A    between atoms: C_15  and  C_22
REMARK    7  A    between atoms: C_28  and  C_30
REMARK    8  A    between atoms: C_30  and  O_31
REMARK                            x       y       z     vdW  Elec       q    Type
REMARK                         _______ _______ _______ _____ _____    ______ ____
ROOT
ATOM      1  N   UNL     1      32.465 -12.892 -23.556  0.00  0.00    -0.340 N 
ATOM      2  N   UNL     1      31.698 -12.998 -21.356  0.00  0.00    -0.325 N 
ATOM      3  N   UNL     1      32.630 -14.934 -22.332  0.00  0.00    -0.227 NA
ATOM      4  C   UNL     1      32.294 -13.677 -22.415  0.00  0.00    +0.200 C 
ATOM      5  H   UNL     1      32.188 -11.950 -23.481  0.00  0.00    +0.164 HD
ATOM      6  H   UNL     1      31.110 -13.541 -20.783  0.00  0.00    +0.169 HD
ENDROOT
BRANCH   2   7
ATOM      7  C   UNL     1      31.819 -11.639 -20.985  0.00  0.00    +0.059 C 
ATOM      8  C   UNL     1      31.942 -10.659 -21.968  0.00  0.00    +0.018 C 
ATOM      9  C   UNL     1      31.817 -11.284 -19.638  0.00  0.00    +0.018 C 
ATOM     10  C   UNL     1      32.062  -9.319 -21.603  0.00  0.00    +0.012 C 
ATOM     11  C   UNL     1      31.937  -9.943 -19.272  0.00  0.00    +0.012 C 
ATOM     12  C   UNL     1      32.059  -8.961 -20.254  0.00  0.00    +0.069 C 
BRANCH  12  14
ATOM     13  N   UNL     1      32.282  -6.469 -19.577  0.00  0.00    -0.191 NA
ATOM     14  C   UNL     1      32.181  -7.587 -19.880  0.00  0.00    +0.100 C 
ENDBRANCH  12  14
ENDBRANCH   2   7
BRANCH   1  15
ATOM     15  C   UNL     1      33.001 -13.302 -24.835  0.00  0.00    +0.125 C 
BRANCH  15  16
ATOM     16  C   UNL     1      33.652 -14.670 -24.752  0.00  0.00    +0.002 C 
ATOM     17  C   UNL     1      34.688 -14.867 -23.858  0.00  0.00    -0.002 C 
ATOM     18  C   UNL     1      33.193 -15.682 -25.572  0.00  0.00    -0.002 C 
ATOM     19  C   UNL     1      35.286 -16.124 -23.781  0.00  0.00    -0.000 C 
ATOM     20  C   UNL     1      33.792 -16.940 -25.495  0.00  0.00    -0.000 C 
ATOM     21  C   UNL     1      34.838 -17.161 -24.600  0.00  0.00    -0.000 C 
ENDBRANCH  15  16
BRANCH  15  22
ATOM     22  C   UNL     1      33.931 -12.249 -25.411  0.00  0.00    +0.002 C 
ATOM     23  C   UNL     1      34.339 -11.202 -24.607  0.00  0.00    -0.002 C 
ATOM     24  C   UNL     1      34.344 -12.365 -26.724  0.00  0.00    -0.002 C 
ATOM     25  C   UNL     1      35.194 -10.235 -25.136  0.00  0.00    -0.000 C 
ATOM     26  C   UNL     1      35.199 -11.398 -27.253  0.00  0.00    -0.000 C 
ATOM     27  C   UNL     1      35.624 -10.334 -26.460  0.00  0.00    -0.000 C 
ENDBRANCH  15  22
ENDBRANCH   1  15
BRANCH   3  28
ATOM     28  C   UNL     1      32.372 -15.646 -21.089  0.00  0.00    +0.237 C 
BRANCH  28  30
ATOM     29  O   UNL     1      33.738 -17.657 -20.960  0.00  0.00    -0.248 OA
ATOM     30  C   UNL     1      33.591 -16.460 -20.760  0.00  0.00    +0.339 C 
BRANCH  30  31
ATOM     31  O   UNL     1      34.538 -15.668 -20.196  0.00  0.00    -0.479 OA
ATOM     32  H   UNL     1      34.284 -14.910 -19.708  0.00  0.00    +0.295 HD
ENDBRANCH  30  31
ENDBRANCH  28  30
ENDBRANCH   3  28
TORSDOF 8
ENDMDL
MODEL 9
REMARK VINA RESULT:      -7.8      1.403      3.878
REMARK  Name = 4447
REMARK  8 active torsions:
REMARK  status: ('A' for Active; 'I' for Inactive)
REMARK    1  A    between atoms: N_1  and  C_15
REMARK    2  A    between atoms: N_2  and  C_7
REMARK    3  A    between atoms: N_3  and  C_28
REMARK    4  A    between atoms: C_12  and  C_14
REMARK    5  A    between atoms: C_15  and  C_16
REMARK    6  A    between atoms: C_15  and  C_22
REMARK    7  A    between atoms: C_28  and  C_30
REMARK    8  A    between atoms: C_30  and  O_31
REMARK                            x       y       z     vdW  Elec       q    Type
REMARK                         _______ _______ _______ _____ _____    ______ ____
ROOT
ATOM      1  N   UNL     1      33.190 -24.033 -16.170  0.00  0.00    -0.340 N 
ATOM      2  N   UNL     1      31.820 -24.351 -14.309  0.00  0.00    -0.325 N 
ATOM      3  N   UNL     1      34.147 -24.120 -13.985  0.00  0.00    -0.227 NA
ATOM      4  C   UNL     1      33.115 -24.156 -14.782  0.00  0.00    +0.200 C 
ATOM      5  H   UNL     1      32.333 -24.057 -16.655  0.00  0.00    +0.164 HD
ATOM      6  H   UNL     1      31.743 -24.927 -13.514  0.00  0.00    +0.169 HD
ENDROOT
BRANCH   2   7
ATOM      7  C   UNL     1      30.601 -23.839 -14.807  0.00  0.00    +0.059 C 
ATOM      8  C   UNL     1      30.329 -22.475 -14.708  0.00  0.00    +0.018 C 
ATOM      9  C   UNL     1      29.675 -24.697 -15.394  0.00  0.00    +0.018 C 
ATOM     10  C   UNL     1      29.126 -21.969 -15.199  0.00  0.00    +0.012 C 
ATOM     11  C   UNL     1      28.471 -24.191 -15.886  0.00  0.00    +0.012 C 
ATOM     12  C   UNL     1      28.197 -22.827 -15.788  0.00  0.00    +0.069 C 
BRANCH  12  14
ATOM     13  N   UNL     1      25.962 -21.884 -16.701  0.00  0.00    -0.191 NA
ATOM     14  C   UNL     1      26.964 -22.308 -16.292  0.00  0.00    +0.100 C 
ENDBRANCH  12  14
ENDBRANCH   2   7
BRANCH   1  15
ATOM     15  C   UNL     1      34.379 -23.874 -16.977  0.00  0.00    +0.125 C 
BRANCH  15  16
ATOM     16  C   UNL     1      35.612 -23.669 -16.117  0.00  0.00    +0.002 C 
ATOM     17  C   UNL     1      36.297 -24.775 -15.651  0.00  0.00    -0.002 C 
ATOM     18  C   UNL     1      36.017 -22.381 -15.822  0.00  0.00    -0.002 C 
ATOM     19  C   UNL     1      37.430 -24.587 -14.861  0.00  0.00    -0.000 C 
ATOM     20  C   UNL     1      37.151 -22.193 -15.031  0.00  0.00    -0.000 C 
ATOM     21  C   UNL     1      37.858 -23.295 -14.551  0.00  0.00    -0.000 C 
ENDBRANCH  15  16
BRANCH  15  22
ATOM     22  C   UNL     1      34.204 -22.779 -18.014  0.00  0.00    +0.002 C 
ATOM     23  C   UNL     1      32.930 -22.336 -18.314  0.00  0.00    -0.002 C 
ATOM     24  C   UNL     1      35.324 -22.254 -18.630  0.00  0.00    -0.002 C 
ATOM     25  C   UNL     1      32.771 -21.329 -19.266  0.00  0.00    -0.000 C 
ATOM     26  C   UNL     1      35.165 -21.247 -19.582  0.00  0.00    -0.000 C 
ATOM     27  C   UNL     1      33.889 -20.785 -19.900  0.00  0.00    -0.000 C 
ENDBRANCH  15  22
ENDBRANCH   1  15
BRANCH   3  28
ATOM     28  C   UNL     1      33.932 -24.289 -12.556  0.00  0.00    +0.237 C 
BRANCH  28  30
ATOM     29  O   UNL     1      35.804 -25.327 -11.396  0.00  0.00    -0.248 OA
ATOM     30  C   UNL     1      35.277 -24.341 -11.889  0.00  0.00    +0.339 C 
BRANCH  30  31
ATOM     31  O   UNL     1      35.851 -23.111 -11.907  0.00  0.00    -0.479 OA
ATOM     32  H   UNL     1      35.637 -22.504 -12.588  0.00  0.00    +0.295 HD
ENDBRANCH  30  31
ENDBRANCH  28  30
ENDBRANCH   3  28
TORSDOF 8
ENDMDL
