MODEL 1
REMARK VINA RESULT:      -7.8      0.000      0.000
REMARK  Name = 6843
REMARK  11 active torsions:
REMARK  status: ('A' for Active; 'I' for Inactive)
REMARK    1  A    between atoms: C_1  and  C_11
REMARK    2  A    between atoms: C_2  and  O_21
REMARK    3  A    between atoms: C_5  and  N_7
REMARK    4  A    between atoms: C_11  and  O_12
REMARK    5  A    between atoms: O_12  and  C_13
REMARK    6  A    between atoms: C_13  and  C_14
REMARK    7  A    between atoms: C_14  and  N_15
REMARK    8  A    between atoms: N_15  and  C_17
REMARK    9  A    between atoms: N_15  and  C_19
REMARK   10  A    between atoms: O_21  and  C_22
REMARK   11  A    between atoms: C_22  and  C_23
REMARK                            x       y       z     vdW  Elec       q    Type
REMARK                         _______ _______ _______ _____ _____    ______ ____
ROOT
ATOM      1  C   UNL     1      34.050 -21.641 -19.458  0.00  0.00    +0.110 C 
ATOM      2  C   UNL     1      35.419 -21.382 -19.395  0.00  0.00    +0.146 C 
ATOM      3  C   UNL     1      33.224 -20.837 -20.244  0.00  0.00    +0.011 C 
ATOM      4  C   UNL     1      35.962 -20.320 -20.117  0.00  0.00    +0.051 C 
ATOM      5  C   UNL     1      35.136 -19.516 -20.902  0.00  0.00    +0.045 C 
ATOM      6  C   UNL     1      33.767 -19.775 -20.966  0.00  0.00    +0.014 C 
ENDROOT
BRANCH   5   7
ATOM      7  N   UNL     1      35.686 -18.441 -21.634  0.00  0.00    -0.357 N 
ATOM      8  H   UNL     1      35.326 -18.217 -22.522  0.00  0.00    +0.142 HD
ATOM      9  H   UNL     1      36.427 -17.917 -21.255  0.00  0.00    +0.142 HD
ENDBRANCH   5   7
BRANCH   1  11
ATOM     10  O   UNL     1      33.831 -23.923 -18.805  0.00  0.00    -0.245 OA
ATOM     11  C   UNL     1      33.451 -22.767 -18.698  0.00  0.00    +0.344 C 
BRANCH  11  12
ATOM     12  O   UNL     1      32.448 -22.325 -17.890  0.00  0.00    -0.448 OA
BRANCH  12  13
ATOM     13  C   UNL     1      32.135 -23.151 -16.776  0.00  0.00    +0.186 C 
BRANCH  13  14
ATOM     14  C   UNL     1      30.691 -22.896 -16.371  0.00  0.00    -0.029 C 
BRANCH  14  15
ATOM     15  N   UNL     1      30.165 -24.023 -15.603  0.00  0.00    +0.389 N 
ATOM     16  H   UNL     1      30.601 -24.880 -15.946  0.00  0.00    -0.080 HD
BRANCH  15  17
ATOM     17  C   UNL     1      30.491 -23.873 -14.185  0.00  0.00    -0.077 C 
ATOM     18  C   UNL     1      31.321 -25.044 -13.686  0.00  0.00    -0.025 C 
ENDBRANCH  15  17
BRANCH  15  19
ATOM     19  C   UNL     1      28.718 -24.134 -15.785  0.00  0.00    -0.077 C 
ATOM     20  C   UNL     1      28.263 -23.395 -17.032  0.00  0.00    -0.025 C 
ENDBRANCH  15  19
ENDBRANCH  14  15
ENDBRANCH  13  14
ENDBRANCH  12  13
ENDBRANCH  11  12
ENDBRANCH   1  11
BRANCH   2  21
ATOM     21  O   UNL     1      36.242 -22.157 -18.633  0.00  0.00    -0.475 OA
BRANCH  21  22
ATOM     22  C   UNL     1      36.922 -21.514 -17.556  0.00  0.00    +0.205 C 
BRANCH  22  23
ATOM     23  C   UNL     1      37.048 -22.495 -16.400  0.00  0.00    +0.047 C 
ATOM     24  C   UNL     1      35.715 -22.732 -15.712  0.00  0.00    +0.004 C 
ENDBRANCH  22  23
ENDBRANCH  21  22
ENDBRANCH   2  21
TORSDOF 11
ENDMDL
MODEL 2
REMARK VINA RESULT:      -7.8      3.389      6.554
REMARK  Name = 6843
REMARK  11 active torsions:
REMARK  status: ('A' for Active; 'I' for Inactive)
REMARK    1  A    between atoms: C_1  and  C_11
REMARK    2  A    between atoms: C_2  and  O_21
REMARK    3  A    between atoms: C_5  and  N_7
REMARK    4  A    between atoms: C_11  and  O_12
REMARK    5  A    between atoms: O_12  and  C_13
REMARK    6  A    between atoms: C_13  and  C_14
REMARK    7  A    between atoms: C_14  and  N_15
REMARK    8  A    between atoms: N_15  and  C_17
REMARK    9  A    between atoms: N_15  and  C_19
REMARK   10  A    between atoms: O_21  and  C_22
REMARK   11  A    between atoms: C_22  and  C_23
REMARK                            x       y       z     vdW  Elec       q    Type
REMARK                         _______ _______ _______ _____ _____    ______ ____
ROOT
ATOM      1  C   UNL     1      34.003 -23.476 -15.708  0.00  0.00    +0.110 C 
ATOM      2  C   UNL     1      33.676 -23.154 -17.025  0.00  0.00    +0.146 C 
ATOM      3  C   UNL     1      33.003 -23.546 -14.738  0.00  0.00    +0.011 C 
ATOM      4  C   UNL     1      32.349 -22.902 -17.372  0.00  0.00    +0.051 C 
ATOM      5  C   UNL     1      31.349 -22.971 -16.403  0.00  0.00    +0.045 C 
ATOM      6  C   UNL     1      31.676 -23.294 -15.085  0.00  0.00    +0.014 C 
ENDROOT
BRANCH   5   7
ATOM      7  N   UNL     1      30.006 -22.716 -16.754  0.00  0.00    -0.357 N 
ATOM      8  H   UNL     1      29.373 -23.464 -16.850  0.00  0.00    +0.142 HD
ATOM      9  H   UNL     1      29.703 -21.792 -16.902  0.00  0.00    +0.142 HD
ENDBRANCH   5   7
BRANCH   1  11
ATOM     10  O   UNL     1      36.081 -22.975 -14.653  0.00  0.00    -0.245 OA
ATOM     11  C   UNL     1      35.409 -23.750 -15.317  0.00  0.00    +0.344 C 
BRANCH  11  12
ATOM     12  O   UNL     1      35.817 -24.958 -15.795  0.00  0.00    -0.448 OA
BRANCH  12  13
ATOM     13  C   UNL     1      36.172 -25.927 -14.817  0.00  0.00    +0.186 C 
BRANCH  13  14
ATOM     14  C   UNL     1      37.659 -26.221 -14.939  0.00  0.00    -0.029 C 
BRANCH  14  15
ATOM     15  N   UNL     1      38.291 -26.237 -13.621  0.00  0.00    +0.389 N 
ATOM     16  H   UNL     1      38.502 -27.204 -13.375  0.00  0.00    -0.080 HD
BRANCH  15  17
ATOM     17  C   UNL     1      39.545 -25.483 -13.646  0.00  0.00    -0.077 C 
ATOM     18  C   UNL     1      40.140 -25.453 -15.043  0.00  0.00    -0.025 C 
ENDBRANCH  15  17
BRANCH  15  19
ATOM     19  C   UNL     1      37.385 -25.688 -12.614  0.00  0.00    -0.077 C 
ATOM     20  C   UNL     1      37.961 -24.431 -11.983  0.00  0.00    -0.025 C 
ENDBRANCH  15  19
ENDBRANCH  14  15
ENDBRANCH  13  14
ENDBRANCH  12  13
ENDBRANCH  11  12
ENDBRANCH   1  11
BRANCH   2  21
ATOM     21  O   UNL     1      34.639 -23.081 -17.986  0.00  0.00    -0.475 OA
BRANCH  21  22
ATOM     22  C   UNL     1      34.334 -22.317 -19.151  0.00  0.00    +0.205 C 
BRANCH  22  23
ATOM     23  C   UNL     1      35.507 -21.396 -19.455  0.00  0.00    +0.047 C 
ATOM     24  C   UNL     1      36.615 -21.535 -18.425  0.00  0.00    +0.004 C 
ENDBRANCH  22  23
ENDBRANCH  21  22
ENDBRANCH   2  21
TORSDOF 11
ENDMDL
MODEL 3
REMARK VINA RESULT:      -7.6      4.289      6.944
REMARK  Name = 6843
REMARK  11 active torsions:
REMARK  status: ('A' for Active; 'I' for Inactive)
REMARK    1  A    between atoms: C_1  and  C_11
REMARK    2  A    between atoms: C_2  and  O_21
REMARK    3  A    between atoms: C_5  and  N_7
REMARK    4  A    between atoms: C_11  and  O_12
REMARK    5  A    between atoms: O_12  and  C_13
REMARK    6  A    between atoms: C_13  and  C_14
REMARK    7  A    between atoms: C_14  and  N_15
REMARK    8  A    between atoms: N_15  and  C_17
REMARK    9  A    between atoms: N_15  and  C_19
REMARK   10  A    between atoms: O_21  and  C_22
REMARK   11  A    between atoms: C_22  and  C_23
REMARK                            x       y       z     vdW  Elec       q    Type
REMARK                         _______ _______ _______ _____ _____    ______ ____
ROOT
ATOM      1  C   UNL     1      34.010 -16.249 -21.562  0.00  0.00    +0.110 C 
ATOM      2  C   UNL     1      34.360 -15.813 -22.840  0.00  0.00    +0.146 C 
ATOM      3  C   UNL     1      33.184 -15.463 -20.759  0.00  0.00    +0.011 C 
ATOM      4  C   UNL     1      33.884 -14.591 -23.315  0.00  0.00    +0.051 C 
ATOM      5  C   UNL     1      33.059 -13.805 -22.512  0.00  0.00    +0.045 C 
ATOM      6  C   UNL     1      32.708 -14.241 -21.234  0.00  0.00    +0.014 C 
ENDROOT
BRANCH   5   7
ATOM      7  N   UNL     1      32.577 -12.568 -22.992  0.00  0.00    -0.357 N 
ATOM      8  H   UNL     1      32.435 -11.820 -22.368  0.00  0.00    +0.142 HD
ATOM      9  H   UNL     1      32.383 -12.455 -23.949  0.00  0.00    +0.142 HD
ENDBRANCH   5   7
BRANCH   1  11
ATOM     10  O   UNL     1      35.662 -17.734 -20.696  0.00  0.00    -0.245 OA
ATOM     11  C   UNL     1      34.504 -17.547 -21.038  0.00  0.00    +0.344 C 
BRANCH  11  12
ATOM     12  O   UNL     1      33.499 -18.466 -20.997  0.00  0.00    -0.448 OA
BRANCH  12  13
ATOM     13  C   UNL     1      33.886 -19.822 -21.178  0.00  0.00    +0.186 C 
BRANCH  13  14
ATOM     14  C   UNL     1      33.185 -20.673 -20.130  0.00  0.00    -0.029 C 
BRANCH  14  15
ATOM     15  N   UNL     1      34.162 -21.347 -19.276  0.00  0.00    +0.389 N 
ATOM     16  H   UNL     1      34.151 -20.903 -18.358  0.00  0.00    -0.080 HD
BRANCH  15  17
ATOM     17  C   UNL     1      33.810 -22.758 -19.112  0.00  0.00    -0.077 C 
ATOM     18  C   UNL     1      33.314 -23.039 -17.704  0.00  0.00    -0.025 C 
ENDBRANCH  15  17
BRANCH  15  19
ATOM     19  C   UNL     1      35.506 -21.219 -19.838  0.00  0.00    -0.077 C 
ATOM     20  C   UNL     1      36.569 -21.435 -18.774  0.00  0.00    -0.025 C 
ENDBRANCH  15  19
ENDBRANCH  14  15
ENDBRANCH  13  14
ENDBRANCH  12  13
ENDBRANCH  11  12
ENDBRANCH   1  11
BRANCH   2  21
ATOM     21  O   UNL     1      35.166 -16.568 -23.640  0.00  0.00    -0.475 OA
BRANCH  21  22
ATOM     22  C   UNL     1      34.762 -16.729 -24.998  0.00  0.00    +0.205 C 
BRANCH  22  23
ATOM     23  C   UNL     1      34.169 -18.119 -25.171  0.00  0.00    +0.047 C 
ATOM     24  C   UNL     1      34.954 -19.168 -24.404  0.00  0.00    +0.004 C 
ENDBRANCH  22  23
ENDBRANCH  21  22
ENDBRANCH   2  21
TORSDOF 11
ENDMDL
MODEL 4
REMARK VINA RESULT:      -7.5      6.903     10.896
REMARK  Name = 6843
REMARK  11 active torsions:
REMARK  status: ('A' for Active; 'I' for Inactive)
REMARK    1  A    between atoms: C_1  and  C_11
REMARK    2  A    between atoms: C_2  and  O_21
REMARK    3  A    between atoms: C_5  and  N_7
REMARK    4  A    between atoms: C_11  and  O_12
REMARK    5  A    between atoms: O_12  and  C_13
REMARK    6  A    between atoms: C_13  and  C_14
REMARK    7  A    between atoms: C_14  and  N_15
REMARK    8  A    between atoms: N_15  and  C_17
REMARK    9  A    between atoms: N_15  and  C_19
REMARK   10  A    between atoms: O_21  and  C_22
REMARK   11  A    between atoms: C_22  and  C_23
REMARK                            x       y       z     vdW  Elec       q    Type
REMARK                         _______ _______ _______ _____ _____    ______ ____
ROOT
ATOM      1  C   UNL     1      34.583 -17.117 -23.574  0.00  0.00    +0.110 C 
ATOM      2  C   UNL     1      34.893 -16.637 -22.302  0.00  0.00    +0.146 C 
ATOM      3  C   UNL     1      34.605 -18.489 -23.826  0.00  0.00    +0.011 C 
ATOM      4  C   UNL     1      35.226 -17.528 -21.282  0.00  0.00    +0.051 C 
ATOM      5  C   UNL     1      35.248 -18.899 -21.534  0.00  0.00    +0.045 C 
ATOM      6  C   UNL     1      34.938 -19.380 -22.806  0.00  0.00    +0.014 C 
ENDROOT
BRANCH   5   7
ATOM      7  N   UNL     1      35.584 -19.802 -20.502  0.00  0.00    -0.357 N 
ATOM      8  H   UNL     1      35.297 -19.620 -19.578  0.00  0.00    +0.142 HD
ATOM      9  H   UNL     1      36.105 -20.610 -20.706  0.00  0.00    +0.142 HD
ENDBRANCH   5   7
BRANCH   1  11
ATOM     10  O   UNL     1      34.661 -16.293 -25.810  0.00  0.00    -0.245 OA
ATOM     11  C   UNL     1      34.225 -16.186 -24.674  0.00  0.00    +0.344 C 
BRANCH  11  12
ATOM     12  O   UNL     1      33.362 -15.229 -24.234  0.00  0.00    -0.448 OA
BRANCH  12  13
ATOM     13  C   UNL     1      33.320 -14.030 -24.997  0.00  0.00    +0.186 C 
BRANCH  13  14
ATOM     14  C   UNL     1      33.793 -12.879 -24.122  0.00  0.00    -0.029 C 
BRANCH  14  15
ATOM     15  N   UNL     1      33.577 -11.598 -24.794  0.00  0.00    +0.389 N 
ATOM     16  H   UNL     1      32.605 -11.555 -25.103  0.00  0.00    -0.080 HD
BRANCH  15  17
ATOM     17  C   UNL     1      33.819 -10.489 -23.871  0.00  0.00    -0.077 C 
ATOM     18  C   UNL     1      32.532 -10.041 -23.201  0.00  0.00    -0.025 C 
ENDBRANCH  15  17
BRANCH  15  19
ATOM     19  C   UNL     1      34.442 -11.484 -25.967  0.00  0.00    -0.077 C 
ATOM     20  C   UNL     1      35.453 -10.363 -25.797  0.00  0.00    -0.025 C 
ENDBRANCH  15  19
ENDBRANCH  14  15
ENDBRANCH  13  14
ENDBRANCH  12  13
ENDBRANCH  11  12
ENDBRANCH   1  11
BRANCH   2  21
ATOM     21  O   UNL     1      34.876 -15.300 -22.037  0.00  0.00    -0.475 OA
BRANCH  21  22
ATOM     22  C   UNL     1      34.408 -14.902 -20.750  0.00  0.00    +0.205 C 
BRANCH  22  23
ATOM     23  C   UNL     1      32.887 -14.923 -20.753  0.00  0.00    +0.047 C 
ATOM     24  C   UNL     1      32.302 -13.532 -20.928  0.00  0.00    +0.004 C 
ENDBRANCH  22  23
ENDBRANCH  21  22
ENDBRANCH   2  21
TORSDOF 11
ENDMDL
MODEL 5
REMARK VINA RESULT:      -7.5      8.488     11.649
REMARK  Name = 6843
REMARK  11 active torsions:
REMARK  status: ('A' for Active; 'I' for Inactive)
REMARK    1  A    between atoms: C_1  and  C_11
REMARK    2  A    between atoms: C_2  and  O_21
REMARK    3  A    between atoms: C_5  and  N_7
REMARK    4  A    between atoms: C_11  and  O_12
REMARK    5  A    between atoms: O_12  and  C_13
REMARK    6  A    between atoms: C_13  and  C_14
REMARK    7  A    between atoms: C_14  and  N_15
REMARK    8  A    between atoms: N_15  and  C_17
REMARK    9  A    between atoms: N_15  and  C_19
REMARK   10  A    between atoms: O_21  and  C_22
REMARK   11  A    between atoms: C_22  and  C_23
REMARK                            x       y       z     vdW  Elec       q    Type
REMARK                         _______ _______ _______ _____ _____    ______ ____
ROOT
ATOM      1  C   UNL     1      33.787 -11.454 -24.165  0.00  0.00    +0.110 C 
ATOM      2  C   UNL     1      32.917 -10.879 -23.238  0.00  0.00    +0.146 C 
ATOM      3  C   UNL     1      34.755 -10.670 -24.793  0.00  0.00    +0.011 C 
ATOM      4  C   UNL     1      33.016  -9.520 -22.939  0.00  0.00    +0.051 C 
ATOM      5  C   UNL     1      33.983  -8.736 -23.567  0.00  0.00    +0.045 C 
ATOM      6  C   UNL     1      34.853  -9.311 -24.493  0.00  0.00    +0.014 C 
ENDROOT
BRANCH   5   7
ATOM      7  N   UNL     1      34.083  -7.361 -23.264  0.00  0.00    -0.357 N 
ATOM      8  H   UNL     1      33.374  -6.742 -23.552  0.00  0.00    +0.142 HD
ATOM      9  H   UNL     1      34.861  -7.023 -22.766  0.00  0.00    +0.142 HD
ENDBRANCH   5   7
BRANCH   1  11
ATOM     10  O   UNL     1      33.204 -13.318 -25.532  0.00  0.00    -0.245 OA
ATOM     11  C   UNL     1      33.700 -12.898 -24.498  0.00  0.00    +0.344 C 
BRANCH  11  12
ATOM     12  O   UNL     1      34.244 -13.655 -23.505  0.00  0.00    -0.448 OA
BRANCH  12  13
ATOM     13  C   UNL     1      33.726 -14.972 -23.371  0.00  0.00    +0.186 C 
BRANCH  13  14
ATOM     14  C   UNL     1      34.709 -15.803 -22.559  0.00  0.00    -0.029 C 
BRANCH  14  15
ATOM     15  N   UNL     1      35.462 -16.705 -23.429  0.00  0.00    +0.389 N 
ATOM     16  H   UNL     1      36.357 -16.268 -23.651  0.00  0.00    -0.080 HD
BRANCH  15  17
ATOM     17  C   UNL     1      35.722 -17.973 -22.747  0.00  0.00    -0.077 C 
ATOM     18  C   UNL     1      35.305 -17.908 -21.288  0.00  0.00    -0.025 C 
ENDBRANCH  15  17
BRANCH  15  19
ATOM     19  C   UNL     1      34.736 -16.936 -24.677  0.00  0.00    -0.077 C 
ATOM     20  C   UNL     1      34.461 -18.415 -24.887  0.00  0.00    -0.025 C 
ENDBRANCH  15  19
ENDBRANCH  14  15
ENDBRANCH  13  14
ENDBRANCH  12  13
ENDBRANCH  11  12
ENDBRANCH   1  11
BRANCH   2  21
ATOM     21  O   UNL     1      31.965 -11.629 -22.615  0.00  0.00    -0.475 OA
BRANCH  21  22
ATOM     22  C   UNL     1      31.193 -10.984 -21.603  0.00  0.00    +0.205 C 
BRANCH  22  23
ATOM     23  C   UNL     1      31.502 -11.634 -20.263  0.00  0.00    +0.047 C 
ATOM     24  C   UNL     1      31.465 -10.627 -19.126  0.00  0.00    +0.004 C 
ENDBRANCH  22  23
ENDBRANCH  21  22
ENDBRANCH   2  21
TORSDOF 11
ENDMDL
MODEL 6
REMARK VINA RESULT:      -7.4      1.678      6.589
REMARK  Name = 6843
REMARK  11 active torsions:
REMARK  status: ('A' for Active; 'I' for Inactive)
REMARK    1  A    between atoms: C_1  and  C_11
REMARK    2  A    between atoms: C_2  and  O_21
REMARK    3  A    between atoms: C_5  and  N_7
REMARK    4  A    between atoms: C_11  and  O_12
REMARK    5  A    between atoms: O_12  and  C_13
REMARK    6  A    between atoms: C_13  and  C_14
REMARK    7  A    between atoms: C_14  and  N_15
REMARK    8  A    between atoms: N_15  and  C_17
REMARK    9  A    between atoms: N_15  and  C_19
REMARK   10  A    between atoms: O_21  and  C_22
REMARK   11  A    between atoms: C_22  and  C_23
REMARK                            x       y       z     vdW  Elec       q    Type
REMARK                         _______ _______ _______ _____ _____    ______ ____
ROOT
ATOM      1  C   UNL     1      33.186 -22.972 -17.390  0.00  0.00    +0.110 C 
ATOM      2  C   UNL     1      34.055 -23.326 -16.359  0.00  0.00    +0.146 C 
ATOM      3  C   UNL     1      31.824 -22.818 -17.132  0.00  0.00    +0.011 C 
ATOM      4  C   UNL     1      33.563 -23.527 -15.070  0.00  0.00    +0.051 C 
ATOM      5  C   UNL     1      32.202 -23.374 -14.812  0.00  0.00    +0.045 C 
ATOM      6  C   UNL     1      31.332 -23.019 -15.843  0.00  0.00    +0.014 C 
ENDROOT
BRANCH   5   7
ATOM      7  N   UNL     1      31.703 -23.576 -13.507  0.00  0.00    -0.357 N 
ATOM      8  H   UNL     1      30.738 -23.712 -13.365  0.00  0.00    +0.142 HD
ATOM      9  H   UNL     1      32.319 -23.582 -12.740  0.00  0.00    +0.142 HD
ENDBRANCH   5   7
BRANCH   1  11
ATOM     10  O   UNL     1      34.000 -23.663 -19.522  0.00  0.00    -0.245 OA
ATOM     11  C   UNL     1      33.689 -22.752 -18.770  0.00  0.00    +0.344 C 
BRANCH  11  12
ATOM     12  O   UNL     1      33.746 -21.422 -19.057  0.00  0.00    -0.448 OA
BRANCH  12  13
ATOM     13  C   UNL     1      33.106 -21.016 -20.260  0.00  0.00    +0.186 C 
BRANCH  13  14
ATOM     14  C   UNL     1      33.667 -19.666 -20.679  0.00  0.00    -0.029 C 
BRANCH  14  15
ATOM     15  N   UNL     1      34.826 -19.838 -21.552  0.00  0.00    +0.389 N 
ATOM     16  H   UNL     1      35.003 -20.837 -21.663  0.00  0.00    -0.080 HD
BRANCH  15  17
ATOM     17  C   UNL     1      34.561 -19.266 -22.872  0.00  0.00    -0.077 C 
ATOM     18  C   UNL     1      35.531 -18.140 -23.188  0.00  0.00    -0.025 C 
ENDBRANCH  15  17
BRANCH  15  19
ATOM     19  C   UNL     1      36.011 -19.221 -20.957  0.00  0.00    -0.077 C 
ATOM     20  C   UNL     1      36.816 -20.233 -20.160  0.00  0.00    -0.025 C 
ENDBRANCH  15  19
ENDBRANCH  14  15
ENDBRANCH  13  14
ENDBRANCH  12  13
ENDBRANCH  11  12
ENDBRANCH   1  11
BRANCH   2  21
ATOM     21  O   UNL     1      35.390 -23.482 -16.592  0.00  0.00    -0.475 OA
BRANCH  21  22
ATOM     22  C   UNL     1      36.256 -23.421 -15.461  0.00  0.00    +0.205 C 
BRANCH  22  23
ATOM     23  C   UNL     1      37.555 -22.746 -15.874  0.00  0.00    +0.047 C 
ATOM     24  C   UNL     1      37.305 -21.481 -16.675  0.00  0.00    +0.004 C 
ENDBRANCH  22  23
ENDBRANCH  21  22
ENDBRANCH   2  21
TORSDOF 11
ENDMDL
MODEL 7
REMARK VINA RESULT:      -7.4      3.350      5.877
REMARK  Name = 6843
REMARK  11 active torsions:
REMARK  status: ('A' for Active; 'I' for Inactive)
REMARK    1  A    between atoms: C_1  and  C_11
REMARK    2  A    between atoms: C_2  and  O_21
REMARK    3  A    between atoms: C_5  and  N_7
REMARK    4  A    between atoms: C_11  and  O_12
REMARK    5  A    between atoms: O_12  and  C_13
REMARK    6  A    between atoms: C_13  and  C_14
REMARK    7  A    between atoms: C_14  and  N_15
REMARK    8  A    between atoms: N_15  and  C_17
REMARK    9  A    between atoms: N_15  and  C_19
REMARK   10  A    between atoms: O_21  and  C_22
REMARK   11  A    between atoms: C_22  and  C_23
REMARK                            x       y       z     vdW  Elec       q    Type
REMARK                         _______ _______ _______ _____ _____    ______ ____
ROOT
ATOM      1  C   UNL     1      34.743 -18.811 -21.957  0.00  0.00    +0.110 C 
ATOM      2  C   UNL     1      34.847 -17.425 -21.849  0.00  0.00    +0.146 C 
ATOM      3  C   UNL     1      34.732 -19.414 -23.215  0.00  0.00    +0.011 C 
ATOM      4  C   UNL     1      34.939 -16.641 -22.999  0.00  0.00    +0.051 C 
ATOM      5  C   UNL     1      34.928 -17.243 -24.256  0.00  0.00    +0.045 C 
ATOM      6  C   UNL     1      34.825 -18.630 -24.365  0.00  0.00    +0.014 C 
ENDROOT
BRANCH   5   7
ATOM      7  N   UNL     1      35.023 -16.450 -25.420  0.00  0.00    -0.357 N 
ATOM      8  H   UNL     1      34.715 -16.807 -26.285  0.00  0.00    +0.142 HD
ATOM      9  H   UNL     1      35.396 -15.542 -25.367  0.00  0.00    +0.142 HD
ENDBRANCH   5   7
BRANCH   1  11
ATOM     10  O   UNL     1      33.582 -20.055 -20.287  0.00  0.00    -0.245 OA
ATOM     11  C   UNL     1      34.644 -19.665 -20.746  0.00  0.00    +0.344 C 
BRANCH  11  12
ATOM     12  O   UNL     1      35.881 -19.936 -20.245  0.00  0.00    -0.448 OA
BRANCH  12  13
ATOM     13  C   UNL     1      36.124 -21.290 -19.885  0.00  0.00    +0.186 C 
BRANCH  13  14
ATOM     14  C   UNL     1      36.455 -21.348 -18.401  0.00  0.00    -0.029 C 
BRANCH  14  15
ATOM     15  N   UNL     1      35.822 -22.509 -17.777  0.00  0.00    +0.389 N 
ATOM     16  H   UNL     1      36.255 -23.354 -18.151  0.00  0.00    -0.080 HD
BRANCH  15  17
ATOM     17  C   UNL     1      36.026 -22.485 -16.329  0.00  0.00    -0.077 C 
ATOM     18  C   UNL     1      37.477 -22.763 -15.974  0.00  0.00    -0.025 C 
ENDBRANCH  15  17
BRANCH  15  19
ATOM     19  C   UNL     1      34.394 -22.542 -18.091  0.00  0.00    -0.077 C 
ATOM     20  C   UNL     1      33.601 -23.200 -16.974  0.00  0.00    -0.025 C 
ENDBRANCH  15  19
ENDBRANCH  14  15
ENDBRANCH  13  14
ENDBRANCH  12  13
ENDBRANCH  11  12
ENDBRANCH   1  11
BRANCH   2  21
ATOM     21  O   UNL     1      34.859 -16.817 -20.629  0.00  0.00    -0.475 OA
BRANCH  21  22
ATOM     22  C   UNL     1      34.569 -15.421 -20.598  0.00  0.00    +0.205 C 
BRANCH  22  23
ATOM     23  C   UNL     1      33.067 -15.236 -20.443  0.00  0.00    +0.047 C 
ATOM     24  C   UNL     1      32.496 -14.327 -21.517  0.00  0.00    +0.004 C 
ENDBRANCH  22  23
ENDBRANCH  21  22
ENDBRANCH   2  21
TORSDOF 11
ENDMDL
MODEL 8
REMARK VINA RESULT:      -7.4      3.189      6.374
REMARK  Name = 6843
REMARK  11 active torsions:
REMARK  status: ('A' for Active; 'I' for Inactive)
REMARK    1  A    between atoms: C_1  and  C_11
REMARK    2  A    between atoms: C_2  and  O_21
REMARK    3  A    between atoms: C_5  and  N_7
REMARK    4  A    between atoms: C_11  and  O_12
REMARK    5  A    between atoms: O_12  and  C_13
REMARK    6  A    between atoms: C_13  and  C_14
REMARK    7  A    between atoms: C_14  and  N_15
REMARK    8  A    between atoms: N_15  and  C_17
REMARK    9  A    between atoms: N_15  and  C_19
REMARK   10  A    between atoms: O_21  and  C_22
REMARK   11  A    between atoms: C_22  and  C_23
REMARK                            x       y       z     vdW  Elec       q    Type
REMARK                         _______ _______ _______ _____ _____    ______ ____
ROOT
ATOM      1  C   UNL     1      33.794 -23.622 -15.806  0.00  0.00    +0.110 C 
ATOM      2  C   UNL     1      33.459 -23.235 -17.103  0.00  0.00    +0.146 C 
ATOM      3  C   UNL     1      32.815 -23.650 -14.812  0.00  0.00    +0.011 C 
ATOM      4  C   UNL     1      32.147 -22.875 -17.407  0.00  0.00    +0.051 C 
ATOM      5  C   UNL     1      31.169 -22.903 -16.414  0.00  0.00    +0.045 C 
ATOM      6  C   UNL     1      31.502 -23.290 -15.116  0.00  0.00    +0.014 C 
ENDROOT
BRANCH   5   7
ATOM      7  N   UNL     1      29.840 -22.539 -16.721  0.00  0.00    -0.357 N 
ATOM      8  H   UNL     1      29.495 -22.663 -17.636  0.00  0.00    +0.142 HD
ATOM      9  H   UNL     1      29.259 -22.163 -16.023  0.00  0.00    +0.142 HD
ENDBRANCH   5   7
BRANCH   1  11
ATOM     10  O   UNL     1      35.613 -25.147 -15.583  0.00  0.00    -0.245 OA
ATOM     11  C   UNL     1      35.185 -24.010 -15.460  0.00  0.00    +0.344 C 
BRANCH  11  12
ATOM     12  O   UNL     1      35.886 -22.935 -15.003  0.00  0.00    -0.448 OA
BRANCH  12  13
ATOM     13  C   UNL     1      37.265 -23.157 -14.737  0.00  0.00    +0.186 C 
BRANCH  13  14
ATOM     14  C   UNL     1      37.447 -23.356 -13.240  0.00  0.00    -0.029 C 
BRANCH  14  15
ATOM     15  N   UNL     1      38.071 -24.649 -12.964  0.00  0.00    +0.389 N 
ATOM     16  H   UNL     1      38.811 -24.512 -12.276  0.00  0.00    -0.080 HD
BRANCH  15  17
ATOM     17  C   UNL     1      37.090 -25.582 -12.409  0.00  0.00    -0.077 C 
ATOM     18  C   UNL     1      35.885 -24.844 -11.851  0.00  0.00    -0.025 C 
ENDBRANCH  15  17
BRANCH  15  19
ATOM     19  C   UNL     1      38.666 -25.200 -14.181  0.00  0.00    -0.077 C 
ATOM     20  C   UNL     1      40.134 -25.531 -13.974  0.00  0.00    -0.025 C 
ENDBRANCH  15  19
ENDBRANCH  14  15
ENDBRANCH  13  14
ENDBRANCH  12  13
ENDBRANCH  11  12
ENDBRANCH   1  11
BRANCH   2  21
ATOM     21  O   UNL     1      34.402 -23.201 -18.087  0.00  0.00    -0.475 OA
BRANCH  21  22
ATOM     22  C   UNL     1      34.034 -22.576 -19.315  0.00  0.00    +0.205 C 
BRANCH  22  23
ATOM     23  C   UNL     1      34.891 -21.334 -19.509  0.00  0.00    +0.047 C 
ATOM     24  C   UNL     1      36.279 -21.508 -18.917  0.00  0.00    +0.004 C 
ENDBRANCH  22  23
ENDBRANCH  21  22
ENDBRANCH   2  21
TORSDOF 11
ENDMDL
MODEL 9
REMARK VINA RESULT:      -7.3      3.442      6.057
REMARK  Name = 6843
REMARK  11 active torsions:
REMARK  status: ('A' for Active; 'I' for Inactive)
REMARK    1  A    between atoms: C_1  and  C_11
REMARK    2  A    between atoms: C_2  and  O_21
REMARK    3  A    between atoms: C_5  and  N_7
REMARK    4  A    between atoms: C_11  and  O_12
REMARK    5  A    between atoms: O_12  and  C_13
REMARK    6  A    between atoms: C_13  and  C_14
REMARK    7  A    between atoms: C_14  and  N_15
REMARK    8  A    between atoms: N_15  and  C_17
REMARK    9  A    between atoms: N_15  and  C_19
REMARK   10  A    between atoms: O_21  and  C_22
REMARK   11  A    between atoms: C_22  and  C_23
REMARK                            x       y       z     vdW  Elec       q    Type
REMARK                         _______ _______ _______ _____ _____    ______ ____
ROOT
ATOM      1  C   UNL     1      35.775 -22.723 -16.764  0.00  0.00    +0.110 C 
ATOM      2  C   UNL     1      34.532 -22.812 -17.390  0.00  0.00    +0.146 C 
ATOM      3  C   UNL     1      36.805 -21.996 -17.360  0.00  0.00    +0.011 C 
ATOM      4  C   UNL     1      34.318 -22.174 -18.612  0.00  0.00    +0.051 C 
ATOM      5  C   UNL     1      35.348 -21.447 -19.208  0.00  0.00    +0.045 C 
ATOM      6  C   UNL     1      36.592 -21.358 -18.582  0.00  0.00    +0.014 C 
ENDROOT
BRANCH   5   7
ATOM      7  N   UNL     1      35.132 -20.801 -20.444  0.00  0.00    -0.357 N 
ATOM      8  H   UNL     1      35.781 -20.913 -21.176  0.00  0.00    +0.142 HD
ATOM      9  H   UNL     1      34.335 -20.240 -20.573  0.00  0.00    +0.142 HD
ENDBRANCH   5   7
BRANCH   1  11
ATOM     10  O   UNL     1      35.632 -22.948 -14.395  0.00  0.00    -0.245 OA
ATOM     11  C   UNL     1      36.023 -23.394 -15.463  0.00  0.00    +0.344 C 
BRANCH  11  12
ATOM     12  O   UNL     1      36.729 -24.545 -15.640  0.00  0.00    -0.448 OA
BRANCH  12  13
ATOM     13  C   UNL     1      36.362 -25.636 -14.806  0.00  0.00    +0.186 C 
BRANCH  13  14
ATOM     14  C   UNL     1      37.579 -26.526 -14.603  0.00  0.00    -0.029 C 
BRANCH  14  15
ATOM     15  N   UNL     1      38.245 -26.207 -13.341  0.00  0.00    +0.389 N 
ATOM     16  H   UNL     1      38.584 -27.076 -12.926  0.00  0.00    -0.080 HD
BRANCH  15  17
ATOM     17  C   UNL     1      39.390 -25.327 -13.575  0.00  0.00    -0.077 C 
ATOM     18  C   UNL     1      40.206 -25.794 -14.768  0.00  0.00    -0.025 C 
ENDBRANCH  15  17
BRANCH  15  19
ATOM     19  C   UNL     1      37.305 -25.585 -12.410  0.00  0.00    -0.077 C 
ATOM     20  C   UNL     1      37.858 -24.281 -11.860  0.00  0.00    -0.025 C 
ENDBRANCH  15  19
ENDBRANCH  14  15
ENDBRANCH  13  14
ENDBRANCH  12  13
ENDBRANCH  11  12
ENDBRANCH   1  11
BRANCH   2  21
ATOM     21  O   UNL     1      33.513 -23.518 -16.822  0.00  0.00    -0.475 OA
BRANCH  21  22
ATOM     22  C   UNL     1      32.186 -23.072 -17.094  0.00  0.00    +0.205 C 
BRANCH  22  23
ATOM     23  C   UNL     1      31.329 -23.297 -15.857  0.00  0.00    +0.047 C 
ATOM     24  C   UNL     1      32.104 -23.032 -14.578  0.00  0.00    +0.004 C 
ENDBRANCH  22  23
ENDBRANCH  21  22
ENDBRANCH   2  21
TORSDOF 11
ENDMDL
