MODEL 1
REMARK VINA RESULT:     -10.8      0.000      0.000
REMARK  Name = 60703
REMARK  6 active torsions:
REMARK  status: ('A' for Active; 'I' for Inactive)
REMARK    1  A    between atoms: N_1  and  C_16
REMARK    2  A    between atoms: C_2  and  C_8
REMARK    3  A    between atoms: C_8  and  C_10
REMARK    4  A    between atoms: C_16  and  C_17
REMARK    5  A    between atoms: C_17  and  C_19
REMARK    6  A    between atoms: C_17  and  O_25
REMARK                            x       y       z     vdW  Elec       q    Type
REMARK                         _______ _______ _______ _____ _____    ______ ____
ROOT
ATOM      1  N   UNL     1      34.303 -14.855 -23.693  0.00  0.00    +0.389 N 
ATOM      2  C   UNL     1      34.743 -17.462 -22.428  0.00  0.00    +0.000 C 
ATOM      3  C   UNL     1      34.990 -17.220 -23.920  0.00  0.00    -0.023 C 
ATOM      4  C   UNL     1      34.876 -16.143 -21.660  0.00  0.00    -0.023 C 
ATOM      5  C   UNL     1      34.105 -16.094 -24.457  0.00  0.00    -0.077 C 
ATOM      6  C   UNL     1      33.994 -15.052 -22.271  0.00  0.00    -0.077 C 
ATOM      7  H   UNL     1      35.286 -14.593 -23.768  0.00  0.00    -0.080 HD
ENDROOT
BRANCH   2   8
ATOM      8  C   UNL     1      35.699 -18.516 -21.876  0.00  0.00    +0.026 C 
BRANCH   8  10
ATOM      9  F   UNL     1      33.001 -22.327 -18.749  0.00  0.00    -0.204 F 
ATOM     10  C   UNL     1      34.977 -19.537 -21.040  0.00  0.00    -0.022 C 
ATOM     11  C   UNL     1      33.590 -19.517 -20.982  0.00  0.00    -0.002 C 
ATOM     12  C   UNL     1      35.707 -20.485 -20.335  0.00  0.00    -0.002 C 
ATOM     13  C   UNL     1      32.920 -20.462 -20.206  0.00  0.00    +0.029 C 
ATOM     14  C   UNL     1      35.037 -21.432 -19.560  0.00  0.00    +0.029 C 
ATOM     15  C   UNL     1      33.644 -21.420 -19.495  0.00  0.00    +0.140 C 
ENDBRANCH   8  10
ENDBRANCH   2   8
BRANCH   1  16
ATOM     16  C   UNL     1      33.488 -13.775 -24.250  0.00  0.00    -0.043 C 
BRANCH  16  17
ATOM     17  C   UNL     1      32.987 -12.841 -23.142  0.00  0.00    +0.112 C 
BRANCH  17  19
ATOM     18 CL   UNL     1      34.504  -7.135 -24.216  0.00  0.00    -0.082 Cl
ATOM     19  C   UNL     1      33.369 -11.403 -23.413  0.00  0.00    +0.002 C 
ATOM     20  C   UNL     1      34.416 -11.133 -24.278  0.00  0.00    -0.001 C 
ATOM     21  C   UNL     1      32.664 -10.387 -22.791  0.00  0.00    -0.001 C 
ATOM     22  C   UNL     1      34.768  -9.807 -24.527  0.00  0.00    +0.011 C 
ATOM     23  C   UNL     1      33.017  -9.061 -23.040  0.00  0.00    +0.011 C 
ATOM     24  C   UNL     1      34.068  -8.771 -23.908  0.00  0.00    +0.058 C 
ENDBRANCH  17  19
BRANCH  17  25
ATOM     25  O   UNL     1      31.566 -12.914 -23.040  0.00  0.00    -0.382 OA
ATOM     26  H   UNL     1      31.212 -12.039 -22.813  0.00  0.00    +0.211 HD
ENDBRANCH  17  25
ENDBRANCH  16  17
ENDBRANCH   1  16
TORSDOF 6
ENDMDL
MODEL 2
REMARK VINA RESULT:     -10.7      4.945      9.364
REMARK  Name = 60703
REMARK  6 active torsions:
REMARK  status: ('A' for Active; 'I' for Inactive)
REMARK    1  A    between atoms: N_1  and  C_16
REMARK    2  A    between atoms: C_2  and  C_8
REMARK    3  A    between atoms: C_8  and  C_10
REMARK    4  A    between atoms: C_16  and  C_17
REMARK    5  A    between atoms: C_17  and  C_19
REMARK    6  A    between atoms: C_17  and  O_25
REMARK                            x       y       z     vdW  Elec       q    Type
REMARK                         _______ _______ _______ _____ _____    ______ ____
ROOT
ATOM      1  N   UNL     1      34.420 -16.542 -21.927  0.00  0.00    +0.389 N 
ATOM      2  C   UNL     1      33.051 -13.950 -21.952  0.00  0.00    +0.000 C 
ATOM      3  C   UNL     1      33.646 -14.579 -23.217  0.00  0.00    -0.023 C 
ATOM      4  C   UNL     1      32.715 -15.048 -20.937  0.00  0.00    -0.023 C 
ATOM      5  C   UNL     1      34.820 -15.500 -22.882  0.00  0.00    -0.077 C 
ATOM      6  C   UNL     1      33.920 -15.954 -20.677  0.00  0.00    -0.077 C 
ATOM      7  H   UNL     1      33.662 -17.080 -22.347  0.00  0.00    -0.080 HD
ENDROOT
BRANCH   2   8
ATOM      8  C   UNL     1      31.819 -13.112 -22.283  0.00  0.00    +0.026 C 
BRANCH   8  10
ATOM      9  F   UNL     1      31.829  -8.229 -19.501  0.00  0.00    -0.204 F 
ATOM     10  C   UNL     1      31.821 -11.806 -21.538  0.00  0.00    -0.022 C 
ATOM     11  C   UNL     1      31.963 -10.617 -22.241  0.00  0.00    -0.002 C 
ATOM     12  C   UNL     1      31.682 -11.804 -20.156  0.00  0.00    -0.002 C 
ATOM     13  C   UNL     1      31.965  -9.405 -21.551  0.00  0.00    +0.029 C 
ATOM     14  C   UNL     1      31.684 -10.592 -19.466  0.00  0.00    +0.029 C 
ATOM     15  C   UNL     1      31.826  -9.392 -20.163  0.00  0.00    +0.140 C 
ENDBRANCH   8  10
ENDBRANCH   2   8
BRANCH   1  16
ATOM     16  C   UNL     1      35.539 -17.445 -21.657  0.00  0.00    -0.043 C 
BRANCH  16  17
ATOM     17  C   UNL     1      35.275 -18.835 -22.247  0.00  0.00    +0.112 C 
BRANCH  17  19
ATOM     18 CL   UNL     1      33.145 -22.619 -18.105  0.00  0.00    -0.082 Cl
ATOM     19  C   UNL     1      34.738 -19.789 -21.204  0.00  0.00    +0.002 C 
ATOM     20  C   UNL     1      33.377 -19.815 -20.948  0.00  0.00    -0.001 C 
ATOM     21  C   UNL     1      35.618 -20.617 -20.527  0.00  0.00    -0.001 C 
ATOM     22  C   UNL     1      32.883 -20.694 -19.984  0.00  0.00    +0.011 C 
ATOM     23  C   UNL     1      35.123 -21.495 -19.564  0.00  0.00    +0.011 C 
ATOM     24  C   UNL     1      33.756 -21.535 -19.293  0.00  0.00    +0.058 C 
ENDBRANCH  17  19
BRANCH  17  25
ATOM     25  O   UNL     1      34.322 -18.749 -23.306  0.00  0.00    -0.382 OA
ATOM     26  H   UNL     1      34.113 -17.818 -23.480  0.00  0.00    +0.211 HD
ENDBRANCH  17  25
ENDBRANCH  16  17
ENDBRANCH   1  16
TORSDOF 6
ENDMDL
MODEL 3
REMARK VINA RESULT:     -10.5      4.934      9.521
REMARK  Name = 60703
REMARK  6 active torsions:
REMARK  status: ('A' for Active; 'I' for Inactive)
REMARK    1  A    between atoms: N_1  and  C_16
REMARK    2  A    between atoms: C_2  and  C_8
REMARK    3  A    between atoms: C_8  and  C_10
REMARK    4  A    between atoms: C_16  and  C_17
REMARK    5  A    between atoms: C_17  and  C_19
REMARK    6  A    between atoms: C_17  and  O_25
REMARK                            x       y       z     vdW  Elec       q    Type
REMARK                         _______ _______ _______ _____ _____    ______ ____
ROOT
ATOM      1  N   UNL     1      34.199 -16.585 -23.371  0.00  0.00    +0.389 N 
ATOM      2  C   UNL     1      33.602 -13.721 -23.557  0.00  0.00    +0.000 C 
ATOM      3  C   UNL     1      33.223 -14.713 -24.661  0.00  0.00    -0.023 C 
ATOM      4  C   UNL     1      33.706 -14.454 -22.215  0.00  0.00    -0.023 C 
ATOM      5  C   UNL     1      34.169 -15.915 -24.679  0.00  0.00    -0.077 C 
ATOM      6  C   UNL     1      34.637 -15.664 -22.313  0.00  0.00    -0.077 C 
ATOM      7  H   UNL     1      33.251 -16.889 -23.151  0.00  0.00    -0.080 HD
ENDROOT
BRANCH   2   8
ATOM      8  C   UNL     1      32.596 -12.575 -23.479  0.00  0.00    +0.026 C 
BRANCH   8  10
ATOM      9  F   UNL     1      35.093  -7.579 -24.097  0.00  0.00    -0.204 F 
ATOM     10  C   UNL     1      33.264 -11.238 -23.644  0.00  0.00    -0.022 C 
ATOM     11  C   UNL     1      32.769 -10.136 -22.961  0.00  0.00    -0.002 C 
ATOM     12  C   UNL     1      34.369 -11.123 -24.478  0.00  0.00    -0.002 C 
ATOM     13  C   UNL     1      33.388  -8.895 -23.114  0.00  0.00    +0.029 C 
ATOM     14  C   UNL     1      34.990  -9.883 -24.630  0.00  0.00    +0.029 C 
ATOM     15  C   UNL     1      34.499  -8.769 -23.949  0.00  0.00    +0.140 C 
ENDBRANCH   8  10
ENDBRANCH   2   8
BRANCH   1  16
ATOM     16  C   UNL     1      35.068 -17.760 -23.419  0.00  0.00    -0.043 C 
BRANCH  16  17
ATOM     17  C   UNL     1      35.813 -17.944 -22.092  0.00  0.00    +0.112 C 
BRANCH  17  19
ATOM     18 CL   UNL     1      33.454 -22.401 -18.838  0.00  0.00    -0.082 Cl
ATOM     19  C   UNL     1      35.219 -19.068 -21.272  0.00  0.00    +0.002 C 
ATOM     20  C   UNL     1      33.842 -19.190 -21.192  0.00  0.00    -0.001 C 
ATOM     21  C   UNL     1      36.063 -19.950 -20.620  0.00  0.00    -0.001 C 
ATOM     22  C   UNL     1      33.294 -20.226 -20.435  0.00  0.00    +0.011 C 
ATOM     23  C   UNL     1      35.516 -20.985 -19.864  0.00  0.00    +0.011 C 
ATOM     24  C   UNL     1      34.131 -21.124 -19.771  0.00  0.00    +0.058 C 
ENDBRANCH  17  19
BRANCH  17  25
ATOM     25  O   UNL     1      37.186 -18.247 -22.334  0.00  0.00    -0.382 OA
ATOM     26  H   UNL     1      37.585 -18.610 -21.528  0.00  0.00    +0.211 HD
ENDBRANCH  17  25
ENDBRANCH  16  17
ENDBRANCH   1  16
TORSDOF 6
ENDMDL
MODEL 4
REMARK VINA RESULT:     -10.4      5.015      9.723
REMARK  Name = 60703
REMARK  6 active torsions:
REMARK  status: ('A' for Active; 'I' for Inactive)
REMARK    1  A    between atoms: N_1  and  C_16
REMARK    2  A    between atoms: C_2  and  C_8
REMARK    3  A    between atoms: C_8  and  C_10
REMARK    4  A    between atoms: C_16  and  C_17
REMARK    5  A    between atoms: C_17  and  C_19
REMARK    6  A    between atoms: C_17  and  O_25
REMARK                            x       y       z     vdW  Elec       q    Type
REMARK                         _______ _______ _______ _____ _____    ______ ____
ROOT
ATOM      1  N   UNL     1      34.444 -16.636 -21.811  0.00  0.00    +0.389 N 
ATOM      2  C   UNL     1      33.616 -13.962 -22.681  0.00  0.00    +0.000 C 
ATOM      3  C   UNL     1      34.150 -15.016 -23.657  0.00  0.00    -0.023 C 
ATOM      4  C   UNL     1      33.009 -14.653 -21.455  0.00  0.00    -0.023 C 
ATOM      5  C   UNL     1      35.098 -15.992 -22.958  0.00  0.00    -0.077 C 
ATOM      6  C   UNL     1      33.995 -15.641 -20.828  0.00  0.00    -0.077 C 
ATOM      7  H   UNL     1      33.622 -17.132 -22.155  0.00  0.00    -0.080 HD
ENDROOT
BRANCH   2   8
ATOM      8  C   UNL     1      32.594 -13.054 -23.359  0.00  0.00    +0.026 C 
BRANCH   8  10
ATOM      9  F   UNL     1      34.588  -7.845 -24.048  0.00  0.00    -0.204 F 
ATOM     10  C   UNL     1      33.128 -11.660 -23.543  0.00  0.00    -0.022 C 
ATOM     11  C   UNL     1      32.555 -10.609 -22.841  0.00  0.00    -0.002 C 
ATOM     12  C   UNL     1      34.188 -11.442 -24.414  0.00  0.00    -0.002 C 
ATOM     13  C   UNL     1      33.049  -9.316 -23.012  0.00  0.00    +0.029 C 
ATOM     14  C   UNL     1      34.683 -10.149 -24.584  0.00  0.00    +0.029 C 
ATOM     15  C   UNL     1      34.114  -9.086 -23.884  0.00  0.00    +0.140 C 
ENDBRANCH   8  10
ENDBRANCH   2   8
BRANCH   1  16
ATOM     16  C   UNL     1      35.345 -17.604 -21.186  0.00  0.00    -0.043 C 
BRANCH  16  17
ATOM     17  C   UNL     1      35.210 -18.982 -21.844  0.00  0.00    +0.112 C 
BRANCH  17  19
ATOM     18 CL   UNL     1      33.509 -23.158 -17.883  0.00  0.00    -0.082 Cl
ATOM     19  C   UNL     1      34.781 -20.034 -20.846  0.00  0.00    +0.002 C 
ATOM     20  C   UNL     1      35.742 -20.843 -20.262  0.00  0.00    -0.001 C 
ATOM     21  C   UNL     1      33.438 -20.166 -20.535  0.00  0.00    -0.001 C 
ATOM     22  C   UNL     1      35.346 -21.814 -19.342  0.00  0.00    +0.011 C 
ATOM     23  C   UNL     1      33.043 -21.136 -19.616  0.00  0.00    +0.011 C 
ATOM     24  C   UNL     1      33.997 -21.960 -19.018  0.00  0.00    +0.058 C 
ENDBRANCH  17  19
BRANCH  17  25
ATOM     25  O   UNL     1      34.239 -18.937 -22.889  0.00  0.00    -0.382 OA
ATOM     26  H   UNL     1      34.301 -18.088 -23.353  0.00  0.00    +0.211 HD
ENDBRANCH  17  25
ENDBRANCH  16  17
ENDBRANCH   1  16
TORSDOF 6
ENDMDL
MODEL 5
REMARK VINA RESULT:     -10.4      1.315      2.056
REMARK  Name = 60703
REMARK  6 active torsions:
REMARK  status: ('A' for Active; 'I' for Inactive)
REMARK    1  A    between atoms: N_1  and  C_16
REMARK    2  A    between atoms: C_2  and  C_8
REMARK    3  A    between atoms: C_8  and  C_10
REMARK    4  A    between atoms: C_16  and  C_17
REMARK    5  A    between atoms: C_17  and  C_19
REMARK    6  A    between atoms: C_17  and  O_25
REMARK                            x       y       z     vdW  Elec       q    Type
REMARK                         _______ _______ _______ _____ _____    ______ ____
ROOT
ATOM      1  N   UNL     1      33.588 -13.912 -22.596  0.00  0.00    +0.389 N 
ATOM      2  C   UNL     1      34.353 -16.694 -22.076  0.00  0.00    +0.000 C 
ATOM      3  C   UNL     1      34.372 -16.085 -23.482  0.00  0.00    -0.023 C 
ATOM      4  C   UNL     1      34.517 -15.586 -21.030  0.00  0.00    -0.023 C 
ATOM      5  C   UNL     1      33.355 -14.949 -23.611  0.00  0.00    -0.077 C 
ATOM      6  C   UNL     1      33.496 -14.466 -21.239  0.00  0.00    -0.077 C 
ATOM      7  H   UNL     1      34.533 -13.552 -22.726  0.00  0.00    -0.080 HD
ENDROOT
BRANCH   2   8
ATOM      8  C   UNL     1      35.438 -17.757 -21.924  0.00  0.00    +0.026 C 
BRANCH   8  10
ATOM      9  F   UNL     1      33.552 -22.255 -19.131  0.00  0.00    -0.204 F 
ATOM     10  C   UNL     1      34.933 -18.960 -21.176  0.00  0.00    -0.022 C 
ATOM     11  C   UNL     1      35.840 -19.851 -20.620  0.00  0.00    -0.002 C 
ATOM     12  C   UNL     1      33.565 -19.165 -21.052  0.00  0.00    -0.002 C 
ATOM     13  C   UNL     1      35.373 -20.968 -19.927  0.00  0.00    +0.029 C 
ATOM     14  C   UNL     1      33.097 -20.281 -20.358  0.00  0.00    +0.029 C 
ATOM     15  C   UNL     1      34.001 -21.183 -19.795  0.00  0.00    +0.140 C 
ENDBRANCH   8  10
ENDBRANCH   2   8
BRANCH   1  16
ATOM     16  C   UNL     1      32.641 -12.810 -22.765  0.00  0.00    -0.043 C 
BRANCH  16  17
ATOM     17  C   UNL     1      33.155 -11.801 -23.799  0.00  0.00    +0.112 C 
BRANCH  17  19
ATOM     18 CL   UNL     1      32.378  -6.149 -21.938  0.00  0.00    -0.082 Cl
ATOM     19  C   UNL     1      32.959 -10.377 -23.330  0.00  0.00    +0.002 C 
ATOM     20  C   UNL     1      31.893 -10.080 -22.499  0.00  0.00    -0.001 C 
ATOM     21  C   UNL     1      33.851  -9.401 -23.740  0.00  0.00    -0.001 C 
ATOM     22  C   UNL     1      31.712  -8.765 -22.067  0.00  0.00    +0.011 C 
ATOM     23  C   UNL     1      33.671  -8.087 -23.308  0.00  0.00    +0.011 C 
ATOM     24  C   UNL     1      32.601  -7.770 -22.471  0.00  0.00    +0.058 C 
ENDBRANCH  17  19
BRANCH  17  25
ATOM     25  O   UNL     1      34.547 -12.005 -24.039  0.00  0.00    -0.382 OA
ATOM     26  H   UNL     1      34.720 -11.971 -24.993  0.00  0.00    +0.211 HD
ENDBRANCH  17  25
ENDBRANCH  16  17
ENDBRANCH   1  16
TORSDOF 6
ENDMDL
MODEL 6
REMARK VINA RESULT:     -10.3      3.267      5.243
REMARK  Name = 60703
REMARK  6 active torsions:
REMARK  status: ('A' for Active; 'I' for Inactive)
REMARK    1  A    between atoms: N_1  and  C_16
REMARK    2  A    between atoms: C_2  and  C_8
REMARK    3  A    between atoms: C_8  and  C_10
REMARK    4  A    between atoms: C_16  and  C_17
REMARK    5  A    between atoms: C_17  and  C_19
REMARK    6  A    between atoms: C_17  and  O_25
REMARK                            x       y       z     vdW  Elec       q    Type
REMARK                         _______ _______ _______ _____ _____    ______ ____
ROOT
ATOM      1  N   UNL     1      35.240 -19.269 -21.357  0.00  0.00    +0.389 N 
ATOM      2  C   UNL     1      34.379 -21.320 -19.447  0.00  0.00    +0.000 C 
ATOM      3  C   UNL     1      33.405 -20.632 -20.409  0.00  0.00    -0.023 C 
ATOM      4  C   UNL     1      35.796 -21.281 -20.029  0.00  0.00    -0.023 C 
ATOM      5  C   UNL     1      33.888 -19.229 -20.782  0.00  0.00    -0.077 C 
ATOM      6  C   UNL     1      36.201 -19.857 -20.415  0.00  0.00    -0.077 C 
ATOM      7  H   UNL     1      35.211 -19.862 -22.187  0.00  0.00    -0.080 HD
ENDROOT
BRANCH   2   8
ATOM      8  C   UNL     1      33.944 -22.754 -19.159  0.00  0.00    +0.026 C 
BRANCH   8  10
ATOM      9  F   UNL     1      32.801 -23.513 -13.708  0.00  0.00    -0.204 F 
ATOM     10  C   UNL     1      33.638 -22.958 -17.700  0.00  0.00    -0.022 C 
ATOM     11  C   UNL     1      32.318 -23.052 -17.284  0.00  0.00    -0.002 C 
ATOM     12  C   UNL     1      34.682 -23.048 -16.788  0.00  0.00    -0.002 C 
ATOM     13  C   UNL     1      32.033 -23.241 -15.932  0.00  0.00    +0.029 C 
ATOM     14  C   UNL     1      34.398 -23.238 -15.435  0.00  0.00    +0.029 C 
ATOM     15  C   UNL     1      33.074 -23.334 -15.007  0.00  0.00    +0.140 C 
ENDBRANCH   8  10
ENDBRANCH   2   8
BRANCH   1  16
ATOM     16  C   UNL     1      35.666 -17.928 -21.756  0.00  0.00    -0.043 C 
BRANCH  16  17
ATOM     17  C   UNL     1      34.779 -17.384 -22.882  0.00  0.00    +0.112 C 
BRANCH  17  19
ATOM     18 CL   UNL     1      31.924 -12.377 -21.211  0.00  0.00    -0.082 Cl
ATOM     19  C   UNL     1      34.059 -16.123 -22.461  0.00  0.00    +0.002 C 
ATOM     20  C   UNL     1      33.559 -15.273 -23.433  0.00  0.00    -0.001 C 
ATOM     21  C   UNL     1      33.915 -15.844 -21.112  0.00  0.00    -0.001 C 
ATOM     22  C   UNL     1      32.896 -14.109 -23.044  0.00  0.00    +0.011 C 
ATOM     23  C   UNL     1      33.252 -14.680 -20.724  0.00  0.00    +0.011 C 
ATOM     24  C   UNL     1      32.742 -13.813 -21.690  0.00  0.00    +0.058 C 
ENDBRANCH  17  19
BRANCH  17  25
ATOM     25  O   UNL     1      35.569 -17.085 -24.032  0.00  0.00    -0.382 OA
ATOM     26  H   UNL     1      36.472 -16.864 -23.756  0.00  0.00    +0.211 HD
ENDBRANCH  17  25
ENDBRANCH  16  17
ENDBRANCH   1  16
TORSDOF 6
ENDMDL
MODEL 7
REMARK VINA RESULT:     -10.2      4.717      9.028
REMARK  Name = 60703
REMARK  6 active torsions:
REMARK  status: ('A' for Active; 'I' for Inactive)
REMARK    1  A    between atoms: N_1  and  C_16
REMARK    2  A    between atoms: C_2  and  C_8
REMARK    3  A    between atoms: C_8  and  C_10
REMARK    4  A    between atoms: C_16  and  C_17
REMARK    5  A    between atoms: C_17  and  C_19
REMARK    6  A    between atoms: C_17  and  O_25
REMARK                            x       y       z     vdW  Elec       q    Type
REMARK                         _______ _______ _______ _____ _____    ______ ____
ROOT
ATOM      1  N   UNL     1      35.234 -16.923 -23.586  0.00  0.00    +0.389 N 
ATOM      2  C   UNL     1      33.523 -14.555 -23.828  0.00  0.00    +0.000 C 
ATOM      3  C   UNL     1      34.581 -14.696 -22.729  0.00  0.00    -0.023 C 
ATOM      4  C   UNL     1      33.911 -15.416 -25.034  0.00  0.00    -0.023 C 
ATOM      5  C   UNL     1      34.841 -16.165 -22.390  0.00  0.00    -0.077 C 
ATOM      6  C   UNL     1      34.193 -16.862 -24.620  0.00  0.00    -0.077 C 
ATOM      7  H   UNL     1      36.080 -16.496 -23.965  0.00  0.00    -0.080 HD
ENDROOT
BRANCH   2   8
ATOM      8  C   UNL     1      33.341 -13.095 -24.232  0.00  0.00    +0.026 C 
BRANCH   8  10
ATOM      9  F   UNL     1      30.966 -10.088 -20.120  0.00  0.00    -0.204 F 
ATOM     10  C   UNL     1      32.706 -12.290 -23.131  0.00  0.00    -0.022 C 
ATOM     11  C   UNL     1      32.112 -12.944 -22.060  0.00  0.00    -0.002 C 
ATOM     12  C   UNL     1      32.721 -10.903 -23.201  0.00  0.00    -0.002 C 
ATOM     13  C   UNL     1      31.523 -12.198 -21.040  0.00  0.00    +0.029 C 
ATOM     14  C   UNL     1      32.133 -10.157 -22.180  0.00  0.00    +0.029 C 
ATOM     15  C   UNL     1      31.533 -10.804 -21.099  0.00  0.00    +0.140 C 
ENDBRANCH   8  10
ENDBRANCH   2   8
BRANCH   1  16
ATOM     16  C   UNL     1      35.528 -18.312 -23.236  0.00  0.00    -0.043 C 
BRANCH  16  17
ATOM     17  C   UNL     1      36.115 -18.408 -21.823  0.00  0.00    +0.112 C 
BRANCH  17  19
ATOM     18 CL   UNL     1      33.355 -22.635 -18.577  0.00  0.00    -0.082 Cl
ATOM     19  C   UNL     1      35.420 -19.473 -21.004  0.00  0.00    +0.002 C 
ATOM     20  C   UNL     1      36.182 -20.375 -20.281  0.00  0.00    -0.001 C 
ATOM     21  C   UNL     1      34.036 -19.524 -20.995  0.00  0.00    -0.001 C 
ATOM     22  C   UNL     1      35.540 -21.358 -19.527  0.00  0.00    +0.011 C 
ATOM     23  C   UNL     1      33.395 -20.506 -20.241  0.00  0.00    +0.011 C 
ATOM     24  C   UNL     1      34.146 -21.423 -19.507  0.00  0.00    +0.058 C 
ENDBRANCH  17  19
BRANCH  17  25
ATOM     25  O   UNL     1      37.504 -18.729 -21.885  0.00  0.00    -0.382 OA
ATOM     26  H   UNL     1      38.015 -18.050 -21.417  0.00  0.00    +0.211 HD
ENDBRANCH  17  25
ENDBRANCH  16  17
ENDBRANCH   1  16
TORSDOF 6
ENDMDL
MODEL 8
REMARK VINA RESULT:     -10.2      6.219     10.704
REMARK  Name = 60703
REMARK  6 active torsions:
REMARK  status: ('A' for Active; 'I' for Inactive)
REMARK    1  A    between atoms: N_1  and  C_16
REMARK    2  A    between atoms: C_2  and  C_8
REMARK    3  A    between atoms: C_8  and  C_10
REMARK    4  A    between atoms: C_16  and  C_17
REMARK    5  A    between atoms: C_17  and  C_19
REMARK    6  A    between atoms: C_17  and  O_25
REMARK                            x       y       z     vdW  Elec       q    Type
REMARK                         _______ _______ _______ _____ _____    ______ ____
ROOT
ATOM      1  N   UNL     1      33.602 -20.855 -19.515  0.00  0.00    +0.389 N 
ATOM      2  C   UNL     1      35.183 -19.530 -21.598  0.00  0.00    +0.000 C 
ATOM      3  C   UNL     1      33.786 -19.048 -21.194  0.00  0.00    -0.023 C 
ATOM      4  C   UNL     1      35.828 -20.283 -20.430  0.00  0.00    -0.023 C 
ATOM      5  C   UNL     1      32.936 -20.196 -20.647  0.00  0.00    -0.077 C 
ATOM      6  C   UNL     1      34.912 -21.391 -19.907  0.00  0.00    -0.077 C 
ATOM      7  H   UNL     1      33.754 -20.154 -18.789  0.00  0.00    -0.080 HD
ENDROOT
BRANCH   2   8
ATOM      8  C   UNL     1      36.058 -18.363 -22.048  0.00  0.00    +0.026 C 
BRANCH   8  10
ATOM      9  F   UNL     1      33.411 -15.118 -25.796  0.00  0.00    -0.204 F 
ATOM     10  C   UNL     1      35.350 -17.495 -23.051  0.00  0.00    -0.022 C 
ATOM     11  C   UNL     1      35.018 -16.190 -22.714  0.00  0.00    -0.002 C 
ATOM     12  C   UNL     1      35.036 -18.009 -24.303  0.00  0.00    -0.002 C 
ATOM     13  C   UNL     1      34.361 -15.384 -23.643  0.00  0.00    +0.029 C 
ATOM     14  C   UNL     1      34.381 -17.203 -25.233  0.00  0.00    +0.029 C 
ATOM     15  C   UNL     1      34.042 -15.891 -24.904  0.00  0.00    +0.140 C 
ENDBRANCH   8  10
ENDBRANCH   2   8
BRANCH   1  16
ATOM     16  C   UNL     1      32.755 -21.916 -18.971  0.00  0.00    -0.043 C 
BRANCH  16  17
ATOM     17  C   UNL     1      33.561 -22.841 -18.050  0.00  0.00    +0.112 C 
BRANCH  17  19
ATOM     18 CL   UNL     1      30.713 -23.808 -12.857  0.00  0.00    -0.082 Cl
ATOM     19  C   UNL     1      32.843 -23.085 -16.742  0.00  0.00    +0.002 C 
ATOM     20  C   UNL     1      31.466 -22.952 -16.692  0.00  0.00    -0.001 C 
ATOM     21  C   UNL     1      33.578 -23.437 -15.622  0.00  0.00    -0.001 C 
ATOM     22  C   UNL     1      30.804 -23.176 -15.484  0.00  0.00    +0.011 C 
ATOM     23  C   UNL     1      32.916 -23.661 -14.416  0.00  0.00    +0.011 C 
ATOM     24  C   UNL     1      31.529 -23.531 -14.347  0.00  0.00    +0.058 C 
ENDBRANCH  17  19
BRANCH  17  25
ATOM     25  O   UNL     1      33.777 -24.101 -18.683  0.00  0.00    -0.382 OA
ATOM     26  H   UNL     1      33.061 -24.711 -18.444  0.00  0.00    +0.211 HD
ENDBRANCH  17  25
ENDBRANCH  16  17
ENDBRANCH   1  16
TORSDOF 6
ENDMDL
MODEL 9
REMARK VINA RESULT:     -10.2      1.958      2.334
REMARK  Name = 60703
REMARK  6 active torsions:
REMARK  status: ('A' for Active; 'I' for Inactive)
REMARK    1  A    between atoms: N_1  and  C_16
REMARK    2  A    between atoms: C_2  and  C_8
REMARK    3  A    between atoms: C_8  and  C_10
REMARK    4  A    between atoms: C_16  and  C_17
REMARK    5  A    between atoms: C_17  and  C_19
REMARK    6  A    between atoms: C_17  and  O_25
REMARK                            x       y       z     vdW  Elec       q    Type
REMARK                         _______ _______ _______ _____ _____    ______ ____
ROOT
ATOM      1  N   UNL     1      34.783 -15.099 -22.727  0.00  0.00    +0.389 N 
ATOM      2  C   UNL     1      34.879 -17.946 -22.037  0.00  0.00    +0.000 C 
ATOM      3  C   UNL     1      35.222 -17.428 -23.437  0.00  0.00    -0.023 C 
ATOM      4  C   UNL     1      35.116 -16.841 -21.002  0.00  0.00    -0.023 C 
ATOM      5  C   UNL     1      34.489 -16.120 -23.742  0.00  0.00    -0.077 C 
ATOM      6  C   UNL     1      34.386 -15.552 -21.387  0.00  0.00    -0.077 C 
ATOM      7  H   UNL     1      35.791 -14.942 -22.721  0.00  0.00    -0.080 HD
ENDROOT
BRANCH   2   8
ATOM      8  C   UNL     1      35.689 -19.195 -21.700  0.00  0.00    +0.026 C 
BRANCH   8  10
ATOM      9  F   UNL     1      32.854 -22.643 -18.285  0.00  0.00    -0.204 F 
ATOM     10  C   UNL     1      34.930 -20.118 -20.787  0.00  0.00    -0.022 C 
ATOM     11  C   UNL     1      33.553 -19.990 -20.673  0.00  0.00    -0.002 C 
ATOM     12  C   UNL     1      35.618 -21.088 -20.067  0.00  0.00    -0.002 C 
ATOM     13  C   UNL     1      32.849 -20.845 -19.826  0.00  0.00    +0.029 C 
ATOM     14  C   UNL     1      34.914 -21.944 -19.221  0.00  0.00    +0.029 C 
ATOM     15  C   UNL     1      33.530 -21.823 -19.099  0.00  0.00    +0.140 C 
ENDBRANCH   8  10
ENDBRANCH   2   8
BRANCH   1  16
ATOM     16  C   UNL     1      34.116 -13.840 -23.060  0.00  0.00    -0.043 C 
BRANCH  16  17
ATOM     17  C   UNL     1      32.649 -13.864 -22.615  0.00  0.00    +0.112 C 
BRANCH  17  19
ATOM     18 CL   UNL     1      31.225  -8.952 -19.474  0.00  0.00    -0.082 Cl
ATOM     19  C   UNL     1      32.290 -12.626 -21.823  0.00  0.00    +0.002 C 
ATOM     20  C   UNL     1      32.110 -11.426 -22.490  0.00  0.00    -0.001 C 
ATOM     21  C   UNL     1      32.148 -12.719 -20.449  0.00  0.00    -0.001 C 
ATOM     22  C   UNL     1      31.780 -10.284 -21.759  0.00  0.00    +0.011 C 
ATOM     23  C   UNL     1      31.818 -11.578 -19.719  0.00  0.00    +0.011 C 
ATOM     24  C   UNL     1      31.633 -10.360 -20.375  0.00  0.00    +0.058 C 
ENDBRANCH  17  19
BRANCH  17  25
ATOM     25  O   UNL     1      31.789 -13.932 -23.751  0.00  0.00    -0.382 OA
ATOM     26  H   UNL     1      31.192 -14.692 -23.660  0.00  0.00    +0.211 HD
ENDBRANCH  17  25
ENDBRANCH  16  17
ENDBRANCH   1  16
TORSDOF 6
ENDMDL
