MODEL 1
REMARK VINA RESULT:      -9.0      0.000      0.000
REMARK  Name = 5078
REMARK  5 active torsions:
REMARK  status: ('A' for Active; 'I' for Inactive)
REMARK    1  A    between atoms: C_2  and  C_11
REMARK    2  A    between atoms: C_7  and  C_17
REMARK    3  A    between atoms: C_11  and  C_12
REMARK    4  A    between atoms: C_12  and  N_13
REMARK    5  A    between atoms: C_17  and  N_18
REMARK                            x       y       z     vdW  Elec       q    Type
REMARK                         _______ _______ _______ _____ _____    ______ ____
ROOT
ATOM      1  N   UNL     1      33.090 -22.068 -19.144  0.00  0.00    -0.312 N 
ATOM      2  C   UNL     1      35.266 -21.854 -18.762  0.00  0.00    -0.008 C 
ATOM      3  C   UNL     1      34.886 -20.882 -19.730  0.00  0.00    +0.010 C 
ATOM      4  C   UNL     1      33.516 -21.038 -19.952  0.00  0.00    +0.048 C 
ATOM      5  C   UNL     1      35.579 -19.883 -20.441  0.00  0.00    -0.002 C 
ATOM      6  C   UNL     1      34.140 -22.567 -18.420  0.00  0.00    +0.057 C 
ATOM      7  C   UNL     1      34.877 -19.077 -21.345  0.00  0.00    -0.000 C 
ATOM      8  C   UNL     1      32.802 -20.242 -20.853  0.00  0.00    +0.014 C 
ATOM      9  C   UNL     1      33.509 -19.255 -21.547  0.00  0.00    -0.001 C 
ATOM     10  H   UNL     1      32.163 -22.398 -19.093  0.00  0.00    +0.152 HD
ENDROOT
BRANCH   2  11
ATOM     11  C   UNL     1      36.621 -22.067 -18.214  0.00  0.00    +0.005 C 
BRANCH  11  12
ATOM     12  C   UNL     1      36.694 -21.848 -16.691  0.00  0.00    -0.073 C 
BRANCH  12  13
ATOM     13  N   UNL     1      36.487 -23.088 -15.953  0.00  0.00    +0.384 N 
ATOM     14  C   UNL     1      35.412 -22.929 -14.972  0.00  0.00    -0.101 C 
ATOM     15  C   UNL     1      37.723 -23.505 -15.289  0.00  0.00    -0.101 C 
ATOM     16  H   UNL     1      36.215 -23.813 -16.616  0.00  0.00    -0.080 HD
ENDBRANCH  12  13
ENDBRANCH  11  12
ENDBRANCH   2  11
BRANCH   7  17
ATOM     17  C   UNL     1      35.604 -18.017 -22.103  0.00  0.00    +0.144 C 
BRANCH  17  18
ATOM     18  N   UNL     1      35.106 -16.676 -21.779  0.00  0.00    -0.186 N 
ATOM     19  N   UNL     1      35.012 -16.294 -20.510  0.00  0.00    -0.154 NA
ATOM     20  N   UNL     1      34.334 -14.667 -21.969  0.00  0.00    -0.203 NA
ATOM     21  C   UNL     1      34.709 -15.727 -22.646  0.00  0.00    +0.186 C 
ATOM     22  C   UNL     1      34.535 -15.057 -20.676  0.00  0.00    +0.218 C 
ENDBRANCH  17  18
ENDBRANCH   7  17
TORSDOF 5
ENDMDL
MODEL 2
REMARK VINA RESULT:      -8.9      2.891      7.890
REMARK  Name = 5078
REMARK  5 active torsions:
REMARK  status: ('A' for Active; 'I' for Inactive)
REMARK    1  A    between atoms: C_2  and  C_11
REMARK    2  A    between atoms: C_7  and  C_17
REMARK    3  A    between atoms: C_11  and  C_12
REMARK    4  A    between atoms: C_12  and  N_13
REMARK    5  A    between atoms: C_17  and  N_18
REMARK                            x       y       z     vdW  Elec       q    Type
REMARK                         _______ _______ _______ _____ _____    ______ ____
ROOT
ATOM      1  N   UNL     1      33.846 -16.460 -25.642  0.00  0.00    -0.312 N 
ATOM      2  C   UNL     1      34.100 -15.218 -23.819  0.00  0.00    -0.008 C 
ATOM      3  C   UNL     1      34.464 -16.557 -23.500  0.00  0.00    +0.010 C 
ATOM      4  C   UNL     1      34.295 -17.315 -24.661  0.00  0.00    +0.048 C 
ATOM      5  C   UNL     1      34.921 -17.197 -22.332  0.00  0.00    -0.002 C 
ATOM      6  C   UNL     1      33.725 -15.190 -25.143  0.00  0.00    +0.057 C 
ATOM      7  C   UNL     1      35.193 -18.570 -22.368  0.00  0.00    -0.000 C 
ATOM      8  C   UNL     1      34.563 -18.687 -24.712  0.00  0.00    +0.014 C 
ATOM      9  C   UNL     1      35.016 -19.302 -23.541  0.00  0.00    -0.001 C 
ATOM     10  H   UNL     1      33.642 -16.722 -26.568  0.00  0.00    +0.152 HD
ENDROOT
BRANCH   2  11
ATOM     11  C   UNL     1      34.118 -14.060 -22.903  0.00  0.00    +0.005 C 
BRANCH  11  12
ATOM     12  C   UNL     1      33.032 -13.019 -23.229  0.00  0.00    -0.073 C 
BRANCH  12  13
ATOM     13  N   UNL     1      31.972 -13.007 -22.228  0.00  0.00    +0.384 N 
ATOM     14  C   UNL     1      31.526 -11.637 -21.967  0.00  0.00    -0.101 C 
ATOM     15  C   UNL     1      32.428 -13.638 -20.988  0.00  0.00    -0.101 C 
ATOM     16  H   UNL     1      31.182 -13.539 -22.591  0.00  0.00    -0.080 HD
ENDBRANCH  12  13
ENDBRANCH  11  12
ENDBRANCH   2  11
BRANCH   7  17
ATOM     17  C   UNL     1      35.677 -19.256 -21.134  0.00  0.00    +0.144 C 
BRANCH  17  18
ATOM     18  N   UNL     1      34.632 -20.088 -20.528  0.00  0.00    -0.186 N 
ATOM     19  N   UNL     1      34.966 -21.172 -19.837  0.00  0.00    -0.154 NA
ATOM     20  N   UNL     1      32.703 -20.845 -19.916  0.00  0.00    -0.203 NA
ATOM     21  C   UNL     1      33.303 -19.886 -20.581  0.00  0.00    +0.186 C 
ATOM     22  C   UNL     1      33.753 -21.603 -19.482  0.00  0.00    +0.218 C 
ENDBRANCH  17  18
ENDBRANCH   7  17
TORSDOF 5
ENDMDL
MODEL 3
REMARK VINA RESULT:      -8.7      4.205      7.993
REMARK  Name = 5078
REMARK  5 active torsions:
REMARK  status: ('A' for Active; 'I' for Inactive)
REMARK    1  A    between atoms: C_2  and  C_11
REMARK    2  A    between atoms: C_7  and  C_17
REMARK    3  A    between atoms: C_11  and  C_12
REMARK    4  A    between atoms: C_12  and  N_13
REMARK    5  A    between atoms: C_17  and  N_18
REMARK                            x       y       z     vdW  Elec       q    Type
REMARK                         _______ _______ _______ _____ _____    ______ ____
ROOT
ATOM      1  N   UNL     1      34.277 -23.162 -14.596  0.00  0.00    -0.312 N 
ATOM      2  C   UNL     1      33.626 -23.144 -16.718  0.00  0.00    -0.008 C 
ATOM      3  C   UNL     1      32.514 -23.523 -15.914  0.00  0.00    +0.010 C 
ATOM      4  C   UNL     1      32.949 -23.526 -14.588  0.00  0.00    +0.048 C 
ATOM      5  C   UNL     1      31.175 -23.863 -16.190  0.00  0.00    -0.002 C 
ATOM      6  C   UNL     1      34.695 -22.929 -15.879  0.00  0.00    +0.057 C 
ATOM      7  C   UNL     1      30.323 -24.194 -15.129  0.00  0.00    -0.000 C 
ATOM      8  C   UNL     1      32.110 -23.855 -13.519  0.00  0.00    +0.014 C 
ATOM      9  C   UNL     1      30.785 -24.189 -13.815  0.00  0.00    -0.001 C 
ATOM     10  H   UNL     1      34.844 -23.081 -13.796  0.00  0.00    +0.152 HD
ENDROOT
BRANCH   2  11
ATOM     11  C   UNL     1      33.641 -23.004 -18.189  0.00  0.00    +0.005 C 
BRANCH  11  12
ATOM     12  C   UNL     1      34.791 -22.114 -18.695  0.00  0.00    -0.073 C 
BRANCH  12  13
ATOM     13  N   UNL     1      34.455 -21.454 -19.951  0.00  0.00    +0.384 N 
ATOM     14  C   UNL     1      35.501 -20.502 -20.328  0.00  0.00    -0.101 C 
ATOM     15  C   UNL     1      33.163 -20.773 -19.845  0.00  0.00    -0.101 C 
ATOM     16  H   UNL     1      34.387 -22.165 -20.678  0.00  0.00    -0.080 HD
ENDBRANCH  12  13
ENDBRANCH  11  12
ENDBRANCH   2  11
BRANCH   7  17
ATOM     17  C   UNL     1      28.903 -24.557 -15.413  0.00  0.00    +0.144 C 
BRANCH  17  18
ATOM     18  N   UNL     1      28.214 -23.509 -16.173  0.00  0.00    -0.186 N 
ATOM     19  N   UNL     1      27.815 -23.746 -17.418  0.00  0.00    -0.154 NA
ATOM     20  N   UNL     1      27.296 -21.630 -16.718  0.00  0.00    -0.203 NA
ATOM     21  C   UNL     1      27.914 -22.267 -15.751  0.00  0.00    +0.186 C 
ATOM     22  C   UNL     1      27.259 -22.568 -17.711  0.00  0.00    +0.218 C 
ENDBRANCH  17  18
ENDBRANCH   7  17
TORSDOF 5
ENDMDL
MODEL 4
REMARK VINA RESULT:      -8.5      2.202      8.033
REMARK  Name = 5078
REMARK  5 active torsions:
REMARK  status: ('A' for Active; 'I' for Inactive)
REMARK    1  A    between atoms: C_2  and  C_11
REMARK    2  A    between atoms: C_7  and  C_17
REMARK    3  A    between atoms: C_11  and  C_12
REMARK    4  A    between atoms: C_12  and  N_13
REMARK    5  A    between atoms: C_17  and  N_18
REMARK                            x       y       z     vdW  Elec       q    Type
REMARK                         _______ _______ _______ _____ _____    ______ ____
ROOT
ATOM      1  N   UNL     1      33.068 -22.901 -18.016  0.00  0.00    -0.312 N 
ATOM      2  C   UNL     1      35.041 -22.034 -18.546  0.00  0.00    -0.008 C 
ATOM      3  C   UNL     1      35.137 -22.593 -17.241  0.00  0.00    +0.010 C 
ATOM      4  C   UNL     1      33.886 -23.131 -16.932  0.00  0.00    +0.048 C 
ATOM      5  C   UNL     1      36.171 -22.694 -16.290  0.00  0.00    -0.002 C 
ATOM      6  C   UNL     1      33.757 -22.239 -18.997  0.00  0.00    +0.057 C 
ATOM      7  C   UNL     1      35.916 -23.327 -15.068  0.00  0.00    -0.000 C 
ATOM      8  C   UNL     1      33.616 -23.766 -15.716  0.00  0.00    +0.014 C 
ATOM      9  C   UNL     1      34.658 -23.855 -14.787  0.00  0.00    -0.001 C 
ATOM     10  H   UNL     1      32.124 -23.174 -18.077  0.00  0.00    +0.152 HD
ENDROOT
BRANCH   2  11
ATOM     11  C   UNL     1      36.119 -21.354 -19.294  0.00  0.00    +0.005 C 
BRANCH  11  12
ATOM     12  C   UNL     1      35.653 -20.808 -20.656  0.00  0.00    -0.073 C 
BRANCH  12  13
ATOM     13  N   UNL     1      35.319 -19.390 -20.588  0.00  0.00    +0.384 N 
ATOM     14  C   UNL     1      33.948 -19.162 -21.047  0.00  0.00    -0.101 C 
ATOM     15  C   UNL     1      36.260 -18.602 -21.387  0.00  0.00    -0.101 C 
ATOM     16  H   UNL     1      35.389 -19.091 -19.617  0.00  0.00    -0.080 HD
ENDBRANCH  12  13
ENDBRANCH  11  12
ENDBRANCH   2  11
BRANCH   7  17
ATOM     17  C   UNL     1      37.007 -23.436 -14.055  0.00  0.00    +0.144 C 
BRANCH  17  18
ATOM     18  N   UNL     1      37.917 -24.548 -14.352  0.00  0.00    -0.186 N 
ATOM     19  N   UNL     1      39.149 -24.299 -14.782  0.00  0.00    -0.154 NA
ATOM     20  N   UNL     1      38.721 -26.538 -14.594  0.00  0.00    -0.203 NA
ATOM     21  C   UNL     1      37.654 -25.862 -14.238  0.00  0.00    +0.186 C 
ATOM     22  C   UNL     1      39.603 -25.547 -14.917  0.00  0.00    +0.218 C 
ENDBRANCH  17  18
ENDBRANCH   7  17
TORSDOF 5
ENDMDL
MODEL 5
REMARK VINA RESULT:      -8.4      5.830      7.518
REMARK  Name = 5078
REMARK  5 active torsions:
REMARK  status: ('A' for Active; 'I' for Inactive)
REMARK    1  A    between atoms: C_2  and  C_11
REMARK    2  A    between atoms: C_7  and  C_17
REMARK    3  A    between atoms: C_11  and  C_12
REMARK    4  A    between atoms: C_12  and  N_13
REMARK    5  A    between atoms: C_17  and  N_18
REMARK                            x       y       z     vdW  Elec       q    Type
REMARK                         _______ _______ _______ _____ _____    ______ ____
ROOT
ATOM      1  N   UNL     1      35.226 -23.486 -16.367  0.00  0.00    -0.312 N 
ATOM      2  C   UNL     1      34.836 -23.700 -14.193  0.00  0.00    -0.008 C 
ATOM      3  C   UNL     1      33.597 -23.438 -14.844  0.00  0.00    +0.010 C 
ATOM      4  C   UNL     1      33.870 -23.308 -16.206  0.00  0.00    +0.048 C 
ATOM      5  C   UNL     1      32.267 -23.300 -14.402  0.00  0.00    -0.002 C 
ATOM      6  C   UNL     1      35.818 -23.723 -15.156  0.00  0.00    +0.057 C 
ATOM      7  C   UNL     1      31.260 -23.037 -15.338  0.00  0.00    -0.000 C 
ATOM      8  C   UNL     1      32.875 -23.045 -17.154  0.00  0.00    +0.014 C 
ATOM      9  C   UNL     1      31.562 -22.912 -16.693  0.00  0.00    -0.001 C 
ATOM     10  H   UNL     1      35.701 -23.447 -17.229  0.00  0.00    +0.152 HD
ENDROOT
BRANCH   2  11
ATOM     11  C   UNL     1      35.042 -23.911 -12.745  0.00  0.00    +0.005 C 
BRANCH  11  12
ATOM     12  C   UNL     1      36.081 -25.005 -12.439  0.00  0.00    -0.073 C 
BRANCH  12  13
ATOM     13  N   UNL     1      37.286 -24.455 -11.828  0.00  0.00    +0.384 N 
ATOM     14  C   UNL     1      37.123 -23.024 -11.566  0.00  0.00    -0.101 C 
ATOM     15  C   UNL     1      38.449 -24.686 -12.687  0.00  0.00    -0.101 C 
ATOM     16  H   UNL     1      37.439 -24.931 -10.940  0.00  0.00    -0.080 HD
ENDBRANCH  12  13
ENDBRANCH  11  12
ENDBRANCH   2  11
BRANCH   7  17
ATOM     17  C   UNL     1      29.849 -22.887 -14.878  0.00  0.00    +0.144 C 
BRANCH  17  18
ATOM     18  N   UNL     1      28.895 -23.075 -15.976  0.00  0.00    -0.186 N 
ATOM     19  N   UNL     1      28.283 -22.023 -16.509  0.00  0.00    -0.154 NA
ATOM     20  N   UNL     1      27.663 -23.992 -17.496  0.00  0.00    -0.203 NA
ATOM     21  C   UNL     1      28.537 -24.238 -16.549  0.00  0.00    +0.186 C 
ATOM     22  C   UNL     1      27.539 -22.633 -17.435  0.00  0.00    +0.218 C 
ENDBRANCH  17  18
ENDBRANCH   7  17
TORSDOF 5
ENDMDL
MODEL 6
REMARK VINA RESULT:      -8.3      4.428      8.199
REMARK  Name = 5078
REMARK  5 active torsions:
REMARK  status: ('A' for Active; 'I' for Inactive)
REMARK    1  A    between atoms: C_2  and  C_11
REMARK    2  A    between atoms: C_7  and  C_17
REMARK    3  A    between atoms: C_11  and  C_12
REMARK    4  A    between atoms: C_12  and  N_13
REMARK    5  A    between atoms: C_17  and  N_18
REMARK                            x       y       z     vdW  Elec       q    Type
REMARK                         _______ _______ _______ _____ _____    ______ ____
ROOT
ATOM      1  N   UNL     1      34.513 -21.990 -18.762  0.00  0.00    -0.312 N 
ATOM      2  C   UNL     1      33.310 -23.031 -17.214  0.00  0.00    -0.008 C 
ATOM      3  C   UNL     1      34.646 -22.920 -16.739  0.00  0.00    +0.010 C 
ATOM      4  C   UNL     1      35.380 -22.263 -17.728  0.00  0.00    +0.048 C 
ATOM      5  C   UNL     1      35.304 -23.316 -15.558  0.00  0.00    -0.002 C 
ATOM      6  C   UNL     1      33.259 -22.449 -18.460  0.00  0.00    +0.057 C 
ATOM      7  C   UNL     1      36.669 -23.042 -15.411  0.00  0.00    -0.000 C 
ATOM      8  C   UNL     1      36.744 -21.982 -17.596  0.00  0.00    +0.014 C 
ATOM      9  C   UNL     1      37.376 -22.384 -16.415  0.00  0.00    -0.001 C 
ATOM     10  H   UNL     1      34.758 -21.530 -19.597  0.00  0.00    +0.152 HD
ENDROOT
BRANCH   2  11
ATOM     11  C   UNL     1      32.173 -23.654 -16.506  0.00  0.00    +0.005 C 
BRANCH  11  12
ATOM     12  C   UNL     1      30.906 -22.779 -16.515  0.00  0.00    -0.073 C 
BRANCH  12  13
ATOM     13  N   UNL     1      29.701 -23.565 -16.279  0.00  0.00    +0.384 N 
ATOM     14  C   UNL     1      28.590 -22.697 -15.882  0.00  0.00    -0.101 C 
ATOM     15  C   UNL     1      29.942 -24.582 -15.254  0.00  0.00    -0.101 C 
ATOM     16  H   UNL     1      29.449 -24.035 -17.148  0.00  0.00    -0.080 HD
ENDBRANCH  12  13
ENDBRANCH  11  12
ENDBRANCH   2  11
BRANCH   7  17
ATOM     17  C   UNL     1      37.372 -23.460 -14.163  0.00  0.00    +0.144 C 
BRANCH  17  18
ATOM     18  N   UNL     1      38.209 -24.644 -14.380  0.00  0.00    -0.186 N 
ATOM     19  N   UNL     1      39.527 -24.514 -14.487  0.00  0.00    -0.154 NA
ATOM     20  N   UNL     1      38.842 -26.689 -14.678  0.00  0.00    -0.203 NA
ATOM     21  C   UNL     1      37.795 -25.920 -14.491  0.00  0.00    +0.186 C 
ATOM     22  C   UNL     1      39.872 -25.791 -14.669  0.00  0.00    +0.218 C 
ENDBRANCH  17  18
ENDBRANCH   7  17
TORSDOF 5
ENDMDL
MODEL 7
REMARK VINA RESULT:      -8.1      3.330      9.259
REMARK  Name = 5078
REMARK  5 active torsions:
REMARK  status: ('A' for Active; 'I' for Inactive)
REMARK    1  A    between atoms: C_2  and  C_11
REMARK    2  A    between atoms: C_7  and  C_17
REMARK    3  A    between atoms: C_11  and  C_12
REMARK    4  A    between atoms: C_12  and  N_13
REMARK    5  A    between atoms: C_17  and  N_18
REMARK                            x       y       z     vdW  Elec       q    Type
REMARK                         _______ _______ _______ _____ _____    ______ ____
ROOT
ATOM      1  N   UNL     1      32.103 -13.187 -21.592  0.00  0.00    -0.312 N 
ATOM      2  C   UNL     1      33.272 -13.103 -23.477  0.00  0.00    -0.008 C 
ATOM      3  C   UNL     1      33.647 -14.281 -22.774  0.00  0.00    +0.010 C 
ATOM      4  C   UNL     1      32.899 -14.311 -21.595  0.00  0.00    +0.048 C 
ATOM      5  C   UNL     1      34.554 -15.329 -23.028  0.00  0.00    -0.002 C 
ATOM      6  C   UNL     1      32.321 -12.451 -22.726  0.00  0.00    +0.057 C 
ATOM      7  C   UNL     1      34.678 -16.366 -22.095  0.00  0.00    -0.000 C 
ATOM      8  C   UNL     1      33.013 -15.339 -20.654  0.00  0.00    +0.014 C 
ATOM      9  C   UNL     1      33.919 -16.369 -20.927  0.00  0.00    -0.001 C 
ATOM     10  H   UNL     1      31.468 -12.948 -20.879  0.00  0.00    +0.152 HD
ENDROOT
BRANCH   2  11
ATOM     11  C   UNL     1      33.801 -12.650 -24.780  0.00  0.00    +0.005 C 
BRANCH  11  12
ATOM     12  C   UNL     1      33.715 -11.124 -24.966  0.00  0.00    -0.073 C 
BRANCH  12  13
ATOM     13  N   UNL     1      35.011 -10.480 -24.788  0.00  0.00    +0.384 N 
ATOM     14  C   UNL     1      34.856  -9.190 -24.114  0.00  0.00    -0.101 C 
ATOM     15  C   UNL     1      35.679 -10.303 -26.079  0.00  0.00    -0.101 C 
ATOM     16  H   UNL     1      35.589 -11.082 -24.203  0.00  0.00    -0.080 HD
ENDBRANCH  12  13
ENDBRANCH  11  12
ENDBRANCH   2  11
BRANCH   7  17
ATOM     17  C   UNL     1      35.638 -17.478 -22.357  0.00  0.00    +0.144 C 
BRANCH  17  18
ATOM     18  N   UNL     1      35.281 -18.691 -21.614  0.00  0.00    -0.186 N 
ATOM     19  N   UNL     1      36.103 -19.165 -20.685  0.00  0.00    -0.154 NA
ATOM     20  N   UNL     1      34.213 -20.434 -20.913  0.00  0.00    -0.203 NA
ATOM     21  C   UNL     1      34.166 -19.430 -21.757  0.00  0.00    +0.186 C 
ATOM     22  C   UNL     1      35.408 -20.232 -20.283  0.00  0.00    +0.218 C 
ENDBRANCH  17  18
ENDBRANCH   7  17
TORSDOF 5
ENDMDL
MODEL 8
REMARK VINA RESULT:      -8.0      3.448      6.571
REMARK  Name = 5078
REMARK  5 active torsions:
REMARK  status: ('A' for Active; 'I' for Inactive)
REMARK    1  A    between atoms: C_2  and  C_11
REMARK    2  A    between atoms: C_7  and  C_17
REMARK    3  A    between atoms: C_11  and  C_12
REMARK    4  A    between atoms: C_12  and  N_13
REMARK    5  A    between atoms: C_17  and  N_18
REMARK                            x       y       z     vdW  Elec       q    Type
REMARK                         _______ _______ _______ _____ _____    ______ ____
ROOT
ATOM      1  N   UNL     1      34.358 -17.501 -25.382  0.00  0.00    -0.312 N 
ATOM      2  C   UNL     1      34.904 -17.048 -23.278  0.00  0.00    -0.008 C 
ATOM      3  C   UNL     1      34.296 -15.890 -23.840  0.00  0.00    +0.010 C 
ATOM      4  C   UNL     1      33.963 -16.201 -25.160  0.00  0.00    +0.048 C 
ATOM      5  C   UNL     1      33.997 -14.604 -23.350  0.00  0.00    -0.002 C 
ATOM      6  C   UNL     1      34.927 -18.022 -24.250  0.00  0.00    +0.057 C 
ATOM      7  C   UNL     1      33.376 -13.678 -24.197  0.00  0.00    -0.000 C 
ATOM      8  C   UNL     1      33.344 -15.286 -26.018  0.00  0.00    +0.014 C 
ATOM      9  C   UNL     1      33.055 -14.016 -25.510  0.00  0.00    -0.001 C 
ATOM     10  H   UNL     1      34.247 -17.987 -26.231  0.00  0.00    +0.152 HD
ENDROOT
BRANCH   2  11
ATOM     11  C   UNL     1      35.420 -17.191 -21.902  0.00  0.00    +0.005 C 
BRANCH  11  12
ATOM     12  C   UNL     1      36.106 -18.547 -21.655  0.00  0.00    -0.073 C 
BRANCH  12  13
ATOM     13  N   UNL     1      35.486 -19.278 -20.556  0.00  0.00    +0.384 N 
ATOM     14  C   UNL     1      36.284 -20.454 -20.206  0.00  0.00    -0.101 C 
ATOM     15  C   UNL     1      34.122 -19.677 -20.910  0.00  0.00    -0.101 C 
ATOM     16  H   UNL     1      35.444 -18.662 -19.746  0.00  0.00    -0.080 HD
ENDBRANCH  12  13
ENDBRANCH  11  12
ENDBRANCH   2  11
BRANCH   7  17
ATOM     17  C   UNL     1      33.057 -12.312 -23.686  0.00  0.00    +0.144 C 
BRANCH  17  18
ATOM     18  N   UNL     1      33.931 -11.292 -24.275  0.00  0.00    -0.186 N 
ATOM     19  N   UNL     1      34.135 -10.145 -23.636  0.00  0.00    -0.154 NA
ATOM     20  N   UNL     1      35.268 -10.258 -25.621  0.00  0.00    -0.203 NA
ATOM     21  C   UNL     1      34.593 -11.369 -25.444  0.00  0.00    +0.186 C 
ATOM     22  C   UNL     1      34.959  -9.544 -24.498  0.00  0.00    +0.218 C 
ENDBRANCH  17  18
ENDBRANCH   7  17
TORSDOF 5
ENDMDL
MODEL 9
REMARK VINA RESULT:      -8.0      1.793      2.835
REMARK  Name = 5078
REMARK  5 active torsions:
REMARK  status: ('A' for Active; 'I' for Inactive)
REMARK    1  A    between atoms: C_2  and  C_11
REMARK    2  A    between atoms: C_7  and  C_17
REMARK    3  A    between atoms: C_11  and  C_12
REMARK    4  A    between atoms: C_12  and  N_13
REMARK    5  A    between atoms: C_17  and  N_18
REMARK                            x       y       z     vdW  Elec       q    Type
REMARK                         _______ _______ _______ _____ _____    ______ ____
ROOT
ATOM      1  N   UNL     1      36.897 -21.232 -19.131  0.00  0.00    -0.312 N 
ATOM      2  C   UNL     1      34.701 -21.531 -19.264  0.00  0.00    -0.008 C 
ATOM      3  C   UNL     1      35.066 -20.499 -20.173  0.00  0.00    +0.010 C 
ATOM      4  C   UNL     1      36.448 -20.331 -20.070  0.00  0.00    +0.048 C 
ATOM      5  C   UNL     1      34.350 -19.689 -21.076  0.00  0.00    -0.002 C 
ATOM      6  C   UNL     1      35.848 -21.962 -18.638  0.00  0.00    +0.057 C 
ATOM      7  C   UNL     1      35.042 -18.743 -21.842  0.00  0.00    -0.000 C 
ATOM      8  C   UNL     1      37.153 -19.390 -20.828  0.00  0.00    +0.014 C 
ATOM      9  C   UNL     1      36.422 -18.597 -21.718  0.00  0.00    -0.001 C 
ATOM     10  H   UNL     1      37.836 -21.337 -18.854  0.00  0.00    +0.152 HD
ENDROOT
BRANCH   2  11
ATOM     11  C   UNL     1      33.340 -22.054 -19.026  0.00  0.00    +0.005 C 
BRANCH  11  12
ATOM     12  C   UNL     1      33.318 -23.259 -18.068  0.00  0.00    -0.073 C 
BRANCH  12  13
ATOM     13  N   UNL     1      32.930 -22.872 -16.717  0.00  0.00    +0.384 N 
ATOM     14  C   UNL     1      33.773 -23.543 -15.726  0.00  0.00    -0.101 C 
ATOM     15  C   UNL     1      31.519 -23.184 -16.478  0.00  0.00    -0.101 C 
ATOM     16  H   UNL     1      33.060 -21.865 -16.623  0.00  0.00    -0.080 HD
ENDBRANCH  12  13
ENDBRANCH  11  12
ENDBRANCH   2  11
BRANCH   7  17
ATOM     17  C   UNL     1      34.290 -17.880 -22.800  0.00  0.00    +0.144 C 
BRANCH  17  18
ATOM     18  N   UNL     1      34.234 -16.486 -22.349  0.00  0.00    -0.186 N 
ATOM     19  N   UNL     1      34.848 -15.538 -23.049  0.00  0.00    -0.154 NA
ATOM     20  N   UNL     1      33.786 -14.713 -21.198  0.00  0.00    -0.203 NA
ATOM     21  C   UNL     1      33.606 -16.012 -21.258  0.00  0.00    +0.186 C 
ATOM     22  C   UNL     1      34.546 -14.470 -22.306  0.00  0.00    +0.218 C 
ENDBRANCH  17  18
ENDBRANCH   7  17
TORSDOF 5
ENDMDL
