MODEL 1
REMARK VINA RESULT:      -9.4      0.000      0.000
REMARK  Name = 445093
REMARK  7 active torsions:
REMARK  status: ('A' for Active; 'I' for Inactive)
REMARK    1  A    between atoms: C_2  and  O_18
REMARK    2  A    between atoms: C_3  and  O_20
REMARK    3  A    between atoms: C_4  and  N_6
REMARK    4  A    between atoms: C_5  and  C_22
REMARK    5  A    between atoms: C_22  and  O_23
REMARK    6  A    between atoms: O_23  and  P_24
REMARK    7  A    between atoms: P_24  and  O_27
REMARK                            x       y       z     vdW  Elec       q    Type
REMARK                         _______ _______ _______ _____ _____    ______ ____
ROOT
ATOM      1  O   UNL     1      31.932 -25.497 -14.616  0.00  0.00    -0.333 OA
ATOM      2  C   UNL     1      31.658 -23.353 -13.650  0.00  0.00    +0.187 C 
ATOM      3  C   UNL     1      30.370 -24.127 -13.454  0.00  0.00    +0.171 C 
ATOM      4  C   UNL     1      32.653 -24.476 -13.900  0.00  0.00    +0.225 C 
ATOM      5  C   UNL     1      30.514 -25.258 -14.469  0.00  0.00    +0.176 C 
ENDROOT
BRANCH   4   6
ATOM      6  N   UNL     1      33.828 -24.071 -14.666  0.00  0.00    -0.247 N 
ATOM      7  N   UNL     1      35.055 -23.396 -16.403  0.00  0.00    -0.242 NA
ATOM      8  N   UNL     1      35.564 -24.237 -12.975  0.00  0.00    -0.228 NA
ATOM      9  N   UNL     1      37.747 -23.625 -13.878  0.00  0.00    -0.229 NA
ATOM     10  C   UNL     1      35.114 -23.978 -14.211  0.00  0.00    +0.152 C 
ATOM     11  C   UNL     1      33.845 -23.711 -15.989  0.00  0.00    +0.223 C 
ATOM     12  C   UNL     1      35.857 -23.557 -15.302  0.00  0.00    +0.140 C 
ATOM     13  C   UNL     1      37.223 -23.382 -15.103  0.00  0.00    +0.143 C 
ATOM     14  C   UNL     1      36.897 -24.032 -12.904  0.00  0.00    +0.253 C 
ATOM     15  N   UNL     1      38.053 -22.956 -16.154  0.00  0.00    -0.342 N 
ATOM     16  H   UNL     1      39.018 -22.835 -16.002  0.00  0.00    +0.144 HD
ATOM     17  H   UNL     1      37.669 -22.779 -17.044  0.00  0.00    +0.144 HD
ENDBRANCH   4   6
BRANCH   2  18
ATOM     18  O   UNL     1      32.013 -22.575 -12.525  0.00  0.00    -0.378 OA
ATOM     19  H   UNL     1      31.691 -21.667 -12.644  0.00  0.00    +0.211 HD
ENDBRANCH   2  18
BRANCH   3  20
ATOM     20  O   UNL     1      30.346 -24.687 -12.141  0.00  0.00    -0.379 OA
ATOM     21  H   UNL     1      29.454 -25.012 -11.944  0.00  0.00    +0.211 HD
ENDBRANCH   3  20
BRANCH   5  22
ATOM     22  C   UNL     1      29.941 -24.907 -15.834  0.00  0.00    +0.183 C 
BRANCH  22  23
ATOM     23  O   UNL     1      28.670 -24.306 -15.653  0.00  0.00    -0.291 OA
BRANCH  23  24
ATOM     24  P   UNL     1      28.139 -23.163 -16.665  0.00  0.00    +0.341 P 
ATOM     25  O   UNL     1      27.480 -23.695 -17.904  0.00  0.00    -0.258 OA
ATOM     26  C   UNL     1      27.086 -22.108 -15.690  0.00  0.00    +0.129 C 
BRANCH  24  27
ATOM     27  O   UNL     1      29.441 -22.246 -16.952  0.00  0.00    -0.323 OA
ATOM     28  H   UNL     1      30.112 -22.415 -16.272  0.00  0.00    +0.220 HD
ENDBRANCH  24  27
ENDBRANCH  23  24
ENDBRANCH  22  23
ENDBRANCH   5  22
TORSDOF 7
ENDMDL
MODEL 2
REMARK VINA RESULT:      -9.0      8.341     10.031
REMARK  Name = 445093
REMARK  7 active torsions:
REMARK  status: ('A' for Active; 'I' for Inactive)
REMARK    1  A    between atoms: C_2  and  O_18
REMARK    2  A    between atoms: C_3  and  O_20
REMARK    3  A    between atoms: C_4  and  N_6
REMARK    4  A    between atoms: C_5  and  C_22
REMARK    5  A    between atoms: C_22  and  O_23
REMARK    6  A    between atoms: O_23  and  P_24
REMARK    7  A    between atoms: P_24  and  O_27
REMARK                            x       y       z     vdW  Elec       q    Type
REMARK                         _______ _______ _______ _____ _____    ______ ____
ROOT
ATOM      1  O   UNL     1      34.862 -17.233 -20.784  0.00  0.00    -0.333 OA
ATOM      2  C   UNL     1      34.260 -18.091 -22.907  0.00  0.00    +0.187 C 
ATOM      3  C   UNL     1      34.651 -16.636 -23.079  0.00  0.00    +0.171 C 
ATOM      4  C   UNL     1      34.928 -18.430 -21.582  0.00  0.00    +0.225 C 
ATOM      5  C   UNL     1      34.576 -16.109 -21.648  0.00  0.00    +0.176 C 
ENDROOT
BRANCH   4   6
ATOM      6  N   UNL     1      34.300 -19.536 -20.866  0.00  0.00    -0.247 N 
ATOM      7  N   UNL     1      32.700 -20.912 -20.141  0.00  0.00    -0.242 NA
ATOM      8  N   UNL     1      36.219 -20.502 -19.732  0.00  0.00    -0.228 NA
ATOM      9  N   UNL     1      35.578 -22.435 -18.387  0.00  0.00    -0.229 NA
ATOM     10  C   UNL     1      34.917 -20.442 -20.047  0.00  0.00    +0.152 C 
ATOM     11  C   UNL     1      32.968 -19.862 -20.889  0.00  0.00    +0.223 C 
ATOM     12  C   UNL     1      33.908 -21.285 -19.610  0.00  0.00    +0.140 C 
ATOM     13  C   UNL     1      34.278 -22.313 -18.748  0.00  0.00    +0.143 C 
ATOM     14  C   UNL     1      36.455 -21.535 -18.894  0.00  0.00    +0.253 C 
ATOM     15  N   UNL     1      33.320 -23.217 -18.257  0.00  0.00    -0.342 N 
ATOM     16  H   UNL     1      33.592 -23.940 -17.647  0.00  0.00    +0.144 HD
ATOM     17  H   UNL     1      32.376 -23.126 -18.521  0.00  0.00    +0.144 HD
ENDBRANCH   4   6
BRANCH   2  18
ATOM     18  O   UNL     1      34.724 -18.916 -23.956  0.00  0.00    -0.378 OA
ATOM     19  H   UNL     1      35.679 -19.055 -23.861  0.00  0.00    +0.211 HD
ENDBRANCH   2  18
BRANCH   3  20
ATOM     20  O   UNL     1      36.003 -16.556 -23.530  0.00  0.00    -0.379 OA
ATOM     21  H   UNL     1      36.200 -17.319 -24.095  0.00  0.00    +0.211 HD
ENDBRANCH   3  20
BRANCH   5  22
ATOM     22  C   UNL     1      33.203 -15.562 -21.288  0.00  0.00    +0.183 C 
BRANCH  22  23
ATOM     23  O   UNL     1      33.244 -14.148 -21.362  0.00  0.00    -0.291 OA
BRANCH  23  24
ATOM     24  P   UNL     1      32.789 -13.372 -22.705  0.00  0.00    +0.341 P 
ATOM     25  O   UNL     1      32.043 -14.226 -23.687  0.00  0.00    -0.258 OA
ATOM     26  C   UNL     1      31.873 -11.948 -22.151  0.00  0.00    +0.129 C 
BRANCH  24  27
ATOM     27  O   UNL     1      34.161 -12.742 -23.288  0.00  0.00    -0.323 OA
ATOM     28  H   UNL     1      34.244 -12.963 -24.229  0.00  0.00    +0.220 HD
ENDBRANCH  24  27
ENDBRANCH  23  24
ENDBRANCH  22  23
ENDBRANCH   5  22
TORSDOF 7
ENDMDL
MODEL 3
REMARK VINA RESULT:      -8.9      4.361      6.958
REMARK  Name = 445093
REMARK  7 active torsions:
REMARK  status: ('A' for Active; 'I' for Inactive)
REMARK    1  A    between atoms: C_2  and  O_18
REMARK    2  A    between atoms: C_3  and  O_20
REMARK    3  A    between atoms: C_4  and  N_6
REMARK    4  A    between atoms: C_5  and  C_22
REMARK    5  A    between atoms: C_22  and  O_23
REMARK    6  A    between atoms: O_23  and  P_24
REMARK    7  A    between atoms: P_24  and  O_27
REMARK                            x       y       z     vdW  Elec       q    Type
REMARK                         _______ _______ _______ _____ _____    ______ ____
ROOT
ATOM      1  O   UNL     1      36.913 -23.146 -12.750  0.00  0.00    -0.333 OA
ATOM      2  C   UNL     1      35.219 -24.788 -12.558  0.00  0.00    +0.187 C 
ATOM      3  C   UNL     1      36.056 -24.824 -11.295  0.00  0.00    +0.171 C 
ATOM      4  C   UNL     1      35.539 -23.401 -13.095  0.00  0.00    +0.225 C 
ATOM      5  C   UNL     1      37.318 -24.079 -11.721  0.00  0.00    +0.176 C 
ENDROOT
BRANCH   4   6
ATOM      6  N   UNL     1      35.359 -23.265 -14.538  0.00  0.00    -0.247 N 
ATOM      7  N   UNL     1      35.887 -23.019 -16.692  0.00  0.00    -0.242 NA
ATOM      8  N   UNL     1      32.939 -23.375 -14.715  0.00  0.00    -0.228 NA
ATOM      9  N   UNL     1      32.207 -23.181 -17.036  0.00  0.00    -0.229 NA
ATOM     10  C   UNL     1      34.175 -23.259 -15.222  0.00  0.00    +0.152 C 
ATOM     11  C   UNL     1      36.357 -23.117 -15.466  0.00  0.00    +0.223 C 
ATOM     12  C   UNL     1      34.524 -23.107 -16.554  0.00  0.00    +0.140 C 
ATOM     13  C   UNL     1      33.483 -23.068 -17.477  0.00  0.00    +0.143 C 
ATOM     14  C   UNL     1      32.017 -23.325 -15.702  0.00  0.00    +0.253 C 
ATOM     15  N   UNL     1      33.746 -22.918 -18.849  0.00  0.00    -0.342 N 
ATOM     16  H   UNL     1      33.002 -22.892 -19.493  0.00  0.00    +0.144 HD
ATOM     17  H   UNL     1      34.674 -22.837 -19.167  0.00  0.00    +0.144 HD
ENDBRANCH   4   6
BRANCH   2  18
ATOM     18  O   UNL     1      33.837 -24.952 -12.312  0.00  0.00    -0.378 OA
ATOM     19  H   UNL     1      33.575 -25.861 -12.527  0.00  0.00    +0.211 HD
ENDBRANCH   2  18
BRANCH   3  20
ATOM     20  O   UNL     1      35.403 -24.077 -10.270  0.00  0.00    -0.379 OA
ATOM     21  H   UNL     1      35.958 -24.066  -9.475  0.00  0.00    +0.211 HD
ENDBRANCH   3  20
BRANCH   5  22
ATOM     22  C   UNL     1      38.385 -24.998 -12.298  0.00  0.00    +0.183 C 
BRANCH  22  23
ATOM     23  O   UNL     1      39.040 -24.323 -13.359  0.00  0.00    -0.291 OA
BRANCH  23  24
ATOM     24  P   UNL     1      39.536 -25.124 -14.673  0.00  0.00    +0.341 P 
ATOM     25  O   UNL     1      40.911 -25.712 -14.553  0.00  0.00    -0.258 OA
ATOM     26  C   UNL     1      38.268 -26.330 -15.008  0.00  0.00    +0.129 C 
BRANCH  24  27
ATOM     27  O   UNL     1      39.377 -24.056 -15.876  0.00  0.00    -0.323 OA
ATOM     28  H   UNL     1      39.860 -23.244 -15.654  0.00  0.00    +0.220 HD
ENDBRANCH  24  27
ENDBRANCH  23  24
ENDBRANCH  22  23
ENDBRANCH   5  22
TORSDOF 7
ENDMDL
MODEL 4
REMARK VINA RESULT:      -8.6      4.751      7.116
REMARK  Name = 445093
REMARK  7 active torsions:
REMARK  status: ('A' for Active; 'I' for Inactive)
REMARK    1  A    between atoms: C_2  and  O_18
REMARK    2  A    between atoms: C_3  and  O_20
REMARK    3  A    between atoms: C_4  and  N_6
REMARK    4  A    between atoms: C_5  and  C_22
REMARK    5  A    between atoms: C_22  and  O_23
REMARK    6  A    between atoms: O_23  and  P_24
REMARK    7  A    between atoms: P_24  and  O_27
REMARK                            x       y       z     vdW  Elec       q    Type
REMARK                         _______ _______ _______ _____ _____    ______ ____
ROOT
ATOM      1  O   UNL     1      36.678 -22.823 -13.183  0.00  0.00    -0.333 OA
ATOM      2  C   UNL     1      35.884 -24.849 -14.115  0.00  0.00    +0.187 C 
ATOM      3  C   UNL     1      36.163 -25.083 -12.644  0.00  0.00    +0.171 C 
ATOM      4  C   UNL     1      35.753 -23.334 -14.161  0.00  0.00    +0.225 C 
ATOM      5  C   UNL     1      37.053 -23.896 -12.289  0.00  0.00    +0.176 C 
ENDROOT
BRANCH   4   6
ATOM      6  N   UNL     1      36.046 -22.750 -15.468  0.00  0.00    -0.247 N 
ATOM      7  N   UNL     1      37.145 -21.629 -17.053  0.00  0.00    -0.242 NA
ATOM      8  N   UNL     1      34.083 -23.429 -16.728  0.00  0.00    -0.228 NA
ATOM      9  N   UNL     1      34.185 -22.630 -19.032  0.00  0.00    -0.229 NA
ATOM     10  C   UNL     1      35.268 -22.818 -16.591  0.00  0.00    +0.152 C 
ATOM     11  C   UNL     1      37.162 -22.025 -15.798  0.00  0.00    +0.223 C 
ATOM     12  C   UNL     1      35.968 -22.119 -17.561  0.00  0.00    +0.140 C 
ATOM     13  C   UNL     1      35.383 -22.035 -18.821  0.00  0.00    +0.143 C 
ATOM     14  C   UNL     1      33.617 -23.281 -17.987  0.00  0.00    +0.253 C 
ATOM     15  N   UNL     1      36.023 -21.347 -19.866  0.00  0.00    -0.342 N 
ATOM     16  H   UNL     1      35.600 -21.294 -20.753  0.00  0.00    +0.144 HD
ATOM     17  H   UNL     1      36.895 -20.916 -19.710  0.00  0.00    +0.144 HD
ENDBRANCH   4   6
BRANCH   2  18
ATOM     18  O   UNL     1      34.710 -25.492 -14.566  0.00  0.00    -0.378 OA
ATOM     19  H   UNL     1      34.522 -25.222 -15.479  0.00  0.00    +0.211 HD
ENDBRANCH   2  18
BRANCH   3  20
ATOM     20  O   UNL     1      34.945 -24.983 -11.907  0.00  0.00    -0.379 OA
ATOM     21  H   UNL     1      34.210 -25.307 -12.451  0.00  0.00    +0.211 HD
ENDBRANCH   3  20
BRANCH   5  22
ATOM     22  C   UNL     1      38.534 -24.186 -12.482  0.00  0.00    +0.183 C 
BRANCH  22  23
ATOM     23  O   UNL     1      38.696 -25.569 -12.746  0.00  0.00    -0.291 OA
BRANCH  23  24
ATOM     24  P   UNL     1      39.319 -26.081 -14.147  0.00  0.00    +0.341 P 
ATOM     25  O   UNL     1      38.541 -27.184 -14.802  0.00  0.00    -0.258 OA
ATOM     26  C   UNL     1      39.488 -24.624 -15.158  0.00  0.00    +0.129 C 
BRANCH  24  27
ATOM     27  O   UNL     1      40.846 -26.475 -13.785  0.00  0.00    -0.323 OA
ATOM     28  H   UNL     1      41.241 -26.956 -14.530  0.00  0.00    +0.220 HD
ENDBRANCH  24  27
ENDBRANCH  23  24
ENDBRANCH  22  23
ENDBRANCH   5  22
TORSDOF 7
ENDMDL
MODEL 5
REMARK VINA RESULT:      -8.5      4.874      7.389
REMARK  Name = 445093
REMARK  7 active torsions:
REMARK  status: ('A' for Active; 'I' for Inactive)
REMARK    1  A    between atoms: C_2  and  O_18
REMARK    2  A    between atoms: C_3  and  O_20
REMARK    3  A    between atoms: C_4  and  N_6
REMARK    4  A    between atoms: C_5  and  C_22
REMARK    5  A    between atoms: C_22  and  O_23
REMARK    6  A    between atoms: O_23  and  P_24
REMARK    7  A    between atoms: P_24  and  O_27
REMARK                            x       y       z     vdW  Elec       q    Type
REMARK                         _______ _______ _______ _____ _____    ______ ____
ROOT
ATOM      1  O   UNL     1      37.488 -23.531 -13.779  0.00  0.00    -0.333 OA
ATOM      2  C   UNL     1      35.651 -24.047 -12.376  0.00  0.00    +0.187 C 
ATOM      3  C   UNL     1      36.925 -24.239 -11.577  0.00  0.00    +0.171 C 
ATOM      4  C   UNL     1      36.131 -23.138 -13.498  0.00  0.00    +0.225 C 
ATOM      5  C   UNL     1      37.986 -24.315 -12.671  0.00  0.00    +0.176 C 
ENDROOT
BRANCH   4   6
ATOM      6  N   UNL     1      35.331 -23.223 -14.716  0.00  0.00    -0.247 N 
ATOM      7  N   UNL     1      33.622 -23.731 -16.059  0.00  0.00    -0.242 NA
ATOM      8  N   UNL     1      36.778 -22.085 -16.301  0.00  0.00    -0.228 NA
ATOM      9  N   UNL     1      35.774 -22.008 -18.525  0.00  0.00    -0.229 NA
ATOM     10  C   UNL     1      35.659 -22.736 -15.952  0.00  0.00    +0.152 C 
ATOM     11  C   UNL     1      34.098 -23.811 -14.834  0.00  0.00    +0.223 C 
ATOM     12  C   UNL     1      34.587 -23.061 -16.767  0.00  0.00    +0.140 C 
ATOM     13  C   UNL     1      34.672 -22.671 -18.101  0.00  0.00    +0.143 C 
ATOM     14  C   UNL     1      36.745 -21.759 -17.612  0.00  0.00    +0.253 C 
ATOM     15  N   UNL     1      33.630 -22.957 -19.000  0.00  0.00    -0.342 N 
ATOM     16  H   UNL     1      33.700 -22.677 -19.941  0.00  0.00    +0.144 HD
ATOM     17  H   UNL     1      32.830 -23.439 -18.689  0.00  0.00    +0.144 HD
ENDBRANCH   4   6
BRANCH   2  18
ATOM     18  O   UNL     1      34.611 -23.455 -11.627  0.00  0.00    -0.378 OA
ATOM     19  H   UNL     1      33.818 -24.012 -11.676  0.00  0.00    +0.211 HD
ENDBRANCH   2  18
BRANCH   3  20
ATOM     20  O   UNL     1      37.166 -23.079 -10.781  0.00  0.00    -0.379 OA
ATOM     21  H   UNL     1      37.098 -23.311  -9.842  0.00  0.00    +0.211 HD
ENDBRANCH   3  20
BRANCH   5  22
ATOM     22  C   UNL     1      38.235 -25.735 -13.159  0.00  0.00    +0.183 C 
BRANCH  22  23
ATOM     23  O   UNL     1      38.732 -25.679 -14.485  0.00  0.00    -0.291 OA
BRANCH  23  24
ATOM     24  P   UNL     1      40.321 -25.616 -14.775  0.00  0.00    +0.341 P 
ATOM     25  O   UNL     1      40.973 -24.328 -14.364  0.00  0.00    -0.258 OA
ATOM     26  C   UNL     1      41.012 -27.054 -13.982  0.00  0.00    +0.129 C 
BRANCH  24  27
ATOM     27  O   UNL     1      40.453 -25.948 -16.353  0.00  0.00    -0.323 OA
ATOM     28  H   UNL     1      40.098 -25.208 -16.870  0.00  0.00    +0.220 HD
ENDBRANCH  24  27
ENDBRANCH  23  24
ENDBRANCH  22  23
ENDBRANCH   5  22
TORSDOF 7
ENDMDL
MODEL 6
REMARK VINA RESULT:      -8.4      4.064      6.570
REMARK  Name = 445093
REMARK  7 active torsions:
REMARK  status: ('A' for Active; 'I' for Inactive)
REMARK    1  A    between atoms: C_2  and  O_18
REMARK    2  A    between atoms: C_3  and  O_20
REMARK    3  A    between atoms: C_4  and  N_6
REMARK    4  A    between atoms: C_5  and  C_22
REMARK    5  A    between atoms: C_22  and  O_23
REMARK    6  A    between atoms: O_23  and  P_24
REMARK    7  A    between atoms: P_24  and  O_27
REMARK                            x       y       z     vdW  Elec       q    Type
REMARK                         _______ _______ _______ _____ _____    ______ ____
ROOT
ATOM      1  O   UNL     1      35.614 -24.975 -16.049  0.00  0.00    -0.333 OA
ATOM      2  C   UNL     1      36.076 -22.771 -15.317  0.00  0.00    +0.187 C 
ATOM      3  C   UNL     1      37.172 -23.680 -14.799  0.00  0.00    +0.171 C 
ATOM      4  C   UNL     1      35.511 -23.599 -16.461  0.00  0.00    +0.225 C 
ATOM      5  C   UNL     1      36.543 -25.063 -14.944  0.00  0.00    +0.176 C 
ENDROOT
BRANCH   4   6
ATOM      6  N   UNL     1      34.124 -23.286 -16.794  0.00  0.00    -0.247 N 
ATOM      7  N   UNL     1      32.364 -22.632 -18.000  0.00  0.00    -0.242 NA
ATOM      8  N   UNL     1      33.015 -23.809 -14.696  0.00  0.00    -0.228 NA
ATOM      9  N   UNL     1      30.612 -23.410 -14.837  0.00  0.00    -0.229 NA
ATOM     10  C   UNL     1      33.036 -23.396 -15.972  0.00  0.00    +0.152 C 
ATOM     11  C   UNL     1      33.667 -22.823 -18.001  0.00  0.00    +0.223 C 
ATOM     12  C   UNL     1      31.957 -22.986 -16.739  0.00  0.00    +0.140 C 
ATOM     13  C   UNL     1      30.708 -23.003 -16.126  0.00  0.00    +0.143 C 
ATOM     14  C   UNL     1      31.755 -23.782 -14.212  0.00  0.00    +0.253 C 
ATOM     15  N   UNL     1      29.558 -22.606 -16.829  0.00  0.00    -0.342 N 
ATOM     16  H   UNL     1      28.679 -22.621 -16.386  0.00  0.00    +0.144 HD
ATOM     17  H   UNL     1      29.631 -22.311 -17.766  0.00  0.00    +0.144 HD
ENDBRANCH   4   6
BRANCH   2  18
ATOM     18  O   UNL     1      36.558 -21.519 -15.760  0.00  0.00    -0.378 OA
ATOM     19  H   UNL     1      36.801 -21.579 -16.698  0.00  0.00    +0.211 HD
ENDBRANCH   2  18
BRANCH   3  20
ATOM     20  O   UNL     1      38.307 -23.597 -15.661  0.00  0.00    -0.379 OA
ATOM     21  H   UNL     1      38.852 -22.838 -15.405  0.00  0.00    +0.211 HD
ENDBRANCH   3  20
BRANCH   5  22
ATOM     22  C   UNL     1      35.776 -25.499 -13.704  0.00  0.00    +0.183 C 
BRANCH  22  23
ATOM     23  O   UNL     1      36.504 -25.100 -12.556  0.00  0.00    -0.291 OA
BRANCH  23  24
ATOM     24  P   UNL     1      35.807 -24.213 -11.397  0.00  0.00    +0.341 P 
ATOM     25  O   UNL     1      35.415 -24.992 -10.176  0.00  0.00    -0.258 OA
ATOM     26  C   UNL     1      36.941 -22.880 -11.064  0.00  0.00    +0.129 C 
BRANCH  24  27
ATOM     27  O   UNL     1      34.568 -23.485 -12.141  0.00  0.00    -0.323 OA
ATOM     28  H   UNL     1      34.734 -22.530 -12.185  0.00  0.00    +0.220 HD
ENDBRANCH  24  27
ENDBRANCH  23  24
ENDBRANCH  22  23
ENDBRANCH   5  22
TORSDOF 7
ENDMDL
MODEL 7
REMARK VINA RESULT:      -8.4      4.552      7.393
REMARK  Name = 445093
REMARK  7 active torsions:
REMARK  status: ('A' for Active; 'I' for Inactive)
REMARK    1  A    between atoms: C_2  and  O_18
REMARK    2  A    between atoms: C_3  and  O_20
REMARK    3  A    between atoms: C_4  and  N_6
REMARK    4  A    between atoms: C_5  and  C_22
REMARK    5  A    between atoms: C_22  and  O_23
REMARK    6  A    between atoms: O_23  and  P_24
REMARK    7  A    between atoms: P_24  and  O_27
REMARK                            x       y       z     vdW  Elec       q    Type
REMARK                         _______ _______ _______ _____ _____    ______ ____
ROOT
ATOM      1  O   UNL     1      35.699 -22.608 -14.702  0.00  0.00    -0.333 OA
ATOM      2  C   UNL     1      35.179 -24.457 -13.316  0.00  0.00    +0.187 C 
ATOM      3  C   UNL     1      36.614 -24.052 -13.044  0.00  0.00    +0.171 C 
ATOM      4  C   UNL     1      34.620 -23.189 -13.945  0.00  0.00    +0.225 C 
ATOM      5  C   UNL     1      36.946 -23.195 -14.263  0.00  0.00    +0.176 C 
ENDROOT
BRANCH   4   6
ATOM      6  N   UNL     1      33.471 -23.414 -14.818  0.00  0.00    -0.247 N 
ATOM      7  N   UNL     1      32.267 -23.535 -16.692  0.00  0.00    -0.242 NA
ATOM      8  N   UNL     1      31.786 -24.084 -13.201  0.00  0.00    -0.228 NA
ATOM      9  N   UNL     1      29.654 -24.565 -14.286  0.00  0.00    -0.229 NA
ATOM     10  C   UNL     1      32.218 -23.816 -14.441  0.00  0.00    +0.152 C 
ATOM     11  C   UNL     1      33.448 -23.259 -16.180  0.00  0.00    +0.223 C 
ATOM     12  C   UNL     1      31.490 -23.885 -15.617  0.00  0.00    +0.140 C 
ATOM     13  C   UNL     1      30.158 -24.277 -15.509  0.00  0.00    +0.143 C 
ATOM     14  C   UNL     1      30.487 -24.453 -13.223  0.00  0.00    +0.253 C 
ATOM     15  N   UNL     1      29.345 -24.377 -16.651  0.00  0.00    -0.342 N 
ATOM     16  H   UNL     1      28.405 -24.655 -16.563  0.00  0.00    +0.144 HD
ATOM     17  H   UNL     1      29.715 -24.167 -17.539  0.00  0.00    +0.144 HD
ENDBRANCH   4   6
BRANCH   2  18
ATOM     18  O   UNL     1      34.474 -24.818 -12.146  0.00  0.00    -0.378 OA
ATOM     19  H   UNL     1      33.893 -25.571 -12.338  0.00  0.00    +0.211 HD
ENDBRANCH   2  18
BRANCH   3  20
ATOM     20  O   UNL     1      36.664 -23.232 -11.877  0.00  0.00    -0.379 OA
ATOM     21  H   UNL     1      35.790 -23.214 -11.457  0.00  0.00    +0.211 HD
ENDBRANCH   3  20
BRANCH   5  22
ATOM     22  C   UNL     1      37.529 -24.001 -15.414  0.00  0.00    +0.183 C 
BRANCH  22  23
ATOM     23  O   UNL     1      38.943 -23.967 -15.322  0.00  0.00    -0.291 OA
BRANCH  23  24
ATOM     24  P   UNL     1      39.778 -25.272 -14.858  0.00  0.00    +0.341 P 
ATOM     25  O   UNL     1      40.815 -24.999 -13.809  0.00  0.00    -0.258 OA
ATOM     26  C   UNL     1      38.558 -26.473 -14.366  0.00  0.00    +0.129 C 
BRANCH  24  27
ATOM     27  O   UNL     1      40.376 -25.874 -16.235  0.00  0.00    -0.323 OA
ATOM     28  H   UNL     1      40.310 -25.206 -16.936  0.00  0.00    +0.220 HD
ENDBRANCH  24  27
ENDBRANCH  23  24
ENDBRANCH  22  23
ENDBRANCH   5  22
TORSDOF 7
ENDMDL
MODEL 8
REMARK VINA RESULT:      -8.2      2.038      3.159
REMARK  Name = 445093
REMARK  7 active torsions:
REMARK  status: ('A' for Active; 'I' for Inactive)
REMARK    1  A    between atoms: C_2  and  O_18
REMARK    2  A    between atoms: C_3  and  O_20
REMARK    3  A    between atoms: C_4  and  N_6
REMARK    4  A    between atoms: C_5  and  C_22
REMARK    5  A    between atoms: C_22  and  O_23
REMARK    6  A    between atoms: O_23  and  P_24
REMARK    7  A    between atoms: P_24  and  O_27
REMARK                            x       y       z     vdW  Elec       q    Type
REMARK                         _______ _______ _______ _____ _____    ______ ____
ROOT
ATOM      1  O   UNL     1      31.595 -24.009 -16.038  0.00  0.00    -0.333 OA
ATOM      2  C   UNL     1      32.443 -23.241 -13.966  0.00  0.00    +0.187 C 
ATOM      3  C   UNL     1      30.979 -23.583 -13.779  0.00  0.00    +0.171 C 
ATOM      4  C   UNL     1      32.781 -24.030 -15.222  0.00  0.00    +0.225 C 
ATOM      5  C   UNL     1      30.469 -23.624 -15.216  0.00  0.00    +0.176 C 
ENDROOT
BRANCH   4   6
ATOM      6  N   UNL     1      33.909 -23.492 -15.978  0.00  0.00    -0.247 N 
ATOM      7  N   UNL     1      36.013 -22.945 -16.479  0.00  0.00    -0.242 NA
ATOM      8  N   UNL     1      32.781 -22.652 -17.959  0.00  0.00    -0.228 NA
ATOM      9  N   UNL     1      34.362 -21.645 -19.522  0.00  0.00    -0.229 NA
ATOM     10  C   UNL     1      33.863 -22.883 -17.202  0.00  0.00    +0.152 C 
ATOM     11  C   UNL     1      35.223 -23.505 -15.587  0.00  0.00    +0.223 C 
ATOM     12  C   UNL     1      35.177 -22.553 -17.493  0.00  0.00    +0.140 C 
ATOM     13  C   UNL     1      35.409 -21.910 -18.706  0.00  0.00    +0.143 C 
ATOM     14  C   UNL     1      33.130 -22.026 -19.104  0.00  0.00    +0.253 C 
ATOM     15  N   UNL     1      36.711 -21.540 -19.084  0.00  0.00    -0.342 N 
ATOM     16  H   UNL     1      36.865 -21.085 -19.943  0.00  0.00    +0.144 HD
ATOM     17  H   UNL     1      37.471 -21.735 -18.488  0.00  0.00    +0.144 HD
ENDBRANCH   4   6
BRANCH   2  18
ATOM     18  O   UNL     1      33.247 -23.628 -12.870  0.00  0.00    -0.378 OA
ATOM     19  H   UNL     1      33.825 -22.891 -12.616  0.00  0.00    +0.211 HD
ENDBRANCH   2  18
BRANCH   3  20
ATOM     20  O   UNL     1      30.863 -24.888 -13.211  0.00  0.00    -0.379 OA
ATOM     21  H   UNL     1      30.326 -24.843 -12.405  0.00  0.00    +0.211 HD
ENDBRANCH   3  20
BRANCH   5  22
ATOM     22  C   UNL     1      29.957 -22.276 -15.704  0.00  0.00    +0.183 C 
BRANCH  22  23
ATOM     23  O   UNL     1      29.364 -22.450 -16.979  0.00  0.00    -0.291 OA
BRANCH  23  24
ATOM     24  P   UNL     1      27.857 -23.018 -17.125  0.00  0.00    +0.341 P 
ATOM     25  O   UNL     1      27.768 -24.513 -17.215  0.00  0.00    -0.258 OA
ATOM     26  C   UNL     1      26.948 -22.328 -15.757  0.00  0.00    +0.129 C 
BRANCH  24  27
ATOM     27  O   UNL     1      27.260 -22.243 -18.413  0.00  0.00    -0.323 OA
ATOM     28  H   UNL     1      27.908 -21.593 -18.728  0.00  0.00    +0.220 HD
ENDBRANCH  24  27
ENDBRANCH  23  24
ENDBRANCH  22  23
ENDBRANCH   5  22
TORSDOF 7
ENDMDL
MODEL 9
REMARK VINA RESULT:      -8.2     12.590     14.381
REMARK  Name = 445093
REMARK  7 active torsions:
REMARK  status: ('A' for Active; 'I' for Inactive)
REMARK    1  A    between atoms: C_2  and  O_18
REMARK    2  A    between atoms: C_3  and  O_20
REMARK    3  A    between atoms: C_4  and  N_6
REMARK    4  A    between atoms: C_5  and  C_22
REMARK    5  A    between atoms: C_22  and  O_23
REMARK    6  A    between atoms: O_23  and  P_24
REMARK    7  A    between atoms: P_24  and  O_27
REMARK                            x       y       z     vdW  Elec       q    Type
REMARK                         _______ _______ _______ _____ _____    ______ ____
ROOT
ATOM      1  O   UNL     1      32.129 -14.318 -22.125  0.00  0.00    -0.333 OA
ATOM      2  C   UNL     1      33.685 -13.067 -23.398  0.00  0.00    +0.187 C 
ATOM      3  C   UNL     1      33.794 -14.521 -23.814  0.00  0.00    +0.171 C 
ATOM      4  C   UNL     1      32.304 -13.038 -22.760  0.00  0.00    +0.225 C 
ATOM      5  C   UNL     1      33.105 -15.242 -22.659  0.00  0.00    +0.176 C 
ENDROOT
BRANCH   4   6
ATOM      6  N   UNL     1      32.125 -11.971 -21.778  0.00  0.00    -0.247 N 
ATOM      7  N   UNL     1      31.734 -10.989 -19.813  0.00  0.00    -0.242 NA
ATOM      8  N   UNL     1      32.470 -10.005 -23.162  0.00  0.00    -0.228 NA
ATOM      9  N   UNL     1      32.250  -7.952 -21.861  0.00  0.00    -0.229 NA
ATOM     10  C   UNL     1      32.209 -10.625 -22.002  0.00  0.00    +0.152 C 
ATOM     11  C   UNL     1      31.838 -12.138 -20.448  0.00  0.00    +0.223 C 
ATOM     12  C   UNL     1      31.964 -10.035 -20.773  0.00  0.00    +0.140 C 
ATOM     13  C   UNL     1      31.991  -8.644 -20.726  0.00  0.00    +0.143 C 
ATOM     14  C   UNL     1      32.470  -8.665 -22.992  0.00  0.00    +0.253 C 
ATOM     15  N   UNL     1      31.757  -7.963 -19.519  0.00  0.00    -0.342 N 
ATOM     16  H   UNL     1      31.778  -6.978 -19.498  0.00  0.00    +0.144 HD
ATOM     17  H   UNL     1      31.570  -8.469 -18.696  0.00  0.00    +0.144 HD
ENDBRANCH   4   6
BRANCH   2  18
ATOM     18  O   UNL     1      33.781 -12.171 -24.486  0.00  0.00    -0.378 OA
ATOM     19  H   UNL     1      34.608 -12.334 -24.967  0.00  0.00    +0.211 HD
ENDBRANCH   2  18
BRANCH   3  20
ATOM     20  O   UNL     1      33.038 -14.733 -25.006  0.00  0.00    -0.379 OA
ATOM     21  H   UNL     1      32.631 -15.613 -24.979  0.00  0.00    +0.211 HD
ENDBRANCH   3  20
BRANCH   5  22
ATOM     22  C   UNL     1      34.065 -15.626 -21.542  0.00  0.00    +0.183 C 
BRANCH  22  23
ATOM     23  O   UNL     1      33.983 -17.025 -21.334  0.00  0.00    -0.291 OA
BRANCH  23  24
ATOM     24  P   UNL     1      35.207 -17.999 -21.741  0.00  0.00    +0.341 P 
ATOM     25  O   UNL     1      36.065 -18.426 -20.586  0.00  0.00    -0.258 OA
ATOM     26  C   UNL     1      34.467 -19.358 -22.625  0.00  0.00    +0.129 C 
BRANCH  24  27
ATOM     27  O   UNL     1      36.003 -17.183 -22.889  0.00  0.00    -0.323 OA
ATOM     28  H   UNL     1      36.950 -17.390 -22.834  0.00  0.00    +0.220 HD
ENDBRANCH  24  27
ENDBRANCH  23  24
ENDBRANCH  22  23
ENDBRANCH   5  22
TORSDOF 7
ENDMDL
