MODEL 1
REMARK VINA RESULT:      -7.8      0.000      0.000
REMARK  Name = 6257
REMARK  4 active torsions:
REMARK  status: ('A' for Active; 'I' for Inactive)
REMARK    1  A    between atoms: O_1  and  C_2
REMARK    2  A    between atoms: O_1  and  C_10
REMARK    3  A    between atoms: C_3  and  O_8
REMARK    4  A    between atoms: C_10  and  C_14
REMARK                            x       y       z     vdW  Elec       q    Type
REMARK                         _______ _______ _______ _____ _____    ______ ____
ROOT
ATOM      1  O   UNL     1      34.844 -19.252 -20.380  0.00  0.00    -0.468 OA
ENDROOT
BRANCH   1   2
ATOM      2  C   UNL     1      34.906 -18.609 -21.591  0.00  0.00    +0.172 C 
ATOM      3  C   UNL     1      35.047 -17.227 -21.641  0.00  0.00    +0.172 C 
ATOM      4  C   UNL     1      34.827 -19.358 -22.759  0.00  0.00    +0.040 C 
ATOM      5  C   UNL     1      35.108 -16.585 -22.877  0.00  0.00    +0.040 C 
ATOM      6  C   UNL     1      34.888 -18.715 -23.995  0.00  0.00    +0.003 C 
ATOM      7  C   UNL     1      35.029 -17.329 -24.054  0.00  0.00    +0.003 C 
BRANCH   3   8
ATOM      8  O   UNL     1      35.122 -16.490 -20.497  0.00  0.00    -0.468 OA
ATOM      9  C   UNL     1      34.512 -15.201 -20.516  0.00  0.00    +0.253 C 
ENDBRANCH   3   8
ENDBRANCH   1   2
BRANCH   1  10
ATOM     10  C   UNL     1      35.591 -20.450 -20.249  0.00  0.00    +0.251 C 
BRANCH  10  14
ATOM     11  O   UNL     1      35.079 -22.434 -18.969  0.00  0.00    -0.433 OA
ATOM     12  O   UNL     1      34.033 -23.627 -17.315  0.00  0.00    -0.226 OA
ATOM     13  N   UNL     1      32.884 -22.117 -18.658  0.00  0.00    -0.267 N 
ATOM     14  C   UNL     1      34.626 -21.605 -20.058  0.00  0.00    +0.233 C 
ATOM     15  C   UNL     1      33.233 -21.166 -19.661  0.00  0.00    +0.140 C 
ATOM     16  C   UNL     1      33.990 -22.810 -18.224  0.00  0.00    +0.402 C 
ATOM     17  H   UNL     1      31.970 -22.259 -18.321  0.00  0.00    +0.153 HD
ENDBRANCH  10  14
ENDBRANCH   1  10
TORSDOF 4
ENDMDL
MODEL 2
REMARK VINA RESULT:      -7.8      3.547      7.667
REMARK  Name = 6257
REMARK  4 active torsions:
REMARK  status: ('A' for Active; 'I' for Inactive)
REMARK    1  A    between atoms: O_1  and  C_2
REMARK    2  A    between atoms: O_1  and  C_10
REMARK    3  A    between atoms: C_3  and  O_8
REMARK    4  A    between atoms: C_10  and  C_14
REMARK                            x       y       z     vdW  Elec       q    Type
REMARK                         _______ _______ _______ _____ _____    ______ ____
ROOT
ATOM      1  O   UNL     1      32.138 -22.771 -17.692  0.00  0.00    -0.468 OA
ENDROOT
BRANCH   1   2
ATOM      2  C   UNL     1      31.657 -23.024 -16.431  0.00  0.00    +0.172 C 
ATOM      3  C   UNL     1      30.300 -22.898 -16.164  0.00  0.00    +0.172 C 
ATOM      4  C   UNL     1      32.547 -23.405 -15.434  0.00  0.00    +0.040 C 
ATOM      5  C   UNL     1      29.824 -23.156 -14.879  0.00  0.00    +0.040 C 
ATOM      6  C   UNL     1      32.070 -23.663 -14.148  0.00  0.00    +0.003 C 
ATOM      7  C   UNL     1      30.709 -23.539 -13.871  0.00  0.00    +0.003 C 
BRANCH   3   8
ATOM      8  O   UNL     1      29.426 -22.522 -17.140  0.00  0.00    -0.468 OA
ATOM      9  C   UNL     1      28.134 -23.124 -17.119  0.00  0.00    +0.253 C 
ENDBRANCH   3   8
ENDBRANCH   1   2
BRANCH   1  10
ATOM     10  C   UNL     1      33.479 -23.148 -17.957  0.00  0.00    +0.251 C 
BRANCH  10  14
ATOM     11  O   UNL     1      32.868 -21.654 -19.754  0.00  0.00    -0.433 OA
ATOM     12  O   UNL     1      32.845 -19.657 -20.879  0.00  0.00    -0.226 OA
ATOM     13  N   UNL     1      34.799 -20.543 -19.983  0.00  0.00    -0.267 N 
ATOM     14  C   UNL     1      33.906 -22.533 -19.276  0.00  0.00    +0.233 C 
ATOM     15  C   UNL     1      35.135 -21.658 -19.161  0.00  0.00    +0.140 C 
ATOM     16  C   UNL     1      33.454 -20.527 -20.272  0.00  0.00    +0.402 C 
ATOM     17  H   UNL     1      35.446 -19.873 -20.303  0.00  0.00    +0.153 HD
ENDBRANCH  10  14
ENDBRANCH   1  10
TORSDOF 4
ENDMDL
MODEL 3
REMARK VINA RESULT:      -7.8      3.623      5.991
REMARK  Name = 6257
REMARK  4 active torsions:
REMARK  status: ('A' for Active; 'I' for Inactive)
REMARK    1  A    between atoms: O_1  and  C_2
REMARK    2  A    between atoms: O_1  and  C_10
REMARK    3  A    between atoms: C_3  and  O_8
REMARK    4  A    between atoms: C_10  and  C_14
REMARK                            x       y       z     vdW  Elec       q    Type
REMARK                         _______ _______ _______ _____ _____    ______ ____
ROOT
ATOM      1  O   UNL     1      32.123 -22.842 -17.799  0.00  0.00    -0.468 OA
ENDROOT
BRANCH   1   2
ATOM      2  C   UNL     1      33.407 -22.466 -18.106  0.00  0.00    +0.172 C 
ATOM      3  C   UNL     1      33.668 -21.762 -19.274  0.00  0.00    +0.172 C 
ATOM      4  C   UNL     1      34.435 -22.799 -17.231  0.00  0.00    +0.040 C 
ATOM      5  C   UNL     1      34.977 -21.386 -19.575  0.00  0.00    +0.040 C 
ATOM      6  C   UNL     1      35.744 -22.423 -17.532  0.00  0.00    +0.003 C 
ATOM      7  C   UNL     1      36.014 -21.716 -18.704  0.00  0.00    +0.003 C 
BRANCH   3   8
ATOM      8  O   UNL     1      32.662 -21.436 -20.134  0.00  0.00    -0.468 OA
ATOM      9  C   UNL     1      32.755 -20.172 -20.789  0.00  0.00    +0.253 C 
ENDBRANCH   3   8
ENDBRANCH   1   2
BRANCH   1  10
ATOM     10  C   UNL     1      31.885 -23.305 -16.481  0.00  0.00    +0.251 C 
BRANCH  10  14
ATOM     11  O   UNL     1      29.669 -22.704 -17.232  0.00  0.00    -0.433 OA
ATOM     12  O   UNL     1      27.465 -23.095 -17.723  0.00  0.00    -0.226 OA
ATOM     13  N   UNL     1      28.451 -23.888 -15.772  0.00  0.00    -0.267 N 
ATOM     14  C   UNL     1      30.491 -22.881 -16.061  0.00  0.00    +0.233 C 
ATOM     15  C   UNL     1      29.770 -23.923 -15.232  0.00  0.00    +0.140 C 
ATOM     16  C   UNL     1      28.424 -23.219 -16.974  0.00  0.00    +0.402 C 
ATOM     17  H   UNL     1      27.663 -24.290 -15.341  0.00  0.00    +0.153 HD
ENDBRANCH  10  14
ENDBRANCH   1  10
TORSDOF 4
ENDMDL
MODEL 4
REMARK VINA RESULT:      -7.6      5.187      8.133
REMARK  Name = 6257
REMARK  4 active torsions:
REMARK  status: ('A' for Active; 'I' for Inactive)
REMARK    1  A    between atoms: O_1  and  C_2
REMARK    2  A    between atoms: O_1  and  C_10
REMARK    3  A    between atoms: C_3  and  O_8
REMARK    4  A    between atoms: C_10  and  C_14
REMARK                            x       y       z     vdW  Elec       q    Type
REMARK                         _______ _______ _______ _____ _____    ______ ____
ROOT
ATOM      1  O   UNL     1      35.835 -23.711 -16.012  0.00  0.00    -0.468 OA
ENDROOT
BRANCH   1   2
ATOM      2  C   UNL     1      34.478 -23.548 -15.879  0.00  0.00    +0.172 C 
ATOM      3  C   UNL     1      33.690 -23.317 -17.000  0.00  0.00    +0.172 C 
ATOM      4  C   UNL     1      33.910 -23.618 -14.613  0.00  0.00    +0.040 C 
ATOM      5  C   UNL     1      32.313 -23.152 -16.852  0.00  0.00    +0.040 C 
ATOM      6  C   UNL     1      32.533 -23.453 -14.465  0.00  0.00    +0.003 C 
ATOM      7  C   UNL     1      31.735 -23.220 -15.585  0.00  0.00    +0.003 C 
BRANCH   3   8
ATOM      8  O   UNL     1      34.244 -23.246 -18.243  0.00  0.00    -0.468 OA
ATOM      9  C   UNL     1      33.758 -22.225 -19.111  0.00  0.00    +0.253 C 
ENDBRANCH   3   8
ENDBRANCH   1   2
BRANCH   1  10
ATOM     10  C   UNL     1      36.584 -23.861 -14.818  0.00  0.00    +0.251 C 
BRANCH  10  14
ATOM     11  O   UNL     1      38.925 -24.367 -15.141  0.00  0.00    -0.433 OA
ATOM     12  O   UNL     1      41.028 -24.982 -14.473  0.00  0.00    -0.226 OA
ATOM     13  N   UNL     1      39.126 -26.097 -13.734  0.00  0.00    -0.267 N 
ATOM     14  C   UNL     1      37.614 -24.956 -15.025  0.00  0.00    +0.233 C 
ATOM     15  C   UNL     1      37.718 -25.912 -13.857  0.00  0.00    +0.140 C 
ATOM     16  C   UNL     1      39.816 -25.145 -14.448  0.00  0.00    +0.402 C 
ATOM     17  H   UNL     1      39.549 -26.813 -13.207  0.00  0.00    +0.153 HD
ENDBRANCH  10  14
ENDBRANCH   1  10
TORSDOF 4
ENDMDL
MODEL 5
REMARK VINA RESULT:      -7.6      5.125      7.943
REMARK  Name = 6257
REMARK  4 active torsions:
REMARK  status: ('A' for Active; 'I' for Inactive)
REMARK    1  A    between atoms: O_1  and  C_2
REMARK    2  A    between atoms: O_1  and  C_10
REMARK    3  A    between atoms: C_3  and  O_8
REMARK    4  A    between atoms: C_10  and  C_14
REMARK                            x       y       z     vdW  Elec       q    Type
REMARK                         _______ _______ _______ _____ _____    ______ ____
ROOT
ATOM      1  O   UNL     1      35.396 -24.008 -16.143  0.00  0.00    -0.468 OA
ENDROOT
BRANCH   1   2
ATOM      2  C   UNL     1      34.081 -23.659 -15.959  0.00  0.00    +0.172 C 
ATOM      3  C   UNL     1      33.271 -23.389 -17.055  0.00  0.00    +0.172 C 
ATOM      4  C   UNL     1      33.577 -23.582 -14.666  0.00  0.00    +0.040 C 
ATOM      5  C   UNL     1      31.936 -23.036 -16.856  0.00  0.00    +0.040 C 
ATOM      6  C   UNL     1      32.242 -23.229 -14.467  0.00  0.00    +0.003 C 
ATOM      7  C   UNL     1      31.423 -22.956 -15.562  0.00  0.00    +0.003 C 
BRANCH   3   8
ATOM      8  O   UNL     1      33.763 -23.462 -18.324  0.00  0.00    -0.468 OA
ATOM      9  C   UNL     1      33.874 -22.238 -19.047  0.00  0.00    +0.253 C 
ENDBRANCH   3   8
ENDBRANCH   1   2
BRANCH   1  10
ATOM     10  C   UNL     1      36.332 -23.500 -15.207  0.00  0.00    +0.251 C 
BRANCH  10  14
ATOM     11  O   UNL     1      37.128 -24.691 -13.261  0.00  0.00    -0.433 OA
ATOM     12  O   UNL     1      37.109 -26.371 -11.703  0.00  0.00    -0.226 OA
ATOM     13  N   UNL     1      36.839 -26.795 -13.973  0.00  0.00    -0.267 N 
ATOM     14  C   UNL     1      37.184 -24.649 -14.701  0.00  0.00    +0.233 C 
ATOM     15  C   UNL     1      36.691 -26.007 -15.151  0.00  0.00    +0.140 C 
ATOM     16  C   UNL     1      37.036 -26.001 -12.866  0.00  0.00    +0.402 C 
ATOM     17  H   UNL     1      36.805 -27.779 -13.954  0.00  0.00    +0.153 HD
ENDBRANCH  10  14
ENDBRANCH   1  10
TORSDOF 4
ENDMDL
MODEL 6
REMARK VINA RESULT:      -7.5      5.228      7.227
REMARK  Name = 6257
REMARK  4 active torsions:
REMARK  status: ('A' for Active; 'I' for Inactive)
REMARK    1  A    between atoms: O_1  and  C_2
REMARK    2  A    between atoms: O_1  and  C_10
REMARK    3  A    between atoms: C_3  and  O_8
REMARK    4  A    between atoms: C_10  and  C_14
REMARK                            x       y       z     vdW  Elec       q    Type
REMARK                         _______ _______ _______ _____ _____    ______ ____
ROOT
ATOM      1  O   UNL     1      35.012 -15.108 -23.365  0.00  0.00    -0.468 OA
ENDROOT
BRANCH   1   2
ATOM      2  C   UNL     1      34.906 -16.453 -23.617  0.00  0.00    +0.172 C 
ATOM      3  C   UNL     1      34.605 -16.902 -24.897  0.00  0.00    +0.172 C 
ATOM      4  C   UNL     1      35.103 -17.353 -22.576  0.00  0.00    +0.040 C 
ATOM      5  C   UNL     1      34.498 -18.272 -25.140  0.00  0.00    +0.040 C 
ATOM      6  C   UNL     1      34.997 -18.722 -22.820  0.00  0.00    +0.003 C 
ATOM      7  C   UNL     1      34.694 -19.181 -24.102  0.00  0.00    +0.003 C 
BRANCH   3   8
ATOM      8  O   UNL     1      34.408 -16.022 -25.919  0.00  0.00    -0.468 OA
ATOM      9  C   UNL     1      33.098 -15.477 -26.061  0.00  0.00    +0.253 C 
ENDBRANCH   3   8
ENDBRANCH   1   2
BRANCH   1  10
ATOM     10  C   UNL     1      34.339 -14.613 -22.220  0.00  0.00    +0.251 C 
BRANCH  10  14
ATOM     11  O   UNL     1      32.319 -13.495 -21.511  0.00  0.00    -0.433 OA
ATOM     12  O   UNL     1      31.021 -11.676 -21.001  0.00  0.00    -0.226 OA
ATOM     13  N   UNL     1      32.365 -11.735 -22.897  0.00  0.00    -0.267 N 
ATOM     14  C   UNL     1      33.076 -13.903 -22.668  0.00  0.00    +0.233 C 
ATOM     15  C   UNL     1      33.343 -12.624 -23.431  0.00  0.00    +0.140 C 
ATOM     16  C   UNL     1      31.818 -12.238 -21.739  0.00  0.00    +0.402 C 
ATOM     17  H   UNL     1      32.114 -10.875 -23.304  0.00  0.00    +0.153 HD
ENDBRANCH  10  14
ENDBRANCH   1  10
TORSDOF 4
ENDMDL
MODEL 7
REMARK VINA RESULT:      -7.5      1.738      2.656
REMARK  Name = 6257
REMARK  4 active torsions:
REMARK  status: ('A' for Active; 'I' for Inactive)
REMARK    1  A    between atoms: O_1  and  C_2
REMARK    2  A    between atoms: O_1  and  C_10
REMARK    3  A    between atoms: C_3  and  O_8
REMARK    4  A    between atoms: C_10  and  C_14
REMARK                            x       y       z     vdW  Elec       q    Type
REMARK                         _______ _______ _______ _____ _____    ______ ____
ROOT
ATOM      1  O   UNL     1      35.558 -18.188 -23.114  0.00  0.00    -0.468 OA
ENDROOT
BRANCH   1   2
ATOM      2  C   UNL     1      34.900 -17.103 -23.635  0.00  0.00    +0.172 C 
ATOM      3  C   UNL     1      34.598 -16.014 -22.827  0.00  0.00    +0.172 C 
ATOM      4  C   UNL     1      34.542 -17.111 -24.979  0.00  0.00    +0.040 C 
ATOM      5  C   UNL     1      33.928 -14.917 -23.368  0.00  0.00    +0.040 C 
ATOM      6  C   UNL     1      33.872 -16.014 -25.520  0.00  0.00    +0.003 C 
ATOM      7  C   UNL     1      33.565 -14.918 -24.714  0.00  0.00    +0.003 C 
BRANCH   3   8
ATOM      8  O   UNL     1      34.945 -16.004 -21.509  0.00  0.00    -0.468 OA
ATOM      9  C   UNL     1      34.515 -14.887 -20.734  0.00  0.00    +0.253 C 
ENDBRANCH   3   8
ENDBRANCH   1   2
BRANCH   1  10
ATOM     10  C   UNL     1      34.772 -19.321 -22.785  0.00  0.00    +0.251 C 
BRANCH  10  14
ATOM     11  O   UNL     1      33.366 -19.938 -20.920  0.00  0.00    -0.433 OA
ATOM     12  O   UNL     1      32.592 -21.332 -19.274  0.00  0.00    -0.226 OA
ATOM     13  N   UNL     1      34.864 -21.049 -19.680  0.00  0.00    -0.267 N 
ATOM     14  C   UNL     1      34.661 -19.415 -21.275  0.00  0.00    +0.233 C 
ATOM     15  C   UNL     1      35.653 -20.377 -20.658  0.00  0.00    +0.140 C 
ATOM     16  C   UNL     1      33.522 -20.826 -19.887  0.00  0.00    +0.402 C 
ATOM     17  H   UNL     1      35.232 -21.601 -18.952  0.00  0.00    +0.153 HD
ENDBRANCH  10  14
ENDBRANCH   1  10
TORSDOF 4
ENDMDL
MODEL 8
REMARK VINA RESULT:      -7.5      1.733      2.962
REMARK  Name = 6257
REMARK  4 active torsions:
REMARK  status: ('A' for Active; 'I' for Inactive)
REMARK    1  A    between atoms: O_1  and  C_2
REMARK    2  A    between atoms: O_1  and  C_10
REMARK    3  A    between atoms: C_3  and  O_8
REMARK    4  A    between atoms: C_10  and  C_14
REMARK                            x       y       z     vdW  Elec       q    Type
REMARK                         _______ _______ _______ _____ _____    ______ ____
ROOT
ATOM      1  O   UNL     1      35.561 -18.406 -22.095  0.00  0.00    -0.468 OA
ENDROOT
BRANCH   1   2
ATOM      2  C   UNL     1      35.126 -17.104 -22.134  0.00  0.00    +0.172 C 
ATOM      3  C   UNL     1      34.979 -16.453 -23.352  0.00  0.00    +0.172 C 
ATOM      4  C   UNL     1      34.837 -16.454 -20.940  0.00  0.00    +0.040 C 
ATOM      5  C   UNL     1      34.537 -15.131 -23.378  0.00  0.00    +0.040 C 
ATOM      6  C   UNL     1      34.395 -15.131 -20.966  0.00  0.00    +0.003 C 
ATOM      7  C   UNL     1      34.245 -14.470 -22.185  0.00  0.00    +0.003 C 
BRANCH   3   8
ATOM      8  O   UNL     1      35.264 -17.089 -24.523  0.00  0.00    -0.468 OA
ATOM      9  C   UNL     1      34.166 -17.654 -25.237  0.00  0.00    +0.253 C 
ENDBRANCH   3   8
ENDBRANCH   1   2
BRANCH   1  10
ATOM     10  C   UNL     1      34.573 -19.410 -21.933  0.00  0.00    +0.251 C 
BRANCH  10  14
ATOM     11  O   UNL     1      33.353 -20.528 -20.173  0.00  0.00    -0.433 OA
ATOM     12  O   UNL     1      32.740 -22.323 -18.887  0.00  0.00    -0.226 OA
ATOM     13  N   UNL     1      34.962 -21.890 -19.416  0.00  0.00    -0.267 N 
ATOM     14  C   UNL     1      34.609 -19.899 -20.497  0.00  0.00    +0.233 C 
ATOM     15  C   UNL     1      35.654 -20.966 -20.252  0.00  0.00    +0.140 C 
ATOM     16  C   UNL     1      33.607 -21.652 -19.430  0.00  0.00    +0.402 C 
ATOM     17  H   UNL     1      35.397 -22.605 -18.897  0.00  0.00    +0.153 HD
ENDBRANCH  10  14
ENDBRANCH   1  10
TORSDOF 4
ENDMDL
MODEL 9
REMARK VINA RESULT:      -7.5      5.394      7.815
REMARK  Name = 6257
REMARK  4 active torsions:
REMARK  status: ('A' for Active; 'I' for Inactive)
REMARK    1  A    between atoms: O_1  and  C_2
REMARK    2  A    between atoms: O_1  and  C_10
REMARK    3  A    between atoms: C_3  and  O_8
REMARK    4  A    between atoms: C_10  and  C_14
REMARK                            x       y       z     vdW  Elec       q    Type
REMARK                         _______ _______ _______ _____ _____    ______ ____
ROOT
ATOM      1  O   UNL     1      34.336 -15.884 -25.838  0.00  0.00    -0.468 OA
ENDROOT
BRANCH   1   2
ATOM      2  C   UNL     1      34.570 -16.850 -24.892  0.00  0.00    +0.172 C 
ATOM      3  C   UNL     1      34.941 -16.490 -23.602  0.00  0.00    +0.172 C 
ATOM      4  C   UNL     1      34.430 -18.188 -25.243  0.00  0.00    +0.040 C 
ATOM      5  C   UNL     1      35.177 -17.481 -22.650  0.00  0.00    +0.040 C 
ATOM      6  C   UNL     1      34.665 -19.179 -24.291  0.00  0.00    +0.003 C 
ATOM      7  C   UNL     1      35.039 -18.825 -22.994  0.00  0.00    +0.003 C 
BRANCH   3   8
ATOM      8  O   UNL     1      35.082 -15.179 -23.256  0.00  0.00    -0.468 OA
ATOM      9  C   UNL     1      34.473 -14.764 -22.035  0.00  0.00    +0.253 C 
ENDBRANCH   3   8
ENDBRANCH   1   2
BRANCH   1  10
ATOM     10  C   UNL     1      32.993 -15.703 -26.254  0.00  0.00    +0.251 C 
BRANCH  10  14
ATOM     11  O   UNL     1      33.010 -13.711 -24.888  0.00  0.00    -0.433 OA
ATOM     12  O   UNL     1      33.858 -11.725 -24.122  0.00  0.00    -0.226 OA
ATOM     13  N   UNL     1      33.789 -12.242 -26.388  0.00  0.00    -0.267 N 
ATOM     14  C   UNL     1      32.657 -14.226 -26.188  0.00  0.00    +0.233 C 
ATOM     15  C   UNL     1      33.448 -13.385 -27.167  0.00  0.00    +0.140 C 
ATOM     16  C   UNL     1      33.580 -12.474 -25.048  0.00  0.00    +0.402 C 
ATOM     17  H   UNL     1      34.130 -11.396 -26.760  0.00  0.00    +0.153 HD
ENDBRANCH  10  14
ENDBRANCH   1  10
TORSDOF 4
ENDMDL
