MODEL 1
REMARK VINA RESULT:      -5.5      0.000      0.000
REMARK  Name = 4362
REMARK  1 active torsions:
REMARK  status: ('A' for Active; 'I' for Inactive)
REMARK    1  A    between atoms: N_3  and  C_8
REMARK                            x       y       z     vdW  Elec       q    Type
REMARK                         _______ _______ _______ _____ _____    ______ ____
ROOT
ATOM      1  O   UNL     1      33.018 -22.111 -19.483  0.00  0.00    -0.269 OA
ATOM      2  O   UNL     1      36.054 -19.081 -21.155  0.00  0.00    -0.269 OA
ATOM      3  N   UNL     1      34.870 -20.867 -20.205  0.00  0.00    -0.223 N 
ATOM      4  C   UNL     1      33.545 -21.133 -19.989  0.00  0.00    +0.255 C 
ATOM      5  C   UNL     1      35.033 -19.650 -20.808  0.00  0.00    +0.255 C 
ATOM      6  C   UNL     1      32.802 -19.972 -20.503  0.00  0.00    +0.063 C 
ATOM      7  C   UNL     1      33.683 -19.095 -20.988  0.00  0.00    +0.063 C 
ENDROOT
BRANCH   3   8
ATOM      8  C   UNL     1      35.956 -21.756 -19.842  0.00  0.00    +0.102 C 
ATOM      9  C   UNL     1      36.401 -21.533 -18.413  0.00  0.00    +0.024 C 
ENDBRANCH   3   8
TORSDOF 1
ENDMDL
MODEL 2
REMARK VINA RESULT:      -5.5      0.063      2.498
REMARK  Name = 4362
REMARK  1 active torsions:
REMARK  status: ('A' for Active; 'I' for Inactive)
REMARK    1  A    between atoms: N_3  and  C_8
REMARK                            x       y       z     vdW  Elec       q    Type
REMARK                         _______ _______ _______ _____ _____    ______ ____
ROOT
ATOM      1  O   UNL     1      36.097 -19.059 -21.123  0.00  0.00    -0.269 OA
ATOM      2  O   UNL     1      33.084 -22.121 -19.466  0.00  0.00    -0.269 OA
ATOM      3  N   UNL     1      34.927 -20.858 -20.180  0.00  0.00    -0.223 N 
ATOM      4  C   UNL     1      35.079 -19.643 -20.792  0.00  0.00    +0.255 C 
ATOM      5  C   UNL     1      33.604 -21.144 -19.979  0.00  0.00    +0.255 C 
ATOM      6  C   UNL     1      33.721 -19.113 -20.998  0.00  0.00    +0.063 C 
ATOM      7  C   UNL     1      32.850 -20.001 -20.517  0.00  0.00    +0.063 C 
ENDROOT
BRANCH   3   8
ATOM      8  C   UNL     1      36.022 -21.726 -19.796  0.00  0.00    +0.102 C 
ATOM      9  C   UNL     1      36.410 -21.522 -18.347  0.00  0.00    +0.024 C 
ENDBRANCH   3   8
TORSDOF 1
ENDMDL
MODEL 3
REMARK VINA RESULT:      -5.3      1.450      3.431
REMARK  Name = 4362
REMARK  1 active torsions:
REMARK  status: ('A' for Active; 'I' for Inactive)
REMARK    1  A    between atoms: N_3  and  C_8
REMARK                            x       y       z     vdW  Elec       q    Type
REMARK                         _______ _______ _______ _____ _____    ______ ____
ROOT
ATOM      1  O   UNL     1      36.912 -20.315 -20.249  0.00  0.00    -0.269 OA
ATOM      2  O   UNL     1      32.318 -20.300 -20.553  0.00  0.00    -0.269 OA
ATOM      3  N   UNL     1      34.634 -19.946 -20.660  0.00  0.00    -0.223 N 
ATOM      4  C   UNL     1      35.727 -20.576 -20.129  0.00  0.00    +0.255 C 
ATOM      5  C   UNL     1      33.476 -20.568 -20.279  0.00  0.00    +0.255 C 
ATOM      6  C   UNL     1      35.208 -21.702 -19.337  0.00  0.00    +0.063 C 
ATOM      7  C   UNL     1      33.877 -21.697 -19.426  0.00  0.00    +0.063 C 
ENDROOT
BRANCH   3   8
ATOM      8  C   UNL     1      34.695 -18.775 -21.512  0.00  0.00    +0.102 C 
ATOM      9  C   UNL     1      34.863 -19.156 -22.967  0.00  0.00    +0.024 C 
ENDBRANCH   3   8
TORSDOF 1
ENDMDL
MODEL 4
REMARK VINA RESULT:      -5.3      1.460      2.796
REMARK  Name = 4362
REMARK  1 active torsions:
REMARK  status: ('A' for Active; 'I' for Inactive)
REMARK    1  A    between atoms: N_3  and  C_8
REMARK                            x       y       z     vdW  Elec       q    Type
REMARK                         _______ _______ _______ _____ _____    ______ ____
ROOT
ATOM      1  O   UNL     1      32.318 -20.262 -20.585  0.00  0.00    -0.269 OA
ATOM      2  O   UNL     1      36.904 -20.336 -20.183  0.00  0.00    -0.269 OA
ATOM      3  N   UNL     1      34.640 -19.940 -20.646  0.00  0.00    -0.223 N 
ATOM      4  C   UNL     1      33.466 -20.551 -20.292  0.00  0.00    +0.255 C 
ATOM      5  C   UNL     1      35.714 -20.586 -20.096  0.00  0.00    +0.255 C 
ATOM      6  C   UNL     1      33.837 -21.691 -19.440  0.00  0.00    +0.063 C 
ATOM      7  C   UNL     1      35.166 -21.711 -19.324  0.00  0.00    +0.063 C 
ENDROOT
BRANCH   3   8
ATOM      8  C   UNL     1      34.732 -18.766 -21.491  0.00  0.00    +0.102 C 
ATOM      9  C   UNL     1      34.917 -19.144 -22.946  0.00  0.00    +0.024 C 
ENDBRANCH   3   8
TORSDOF 1
ENDMDL
MODEL 5
REMARK VINA RESULT:      -5.3      2.848      3.893
REMARK  Name = 4362
REMARK  1 active torsions:
REMARK  status: ('A' for Active; 'I' for Inactive)
REMARK    1  A    between atoms: N_3  and  C_8
REMARK                            x       y       z     vdW  Elec       q    Type
REMARK                         _______ _______ _______ _____ _____    ______ ____
ROOT
ATOM      1  O   UNL     1      34.909 -19.381 -24.019  0.00  0.00    -0.269 OA
ATOM      2  O   UNL     1      35.131 -16.553 -20.393  0.00  0.00    -0.269 OA
ATOM      3  N   UNL     1      35.034 -18.318 -21.933  0.00  0.00    -0.223 N 
ATOM      4  C   UNL     1      34.949 -18.398 -23.297  0.00  0.00    +0.255 C 
ATOM      5  C   UNL     1      35.058 -17.014 -21.519  0.00  0.00    +0.255 C 
ATOM      6  C   UNL     1      34.914 -17.012 -23.789  0.00  0.00    +0.063 C 
ATOM      7  C   UNL     1      34.979 -16.194 -22.738  0.00  0.00    +0.063 C 
ENDROOT
BRANCH   3   8
ATOM      8  C   UNL     1      35.090 -19.463 -21.046  0.00  0.00    +0.102 C 
ATOM      9  C   UNL     1      33.704 -19.962 -20.696  0.00  0.00    +0.024 C 
ENDBRANCH   3   8
TORSDOF 1
ENDMDL
MODEL 6
REMARK VINA RESULT:      -5.3      3.964      5.485
REMARK  Name = 4362
REMARK  1 active torsions:
REMARK  status: ('A' for Active; 'I' for Inactive)
REMARK    1  A    between atoms: N_3  and  C_8
REMARK                            x       y       z     vdW  Elec       q    Type
REMARK                         _______ _______ _______ _____ _____    ______ ____
ROOT
ATOM      1  O   UNL     1      34.774 -17.614 -21.238  0.00  0.00    -0.269 OA
ATOM      2  O   UNL     1      34.708 -17.086 -25.811  0.00  0.00    -0.269 OA
ATOM      3  N   UNL     1      34.758 -16.908 -23.473  0.00  0.00    -0.223 N 
ATOM      4  C   UNL     1      34.738 -17.808 -22.442  0.00  0.00    +0.255 C 
ATOM      5  C   UNL     1      34.706 -17.547 -24.682  0.00  0.00    +0.255 C 
ATOM      6  C   UNL     1      34.665 -19.141 -23.060  0.00  0.00    +0.063 C 
ATOM      7  C   UNL     1      34.647 -18.986 -24.384  0.00  0.00    +0.063 C 
ENDROOT
BRANCH   3   8
ATOM      8  C   UNL     1      34.824 -15.470 -23.307  0.00  0.00    +0.102 C 
ATOM      9  C   UNL     1      33.442 -14.857 -23.226  0.00  0.00    +0.024 C 
ENDBRANCH   3   8
TORSDOF 1
ENDMDL
MODEL 7
REMARK VINA RESULT:      -5.3      2.869      4.054
REMARK  Name = 4362
REMARK  1 active torsions:
REMARK  status: ('A' for Active; 'I' for Inactive)
REMARK    1  A    between atoms: N_3  and  C_8
REMARK                            x       y       z     vdW  Elec       q    Type
REMARK                         _______ _______ _______ _____ _____    ______ ____
ROOT
ATOM      1  O   UNL     1      35.096 -16.485 -20.384  0.00  0.00    -0.269 OA
ATOM      2  O   UNL     1      34.810 -19.330 -23.993  0.00  0.00    -0.269 OA
ATOM      3  N   UNL     1      34.965 -18.257 -21.913  0.00  0.00    -0.223 N 
ATOM      4  C   UNL     1      35.021 -16.951 -21.509  0.00  0.00    +0.255 C 
ATOM      5  C   UNL     1      34.880 -18.346 -23.276  0.00  0.00    +0.255 C 
ATOM      6  C   UNL     1      34.968 -16.138 -22.735  0.00  0.00    +0.063 C 
ATOM      7  C   UNL     1      34.885 -16.964 -23.779  0.00  0.00    +0.063 C 
ENDROOT
BRANCH   3   8
ATOM      8  C   UNL     1      34.992 -19.396 -21.017  0.00  0.00    +0.102 C 
ATOM      9  C   UNL     1      33.599 -19.925 -20.750  0.00  0.00    +0.024 C 
ENDBRANCH   3   8
TORSDOF 1
ENDMDL
MODEL 8
REMARK VINA RESULT:      -5.3      4.178      5.843
REMARK  Name = 4362
REMARK  1 active torsions:
REMARK  status: ('A' for Active; 'I' for Inactive)
REMARK    1  A    between atoms: N_3  and  C_8
REMARK                            x       y       z     vdW  Elec       q    Type
REMARK                         _______ _______ _______ _____ _____    ______ ____
ROOT
ATOM      1  O   UNL     1      34.394 -16.713 -25.907  0.00  0.00    -0.269 OA
ATOM      2  O   UNL     1      34.971 -17.712 -21.450  0.00  0.00    -0.269 OA
ATOM      3  N   UNL     1      34.691 -16.778 -23.582  0.00  0.00    -0.223 N 
ATOM      4  C   UNL     1      34.541 -17.291 -24.843  0.00  0.00    +0.255 C 
ATOM      5  C   UNL     1      34.824 -17.779 -22.658  0.00  0.00    +0.255 C 
ATOM      6  C   UNL     1      34.586 -18.754 -24.700  0.00  0.00    +0.063 C 
ATOM      7  C   UNL     1      34.753 -19.042 -23.408  0.00  0.00    +0.063 C 
ENDROOT
BRANCH   3   8
ATOM      8  C   UNL     1      34.707 -15.363 -23.268  0.00  0.00    +0.102 C 
ATOM      9  C   UNL     1      33.329 -14.864 -22.889  0.00  0.00    +0.024 C 
ENDBRANCH   3   8
TORSDOF 1
ENDMDL
MODEL 9
REMARK VINA RESULT:      -5.2      4.118      5.644
REMARK  Name = 4362
REMARK  1 active torsions:
REMARK  status: ('A' for Active; 'I' for Inactive)
REMARK    1  A    between atoms: N_3  and  C_8
REMARK                            x       y       z     vdW  Elec       q    Type
REMARK                         _______ _______ _______ _____ _____    ______ ____
ROOT
ATOM      1  O   UNL     1      34.257 -14.746 -23.748  0.00  0.00    -0.269 OA
ATOM      2  O   UNL     1      35.447 -17.919 -20.632  0.00  0.00    -0.269 OA
ATOM      3  N   UNL     1      34.762 -16.045 -21.862  0.00  0.00    -0.223 N 
ATOM      4  C   UNL     1      34.633 -15.767 -23.197  0.00  0.00    +0.255 C 
ATOM      5  C   UNL     1      35.216 -17.321 -21.669  0.00  0.00    +0.255 C 
ATOM      6  C   UNL     1      35.048 -16.984 -23.912  0.00  0.00    +0.063 C 
ATOM      7  C   UNL     1      35.392 -17.902 -23.008  0.00  0.00    +0.063 C 
ENDROOT
BRANCH   3   8
ATOM      8  C   UNL     1      34.457 -15.111 -20.796  0.00  0.00    +0.102 C 
ATOM      9  C   UNL     1      32.983 -15.124 -20.452  0.00  0.00    +0.024 C 
ENDBRANCH   3   8
TORSDOF 1
ENDMDL
