MODEL 1
REMARK VINA RESULT:      -8.3      0.000      0.000
REMARK  Name = 66535
REMARK  8 active torsions:
REMARK  status: ('A' for Active; 'I' for Inactive)
REMARK    1  A    between atoms: C_2  and  O_18
REMARK    2  A    between atoms: C_3  and  O_16
REMARK    3  A    between atoms: C_4  and  C_25
REMARK    4  A    between atoms: C_5  and  N_7
REMARK    5  A    between atoms: O_18  and  P_19
REMARK    6  A    between atoms: P_19  and  O_21
REMARK    7  A    between atoms: P_19  and  O_23
REMARK    8  A    between atoms: C_25  and  O_26
REMARK                            x       y       z     vdW  Elec       q    Type
REMARK                         _______ _______ _______ _____ _____    ______ ____
ROOT
ATOM      1  O   UNL     1      36.031 -23.711 -13.771  0.00  0.00    -0.332 OA
ATOM      2  C   UNL     1      38.009 -24.896 -14.261  0.00  0.00    +0.186 C 
ATOM      3  C   UNL     1      36.895 -25.494 -15.096  0.00  0.00    +0.189 C 
ATOM      4  C   UNL     1      37.239 -24.192 -13.156  0.00  0.00    +0.176 C 
ATOM      5  C   UNL     1      35.818 -24.421 -15.005  0.00  0.00    +0.236 C 
ENDROOT
BRANCH   5   7
ATOM      6  O   UNL     1      33.816 -24.013 -16.947  0.00  0.00    -0.193 OA
ATOM      7  N   UNL     1      35.890 -23.477 -16.088  0.00  0.00    -0.178 N 
ATOM      8  N   UNL     1      34.976 -22.400 -18.044  0.00  0.00    -0.306 NA
ATOM      9  N   UNL     1      36.170 -20.749 -19.165  0.00  0.00    -0.332 N 
ATOM     10  C   UNL     1      37.025 -22.691 -16.211  0.00  0.00    +0.083 C 
ATOM     11  C   UNL     1      34.838 -23.330 -17.027  0.00  0.00    +0.276 C 
ATOM     12  C   UNL     1      37.177 -21.793 -17.182  0.00  0.00    +0.065 C 
ATOM     13  C   UNL     1      36.053 -21.666 -18.146  0.00  0.00    +0.193 C 
ATOM     14  H   UNL     1      35.441 -20.643 -19.818  0.00  0.00    +0.145 HD
ATOM     15  H   UNL     1      36.982 -20.197 -19.239  0.00  0.00    +0.145 HD
ENDBRANCH   5   7
BRANCH   3  16
ATOM     16  O   UNL     1      36.410 -26.706 -14.522  0.00  0.00    -0.378 OA
ATOM     17  H   UNL     1      35.454 -26.774 -14.671  0.00  0.00    +0.211 HD
ENDBRANCH   3  16
BRANCH   2  18
ATOM     18  O   UNL     1      38.909 -25.858 -13.752  0.00  0.00    -0.271 OA
BRANCH  18  19
ATOM     19  P   UNL     1      40.413 -25.880 -14.336  0.00  0.00    +0.473 P 
ATOM     20  O   UNL     1      41.282 -26.988 -13.818  0.00  0.00    -0.227 OA
BRANCH  19  21
ATOM     21  O   UNL     1      40.958 -24.384 -14.056  0.00  0.00    -0.303 OA
ATOM     22  H   UNL     1      41.610 -24.406 -13.338  0.00  0.00    +0.222 HD
ENDBRANCH  19  21
BRANCH  19  23
ATOM     23  O   UNL     1      40.169 -25.893 -15.935  0.00  0.00    -0.303 OA
ATOM     24  H   UNL     1      39.563 -25.175 -16.176  0.00  0.00    +0.222 HD
ENDBRANCH  19  23
ENDBRANCH  18  19
ENDBRANCH   2  18
BRANCH   4  25
ATOM     25  C   UNL     1      37.997 -23.030 -12.541  0.00  0.00    +0.169 C 
BRANCH  25  26
ATOM     26  O   UNL     1      39.024 -23.546 -11.712  0.00  0.00    -0.379 OA
ATOM     27  H   UNL     1      39.335 -22.852 -11.112  0.00  0.00    +0.211 HD
ENDBRANCH  25  26
ENDBRANCH   4  25
TORSDOF 8
ENDMDL
MODEL 2
REMARK VINA RESULT:      -7.9      3.267      5.055
REMARK  Name = 66535
REMARK  8 active torsions:
REMARK  status: ('A' for Active; 'I' for Inactive)
REMARK    1  A    between atoms: C_2  and  O_18
REMARK    2  A    between atoms: C_3  and  O_16
REMARK    3  A    between atoms: C_4  and  C_25
REMARK    4  A    between atoms: C_5  and  N_7
REMARK    5  A    between atoms: O_18  and  P_19
REMARK    6  A    between atoms: P_19  and  O_21
REMARK    7  A    between atoms: P_19  and  O_23
REMARK    8  A    between atoms: C_25  and  O_26
REMARK                            x       y       z     vdW  Elec       q    Type
REMARK                         _______ _______ _______ _____ _____    ______ ____
ROOT
ATOM      1  O   UNL     1      34.941 -24.650 -16.163  0.00  0.00    -0.332 OA
ATOM      2  C   UNL     1      35.674 -24.099 -13.991  0.00  0.00    +0.186 C 
ATOM      3  C   UNL     1      34.953 -22.891 -14.555  0.00  0.00    +0.189 C 
ATOM      4  C   UNL     1      36.028 -24.876 -15.248  0.00  0.00    +0.176 C 
ATOM      5  C   UNL     1      34.202 -23.491 -15.737  0.00  0.00    +0.236 C 
ENDROOT
BRANCH   5   7
ATOM      6  O   UNL     1      31.866 -22.873 -17.188  0.00  0.00    -0.193 OA
ATOM      7  N   UNL     1      32.871 -23.907 -15.386  0.00  0.00    -0.178 N 
ATOM      8  N   UNL     1      30.490 -23.992 -15.771  0.00  0.00    -0.306 NA
ATOM      9  N   UNL     1      29.086 -25.140 -14.316  0.00  0.00    -0.332 N 
ATOM     10  C   UNL     1      32.692 -24.676 -14.246  0.00  0.00    +0.083 C 
ATOM     11  C   UNL     1      31.742 -23.555 -16.169  0.00  0.00    +0.276 C 
ATOM     12  C   UNL     1      31.497 -25.105 -13.847  0.00  0.00    +0.065 C 
ATOM     13  C   UNL     1      30.339 -24.716 -14.694  0.00  0.00    +0.193 C 
ATOM     14  H   UNL     1      28.300 -24.898 -14.858  0.00  0.00    +0.145 HD
ATOM     15  H   UNL     1      28.974 -25.685 -13.504  0.00  0.00    +0.145 HD
ENDBRANCH   5   7
BRANCH   3  16
ATOM     16  O   UNL     1      35.875 -21.910 -15.027  0.00  0.00    -0.378 OA
ATOM     17  H   UNL     1      35.883 -21.913 -15.997  0.00  0.00    +0.211 HD
ENDBRANCH   3  16
BRANCH   2  18
ATOM     18  O   UNL     1      36.818 -23.766 -13.233  0.00  0.00    -0.271 OA
BRANCH  18  19
ATOM     19  P   UNL     1      36.695 -23.777 -11.624  0.00  0.00    +0.473 P 
ATOM     20  O   UNL     1      35.326 -24.082 -11.091  0.00  0.00    -0.227 OA
BRANCH  19  21
ATOM     21  O   UNL     1      37.307 -22.348 -11.180  0.00  0.00    -0.303 OA
ATOM     22  H   UNL     1      38.154 -22.485 -10.728  0.00  0.00    +0.222 HD
ENDBRANCH  19  21
BRANCH  19  23
ATOM     23  O   UNL     1      37.847 -24.826 -11.190  0.00  0.00    -0.303 OA
ATOM     24  H   UNL     1      37.444 -25.574 -10.722  0.00  0.00    +0.222 HD
ENDBRANCH  19  23
ENDBRANCH  18  19
ENDBRANCH   2  18
BRANCH   4  25
ATOM     25  C   UNL     1      36.193 -26.366 -15.008  0.00  0.00    +0.169 C 
BRANCH  25  26
ATOM     26  O   UNL     1      36.846 -26.936 -16.128  0.00  0.00    -0.379 OA
ATOM     27  H   UNL     1      37.803 -26.799 -16.049  0.00  0.00    +0.211 HD
ENDBRANCH  25  26
ENDBRANCH   4  25
TORSDOF 8
ENDMDL
MODEL 3
REMARK VINA RESULT:      -7.4      3.168      4.501
REMARK  Name = 66535
REMARK  8 active torsions:
REMARK  status: ('A' for Active; 'I' for Inactive)
REMARK    1  A    between atoms: C_2  and  O_18
REMARK    2  A    between atoms: C_3  and  O_16
REMARK    3  A    between atoms: C_4  and  C_25
REMARK    4  A    between atoms: C_5  and  N_7
REMARK    5  A    between atoms: O_18  and  P_19
REMARK    6  A    between atoms: P_19  and  O_21
REMARK    7  A    between atoms: P_19  and  O_23
REMARK    8  A    between atoms: C_25  and  O_26
REMARK                            x       y       z     vdW  Elec       q    Type
REMARK                         _______ _______ _______ _____ _____    ______ ____
ROOT
ATOM      1  O   UNL     1      34.692 -22.401 -14.628  0.00  0.00    -0.332 OA
ATOM      2  C   UNL     1      35.841 -24.437 -14.936  0.00  0.00    +0.186 C 
ATOM      3  C   UNL     1      34.993 -24.570 -13.687  0.00  0.00    +0.189 C 
ATOM      4  C   UNL     1      35.948 -22.929 -15.091  0.00  0.00    +0.176 C 
ATOM      5  C   UNL     1      34.030 -23.398 -13.829  0.00  0.00    +0.236 C 
ENDROOT
BRANCH   5   7
ATOM      6  O   UNL     1      32.154 -25.263 -12.857  0.00  0.00    -0.193 OA
ATOM      7  N   UNL     1      32.808 -23.770 -14.491  0.00  0.00    -0.178 N 
ATOM      8  N   UNL     1      30.753 -25.027 -14.628  0.00  0.00    -0.306 NA
ATOM      9  N   UNL     1      29.323 -24.782 -16.445  0.00  0.00    -0.332 N 
ATOM     10  C   UNL     1      32.503 -23.179 -15.707  0.00  0.00    +0.083 C 
ATOM     11  C   UNL     1      31.912 -24.719 -13.935  0.00  0.00    +0.276 C 
ATOM     12  C   UNL     1      31.395 -23.463 -16.387  0.00  0.00    +0.065 C 
ATOM     13  C   UNL     1      30.480 -24.461 -15.774  0.00  0.00    +0.193 C 
ATOM     14  H   UNL     1      28.698 -25.440 -16.062  0.00  0.00    +0.145 HD
ATOM     15  H   UNL     1      29.120 -24.354 -17.308  0.00  0.00    +0.145 HD
ENDBRANCH   5   7
BRANCH   3  16
ATOM     16  O   UNL     1      35.777 -24.401 -12.508  0.00  0.00    -0.378 OA
ATOM     17  H   UNL     1      36.483 -25.066 -12.491  0.00  0.00    +0.211 HD
ENDBRANCH   3  16
BRANCH   2  18
ATOM     18  O   UNL     1      37.108 -25.051 -14.824  0.00  0.00    -0.271 OA
BRANCH  18  19
ATOM     19  P   UNL     1      37.187 -26.659 -14.927  0.00  0.00    +0.473 P 
ATOM     20  O   UNL     1      36.493 -27.257 -16.115  0.00  0.00    -0.227 OA
BRANCH  19  21
ATOM     21  O   UNL     1      36.654 -27.165 -13.487  0.00  0.00    -0.303 OA
ATOM     22  H   UNL     1      37.084 -26.653 -12.784  0.00  0.00    +0.222 HD
ENDBRANCH  19  21
BRANCH  19  23
ATOM     23  O   UNL     1      38.779 -26.938 -14.853  0.00  0.00    -0.303 OA
ATOM     24  H   UNL     1      38.935 -27.834 -14.517  0.00  0.00    +0.222 HD
ENDBRANCH  19  23
ENDBRANCH  18  19
ENDBRANCH   2  18
BRANCH   4  25
ATOM     25  C   UNL     1      36.191 -22.487 -16.523  0.00  0.00    +0.169 C 
BRANCH  25  26
ATOM     26  O   UNL     1      37.514 -22.841 -16.888  0.00  0.00    -0.379 OA
ATOM     27  H   UNL     1      38.143 -22.297 -16.390  0.00  0.00    +0.211 HD
ENDBRANCH  25  26
ENDBRANCH   4  25
TORSDOF 8
ENDMDL
MODEL 4
REMARK VINA RESULT:      -7.3      8.067     11.145
REMARK  Name = 66535
REMARK  8 active torsions:
REMARK  status: ('A' for Active; 'I' for Inactive)
REMARK    1  A    between atoms: C_2  and  O_18
REMARK    2  A    between atoms: C_3  and  O_16
REMARK    3  A    between atoms: C_4  and  C_25
REMARK    4  A    between atoms: C_5  and  N_7
REMARK    5  A    between atoms: O_18  and  P_19
REMARK    6  A    between atoms: P_19  and  O_21
REMARK    7  A    between atoms: P_19  and  O_23
REMARK    8  A    between atoms: C_25  and  O_26
REMARK                            x       y       z     vdW  Elec       q    Type
REMARK                         _______ _______ _______ _____ _____    ______ ____
ROOT
ATOM      1  O   UNL     1      34.852 -16.687 -20.576  0.00  0.00    -0.332 OA
ATOM      2  C   UNL     1      34.032 -16.750 -22.786  0.00  0.00    +0.186 C 
ATOM      3  C   UNL     1      35.301 -17.579 -22.741  0.00  0.00    +0.189 C 
ATOM      4  C   UNL     1      34.178 -15.874 -21.553  0.00  0.00    +0.176 C 
ATOM      5  C   UNL     1      35.489 -17.792 -21.244  0.00  0.00    +0.236 C 
ENDROOT
BRANCH   5   7
ATOM      6  O   UNL     1      36.869 -19.977 -20.118  0.00  0.00    -0.193 OA
ATOM      7  N   UNL     1      34.881 -19.011 -20.783  0.00  0.00    -0.178 N 
ATOM      8  N   UNL     1      34.992 -21.213 -19.802  0.00  0.00    -0.306 NA
ATOM      9  N   UNL     1      33.064 -22.475 -19.481  0.00  0.00    -0.332 N 
ATOM     10  C   UNL     1      33.505 -19.150 -20.888  0.00  0.00    +0.083 C 
ATOM     11  C   UNL     1      35.645 -20.068 -20.226  0.00  0.00    +0.276 C 
ATOM     12  C   UNL     1      32.859 -20.243 -20.487  0.00  0.00    +0.065 C 
ATOM     13  C   UNL     1      33.694 -21.328 -19.908  0.00  0.00    +0.193 C 
ATOM     14  H   UNL     1      33.592 -23.210 -19.093  0.00  0.00    +0.145 HD
ATOM     15  H   UNL     1      32.087 -22.559 -19.562  0.00  0.00    +0.145 HD
ENDBRANCH   5   7
BRANCH   3  16
ATOM     16  O   UNL     1      36.412 -16.854 -23.261  0.00  0.00    -0.378 OA
ATOM     17  H   UNL     1      36.651 -16.142 -22.647  0.00  0.00    +0.211 HD
ENDBRANCH   3  16
BRANCH   2  18
ATOM     18  O   UNL     1      33.901 -15.988 -23.967  0.00  0.00    -0.271 OA
BRANCH  18  19
ATOM     19  P   UNL     1      34.002 -16.754 -25.383  0.00  0.00    +0.473 P 
ATOM     20  O   UNL     1      33.674 -18.218 -25.342  0.00  0.00    -0.227 OA
BRANCH  19  21
ATOM     21  O   UNL     1      35.486 -16.392 -25.913  0.00  0.00    -0.303 OA
ATOM     22  H   UNL     1      36.072 -16.239 -25.155  0.00  0.00    +0.222 HD
ENDBRANCH  19  21
BRANCH  19  23
ATOM     23  O   UNL     1      33.041 -15.865 -26.333  0.00  0.00    -0.303 OA
ATOM     24  H   UNL     1      32.929 -14.983 -25.946  0.00  0.00    +0.222 HD
ENDBRANCH  19  23
ENDBRANCH  18  19
ENDBRANCH   2  18
BRANCH   4  25
ATOM     25  C   UNL     1      32.850 -15.398 -20.993  0.00  0.00    +0.169 C 
BRANCH  25  26
ATOM     26  O   UNL     1      32.196 -14.618 -21.979  0.00  0.00    -0.379 OA
ATOM     27  H   UNL     1      32.277 -13.679 -21.754  0.00  0.00    +0.211 HD
ENDBRANCH  25  26
ENDBRANCH   4  25
TORSDOF 8
ENDMDL
MODEL 5
REMARK VINA RESULT:      -7.3      2.562      4.116
REMARK  Name = 66535
REMARK  8 active torsions:
REMARK  status: ('A' for Active; 'I' for Inactive)
REMARK    1  A    between atoms: C_2  and  O_18
REMARK    2  A    between atoms: C_3  and  O_16
REMARK    3  A    between atoms: C_4  and  C_25
REMARK    4  A    between atoms: C_5  and  N_7
REMARK    5  A    between atoms: O_18  and  P_19
REMARK    6  A    between atoms: P_19  and  O_21
REMARK    7  A    between atoms: P_19  and  O_23
REMARK    8  A    between atoms: C_25  and  O_26
REMARK                            x       y       z     vdW  Elec       q    Type
REMARK                         _______ _______ _______ _____ _____    ______ ____
ROOT
ATOM      1  O   UNL     1      36.248 -21.912 -14.748  0.00  0.00    -0.332 OA
ATOM      2  C   UNL     1      37.610 -23.804 -15.094  0.00  0.00    +0.186 C 
ATOM      3  C   UNL     1      37.173 -23.809 -13.642  0.00  0.00    +0.189 C 
ATOM      4  C   UNL     1      37.401 -22.351 -15.486  0.00  0.00    +0.176 C 
ATOM      5  C   UNL     1      36.016 -22.818 -13.654  0.00  0.00    +0.236 C 
ENDROOT
BRANCH   5   7
ATOM      6  O   UNL     1      34.712 -24.482 -11.790  0.00  0.00    -0.193 OA
ATOM      7  N   UNL     1      34.746 -23.460 -13.860  0.00  0.00    -0.178 N 
ATOM      8  N   UNL     1      32.927 -24.871 -13.137  0.00  0.00    -0.306 NA
ATOM      9  N   UNL     1      31.100 -25.266 -14.522  0.00  0.00    -0.332 N 
ATOM     10  C   UNL     1      34.087 -23.263 -15.063  0.00  0.00    +0.083 C 
ATOM     11  C   UNL     1      34.152 -24.285 -12.870  0.00  0.00    +0.276 C 
ATOM     12  C   UNL     1      32.909 -23.818 -15.339  0.00  0.00    +0.065 C 
ATOM     13  C   UNL     1      32.318 -24.674 -14.277  0.00  0.00    +0.193 C 
ATOM     14  H   UNL     1      30.685 -25.838 -13.837  0.00  0.00    +0.145 HD
ATOM     15  H   UNL     1      30.644 -25.116 -15.381  0.00  0.00    +0.145 HD
ENDBRANCH   5   7
BRANCH   3  16
ATOM     16  O   UNL     1      38.207 -23.324 -12.788  0.00  0.00    -0.378 OA
ATOM     17  H   UNL     1      39.068 -23.623 -13.120  0.00  0.00    +0.211 HD
ENDBRANCH   3  16
BRANCH   2  18
ATOM     18  O   UNL     1      38.947 -24.219 -15.280  0.00  0.00    -0.271 OA
BRANCH  18  19
ATOM     19  P   UNL     1      39.328 -25.746 -14.925  0.00  0.00    +0.473 P 
ATOM     20  O   UNL     1      39.590 -26.018 -13.473  0.00  0.00    -0.227 OA
BRANCH  19  21
ATOM     21  O   UNL     1      40.554 -26.080 -15.924  0.00  0.00    -0.303 OA
ATOM     22  H   UNL     1      41.227 -25.385 -15.854  0.00  0.00    +0.222 HD
ENDBRANCH  19  21
BRANCH  19  23
ATOM     23  O   UNL     1      38.093 -26.574 -15.563  0.00  0.00    -0.303 OA
ATOM     24  H   UNL     1      38.403 -27.446 -15.851  0.00  0.00    +0.222 HD
ENDBRANCH  19  23
ENDBRANCH  18  19
ENDBRANCH   2  18
BRANCH   4  25
ATOM     25  C   UNL     1      37.162 -22.158 -16.972  0.00  0.00    +0.169 C 
BRANCH  25  26
ATOM     26  O   UNL     1      37.169 -20.769 -17.255  0.00  0.00    -0.379 OA
ATOM     27  H   UNL     1      38.065 -20.495 -17.505  0.00  0.00    +0.211 HD
ENDBRANCH  25  26
ENDBRANCH   4  25
TORSDOF 8
ENDMDL
MODEL 6
REMARK VINA RESULT:      -7.0      2.561      3.704
REMARK  Name = 66535
REMARK  8 active torsions:
REMARK  status: ('A' for Active; 'I' for Inactive)
REMARK    1  A    between atoms: C_2  and  O_18
REMARK    2  A    between atoms: C_3  and  O_16
REMARK    3  A    between atoms: C_4  and  C_25
REMARK    4  A    between atoms: C_5  and  N_7
REMARK    5  A    between atoms: O_18  and  P_19
REMARK    6  A    between atoms: P_19  and  O_21
REMARK    7  A    between atoms: P_19  and  O_23
REMARK    8  A    between atoms: C_25  and  O_26
REMARK                            x       y       z     vdW  Elec       q    Type
REMARK                         _______ _______ _______ _____ _____    ______ ____
ROOT
ATOM      1  O   UNL     1      33.735 -24.425 -15.208  0.00  0.00    -0.332 OA
ATOM      2  C   UNL     1      34.939 -23.793 -13.282  0.00  0.00    +0.186 C 
ATOM      3  C   UNL     1      35.863 -24.620 -14.153  0.00  0.00    +0.189 C 
ATOM      4  C   UNL     1      33.568 -24.195 -13.798  0.00  0.00    +0.176 C 
ATOM      5  C   UNL     1      35.134 -24.611 -15.491  0.00  0.00    +0.236 C 
ENDROOT
BRANCH   5   7
ATOM      6  O   UNL     1      33.787 -23.720 -17.801  0.00  0.00    -0.193 OA
ATOM      7  N   UNL     1      35.569 -23.539 -16.345  0.00  0.00    -0.178 N 
ATOM      8  N   UNL     1      35.313 -22.107 -18.270  0.00  0.00    -0.306 NA
ATOM      9  N   UNL     1      36.881 -20.456 -18.746  0.00  0.00    -0.332 N 
ATOM     10  C   UNL     1      36.744 -22.873 -16.031  0.00  0.00    +0.083 C 
ATOM     11  C   UNL     1      34.834 -23.148 -17.493  0.00  0.00    +0.276 C 
ATOM     12  C   UNL     1      37.221 -21.870 -16.766  0.00  0.00    +0.065 C 
ATOM     13  C   UNL     1      36.423 -21.488 -17.960  0.00  0.00    +0.193 C 
ATOM     14  H   UNL     1      36.373 -20.181 -19.543  0.00  0.00    +0.145 HD
ATOM     15  H   UNL     1      37.717 -19.992 -18.510  0.00  0.00    +0.145 HD
ENDBRANCH   5   7
BRANCH   3  16
ATOM     16  O   UNL     1      35.964 -25.960 -13.675  0.00  0.00    -0.378 OA
ATOM     17  H   UNL     1      36.738 -26.040 -13.096  0.00  0.00    +0.211 HD
ENDBRANCH   3  16
BRANCH   2  18
ATOM     18  O   UNL     1      35.085 -24.052 -11.902  0.00  0.00    -0.271 OA
BRANCH  18  19
ATOM     19  P   UNL     1      36.513 -23.746 -11.216  0.00  0.00    +0.473 P 
ATOM     20  O   UNL     1      37.134 -22.433 -11.594  0.00  0.00    -0.227 OA
BRANCH  19  21
ATOM     21  O   UNL     1      37.397 -25.054 -11.563  0.00  0.00    -0.303 OA
ATOM     22  H   UNL     1      37.771 -24.965 -12.454  0.00  0.00    +0.222 HD
ENDBRANCH  19  21
BRANCH  19  23
ATOM     23  O   UNL     1      36.192 -23.922  -9.641  0.00  0.00    -0.303 OA
ATOM     24  H   UNL     1      35.697 -23.151  -9.323  0.00  0.00    +0.222 HD
ENDBRANCH  19  23
ENDBRANCH  18  19
ENDBRANCH   2  18
BRANCH   4  25
ATOM     25  C   UNL     1      32.505 -23.134 -13.576  0.00  0.00    +0.169 C 
BRANCH  25  26
ATOM     26  O   UNL     1      32.491 -22.788 -12.201  0.00  0.00    -0.379 OA
ATOM     27  H   UNL     1      31.983 -23.449 -11.707  0.00  0.00    +0.211 HD
ENDBRANCH  25  26
ENDBRANCH   4  25
TORSDOF 8
ENDMDL
MODEL 7
REMARK VINA RESULT:      -6.9      8.370     10.687
REMARK  Name = 66535
REMARK  8 active torsions:
REMARK  status: ('A' for Active; 'I' for Inactive)
REMARK    1  A    between atoms: C_2  and  O_18
REMARK    2  A    between atoms: C_3  and  O_16
REMARK    3  A    between atoms: C_4  and  C_25
REMARK    4  A    between atoms: C_5  and  N_7
REMARK    5  A    between atoms: O_18  and  P_19
REMARK    6  A    between atoms: P_19  and  O_21
REMARK    7  A    between atoms: P_19  and  O_23
REMARK    8  A    between atoms: C_25  and  O_26
REMARK                            x       y       z     vdW  Elec       q    Type
REMARK                         _______ _______ _______ _____ _____    ______ ____
ROOT
ATOM      1  O   UNL     1      35.594 -17.579 -23.469  0.00  0.00    -0.332 OA
ATOM      2  C   UNL     1      34.346 -19.043 -22.105  0.00  0.00    +0.186 C 
ATOM      3  C   UNL     1      35.116 -18.107 -21.194  0.00  0.00    +0.189 C 
ATOM      4  C   UNL     1      35.127 -18.938 -23.405  0.00  0.00    +0.176 C 
ATOM      5  C   UNL     1      35.530 -16.999 -22.153  0.00  0.00    +0.236 C 
ENDROOT
BRANCH   5   7
ATOM      6  O   UNL     1      34.823 -15.396 -19.945  0.00  0.00    -0.193 OA
ATOM      7  N   UNL     1      34.584 -15.916 -22.181  0.00  0.00    -0.178 N 
ATOM      8  N   UNL     1      33.360 -14.124 -21.126  0.00  0.00    -0.306 NA
ATOM      9  N   UNL     1      31.861 -12.825 -22.342  0.00  0.00    -0.332 N 
ATOM     10  C   UNL     1      33.954 -15.614 -23.378  0.00  0.00    +0.083 C 
ATOM     11  C   UNL     1      34.281 -15.153 -21.025  0.00  0.00    +0.276 C 
ATOM     12  C   UNL     1      33.065 -14.629 -23.496  0.00  0.00    +0.065 C 
ATOM     13  C   UNL     1      32.774 -13.852 -22.263  0.00  0.00    +0.193 C 
ATOM     14  H   UNL     1      31.649 -12.293 -21.541  0.00  0.00    +0.145 HD
ATOM     15  H   UNL     1      31.422 -12.622 -23.198  0.00  0.00    +0.145 HD
ENDBRANCH   5   7
BRANCH   3  16
ATOM     16  O   UNL     1      36.280 -18.739 -20.666  0.00  0.00    -0.378 OA
ATOM     17  H   UNL     1      36.863 -19.005 -21.394  0.00  0.00    +0.211 HD
ENDBRANCH   3  16
BRANCH   2  18
ATOM     18  O   UNL     1      34.287 -20.370 -21.627  0.00  0.00    -0.271 OA
BRANCH  18  19
ATOM     19  P   UNL     1      33.476 -20.652 -20.261  0.00  0.00    +0.473 P 
ATOM     20  O   UNL     1      32.361 -19.691 -19.971  0.00  0.00    -0.227 OA
BRANCH  19  21
ATOM     21  O   UNL     1      34.633 -20.729 -19.134  0.00  0.00    -0.303 OA
ATOM     22  H   UNL     1      34.871 -19.832 -18.852  0.00  0.00    +0.222 HD
ENDBRANCH  19  21
BRANCH  19  23
ATOM     23  O   UNL     1      33.022 -22.195 -20.433  0.00  0.00    -0.303 OA
ATOM     24  H   UNL     1      33.676 -22.666 -20.972  0.00  0.00    +0.222 HD
ENDBRANCH  19  23
ENDBRANCH  18  19
ENDBRANCH   2  18
BRANCH   4  25
ATOM     25  C   UNL     1      34.293 -19.250 -24.634  0.00  0.00    +0.169 C 
BRANCH  25  26
ATOM     26  O   UNL     1      34.414 -18.175 -25.550  0.00  0.00    -0.379 OA
ATOM     27  H   UNL     1      33.937 -17.404 -25.207  0.00  0.00    +0.211 HD
ENDBRANCH  25  26
ENDBRANCH   4  25
TORSDOF 8
ENDMDL
MODEL 8
REMARK VINA RESULT:      -6.6      8.332     11.415
REMARK  Name = 66535
REMARK  8 active torsions:
REMARK  status: ('A' for Active; 'I' for Inactive)
REMARK    1  A    between atoms: C_2  and  O_18
REMARK    2  A    between atoms: C_3  and  O_16
REMARK    3  A    between atoms: C_4  and  C_25
REMARK    4  A    between atoms: C_5  and  N_7
REMARK    5  A    between atoms: O_18  and  P_19
REMARK    6  A    between atoms: P_19  and  O_21
REMARK    7  A    between atoms: P_19  and  O_23
REMARK    8  A    between atoms: C_25  and  O_26
REMARK                            x       y       z     vdW  Elec       q    Type
REMARK                         _______ _______ _______ _____ _____    ______ ____
ROOT
ATOM      1  O   UNL     1      34.962 -16.506 -20.558  0.00  0.00    -0.332 OA
ATOM      2  C   UNL     1      33.639 -16.386 -22.505  0.00  0.00    +0.186 C 
ATOM      3  C   UNL     1      34.852 -17.238 -22.824  0.00  0.00    +0.189 C 
ATOM      4  C   UNL     1      34.104 -15.609 -21.285  0.00  0.00    +0.176 C 
ATOM      5  C   UNL     1      35.383 -17.567 -21.434  0.00  0.00    +0.236 C 
ENDROOT
BRANCH   5   7
ATOM      6  O   UNL     1      36.919 -19.643 -20.304  0.00  0.00    -0.193 OA
ATOM      7  N   UNL     1      34.860 -18.807 -20.927  0.00  0.00    -0.178 N 
ATOM      8  N   UNL     1      35.126 -20.975 -19.901  0.00  0.00    -0.306 NA
ATOM      9  N   UNL     1      33.285 -22.335 -19.491  0.00  0.00    -0.332 N 
ATOM     10  C   UNL     1      33.492 -19.026 -20.986  0.00  0.00    +0.083 C 
ATOM     11  C   UNL     1      35.700 -19.805 -20.371  0.00  0.00    +0.276 C 
ATOM     12  C   UNL     1      32.922 -20.143 -20.540  0.00  0.00    +0.065 C 
ATOM     13  C   UNL     1      33.834 -21.166 -19.963  0.00  0.00    +0.193 C 
ATOM     14  H   UNL     1      33.865 -23.030 -19.103  0.00  0.00    +0.145 HD
ATOM     15  H   UNL     1      32.312 -22.477 -19.539  0.00  0.00    +0.145 HD
ENDBRANCH   5   7
BRANCH   3  16
ATOM     16  O   UNL     1      35.833 -16.494 -23.544  0.00  0.00    -0.378 OA
ATOM     17  H   UNL     1      35.540 -15.574 -23.634  0.00  0.00    +0.211 HD
ENDBRANCH   3  16
BRANCH   2  18
ATOM     18  O   UNL     1      33.258 -15.534 -23.565  0.00  0.00    -0.271 OA
BRANCH  18  19
ATOM     19  P   UNL     1      33.507 -13.949 -23.395  0.00  0.00    +0.473 P 
ATOM     20  O   UNL     1      34.750 -13.576 -22.643  0.00  0.00    -0.227 OA
BRANCH  19  21
ATOM     21  O   UNL     1      32.123 -13.407 -22.758  0.00  0.00    -0.303 OA
ATOM     22  H   UNL     1      32.218 -13.331 -21.796  0.00  0.00    +0.222 HD
ENDBRANCH  19  21
BRANCH  19  23
ATOM     23  O   UNL     1      33.446 -13.418 -24.922  0.00  0.00    -0.303 OA
ATOM     24  H   UNL     1      32.521 -13.342 -25.202  0.00  0.00    +0.222 HD
ENDBRANCH  19  23
ENDBRANCH  18  19
ENDBRANCH   2  18
BRANCH   4  25
ATOM     25  C   UNL     1      32.965 -15.154 -20.392  0.00  0.00    +0.169 C 
BRANCH  25  26
ATOM     26  O   UNL     1      31.793 -15.864 -20.753  0.00  0.00    -0.379 OA
ATOM     27  H   UNL     1      31.279 -15.340 -21.386  0.00  0.00    +0.211 HD
ENDBRANCH  25  26
ENDBRANCH   4  25
TORSDOF 8
ENDMDL
MODEL 9
REMARK VINA RESULT:      -6.4      6.324      9.404
REMARK  Name = 66535
REMARK  8 active torsions:
REMARK  status: ('A' for Active; 'I' for Inactive)
REMARK    1  A    between atoms: C_2  and  O_18
REMARK    2  A    between atoms: C_3  and  O_16
REMARK    3  A    between atoms: C_4  and  C_25
REMARK    4  A    between atoms: C_5  and  N_7
REMARK    5  A    between atoms: O_18  and  P_19
REMARK    6  A    between atoms: P_19  and  O_21
REMARK    7  A    between atoms: P_19  and  O_23
REMARK    8  A    between atoms: C_25  and  O_26
REMARK                            x       y       z     vdW  Elec       q    Type
REMARK                         _______ _______ _______ _____ _____    ______ ____
ROOT
ATOM      1  O   UNL     1      34.910 -20.326 -22.000  0.00  0.00    -0.332 OA
ATOM      2  C   UNL     1      34.039 -18.370 -21.013  0.00  0.00    +0.186 C 
ATOM      3  C   UNL     1      33.139 -19.525 -20.620  0.00  0.00    +0.189 C 
ATOM      4  C   UNL     1      34.745 -18.918 -22.242  0.00  0.00    +0.176 C 
ATOM      5  C   UNL     1      34.005 -20.732 -20.957  0.00  0.00    +0.236 C 
ENDROOT
BRANCH   5   7
ATOM      6  O   UNL     1      33.071 -22.415 -18.898  0.00  0.00    -0.193 OA
ATOM      7  N   UNL     1      34.782 -21.180 -19.833  0.00  0.00    -0.178 N 
ATOM      8  N   UNL     1      35.047 -22.422 -17.781  0.00  0.00    -0.306 NA
ATOM      9  N   UNL     1      37.074 -22.424 -16.641  0.00  0.00    -0.332 N 
ATOM     10  C   UNL     1      36.101 -20.766 -19.728  0.00  0.00    +0.083 C 
ATOM     11  C   UNL     1      34.240 -22.029 -18.835  0.00  0.00    +0.276 C 
ATOM     12  C   UNL     1      36.893 -21.132 -18.722  0.00  0.00    +0.065 C 
ATOM     13  C   UNL     1      36.289 -22.022 -17.697  0.00  0.00    +0.193 C 
ATOM     14  H   UNL     1      36.701 -23.014 -15.947  0.00  0.00    +0.145 HD
ATOM     15  H   UNL     1      38.009 -22.122 -16.580  0.00  0.00    +0.145 HD
ENDBRANCH   5   7
BRANCH   3  16
ATOM     16  O   UNL     1      31.955 -19.553 -21.414  0.00  0.00    -0.378 OA
ATOM     17  H   UNL     1      31.194 -19.297 -20.869  0.00  0.00    +0.211 HD
ENDBRANCH   3  16
BRANCH   2  18
ATOM     18  O   UNL     1      33.335 -17.179 -21.292  0.00  0.00    -0.271 OA
BRANCH  18  19
ATOM     19  P   UNL     1      33.974 -15.782 -20.798  0.00  0.00    +0.473 P 
ATOM     20  O   UNL     1      35.128 -15.909 -19.847  0.00  0.00    -0.227 OA
BRANCH  19  21
ATOM     21  O   UNL     1      32.705 -14.953 -20.237  0.00  0.00    -0.303 OA
ATOM     22  H   UNL     1      32.910 -14.005 -20.241  0.00  0.00    +0.222 HD
ENDBRANCH  19  21
BRANCH  19  23
ATOM     23  O   UNL     1      34.317 -15.039 -22.193  0.00  0.00    -0.303 OA
ATOM     24  H   UNL     1      35.095 -15.453 -22.597  0.00  0.00    +0.222 HD
ENDBRANCH  19  23
ENDBRANCH  18  19
ENDBRANCH   2  18
BRANCH   4  25
ATOM     25  C   UNL     1      36.099 -18.280 -22.493  0.00  0.00    +0.169 C 
BRANCH  25  26
ATOM     26  O   UNL     1      35.916 -17.131 -23.302  0.00  0.00    -0.379 OA
ATOM     27  H   UNL     1      35.065 -16.718 -23.088  0.00  0.00    +0.211 HD
ENDBRANCH  25  26
ENDBRANCH   4  25
TORSDOF 8
ENDMDL
