MODEL 1
REMARK VINA RESULT:      -9.2      0.000      0.000
REMARK  Name = 54556623
REMARK  5 active torsions:
REMARK  status: ('A' for Active; 'I' for Inactive)
REMARK    1  A    between atoms: N_3  and  C_26
REMARK    2  A    between atoms: C_11  and  C_30
REMARK    3  A    between atoms: N_15  and  C_20
REMARK    4  A    between atoms: N_15  and  O_24
REMARK    5  A    between atoms: C_30  and  O_31
REMARK                            x       y       z     vdW  Elec       q    Type
REMARK                         _______ _______ _______ _____ _____    ______ ____
ROOT
ATOM      1  F   UNL     1      32.159 -15.218 -19.738  0.00  0.00    -0.200 F 
ATOM      2  O   UNL     1      31.037 -10.344 -20.519  0.00  0.00    -0.290 OA
ATOM      3  N   UNL     1      33.306 -11.509 -23.684  0.00  0.00    -0.266 N 
ATOM      4  N   UNL     1      33.496 -13.744 -22.778  0.00  0.00    -0.373 NA
ATOM      5  C   UNL     1      33.193 -14.622 -21.794  0.00  0.00    +0.216 C 
ATOM      6  C   UNL     1      33.022 -12.475 -22.676  0.00  0.00    +0.177 C 
ATOM      7  C   UNL     1      32.241 -12.086 -21.575  0.00  0.00    +0.153 C 
ATOM      8  C   UNL     1      32.429 -14.311 -20.686  0.00  0.00    +0.181 C 
ATOM      9  C   UNL     1      32.851 -10.213 -23.558  0.00  0.00    +0.076 C 
ATOM     10  C   UNL     1      31.944 -13.015 -20.576  0.00  0.00    +0.023 C 
ATOM     11  C   UNL     1      32.104  -9.749 -22.548  0.00  0.00    +0.126 C 
ATOM     12  C   UNL     1      31.731 -10.695 -21.465  0.00  0.00    +0.192 C 
ATOM     13  N   UNL     1      35.841 -19.502 -23.586  0.00  0.00    +0.384 N 
ATOM     14  N   UNL     1      33.673 -15.918 -21.894  0.00  0.00    -0.258 N 
ATOM     15  C   UNL     1      34.819 -17.853 -22.755  0.00  0.00    +0.019 C 
ATOM     16  C   UNL     1      34.580 -18.821 -23.942  0.00  0.00    -0.076 C 
ATOM     17  C   UNL     1      36.304 -18.271 -22.916  0.00  0.00    -0.076 C 
ATOM     18  C   UNL     1      34.504 -16.375 -23.020  0.00  0.00    +0.100 C 
ATOM     19  C   UNL     1      34.106 -18.146 -21.405  0.00  0.00    +0.097 C 
ATOM     20  C   UNL     1      33.398 -16.935 -20.881  0.00  0.00    +0.084 C 
ATOM     21  H   UNL     1      36.407 -19.779 -24.388  0.00  0.00    -0.084 HD
ATOM     22  H   UNL     1      35.828 -20.391 -23.087  0.00  0.00    -0.084 HD
ENDROOT
BRANCH   3  23
ATOM     23  C   UNL     1      34.152 -11.876 -24.838  0.00  0.00    +0.079 C 
ATOM     24  C   UNL     1      34.851 -10.831 -25.657  0.00  0.00    +0.022 C 
ATOM     25  C   UNL     1      33.710 -11.607 -26.245  0.00  0.00    +0.022 C 
ENDBRANCH   3  23
BRANCH  11  27
ATOM     26  O   UNL     1      31.110  -7.807 -23.491  0.00  0.00    -0.245 OA
ATOM     27  C   UNL     1      31.698  -8.344 -22.569  0.00  0.00    +0.342 C 
BRANCH  27  28
ATOM     28  O   UNL     1      32.074  -7.746 -21.419  0.00  0.00    -0.477 OA
ATOM     29  H   UNL     1      31.465  -7.667 -20.711  0.00  0.00    +0.295 HD
ENDBRANCH  27  28
ENDBRANCH  11  27
BRANCH  19  30
ATOM     30  N   UNL     1      34.105 -19.277 -20.787  0.00  0.00    -0.134 NA
BRANCH  30  31
ATOM     31  O   UNL     1      35.396 -19.514 -20.295  0.00  0.00    -0.234 OA
ATOM     32  C   UNL     1      35.574 -20.918 -20.180  0.00  0.00    +0.211 C 
ENDBRANCH  30  31
ENDBRANCH  19  30
TORSDOF 5
ENDMDL
MODEL 2
REMARK VINA RESULT:      -8.0      8.086     11.735
REMARK  Name = 54556623
REMARK  5 active torsions:
REMARK  status: ('A' for Active; 'I' for Inactive)
REMARK    1  A    between atoms: N_3  and  C_26
REMARK    2  A    between atoms: C_11  and  C_30
REMARK    3  A    between atoms: N_15  and  C_20
REMARK    4  A    between atoms: N_15  and  O_24
REMARK    5  A    between atoms: C_30  and  O_31
REMARK                            x       y       z     vdW  Elec       q    Type
REMARK                         _______ _______ _______ _____ _____    ______ ____
ROOT
ATOM      1  F   UNL     1      38.722 -22.080 -16.718  0.00  0.00    -0.200 F 
ATOM      2  O   UNL     1      35.858 -19.881 -20.266  0.00  0.00    -0.290 OA
ATOM      3  N   UNL     1      33.398 -22.378 -18.207  0.00  0.00    -0.266 N 
ATOM      4  N   UNL     1      35.225 -23.067 -16.779  0.00  0.00    -0.373 NA
ATOM      5  C   UNL     1      36.532 -22.965 -16.444  0.00  0.00    +0.216 C 
ATOM      6  C   UNL     1      34.766 -22.315 -17.813  0.00  0.00    +0.177 C 
ATOM      7  C   UNL     1      35.628 -21.458 -18.517  0.00  0.00    +0.153 C 
ATOM      8  C   UNL     1      37.436 -22.142 -17.089  0.00  0.00    +0.181 C 
ATOM      9  C   UNL     1      32.946 -21.638 -19.280  0.00  0.00    +0.076 C 
ATOM     10  C   UNL     1      36.972 -21.374 -18.147  0.00  0.00    +0.023 C 
ATOM     11  C   UNL     1      33.689 -20.798 -20.010  0.00  0.00    +0.126 C 
ATOM     12  C   UNL     1      35.123 -20.643 -19.651  0.00  0.00    +0.192 C 
ATOM     13  N   UNL     1      36.987 -26.669 -11.960  0.00  0.00    +0.384 N 
ATOM     14  N   UNL     1      37.006 -23.729 -15.390  0.00  0.00    -0.258 N 
ATOM     15  C   UNL     1      37.044 -25.292 -13.558  0.00  0.00    +0.019 C 
ATOM     16  C   UNL     1      36.486 -25.289 -12.112  0.00  0.00    -0.076 C 
ATOM     17  C   UNL     1      36.946 -26.834 -13.426  0.00  0.00    -0.076 C 
ATOM     18  C   UNL     1      36.149 -24.650 -14.626  0.00  0.00    +0.100 C 
ATOM     19  C   UNL     1      38.439 -24.655 -13.815  0.00  0.00    +0.097 C 
ATOM     20  C   UNL     1      38.401 -23.686 -14.956  0.00  0.00    +0.084 C 
ATOM     21  H   UNL     1      36.356 -27.289 -11.452  0.00  0.00    -0.084 HD
ATOM     22  H   UNL     1      37.845 -26.856 -11.440  0.00  0.00    -0.084 HD
ENDROOT
BRANCH   3  23
ATOM     23  C   UNL     1      32.473 -23.294 -17.509  0.00  0.00    +0.079 C 
ATOM     24  C   UNL     1      31.280 -22.776 -16.760  0.00  0.00    +0.022 C 
ATOM     25  C   UNL     1      32.436 -23.372 -16.012  0.00  0.00    +0.022 C 
ENDBRANCH   3  23
BRANCH  11  27
ATOM     26  O   UNL     1      31.864 -19.811 -21.169  0.00  0.00    -0.245 OA
ATOM     27  C   UNL     1      33.051 -20.082 -21.115  0.00  0.00    +0.342 C 
BRANCH  27  28
ATOM     28  O   UNL     1      33.974 -19.775 -22.051  0.00  0.00    -0.477 OA
ATOM     29  H   UNL     1      33.732 -19.744 -22.955  0.00  0.00    +0.295 HD
ENDBRANCH  27  28
ENDBRANCH  11  27
BRANCH  19  30
ATOM     30  N   UNL     1      39.513 -24.909 -13.149  0.00  0.00    -0.134 NA
BRANCH  30  31
ATOM     31  O   UNL     1      40.579 -25.017 -14.053  0.00  0.00    -0.234 OA
ATOM     32  C   UNL     1      40.585 -26.338 -14.573  0.00  0.00    +0.211 C 
ENDBRANCH  30  31
ENDBRANCH  19  30
TORSDOF 5
ENDMDL
MODEL 3
REMARK VINA RESULT:      -7.8      2.291      7.980
REMARK  Name = 54556623
REMARK  5 active torsions:
REMARK  status: ('A' for Active; 'I' for Inactive)
REMARK    1  A    between atoms: N_3  and  C_26
REMARK    2  A    between atoms: C_11  and  C_30
REMARK    3  A    between atoms: N_15  and  C_20
REMARK    4  A    between atoms: N_15  and  O_24
REMARK    5  A    between atoms: C_30  and  O_31
REMARK                            x       y       z     vdW  Elec       q    Type
REMARK                         _______ _______ _______ _____ _____    ______ ____
ROOT
ATOM      1  F   UNL     1      32.446 -13.280 -19.590  0.00  0.00    -0.200 F 
ATOM      2  O   UNL     1      33.965 -17.888 -21.035  0.00  0.00    -0.290 OA
ATOM      3  N   UNL     1      33.995 -15.580 -24.382  0.00  0.00    -0.266 N 
ATOM      4  N   UNL     1      33.231 -13.664 -23.117  0.00  0.00    -0.373 NA
ATOM      5  C   UNL     1      32.861 -13.138 -21.927  0.00  0.00    +0.216 C 
ATOM      6  C   UNL     1      33.591 -14.973 -23.157  0.00  0.00    +0.177 C 
ATOM      7  C   UNL     1      33.574 -15.759 -21.993  0.00  0.00    +0.153 C 
ATOM      8  C   UNL     1      32.822 -13.849 -20.742  0.00  0.00    +0.181 C 
ATOM      9  C   UNL     1      34.325 -16.918 -24.422  0.00  0.00    +0.076 C 
ATOM     10  C   UNL     1      33.186 -15.188 -20.779  0.00  0.00    +0.023 C 
ATOM     11  C   UNL     1      34.338 -17.746 -23.370  0.00  0.00    +0.126 C 
ATOM     12  C   UNL     1      33.961 -17.192 -22.043  0.00  0.00    +0.192 C 
ATOM     13  N   UNL     1      31.649  -7.601 -23.308  0.00  0.00    +0.384 N 
ATOM     14  N   UNL     1      32.493 -11.803 -21.880  0.00  0.00    -0.258 N 
ATOM     15  C   UNL     1      32.026  -9.552 -22.597  0.00  0.00    +0.019 C 
ATOM     16  C   UNL     1      32.895  -8.354 -23.062  0.00  0.00    -0.076 C 
ATOM     17  C   UNL     1      30.918  -8.875 -23.444  0.00  0.00    -0.076 C 
ATOM     18  C   UNL     1      32.483 -10.938 -23.071  0.00  0.00    +0.100 C 
ATOM     19  C   UNL     1      31.784  -9.744 -21.073  0.00  0.00    +0.097 C 
ATOM     20  C   UNL     1      32.078 -11.147 -20.641  0.00  0.00    +0.084 C 
ATOM     21  H   UNL     1      31.664  -7.034 -24.156  0.00  0.00    -0.084 HD
ATOM     22  H   UNL     1      31.334  -6.889 -22.648  0.00  0.00    -0.084 HD
ENDROOT
BRANCH   3  23
ATOM     23  C   UNL     1      33.992 -14.790 -25.629  0.00  0.00    +0.079 C 
ATOM     24  C   UNL     1      32.835 -13.905 -25.990  0.00  0.00    +0.022 C 
ATOM     25  C   UNL     1      33.101 -15.153 -26.779  0.00  0.00    +0.022 C 
ENDBRANCH   3  23
BRANCH  11  27
ATOM     26  O   UNL     1      34.708 -19.703 -24.666  0.00  0.00    -0.245 OA
ATOM     27  C   UNL     1      34.720 -19.141 -23.584  0.00  0.00    +0.342 C 
BRANCH  27  28
ATOM     28  O   UNL     1      35.083 -19.699 -22.410  0.00  0.00    -0.477 OA
ATOM     29  H   UNL     1      34.588 -20.412 -22.057  0.00  0.00    +0.295 HD
ENDBRANCH  27  28
ENDBRANCH  11  27
BRANCH  19  30
ATOM     30  N   UNL     1      31.381  -8.832 -20.257  0.00  0.00    -0.134 NA
BRANCH  30  31
ATOM     31  O   UNL     1      32.504  -8.230 -19.674  0.00  0.00    -0.234 OA
ATOM     32  C   UNL     1      32.401  -6.827 -19.863  0.00  0.00    +0.211 C 
ENDBRANCH  30  31
ENDBRANCH  19  30
TORSDOF 5
ENDMDL
MODEL 4
REMARK VINA RESULT:      -7.8      2.808      8.873
REMARK  Name = 54556623
REMARK  5 active torsions:
REMARK  status: ('A' for Active; 'I' for Inactive)
REMARK    1  A    between atoms: N_3  and  C_26
REMARK    2  A    between atoms: C_11  and  C_30
REMARK    3  A    between atoms: N_15  and  C_20
REMARK    4  A    between atoms: N_15  and  O_24
REMARK    5  A    between atoms: C_30  and  O_31
REMARK                            x       y       z     vdW  Elec       q    Type
REMARK                         _______ _______ _______ _____ _____    ______ ____
ROOT
ATOM      1  F   UNL     1      33.544 -11.402 -26.154  0.00  0.00    -0.200 F 
ATOM      2  O   UNL     1      34.469 -16.376 -26.004  0.00  0.00    -0.290 OA
ATOM      3  N   UNL     1      33.835 -15.222 -22.158  0.00  0.00    -0.266 N 
ATOM      4  N   UNL     1      33.480 -12.934 -22.860  0.00  0.00    -0.373 NA
ATOM      5  C   UNL     1      33.416 -12.031 -23.864  0.00  0.00    +0.216 C 
ATOM      6  C   UNL     1      33.759 -14.226 -23.175  0.00  0.00    +0.177 C 
ATOM      7  C   UNL     1      33.978 -14.610 -24.508  0.00  0.00    +0.153 C 
ATOM      8  C   UNL     1      33.617 -12.336 -25.197  0.00  0.00    +0.181 C 
ATOM      9  C   UNL     1      34.152 -16.525 -22.480  0.00  0.00    +0.076 C 
ATOM     10  C   UNL     1      33.905 -13.654 -25.523  0.00  0.00    +0.023 C 
ATOM     11  C   UNL     1      34.378 -16.985 -23.717  0.00  0.00    +0.126 C 
ATOM     12  C   UNL     1      34.290 -16.023 -24.845  0.00  0.00    +0.192 C 
ATOM     13  N   UNL     1      32.164  -7.081 -21.041  0.00  0.00    +0.384 N 
ATOM     14  N   UNL     1      33.131 -10.712 -23.550  0.00  0.00    -0.258 N 
ATOM     15  C   UNL     1      32.620  -8.748 -22.252  0.00  0.00    +0.019 C 
ATOM     16  C   UNL     1      31.373  -8.248 -21.479  0.00  0.00    -0.076 C 
ATOM     17  C   UNL     1      33.403  -7.853 -21.257  0.00  0.00    -0.076 C 
ATOM     18  C   UNL     1      32.903 -10.254 -22.169  0.00  0.00    +0.100 C 
ATOM     19  C   UNL     1      32.723  -8.437 -23.772  0.00  0.00    +0.097 C 
ATOM     20  C   UNL     1      33.041  -9.665 -24.566  0.00  0.00    +0.084 C 
ATOM     21  H   UNL     1      32.005  -6.808 -20.072  0.00  0.00    -0.084 HD
ATOM     22  H   UNL     1      32.035  -6.171 -21.485  0.00  0.00    -0.084 HD
ENDROOT
BRANCH   3  23
ATOM     23  C   UNL     1      33.642 -14.846 -20.743  0.00  0.00    +0.079 C 
ATOM     24  C   UNL     1      32.434 -15.296 -19.973  0.00  0.00    +0.022 C 
ATOM     25  C   UNL     1      32.597 -13.850 -20.337  0.00  0.00    +0.022 C 
ENDBRANCH   3  23
BRANCH  11  27
ATOM     26  O   UNL     1      35.409 -19.046 -23.133  0.00  0.00    -0.245 OA
ATOM     27  C   UNL     1      34.699 -18.402 -23.887  0.00  0.00    +0.342 C 
BRANCH  27  28
ATOM     28  O   UNL     1      34.091 -18.876 -24.995  0.00  0.00    -0.477 OA
ATOM     29  H   UNL     1      34.578 -19.378 -25.617  0.00  0.00    +0.295 HD
ENDBRANCH  27  28
ENDBRANCH  11  27
BRANCH  19  30
ATOM     30  N   UNL     1      32.562  -7.277 -24.312  0.00  0.00    -0.134 NA
BRANCH  30  31
ATOM     31  O   UNL     1      31.196  -6.963 -24.288  0.00  0.00    -0.234 OA
ATOM     32  C   UNL     1      31.069  -5.549 -24.252  0.00  0.00    +0.211 C 
ENDBRANCH  30  31
ENDBRANCH  19  30
TORSDOF 5
ENDMDL
MODEL 5
REMARK VINA RESULT:      -7.8      2.690      4.400
REMARK  Name = 54556623
REMARK  5 active torsions:
REMARK  status: ('A' for Active; 'I' for Inactive)
REMARK    1  A    between atoms: N_3  and  C_26
REMARK    2  A    between atoms: C_11  and  C_30
REMARK    3  A    between atoms: N_15  and  C_20
REMARK    4  A    between atoms: N_15  and  O_24
REMARK    5  A    between atoms: C_30  and  O_31
REMARK                            x       y       z     vdW  Elec       q    Type
REMARK                         _______ _______ _______ _____ _____    ______ ____
ROOT
ATOM      1  F   UNL     1      33.930 -11.905 -25.343  0.00  0.00    -0.200 F 
ATOM      2  O   UNL     1      32.339  -7.196 -24.382  0.00  0.00    -0.290 OA
ATOM      3  N   UNL     1      31.947  -9.261 -20.902  0.00  0.00    -0.266 N 
ATOM      4  N   UNL     1      32.800 -11.268 -21.949  0.00  0.00    -0.373 NA
ATOM      5  C   UNL     1      33.283 -11.878 -23.056  0.00  0.00    +0.216 C 
ATOM      6  C   UNL     1      32.456  -9.956 -22.037  0.00  0.00    +0.177 C 
ATOM      7  C   UNL     1      32.596  -9.256 -23.247  0.00  0.00    +0.153 C 
ATOM      8  C   UNL     1      33.449 -11.253 -24.277  0.00  0.00    +0.181 C 
ATOM      9  C   UNL     1      31.567  -7.939 -21.007  0.00  0.00    +0.076 C 
ATOM     10  C   UNL     1      33.097  -9.914 -24.372  0.00  0.00    +0.023 C 
ATOM     11  C   UNL     1      31.660  -7.191 -22.113  0.00  0.00    +0.126 C 
ATOM     12  C   UNL     1      32.211  -7.824 -23.339  0.00  0.00    +0.192 C 
ATOM     13  N   UNL     1      34.291 -17.307 -21.173  0.00  0.00    +0.384 N 
ATOM     14  N   UNL     1      33.636 -13.216 -22.972  0.00  0.00    -0.258 N 
ATOM     15  C   UNL     1      33.996 -15.414 -22.057  0.00  0.00    +0.019 C 
ATOM     16  C   UNL     1      35.011 -16.024 -21.056  0.00  0.00    -0.076 C 
ATOM     17  C   UNL     1      33.081 -16.577 -21.596  0.00  0.00    -0.076 C 
ATOM     18  C   UNL     1      33.501 -13.998 -21.733  0.00  0.00    +0.100 C 
ATOM     19  C   UNL     1      34.395 -15.330 -23.558  0.00  0.00    +0.097 C 
ATOM     20  C   UNL     1      34.165 -13.960 -24.114  0.00  0.00    +0.084 C 
ATOM     21  H   UNL     1      34.189 -17.811 -20.291  0.00  0.00    -0.084 HD
ATOM     22  H   UNL     1      34.668 -18.064 -21.744  0.00  0.00    -0.084 HD
ENDROOT
BRANCH   3  23
ATOM     23  C   UNL     1      31.757  -9.976 -19.625  0.00  0.00    +0.079 C 
ATOM     24  C   UNL     1      31.530 -11.459 -19.587  0.00  0.00    +0.022 C 
ATOM     25  C   UNL     1      30.417 -10.520 -19.227  0.00  0.00    +0.022 C 
ENDBRANCH   3  23
BRANCH  11  27
ATOM     26  O   UNL     1      30.051  -5.443 -22.045  0.00  0.00    -0.245 OA
ATOM     27  C   UNL     1      31.217  -5.798 -22.053  0.00  0.00    +0.342 C 
BRANCH  27  28
ATOM     28  O   UNL     1      32.290  -4.981 -22.010  0.00  0.00    -0.477 OA
ATOM     29  H   UNL     1      32.263  -4.199 -21.495  0.00  0.00    +0.295 HD
ENDBRANCH  27  28
ENDBRANCH  11  27
BRANCH  19  30
ATOM     30  N   UNL     1      34.865 -16.301 -24.264  0.00  0.00    -0.134 NA
BRANCH  30  31
ATOM     31  O   UNL     1      33.826 -16.823 -25.047  0.00  0.00    -0.234 OA
ATOM     32  C   UNL     1      34.047 -18.218 -25.200  0.00  0.00    +0.211 C 
ENDBRANCH  30  31
ENDBRANCH  19  30
TORSDOF 5
ENDMDL
MODEL 6
REMARK VINA RESULT:      -7.8      1.249      1.367
REMARK  Name = 54556623
REMARK  5 active torsions:
REMARK  status: ('A' for Active; 'I' for Inactive)
REMARK    1  A    between atoms: N_3  and  C_26
REMARK    2  A    between atoms: C_11  and  C_30
REMARK    3  A    between atoms: N_15  and  C_20
REMARK    4  A    between atoms: N_15  and  O_24
REMARK    5  A    between atoms: C_30  and  O_31
REMARK                            x       y       z     vdW  Elec       q    Type
REMARK                         _______ _______ _______ _____ _____    ______ ____
ROOT
ATOM      1  F   UNL     1      32.213 -14.309 -19.603  0.00  0.00    -0.200 F 
ATOM      2  O   UNL     1      31.091  -9.375 -19.756  0.00  0.00    -0.290 OA
ATOM      3  N   UNL     1      32.998 -10.215 -23.247  0.00  0.00    -0.266 N 
ATOM      4  N   UNL     1      33.248 -12.533 -22.600  0.00  0.00    -0.373 NA
ATOM      5  C   UNL     1      33.035 -13.507 -21.685  0.00  0.00    +0.216 C 
ATOM      6  C   UNL     1      32.806 -11.279 -22.319  0.00  0.00    +0.177 C 
ATOM      7  C   UNL     1      32.150 -11.003 -21.107  0.00  0.00    +0.153 C 
ATOM      8  C   UNL     1      32.396 -13.309 -20.476  0.00  0.00    +0.181 C 
ATOM      9  C   UNL     1      32.578  -8.938 -22.940  0.00  0.00    +0.076 C 
ATOM     10  C   UNL     1      31.946 -12.030 -20.183  0.00  0.00    +0.023 C 
ATOM     11  C   UNL     1      31.948  -8.577 -21.815  0.00  0.00    +0.126 C 
ATOM     12  C   UNL     1      31.676  -9.629 -20.801  0.00  0.00    +0.192 C 
ATOM     13  N   UNL     1      35.406 -18.186 -24.239  0.00  0.00    +0.384 N 
ATOM     14  N   UNL     1      33.483 -14.787 -21.968  0.00  0.00    -0.258 N 
ATOM     15  C   UNL     1      34.502 -16.628 -23.139  0.00  0.00    +0.019 C 
ATOM     16  C   UNL     1      34.125 -17.467 -24.388  0.00  0.00    -0.076 C 
ATOM     17  C   UNL     1      35.955 -17.033 -23.498  0.00  0.00    -0.076 C 
ATOM     18  C   UNL     1      34.184 -15.129 -23.216  0.00  0.00    +0.100 C 
ATOM     19  C   UNL     1      33.930 -17.056 -21.758  0.00  0.00    +0.097 C 
ATOM     20  C   UNL     1      33.300 -15.903 -21.041  0.00  0.00    +0.084 C 
ATOM     21  H   UNL     1      35.881 -18.381 -25.120  0.00  0.00    -0.084 HD
ATOM     22  H   UNL     1      35.432 -19.123 -23.835  0.00  0.00    -0.084 HD
ENDROOT
BRANCH   3  23
ATOM     23  C   UNL     1      33.712 -10.465 -24.515  0.00  0.00    +0.079 C 
ATOM     24  C   UNL     1      35.201 -10.648 -24.549  0.00  0.00    +0.022 C 
ATOM     25  C   UNL     1      34.582  -9.415 -25.139  0.00  0.00    +0.022 C 
ENDBRANCH   3  23
BRANCH  11  27
ATOM     26  O   UNL     1      30.805  -6.574 -22.388  0.00  0.00    -0.245 OA
ATOM     27  C   UNL     1      31.564  -7.176 -21.648  0.00  0.00    +0.342 C 
BRANCH  27  28
ATOM     28  O   UNL     1      32.176  -6.664 -20.560  0.00  0.00    -0.477 OA
ATOM     29  H   UNL     1      31.710  -6.596 -19.749  0.00  0.00    +0.295 HD
ENDBRANCH  27  28
ENDBRANCH  11  27
BRANCH  19  30
ATOM     30  N   UNL     1      33.977 -18.246 -21.264  0.00  0.00    -0.134 NA
BRANCH  30  31
ATOM     31  O   UNL     1      35.191 -18.393 -20.579  0.00  0.00    -0.234 OA
ATOM     32  C   UNL     1      35.775 -19.625 -20.977  0.00  0.00    +0.211 C 
ENDBRANCH  30  31
ENDBRANCH  19  30
TORSDOF 5
ENDMDL
MODEL 7
REMARK VINA RESULT:      -7.4     10.317     12.841
REMARK  Name = 54556623
REMARK  5 active torsions:
REMARK  status: ('A' for Active; 'I' for Inactive)
REMARK    1  A    between atoms: N_3  and  C_26
REMARK    2  A    between atoms: C_11  and  C_30
REMARK    3  A    between atoms: N_15  and  C_20
REMARK    4  A    between atoms: N_15  and  O_24
REMARK    5  A    between atoms: C_30  and  O_31
REMARK                            x       y       z     vdW  Elec       q    Type
REMARK                         _______ _______ _______ _____ _____    ______ ____
ROOT
ATOM      1  F   UNL     1      34.070 -24.706 -12.105  0.00  0.00    -0.200 F 
ATOM      2  O   UNL     1      29.607 -23.254 -14.002  0.00  0.00    -0.290 OA
ATOM      3  N   UNL     1      32.239 -23.175 -17.100  0.00  0.00    -0.266 N 
ATOM      4  N   UNL     1      34.031 -23.908 -15.650  0.00  0.00    -0.373 NA
ATOM      5  C   UNL     1      34.440 -24.278 -14.414  0.00  0.00    +0.216 C 
ATOM      6  C   UNL     1      32.726 -23.569 -15.820  0.00  0.00    +0.177 C 
ATOM      7  C   UNL     1      31.829 -23.599 -14.740  0.00  0.00    +0.153 C 
ATOM      8  C   UNL     1      33.613 -24.334 -13.308  0.00  0.00    +0.181 C 
ATOM      9  C   UNL     1      30.921 -22.798 -17.259  0.00  0.00    +0.076 C 
ATOM     10  C   UNL     1      32.281 -23.986 -13.477  0.00  0.00    +0.023 C 
ATOM     11  C   UNL     1      29.994 -22.793 -16.293  0.00  0.00    +0.126 C 
ATOM     12  C   UNL     1      30.405 -23.220 -14.930  0.00  0.00    +0.192 C 
ATOM     13  N   UNL     1      40.102 -25.414 -15.239  0.00  0.00    +0.384 N 
ATOM     14  N   UNL     1      35.769 -24.626 -14.235  0.00  0.00    -0.258 N 
ATOM     15  C   UNL     1      38.088 -25.053 -14.723  0.00  0.00    +0.019 C 
ATOM     16  C   UNL     1      38.852 -26.153 -15.504  0.00  0.00    -0.076 C 
ATOM     17  C   UNL     1      39.320 -24.175 -15.063  0.00  0.00    -0.076 C 
ATOM     18  C   UNL     1      36.753 -24.602 -15.329  0.00  0.00    +0.100 C 
ATOM     19  C   UNL     1      37.747 -25.308 -13.228  0.00  0.00    +0.097 C 
ATOM     20  C   UNL     1      36.303 -25.039 -12.938  0.00  0.00    +0.084 C 
ATOM     21  H   UNL     1      40.750 -25.391 -16.027  0.00  0.00    -0.084 HD
ATOM     22  H   UNL     1      40.748 -25.728 -14.514  0.00  0.00    -0.084 HD
ENDROOT
BRANCH   3  23
ATOM     23  C   UNL     1      33.163 -23.101 -18.249  0.00  0.00    +0.079 C 
ATOM     24  C   UNL     1      34.395 -22.245 -18.205  0.00  0.00    +0.022 C 
ATOM     25  C   UNL     1      33.251 -21.870 -19.100  0.00  0.00    +0.022 C 
ENDBRANCH   3  23
BRANCH  11  27
ATOM     26  O   UNL     1      28.097 -22.569 -17.706  0.00  0.00    -0.245 OA
ATOM     27  C   UNL     1      28.636 -22.369 -16.631  0.00  0.00    +0.342 C 
BRANCH  27  28
ATOM     28  O   UNL     1      28.083 -21.731 -15.578  0.00  0.00    -0.477 OA
ATOM     29  H   UNL     1      28.627 -21.418 -14.882  0.00  0.00    +0.295 HD
ENDBRANCH  27  28
ENDBRANCH  11  27
BRANCH  19  30
ATOM     30  N   UNL     1      38.579 -25.701 -12.325  0.00  0.00    -0.134 NA
BRANCH  30  31
ATOM     31  O   UNL     1      38.435 -24.876 -11.201  0.00  0.00    -0.234 OA
ATOM     32  C   UNL     1      38.534 -23.526 -11.628  0.00  0.00    +0.211 C 
ENDBRANCH  30  31
ENDBRANCH  19  30
TORSDOF 5
ENDMDL
MODEL 8
REMARK VINA RESULT:      -7.4      6.534     12.952
REMARK  Name = 54556623
REMARK  5 active torsions:
REMARK  status: ('A' for Active; 'I' for Inactive)
REMARK    1  A    between atoms: N_3  and  C_26
REMARK    2  A    between atoms: C_11  and  C_30
REMARK    3  A    between atoms: N_15  and  C_20
REMARK    4  A    between atoms: N_15  and  O_24
REMARK    5  A    between atoms: C_30  and  O_31
REMARK                            x       y       z     vdW  Elec       q    Type
REMARK                         _______ _______ _______ _____ _____    ______ ____
ROOT
ATOM      1  F   UNL     1      37.754 -21.731 -17.769  0.00  0.00    -0.200 F 
ATOM      2  O   UNL     1      38.044 -24.211 -13.365  0.00  0.00    -0.290 OA
ATOM      3  N   UNL     1      34.093 -24.021 -14.304  0.00  0.00    -0.266 N 
ATOM      4  N   UNL     1      34.593 -22.815 -16.341  0.00  0.00    -0.373 NA
ATOM      5  C   UNL     1      35.518 -22.269 -17.163  0.00  0.00    +0.216 C 
ATOM      6  C   UNL     1      35.023 -23.424 -15.205  0.00  0.00    +0.177 C 
ATOM      7  C   UNL     1      36.391 -23.480 -14.893  0.00  0.00    +0.153 C 
ATOM      8  C   UNL     1      36.879 -22.289 -16.922  0.00  0.00    +0.181 C 
ATOM      9  C   UNL     1      34.533 -24.607 -13.135  0.00  0.00    +0.076 C 
ATOM     10  C   UNL     1      37.322 -22.907 -15.761  0.00  0.00    +0.023 C 
ATOM     11  C   UNL     1      35.811 -24.707 -12.751  0.00  0.00    +0.126 C 
ATOM     12  C   UNL     1      36.854 -24.141 -13.645  0.00  0.00    +0.192 C 
ATOM     13  N   UNL     1      32.255 -20.104 -21.487  0.00  0.00    +0.384 N 
ATOM     14  N   UNL     1      35.086 -21.647 -18.324  0.00  0.00    -0.258 N 
ATOM     15  C   UNL     1      33.614 -20.803 -20.032  0.00  0.00    +0.019 C 
ATOM     16  C   UNL     1      32.747 -21.452 -21.141  0.00  0.00    -0.076 C 
ATOM     17  C   UNL     1      32.587 -19.645 -20.125  0.00  0.00    -0.076 C 
ATOM     18  C   UNL     1      33.665 -21.551 -18.694  0.00  0.00    +0.100 C 
ATOM     19  C   UNL     1      35.107 -20.499 -20.342  0.00  0.00    +0.097 C 
ATOM     20  C   UNL     1      36.011 -21.029 -19.272  0.00  0.00    +0.084 C 
ATOM     21  H   UNL     1      31.260 -20.067 -21.709  0.00  0.00    -0.084 HD
ATOM     22  H   UNL     1      32.617 -19.612 -22.304  0.00  0.00    -0.084 HD
ENDROOT
BRANCH   3  23
ATOM     23  C   UNL     1      32.646 -23.950 -14.586  0.00  0.00    +0.079 C 
ATOM     24  C   UNL     1      31.708 -23.209 -13.677  0.00  0.00    +0.022 C 
ATOM     25  C   UNL     1      31.652 -24.706 -13.756  0.00  0.00    +0.022 C 
ENDBRANCH   3  23
BRANCH  11  27
ATOM     26  O   UNL     1      35.570 -25.099 -10.419  0.00  0.00    -0.245 OA
ATOM     27  C   UNL     1      36.108 -25.367 -11.480  0.00  0.00    +0.342 C 
BRANCH  27  28
ATOM     28  O   UNL     1      37.060 -26.306 -11.666  0.00  0.00    -0.477 OA
ATOM     29  H   UNL     1      37.821 -26.106 -12.175  0.00  0.00    +0.295 HD
ENDBRANCH  27  28
ENDBRANCH  11  27
BRANCH  19  30
ATOM     30  N   UNL     1      35.546 -19.871 -21.379  0.00  0.00    -0.134 NA
BRANCH  30  31
ATOM     31  O   UNL     1      36.075 -18.643 -20.962  0.00  0.00    -0.234 OA
ATOM     32  C   UNL     1      35.340 -17.607 -21.597  0.00  0.00    +0.211 C 
ENDBRANCH  30  31
ENDBRANCH  19  30
TORSDOF 5
ENDMDL
MODEL 9
REMARK VINA RESULT:      -7.3      2.859      8.613
REMARK  Name = 54556623
REMARK  5 active torsions:
REMARK  status: ('A' for Active; 'I' for Inactive)
REMARK    1  A    between atoms: N_3  and  C_26
REMARK    2  A    between atoms: C_11  and  C_30
REMARK    3  A    between atoms: N_15  and  C_20
REMARK    4  A    between atoms: N_15  and  O_24
REMARK    5  A    between atoms: C_30  and  O_31
REMARK                            x       y       z     vdW  Elec       q    Type
REMARK                         _______ _______ _______ _____ _____    ______ ____
ROOT
ATOM      1  F   UNL     1      31.539 -10.199 -19.600  0.00  0.00    -0.200 F 
ATOM      2  O   UNL     1      32.423 -15.182 -19.479  0.00  0.00    -0.290 OA
ATOM      3  N   UNL     1      33.244 -13.974 -23.273  0.00  0.00    -0.266 N 
ATOM      4  N   UNL     1      32.668 -11.691 -22.715  0.00  0.00    -0.373 NA
ATOM      5  C   UNL     1      32.251 -10.799 -21.788  0.00  0.00    +0.216 C 
ATOM      6  C   UNL     1      32.804 -12.990 -22.340  0.00  0.00    +0.177 C 
ATOM      7  C   UNL     1      32.514 -13.394 -21.026  0.00  0.00    +0.153 C 
ATOM      8  C   UNL     1      31.951 -11.123 -20.478  0.00  0.00    +0.181 C 
ATOM      9  C   UNL     1      33.346 -15.296 -22.896  0.00  0.00    +0.076 C 
ATOM     10  C   UNL     1      32.085 -12.448 -20.092  0.00  0.00    +0.023 C 
ATOM     11  C   UNL     1      33.092 -15.776 -21.672  0.00  0.00    +0.126 C 
ATOM     12  C   UNL     1      32.657 -14.816 -20.624  0.00  0.00    +0.192 C 
ATOM     13  N   UNL     1      32.167  -5.797 -24.790  0.00  0.00    +0.384 N 
ATOM     14  N   UNL     1      32.111  -9.472 -22.164  0.00  0.00    -0.258 N 
ATOM     15  C   UNL     1      32.120  -7.488 -23.528  0.00  0.00    +0.019 C 
ATOM     16  C   UNL     1      33.228  -6.599 -24.150  0.00  0.00    -0.076 C 
ATOM     17  C   UNL     1      31.252  -6.952 -24.695  0.00  0.00    -0.076 C 
ATOM     18  C   UNL     1      32.391  -8.998 -23.528  0.00  0.00    +0.100 C 
ATOM     19  C   UNL     1      31.667  -7.195 -22.069  0.00  0.00    +0.097 C 
ATOM     20  C   UNL     1      31.666  -8.436 -21.233  0.00  0.00    +0.084 C 
ATOM     21  H   UNL     1      32.379  -5.510 -25.746  0.00  0.00    -0.084 HD
ATOM     22  H   UNL     1      31.899  -4.890 -24.408  0.00  0.00    -0.084 HD
ENDROOT
BRANCH   3  23
ATOM     23  C   UNL     1      33.525 -13.589 -24.670  0.00  0.00    +0.079 C 
ATOM     24  C   UNL     1      32.472 -13.693 -25.735  0.00  0.00    +0.022 C 
ATOM     25  C   UNL     1      33.653 -14.619 -25.752  0.00  0.00    +0.022 C 
ENDBRANCH   3  23
BRANCH  11  27
ATOM     26  O   UNL     1      34.207 -17.870 -21.820  0.00  0.00    -0.245 OA
ATOM     27  C   UNL     1      33.256 -17.210 -21.436  0.00  0.00    +0.342 C 
BRANCH  27  28
ATOM     28  O   UNL     1      32.202 -17.679 -20.736  0.00  0.00    -0.477 OA
ATOM     29  H   UNL     1      32.319 -17.977 -19.856  0.00  0.00    +0.295 HD
ENDBRANCH  27  28
ENDBRANCH  11  27
BRANCH  19  30
ATOM     30  N   UNL     1      31.328  -6.040 -21.607  0.00  0.00    -0.134 NA
BRANCH  30  31
ATOM     31  O   UNL     1      30.279  -5.540 -22.390  0.00  0.00    -0.234 OA
ATOM     32  C   UNL     1      30.362  -4.123 -22.385  0.00  0.00    +0.211 C 
ENDBRANCH  30  31
ENDBRANCH  19  30
TORSDOF 5
ENDMDL
