MODEL 1
REMARK VINA RESULT:      -7.8      0.000      0.000
REMARK  Name = 90274764
REMARK  5 active torsions:
REMARK  status: ('A' for Active; 'I' for Inactive)
REMARK    1  A    between atoms: C_1  and  N_3
REMARK    2  A    between atoms: C_1  and  C_11
REMARK    3  A    between atoms: N_3  and  C_6
REMARK    4  A    between atoms: C_6  and  C_9
REMARK    5  A    between atoms: C_11  and  C_12
REMARK                            x       y       z     vdW  Elec       q    Type
REMARK                         _______ _______ _______ _____ _____    ______ ____
ROOT
ATOM      1  C   UNL     1      35.418 -18.202 -23.186  0.00  0.00    -0.053 C 
ATOM      2  C   UNL     1      34.871 -19.333 -24.057  0.00  0.00    -0.023 C 
ENDROOT
BRANCH   1   3
ATOM      3  N   UNL     1      35.354 -16.955 -23.953  0.00  0.00    +0.392 N 
ATOM      4  C   UNL     1      34.802 -15.881 -23.132  0.00  0.00    -0.100 C 
ATOM      5  H   UNL     1      36.300 -16.694 -24.232  0.00  0.00    -0.079 HD
BRANCH   3   6
ATOM      6  C   UNL     1      34.551 -17.142 -25.160  0.00  0.00    +0.015 C 
BRANCH   6   7
ATOM      7  C   UNL     1      33.814 -15.920 -25.494  0.00  0.00    -0.107 C 
ATOM      8  C   UNL     1      33.205 -14.921 -25.769  0.00  0.00    -0.017 C 
ENDBRANCH   6   7
ENDBRANCH   3   6
ENDBRANCH   1   3
BRANCH   1   9
ATOM      9  C   UNL     1      34.632 -18.039 -21.871  0.00  0.00    +0.006 C 
BRANCH   9  10
ATOM     10  C   UNL     1      34.577 -19.297 -21.039  0.00  0.00    -0.024 C 
ATOM     11  C   UNL     1      35.760 -19.918 -20.636  0.00  0.00    -0.004 C 
ATOM     12  C   UNL     1      33.345 -19.840 -20.676  0.00  0.00    -0.004 C 
ATOM     13  C   UNL     1      35.709 -21.081 -19.867  0.00  0.00    -0.000 C 
ATOM     14  C   UNL     1      33.294 -21.003 -19.908  0.00  0.00    -0.000 C 
ATOM     15  C   UNL     1      34.477 -21.624 -19.504  0.00  0.00    -0.000 C 
ENDBRANCH   9  10
ENDBRANCH   1   9
TORSDOF 5
ENDMDL
MODEL 2
REMARK VINA RESULT:      -7.6      1.509      2.727
REMARK  Name = 90274764
REMARK  5 active torsions:
REMARK  status: ('A' for Active; 'I' for Inactive)
REMARK    1  A    between atoms: C_1  and  N_3
REMARK    2  A    between atoms: C_1  and  C_11
REMARK    3  A    between atoms: N_3  and  C_6
REMARK    4  A    between atoms: C_6  and  C_9
REMARK    5  A    between atoms: C_11  and  C_12
REMARK                            x       y       z     vdW  Elec       q    Type
REMARK                         _______ _______ _______ _____ _____    ______ ____
ROOT
ATOM      1  C   UNL     1      34.813 -18.467 -22.407  0.00  0.00    -0.053 C 
ATOM      2  C   UNL     1      34.898 -18.989 -23.841  0.00  0.00    -0.023 C 
ENDROOT
BRANCH   1   3
ATOM      3  N   UNL     1      34.475 -17.041 -22.453  0.00  0.00    +0.392 N 
ATOM      4  C   UNL     1      35.180 -16.386 -23.551  0.00  0.00    -0.100 C 
ATOM      5  H   UNL     1      33.472 -16.949 -22.613  0.00  0.00    -0.079 HD
BRANCH   3   6
ATOM      6  C   UNL     1      34.799 -16.401 -21.179  0.00  0.00    +0.015 C 
BRANCH   6   7
ATOM      7  C   UNL     1      33.719 -15.507 -20.752  0.00  0.00    -0.107 C 
ATOM      8  C   UNL     1      32.837 -14.771 -20.402  0.00  0.00    -0.017 C 
ENDBRANCH   6   7
ENDBRANCH   3   6
ENDBRANCH   1   3
BRANCH   1   9
ATOM      9  C   UNL     1      33.763 -19.218 -21.568  0.00  0.00    +0.006 C 
BRANCH   9  10
ATOM     10  C   UNL     1      34.360 -20.207 -20.596  0.00  0.00    -0.024 C 
ATOM     11  C   UNL     1      33.529 -21.056 -19.866  0.00  0.00    -0.004 C 
ATOM     12  C   UNL     1      35.743 -20.270 -20.427  0.00  0.00    -0.004 C 
ATOM     13  C   UNL     1      34.081 -21.969 -18.967  0.00  0.00    -0.000 C 
ATOM     14  C   UNL     1      36.295 -21.183 -19.528  0.00  0.00    -0.000 C 
ATOM     15  C   UNL     1      35.464 -22.032 -18.798  0.00  0.00    -0.000 C 
ENDBRANCH   9  10
ENDBRANCH   1   9
TORSDOF 5
ENDMDL
MODEL 3
REMARK VINA RESULT:      -7.4      0.969      1.911
REMARK  Name = 90274764
REMARK  5 active torsions:
REMARK  status: ('A' for Active; 'I' for Inactive)
REMARK    1  A    between atoms: C_1  and  N_3
REMARK    2  A    between atoms: C_1  and  C_11
REMARK    3  A    between atoms: N_3  and  C_6
REMARK    4  A    between atoms: C_6  and  C_9
REMARK    5  A    between atoms: C_11  and  C_12
REMARK                            x       y       z     vdW  Elec       q    Type
REMARK                         _______ _______ _______ _____ _____    ______ ____
ROOT
ATOM      1  C   UNL     1      34.668 -17.055 -22.048  0.00  0.00    -0.053 C 
ATOM      2  C   UNL     1      34.751 -16.111 -20.849  0.00  0.00    -0.023 C 
ENDROOT
BRANCH   1   3
ATOM      3  N   UNL     1      35.067 -16.314 -23.249  0.00  0.00    +0.392 N 
ATOM      4  C   UNL     1      34.548 -14.950 -23.200  0.00  0.00    -0.100 C 
ATOM      5  H   UNL     1      36.086 -16.271 -23.283  0.00  0.00    -0.079 HD
BRANCH   3   6
ATOM      6  C   UNL     1      34.594 -17.001 -24.449  0.00  0.00    +0.015 C 
BRANCH   6   7
ATOM      7  C   UNL     1      33.875 -16.078 -25.332  0.00  0.00    -0.107 C 
ATOM      8  C   UNL     1      33.282 -15.325 -26.056  0.00  0.00    -0.017 C 
ENDBRANCH   6   7
ENDBRANCH   3   6
ENDBRANCH   1   3
BRANCH   1   9
ATOM      9  C   UNL     1      35.569 -18.295 -21.886  0.00  0.00    +0.006 C 
BRANCH   9  10
ATOM     10  C   UNL     1      34.935 -19.401 -21.078  0.00  0.00    -0.024 C 
ATOM     11  C   UNL     1      33.546 -19.492 -20.990  0.00  0.00    -0.004 C 
ATOM     12  C   UNL     1      35.738 -20.330 -20.418  0.00  0.00    -0.004 C 
ATOM     13  C   UNL     1      32.960 -20.513 -20.242  0.00  0.00    -0.000 C 
ATOM     14  C   UNL     1      35.153 -21.352 -19.670  0.00  0.00    -0.000 C 
ATOM     15  C   UNL     1      33.764 -21.443 -19.582  0.00  0.00    -0.000 C 
ENDBRANCH   9  10
ENDBRANCH   1   9
TORSDOF 5
ENDMDL
MODEL 4
REMARK VINA RESULT:      -7.3      1.107      2.102
REMARK  Name = 90274764
REMARK  5 active torsions:
REMARK  status: ('A' for Active; 'I' for Inactive)
REMARK    1  A    between atoms: C_1  and  N_3
REMARK    2  A    between atoms: C_1  and  C_11
REMARK    3  A    between atoms: N_3  and  C_6
REMARK    4  A    between atoms: C_6  and  C_9
REMARK    5  A    between atoms: C_11  and  C_12
REMARK                            x       y       z     vdW  Elec       q    Type
REMARK                         _______ _______ _______ _____ _____    ______ ____
ROOT
ATOM      1  C   UNL     1      34.401 -16.808 -22.080  0.00  0.00    -0.053 C 
ATOM      2  C   UNL     1      34.062 -15.746 -21.035  0.00  0.00    -0.023 C 
ENDROOT
BRANCH   1   3
ATOM      3  N   UNL     1      34.849 -16.131 -23.301  0.00  0.00    +0.392 N 
ATOM      4  C   UNL     1      34.595 -14.696 -23.208  0.00  0.00    -0.100 C 
ATOM      5  H   UNL     1      35.854 -16.275 -23.404  0.00  0.00    -0.079 HD
BRANCH   3   6
ATOM      6  C   UNL     1      34.179 -16.697 -24.470  0.00  0.00    +0.015 C 
BRANCH   6   7
ATOM      7  C   UNL     1      34.504 -18.118 -24.623  0.00  0.00    -0.107 C 
ATOM      8  C   UNL     1      34.775 -19.282 -24.747  0.00  0.00    -0.017 C 
ENDBRANCH   6   7
ENDBRANCH   3   6
ENDBRANCH   1   3
BRANCH   1   9
ATOM      9  C   UNL     1      35.496 -17.779 -21.600  0.00  0.00    +0.006 C 
BRANCH   9  10
ATOM     10  C   UNL     1      34.953 -19.040 -20.972  0.00  0.00    -0.024 C 
ATOM     11  C   UNL     1      35.829 -19.991 -20.447  0.00  0.00    -0.004 C 
ATOM     12  C   UNL     1      33.576 -19.255 -20.917  0.00  0.00    -0.004 C 
ATOM     13  C   UNL     1      35.327 -21.156 -19.868  0.00  0.00    -0.000 C 
ATOM     14  C   UNL     1      33.074 -20.420 -20.338  0.00  0.00    -0.000 C 
ATOM     15  C   UNL     1      33.950 -21.371 -19.813  0.00  0.00    -0.000 C 
ENDBRANCH   9  10
ENDBRANCH   1   9
TORSDOF 5
ENDMDL
MODEL 5
REMARK VINA RESULT:      -7.2      1.699      6.073
REMARK  Name = 90274764
REMARK  5 active torsions:
REMARK  status: ('A' for Active; 'I' for Inactive)
REMARK    1  A    between atoms: C_1  and  N_3
REMARK    2  A    between atoms: C_1  and  C_11
REMARK    3  A    between atoms: N_3  and  C_6
REMARK    4  A    between atoms: C_6  and  C_9
REMARK    5  A    between atoms: C_11  and  C_12
REMARK                            x       y       z     vdW  Elec       q    Type
REMARK                         _______ _______ _______ _____ _____    ______ ____
ROOT
ATOM      1  C   UNL     1      34.611 -19.323 -20.952  0.00  0.00    -0.053 C 
ATOM      2  C   UNL     1      33.392 -20.165 -20.573  0.00  0.00    -0.023 C 
ENDROOT
BRANCH   1   3
ATOM      3  N   UNL     1      35.748 -19.764 -20.139  0.00  0.00    +0.392 N 
ATOM      4  C   UNL     1      37.006 -19.395 -20.782  0.00  0.00    -0.100 C 
ATOM      5  H   UNL     1      35.701 -19.299 -19.232  0.00  0.00    -0.079 HD
BRANCH   3   6
ATOM      6  C   UNL     1      35.687 -21.208 -19.921  0.00  0.00    +0.015 C 
BRANCH   6   7
ATOM      7  C   UNL     1      36.277 -21.568 -18.629  0.00  0.00    -0.107 C 
ATOM      8  C   UNL     1      36.765 -21.860 -17.570  0.00  0.00    -0.017 C 
ENDBRANCH   6   7
ENDBRANCH   3   6
ENDBRANCH   1   3
BRANCH   1   9
ATOM      9  C   UNL     1      34.968 -19.443 -22.445  0.00  0.00    +0.006 C 
BRANCH   9  10
ATOM     10  C   UNL     1      34.731 -18.174 -23.227  0.00  0.00    -0.024 C 
ATOM     11  C   UNL     1      34.575 -18.227 -24.612  0.00  0.00    -0.004 C 
ATOM     12  C   UNL     1      34.670 -16.948 -22.565  0.00  0.00    -0.004 C 
ATOM     13  C   UNL     1      34.356 -17.054 -25.334  0.00  0.00    -0.000 C 
ATOM     14  C   UNL     1      34.452 -15.775 -23.287  0.00  0.00    -0.000 C 
ATOM     15  C   UNL     1      34.295 -15.828 -24.672  0.00  0.00    -0.000 C 
ENDBRANCH   9  10
ENDBRANCH   1   9
TORSDOF 5
ENDMDL
MODEL 6
REMARK VINA RESULT:      -7.2      1.870      6.224
REMARK  Name = 90274764
REMARK  5 active torsions:
REMARK  status: ('A' for Active; 'I' for Inactive)
REMARK    1  A    between atoms: C_1  and  N_3
REMARK    2  A    between atoms: C_1  and  C_11
REMARK    3  A    between atoms: N_3  and  C_6
REMARK    4  A    between atoms: C_6  and  C_9
REMARK    5  A    between atoms: C_11  and  C_12
REMARK                            x       y       z     vdW  Elec       q    Type
REMARK                         _______ _______ _______ _____ _____    ______ ____
ROOT
ATOM      1  C   UNL     1      34.461 -19.659 -20.605  0.00  0.00    -0.053 C 
ATOM      2  C   UNL     1      32.977 -19.750 -20.959  0.00  0.00    -0.023 C 
ENDROOT
BRANCH   1   3
ATOM      3  N   UNL     1      34.785 -20.754 -19.685  0.00  0.00    +0.392 N 
ATOM      4  C   UNL     1      36.078 -21.339 -20.026  0.00  0.00    -0.100 C 
ATOM      5  H   UNL     1      34.840 -20.379 -18.738  0.00  0.00    -0.079 HD
BRANCH   3   6
ATOM      6  C   UNL     1      33.736 -21.771 -19.717  0.00  0.00    +0.015 C 
BRANCH   6   7
ATOM      7  C   UNL     1      33.682 -22.509 -18.452  0.00  0.00    -0.107 C 
ATOM      8  C   UNL     1      33.642 -23.111 -17.413  0.00  0.00    -0.017 C 
ENDBRANCH   6   7
ENDBRANCH   3   6
ENDBRANCH   1   3
BRANCH   1   9
ATOM      9  C   UNL     1      35.369 -19.744 -21.845  0.00  0.00    +0.006 C 
BRANCH   9  10
ATOM     10  C   UNL     1      35.110 -18.656 -22.860  0.00  0.00    -0.024 C 
ATOM     11  C   UNL     1      34.695 -18.990 -24.149  0.00  0.00    -0.004 C 
ATOM     12  C   UNL     1      35.286 -17.318 -22.508  0.00  0.00    -0.004 C 
ATOM     13  C   UNL     1      34.457 -17.985 -25.086  0.00  0.00    -0.000 C 
ATOM     14  C   UNL     1      35.047 -16.313 -23.445  0.00  0.00    -0.000 C 
ATOM     15  C   UNL     1      34.633 -16.647 -24.735  0.00  0.00    -0.000 C 
ENDBRANCH   9  10
ENDBRANCH   1   9
TORSDOF 5
ENDMDL
MODEL 7
REMARK VINA RESULT:      -7.1      1.982      4.796
REMARK  Name = 90274764
REMARK  5 active torsions:
REMARK  status: ('A' for Active; 'I' for Inactive)
REMARK    1  A    between atoms: C_1  and  N_3
REMARK    2  A    between atoms: C_1  and  C_11
REMARK    3  A    between atoms: N_3  and  C_6
REMARK    4  A    between atoms: C_6  and  C_9
REMARK    5  A    between atoms: C_11  and  C_12
REMARK                            x       y       z     vdW  Elec       q    Type
REMARK                         _______ _______ _______ _____ _____    ______ ____
ROOT
ATOM      1  C   UNL     1      35.421 -17.798 -21.766  0.00  0.00    -0.053 C 
ATOM      2  C   UNL     1      36.454 -18.740 -21.149  0.00  0.00    -0.023 C 
ENDROOT
BRANCH   1   3
ATOM      3  N   UNL     1      34.306 -18.603 -22.274  0.00  0.00    +0.392 N 
ATOM      4  C   UNL     1      33.990 -19.681 -21.340  0.00  0.00    -0.100 C 
ATOM      5  H   UNL     1      33.485 -18.003 -22.364  0.00  0.00    -0.079 HD
BRANCH   3   6
ATOM      6  C   UNL     1      34.629 -19.143 -23.593  0.00  0.00    +0.015 C 
BRANCH   6   7
ATOM      7  C   UNL     1      34.633 -18.084 -24.606  0.00  0.00    -0.107 C 
ATOM      8  C   UNL     1      34.641 -17.217 -25.438  0.00  0.00    -0.017 C 
ENDBRANCH   6   7
ENDBRANCH   3   6
ENDBRANCH   1   3
BRANCH   1   9
ATOM      9  C   UNL     1      34.890 -16.763 -20.756  0.00  0.00    +0.006 C 
BRANCH   9  10
ATOM     10  C   UNL     1      34.168 -15.604 -21.402  0.00  0.00    -0.024 C 
ATOM     11  C   UNL     1      34.651 -15.057 -22.591  0.00  0.00    -0.004 C 
ATOM     12  C   UNL     1      33.020 -15.080 -20.808  0.00  0.00    -0.004 C 
ATOM     13  C   UNL     1      33.984 -13.987 -23.186  0.00  0.00    -0.000 C 
ATOM     14  C   UNL     1      32.353 -14.010 -21.404  0.00  0.00    -0.000 C 
ATOM     15  C   UNL     1      32.836 -13.463 -22.593  0.00  0.00    -0.000 C 
ENDBRANCH   9  10
ENDBRANCH   1   9
TORSDOF 5
ENDMDL
MODEL 8
REMARK VINA RESULT:      -7.1      1.960      5.570
REMARK  Name = 90274764
REMARK  5 active torsions:
REMARK  status: ('A' for Active; 'I' for Inactive)
REMARK    1  A    between atoms: C_1  and  N_3
REMARK    2  A    between atoms: C_1  and  C_11
REMARK    3  A    between atoms: N_3  and  C_6
REMARK    4  A    between atoms: C_6  and  C_9
REMARK    5  A    between atoms: C_11  and  C_12
REMARK                            x       y       z     vdW  Elec       q    Type
REMARK                         _______ _______ _______ _____ _____    ______ ____
ROOT
ATOM      1  C   UNL     1      34.469 -18.520 -22.852  0.00  0.00    -0.053 C 
ATOM      2  C   UNL     1      34.983 -19.044 -24.193  0.00  0.00    -0.023 C 
ENDROOT
BRANCH   1   3
ATOM      3  N   UNL     1      34.658 -19.567 -21.843  0.00  0.00    +0.392 N 
ATOM      4  C   UNL     1      33.468 -19.685 -21.004  0.00  0.00    -0.100 C 
ATOM      5  H   UNL     1      34.806 -20.456 -22.320  0.00  0.00    -0.079 HD
BRANCH   3   6
ATOM      6  C   UNL     1      35.835 -19.278 -21.027  0.00  0.00    +0.015 C 
BRANCH   6   7
ATOM      7  C   UNL     1      36.171 -20.420 -20.171  0.00  0.00    -0.107 C 
ATOM      8  C   UNL     1      36.450 -21.353 -19.467  0.00  0.00    -0.017 C 
ENDBRANCH   6   7
ENDBRANCH   3   6
ENDBRANCH   1   3
BRANCH   1   9
ATOM      9  C   UNL     1      35.194 -17.237 -22.404  0.00  0.00    +0.006 C 
BRANCH   9  10
ATOM     10  C   UNL     1      34.262 -16.081 -22.129  0.00  0.00    -0.024 C 
ATOM     11  C   UNL     1      33.819 -15.837 -20.829  0.00  0.00    -0.004 C 
ATOM     12  C   UNL     1      33.844 -15.258 -23.175  0.00  0.00    -0.004 C 
ATOM     13  C   UNL     1      32.957 -14.770 -20.576  0.00  0.00    -0.000 C 
ATOM     14  C   UNL     1      32.983 -14.191 -22.921  0.00  0.00    -0.000 C 
ATOM     15  C   UNL     1      32.539 -13.947 -21.621  0.00  0.00    -0.000 C 
ENDBRANCH   9  10
ENDBRANCH   1   9
TORSDOF 5
ENDMDL
MODEL 9
REMARK VINA RESULT:      -7.1      2.117      5.956
REMARK  Name = 90274764
REMARK  5 active torsions:
REMARK  status: ('A' for Active; 'I' for Inactive)
REMARK    1  A    between atoms: C_1  and  N_3
REMARK    2  A    between atoms: C_1  and  C_11
REMARK    3  A    between atoms: N_3  and  C_6
REMARK    4  A    between atoms: C_6  and  C_9
REMARK    5  A    between atoms: C_11  and  C_12
REMARK                            x       y       z     vdW  Elec       q    Type
REMARK                         _______ _______ _______ _____ _____    ______ ____
ROOT
ATOM      1  C   UNL     1      34.629 -18.009 -21.700  0.00  0.00    -0.053 C 
ATOM      2  C   UNL     1      35.647 -18.385 -22.777  0.00  0.00    -0.023 C 
ENDROOT
BRANCH   1   3
ATOM      3  N   UNL     1      34.609 -19.072 -20.691  0.00  0.00    +0.392 N 
ATOM      4  C   UNL     1      35.790 -19.922 -20.824  0.00  0.00    -0.100 C 
ATOM      5  H   UNL     1      34.622 -18.644 -19.765  0.00  0.00    -0.079 HD
BRANCH   3   6
ATOM      6  C   UNL     1      33.388 -19.866 -20.815  0.00  0.00    +0.015 C 
BRANCH   6   7
ATOM      7  C   UNL     1      33.392 -20.984 -19.866  0.00  0.00    -0.107 C 
ATOM      8  C   UNL     1      33.392 -21.902 -19.092  0.00  0.00    -0.017 C 
ENDBRANCH   6   7
ENDBRANCH   3   6
ENDBRANCH   1   3
BRANCH   1   9
ATOM      9  C   UNL     1      34.956 -16.664 -21.024  0.00  0.00    +0.006 C 
BRANCH   9  10
ATOM     10  C   UNL     1      34.156 -15.505 -21.566  0.00  0.00    -0.024 C 
ATOM     11  C   UNL     1      34.486 -14.948 -22.802  0.00  0.00    -0.004 C 
ATOM     12  C   UNL     1      33.088 -14.990 -20.832  0.00  0.00    -0.004 C 
ATOM     13  C   UNL     1      33.746 -13.876 -23.303  0.00  0.00    -0.000 C 
ATOM     14  C   UNL     1      32.349 -13.918 -21.332  0.00  0.00    -0.000 C 
ATOM     15  C   UNL     1      32.679 -13.361 -22.568  0.00  0.00    -0.000 C 
ENDBRANCH   9  10
ENDBRANCH   1   9
TORSDOF 5
ENDMDL
