MODEL 1
REMARK VINA RESULT:      -5.4      0.000      0.000
REMARK  Name = 237332
REMARK  3 active torsions:
REMARK  status: ('A' for Active; 'I' for Inactive)
REMARK    1  A    between atoms: C_2  and  C_8
REMARK    2  A    between atoms: C_4  and  C_7
REMARK    3  A    between atoms: C_8  and  O_9
REMARK                            x       y       z     vdW  Elec       q    Type
REMARK                         _______ _______ _______ _____ _____    ______ ____
ROOT
ATOM      1  O   UNL     1      38.879 -24.253 -12.926  0.00  0.00    -0.452 OA
ATOM      2  C   UNL     1      37.625 -24.317 -12.409  0.00  0.00    +0.153 C 
ATOM      3  C   UNL     1      37.000 -25.479 -12.797  0.00  0.00    +0.039 C 
ATOM      4  C   UNL     1      39.059 -25.387 -13.652  0.00  0.00    +0.187 C 
ATOM      5  C   UNL     1      37.932 -26.174 -13.606  0.00  0.00    +0.044 C 
ENDROOT
BRANCH   4   7
ATOM      6  O   UNL     1      41.078 -26.544 -14.192  0.00  0.00    -0.280 OA
ATOM      7  C   UNL     1      40.310 -25.569 -14.306  0.00  0.00    +0.271 C 
ENDBRANCH   4   7
BRANCH   2   8
ATOM      8  C   UNL     1      37.205 -23.180 -11.577  0.00  0.00    +0.202 C 
BRANCH   8   9
ATOM      9  O   UNL     1      38.050 -22.070 -11.884  0.00  0.00    -0.375 OA
ATOM     10  H   UNL     1      38.939 -22.391 -12.103  0.00  0.00    +0.211 HD
ENDBRANCH   8   9
ENDBRANCH   2   8
TORSDOF 3
ENDMDL
MODEL 2
REMARK VINA RESULT:      -5.3      0.859      3.832
REMARK  Name = 237332
REMARK  3 active torsions:
REMARK  status: ('A' for Active; 'I' for Inactive)
REMARK    1  A    between atoms: C_2  and  C_8
REMARK    2  A    between atoms: C_4  and  C_7
REMARK    3  A    between atoms: C_8  and  O_9
REMARK                            x       y       z     vdW  Elec       q    Type
REMARK                         _______ _______ _______ _____ _____    ______ ____
ROOT
ATOM      1  O   UNL     1      38.854 -24.365 -13.253  0.00  0.00    -0.452 OA
ATOM      2  C   UNL     1      39.087 -25.433 -14.059  0.00  0.00    +0.153 C 
ATOM      3  C   UNL     1      37.952 -26.199 -14.188  0.00  0.00    +0.039 C 
ATOM      4  C   UNL     1      37.556 -24.450 -12.862  0.00  0.00    +0.187 C 
ATOM      5  C   UNL     1      36.957 -25.561 -13.409  0.00  0.00    +0.044 C 
ENDROOT
BRANCH   4   7
ATOM      6  O   UNL     1      37.716 -22.694 -11.251  0.00  0.00    -0.280 OA
ATOM      7  C   UNL     1      37.052 -23.436 -12.000  0.00  0.00    +0.271 C 
ENDBRANCH   4   7
BRANCH   2   8
ATOM      8  C   UNL     1      40.446 -25.551 -14.607  0.00  0.00    +0.202 C 
BRANCH   8   9
ATOM      9  O   UNL     1      40.339 -25.926 -15.981  0.00  0.00    -0.375 OA
ATOM     10  H   UNL     1      40.142 -25.142 -16.517  0.00  0.00    +0.211 HD
ENDBRANCH   8   9
ENDBRANCH   2   8
TORSDOF 3
ENDMDL
MODEL 3
REMARK VINA RESULT:      -5.2      2.363      4.419
REMARK  Name = 237332
REMARK  3 active torsions:
REMARK  status: ('A' for Active; 'I' for Inactive)
REMARK    1  A    between atoms: C_2  and  C_8
REMARK    2  A    between atoms: C_4  and  C_7
REMARK    3  A    between atoms: C_8  and  O_9
REMARK                            x       y       z     vdW  Elec       q    Type
REMARK                         _______ _______ _______ _____ _____    ______ ____
ROOT
ATOM      1  O   UNL     1      36.346 -25.679 -12.674  0.00  0.00    -0.452 OA
ATOM      2  C   UNL     1      37.430 -25.961 -13.443  0.00  0.00    +0.153 C 
ATOM      3  C   UNL     1      38.501 -25.181 -13.074  0.00  0.00    +0.039 C 
ATOM      4  C   UNL     1      36.729 -24.708 -11.804  0.00  0.00    +0.187 C 
ATOM      5  C   UNL     1      38.045 -24.366 -12.011  0.00  0.00    +0.044 C 
ENDROOT
BRANCH   4   7
ATOM      6  O   UNL     1      35.317 -24.833  -9.882  0.00  0.00    -0.280 OA
ATOM      7  C   UNL     1      35.764 -24.228 -10.875  0.00  0.00    +0.271 C 
ENDBRANCH   4   7
BRANCH   2   8
ATOM      8  C   UNL     1      37.247 -26.997 -14.470  0.00  0.00    +0.202 C 
BRANCH   8   9
ATOM      9  O   UNL     1      37.551 -26.420 -15.741  0.00  0.00    -0.375 OA
ATOM     10  H   UNL     1      38.325 -26.864 -16.121  0.00  0.00    +0.211 HD
ENDBRANCH   8   9
ENDBRANCH   2   8
TORSDOF 3
ENDMDL
MODEL 4
REMARK VINA RESULT:      -5.2      9.840     10.224
REMARK  Name = 237332
REMARK  3 active torsions:
REMARK  status: ('A' for Active; 'I' for Inactive)
REMARK    1  A    between atoms: C_2  and  C_8
REMARK    2  A    between atoms: C_4  and  C_7
REMARK    3  A    between atoms: C_8  and  O_9
REMARK                            x       y       z     vdW  Elec       q    Type
REMARK                         _______ _______ _______ _____ _____    ______ ____
ROOT
ATOM      1  O   UNL     1      35.161 -20.434 -20.107  0.00  0.00    -0.452 OA
ATOM      2  C   UNL     1      35.103 -19.360 -20.938  0.00  0.00    +0.153 C 
ATOM      3  C   UNL     1      33.801 -19.088 -21.285  0.00  0.00    +0.039 C 
ATOM      4  C   UNL     1      33.882 -20.852 -19.922  0.00  0.00    +0.187 C 
ATOM      5  C   UNL     1      33.008 -20.058 -20.626  0.00  0.00    +0.044 C 
ENDROOT
BRANCH   4   7
ATOM      6  O   UNL     1      32.590 -22.317 -18.548  0.00  0.00    -0.280 OA
ATOM      7  C   UNL     1      33.665 -21.978 -19.080  0.00  0.00    +0.271 C 
ENDBRANCH   4   7
BRANCH   2   8
ATOM      8  C   UNL     1      36.387 -18.734 -21.283  0.00  0.00    +0.202 C 
BRANCH   8   9
ATOM      9  O   UNL     1      36.297 -18.247 -22.623  0.00  0.00    -0.375 OA
ATOM     10  H   UNL     1      35.384 -17.977 -22.809  0.00  0.00    +0.211 HD
ENDBRANCH   8   9
ENDBRANCH   2   8
TORSDOF 3
ENDMDL
MODEL 5
REMARK VINA RESULT:      -5.2      8.837      9.540
REMARK  Name = 237332
REMARK  3 active torsions:
REMARK  status: ('A' for Active; 'I' for Inactive)
REMARK    1  A    between atoms: C_2  and  C_8
REMARK    2  A    between atoms: C_4  and  C_7
REMARK    3  A    between atoms: C_8  and  O_9
REMARK                            x       y       z     vdW  Elec       q    Type
REMARK                         _______ _______ _______ _____ _____    ______ ____
ROOT
ATOM      1  O   UNL     1      30.196 -22.683 -17.159  0.00  0.00    -0.452 OA
ATOM      2  C   UNL     1      29.213 -22.722 -16.223  0.00  0.00    +0.153 C 
ATOM      3  C   UNL     1      29.741 -22.976 -14.978  0.00  0.00    +0.039 C 
ATOM      4  C   UNL     1      31.365 -22.916 -16.506  0.00  0.00    +0.187 C 
ATOM      5  C   UNL     1      31.138 -23.103 -15.163  0.00  0.00    +0.044 C 
ENDROOT
BRANCH   4   7
ATOM      6  O   UNL     1      32.714 -22.504 -18.433  0.00  0.00    -0.280 OA
ATOM      7  C   UNL     1      32.565 -22.928 -17.271  0.00  0.00    +0.271 C 
ENDBRANCH   4   7
BRANCH   2   8
ATOM      8  C   UNL     1      27.844 -22.495 -16.706  0.00  0.00    +0.202 C 
BRANCH   8   9
ATOM      9  O   UNL     1      27.552 -23.485 -17.693  0.00  0.00    -0.375 OA
ATOM     10  H   UNL     1      27.407 -23.055 -18.551  0.00  0.00    +0.211 HD
ENDBRANCH   8   9
ENDBRANCH   2   8
TORSDOF 3
ENDMDL
MODEL 6
REMARK VINA RESULT:      -5.1      8.782      9.883
REMARK  Name = 237332
REMARK  3 active torsions:
REMARK  status: ('A' for Active; 'I' for Inactive)
REMARK    1  A    between atoms: C_2  and  C_8
REMARK    2  A    between atoms: C_4  and  C_7
REMARK    3  A    between atoms: C_8  and  O_9
REMARK                            x       y       z     vdW  Elec       q    Type
REMARK                         _______ _______ _______ _____ _____    ______ ____
ROOT
ATOM      1  O   UNL     1      30.372 -22.857 -17.184  0.00  0.00    -0.452 OA
ATOM      2  C   UNL     1      31.488 -22.975 -16.419  0.00  0.00    +0.153 C 
ATOM      3  C   UNL     1      31.160 -22.968 -15.083  0.00  0.00    +0.039 C 
ATOM      4  C   UNL     1      29.320 -22.774 -16.329  0.00  0.00    +0.187 C 
ATOM      5  C   UNL     1      29.752 -22.836 -15.025  0.00  0.00    +0.044 C 
ENDROOT
BRANCH   4   7
ATOM      6  O   UNL     1      27.470 -23.413 -17.697  0.00  0.00    -0.280 OA
ATOM      7  C   UNL     1      28.017 -22.642 -16.886  0.00  0.00    +0.271 C 
ENDBRANCH   4   7
BRANCH   2   8
ATOM      8  C   UNL     1      32.764 -23.081 -17.140  0.00  0.00    +0.202 C 
BRANCH   8   9
ATOM      9  O   UNL     1      32.614 -22.433 -18.404  0.00  0.00    -0.375 OA
ATOM     10  H   UNL     1      31.971 -21.711 -18.323  0.00  0.00    +0.211 HD
ENDBRANCH   8   9
ENDBRANCH   2   8
TORSDOF 3
ENDMDL
MODEL 7
REMARK VINA RESULT:      -5.1      9.623      9.947
REMARK  Name = 237332
REMARK  3 active torsions:
REMARK  status: ('A' for Active; 'I' for Inactive)
REMARK    1  A    between atoms: C_2  and  C_8
REMARK    2  A    between atoms: C_4  and  C_7
REMARK    3  A    between atoms: C_8  and  O_9
REMARK                            x       y       z     vdW  Elec       q    Type
REMARK                         _______ _______ _______ _____ _____    ______ ____
ROOT
ATOM      1  O   UNL     1      35.416 -20.376 -20.095  0.00  0.00    -0.452 OA
ATOM      2  C   UNL     1      34.338 -21.115 -19.725  0.00  0.00    +0.153 C 
ATOM      3  C   UNL     1      33.185 -20.590 -20.262  0.00  0.00    +0.039 C 
ATOM      4  C   UNL     1      34.948 -19.368 -20.876  0.00  0.00    +0.187 C 
ATOM      5  C   UNL     1      33.581 -19.455 -21.008  0.00  0.00    +0.044 C 
ENDROOT
BRANCH   4   7
ATOM      6  O   UNL     1      36.219 -18.303 -22.594  0.00  0.00    -0.280 OA
ATOM      7  C   UNL     1      35.889 -18.439 -21.400  0.00  0.00    +0.271 C 
ENDBRANCH   4   7
BRANCH   2   8
ATOM      8  C   UNL     1      34.608 -22.275 -18.864  0.00  0.00    +0.202 C 
BRANCH   8   9
ATOM      9  O   UNL     1      33.996 -23.420 -19.457  0.00  0.00    -0.375 OA
ATOM     10  H   UNL     1      34.579 -24.189 -19.354  0.00  0.00    +0.211 HD
ENDBRANCH   8   9
ENDBRANCH   2   8
TORSDOF 3
ENDMDL
MODEL 8
REMARK VINA RESULT:      -5.1     11.030     11.449
REMARK  Name = 237332
REMARK  3 active torsions:
REMARK  status: ('A' for Active; 'I' for Inactive)
REMARK    1  A    between atoms: C_2  and  C_8
REMARK    2  A    between atoms: C_4  and  C_7
REMARK    3  A    between atoms: C_8  and  O_9
REMARK                            x       y       z     vdW  Elec       q    Type
REMARK                         _______ _______ _______ _____ _____    ______ ____
ROOT
ATOM      1  O   UNL     1      33.787 -18.264 -21.295  0.00  0.00    -0.452 OA
ATOM      2  C   UNL     1      34.997 -17.736 -21.615  0.00  0.00    +0.153 C 
ATOM      3  C   UNL     1      36.000 -18.648 -21.378  0.00  0.00    +0.039 C 
ATOM      4  C   UNL     1      34.018 -19.526 -20.849  0.00  0.00    +0.187 C 
ATOM      5  C   UNL     1      35.364 -19.810 -20.879  0.00  0.00    +0.044 C 
ENDROOT
BRANCH   4   7
ATOM      6  O   UNL     1      32.786 -20.961 -19.391  0.00  0.00    -0.280 OA
ATOM      7  C   UNL     1      32.899 -20.306 -20.445  0.00  0.00    +0.271 C 
ENDBRANCH   4   7
BRANCH   2   8
ATOM      8  C   UNL     1      34.992 -16.359 -22.127  0.00  0.00    +0.202 C 
BRANCH   8   9
ATOM      9  O   UNL     1      35.712 -16.341 -23.360  0.00  0.00    -0.375 OA
ATOM     10  H   UNL     1      35.550 -17.167 -23.841  0.00  0.00    +0.211 HD
ENDBRANCH   8   9
ENDBRANCH   2   8
TORSDOF 3
ENDMDL
MODEL 9
REMARK VINA RESULT:      -5.1     13.444     13.768
REMARK  Name = 237332
REMARK  3 active torsions:
REMARK  status: ('A' for Active; 'I' for Inactive)
REMARK    1  A    between atoms: C_2  and  C_8
REMARK    2  A    between atoms: C_4  and  C_7
REMARK    3  A    between atoms: C_8  and  O_9
REMARK                            x       y       z     vdW  Elec       q    Type
REMARK                         _______ _______ _______ _____ _____    ______ ____
ROOT
ATOM      1  O   UNL     1      34.965 -17.013 -23.305  0.00  0.00    -0.452 OA
ATOM      2  C   UNL     1      35.280 -18.270 -22.900  0.00  0.00    +0.153 C 
ATOM      3  C   UNL     1      34.965 -19.186 -23.876  0.00  0.00    +0.039 C 
ATOM      4  C   UNL     1      34.442 -17.126 -24.554  0.00  0.00    +0.187 C 
ATOM      5  C   UNL     1      34.419 -18.443 -24.950  0.00  0.00    +0.044 C 
ENDROOT
BRANCH   4   7
ATOM      6  O   UNL     1      33.544 -15.846 -26.359  0.00  0.00    -0.280 OA
ATOM      7  C   UNL     1      34.025 -15.936 -25.213  0.00  0.00    +0.271 C 
ENDBRANCH   4   7
BRANCH   2   8
ATOM      8  C   UNL     1      35.869 -18.393 -21.558  0.00  0.00    +0.202 C 
BRANCH   8   9
ATOM      9  O   UNL     1      35.294 -17.383 -20.728  0.00  0.00    -0.375 OA
ATOM     10  H   UNL     1      34.445 -17.101 -21.102  0.00  0.00    +0.211 HD
ENDBRANCH   8   9
ENDBRANCH   2   8
TORSDOF 3
ENDMDL
