MODEL 1
REMARK VINA RESULT:      -9.1      0.000      0.000
REMARK  Name = 5289419
REMARK  2 active torsions:
REMARK  status: ('A' for Active; 'I' for Inactive)
REMARK    1  A    between atoms: C_9  and  C_15
REMARK    2  A    between atoms: C_10  and  O_20
REMARK                            x       y       z     vdW  Elec       q    Type
REMARK                         _______ _______ _______ _____ _____    ______ ____
ROOT
ATOM      1  O   UNL     1      37.117 -18.499 -21.794  0.00  0.00    -0.270 OA
ATOM      2  N   UNL     1      36.981 -20.111 -20.074  0.00  0.00    -0.280 N 
ATOM      3  C   UNL     1      34.731 -20.584 -20.137  0.00  0.00    +0.021 C 
ATOM      4  C   UNL     1      35.948 -20.871 -19.512  0.00  0.00    +0.051 C 
ATOM      5  C   UNL     1      35.033 -19.580 -21.153  0.00  0.00    +0.056 C 
ATOM      6  C   UNL     1      36.504 -19.284 -21.096  0.00  0.00    +0.250 C 
ATOM      7  C   UNL     1      33.570 -21.221 -19.745  0.00  0.00    +0.038 C 
ATOM      8  C   UNL     1      36.054 -21.789 -18.486  0.00  0.00    +0.018 C 
ATOM      9  C   UNL     1      34.200 -18.989 -22.011  0.00  0.00    +0.020 C 
ATOM     10  C   UNL     1      33.654 -22.155 -18.706  0.00  0.00    +0.139 C 
ATOM     11  C   UNL     1      34.885 -22.436 -18.084  0.00  0.00    +0.038 C 
ATOM     12  H   UNL     1      37.921 -20.153 -19.785  0.00  0.00    +0.155 HD
ENDROOT
BRANCH   9  15
ATOM     13  N   UNL     1      34.646 -16.715 -22.598  0.00  0.00    -0.315 N 
ATOM     14  N   UNL     1      35.142 -16.779 -24.762  0.00  0.00    -0.314 N 
ATOM     15  C   UNL     1      34.571 -17.977 -23.016  0.00  0.00    +0.061 C 
ATOM     16  C   UNL     1      34.861 -18.042 -24.306  0.00  0.00    +0.074 C 
ATOM     17  C   UNL     1      35.003 -16.003 -23.710  0.00  0.00    +0.182 C 
ATOM     18  H   UNL     1      34.483 -16.372 -21.690  0.00  0.00    +0.148 HD
ATOM     19  H   UNL     1      35.392 -16.511 -25.677  0.00  0.00    +0.148 HD
ENDBRANCH   9  15
BRANCH  10  20
ATOM     20  O   UNL     1      32.529 -22.803 -18.290  0.00  0.00    -0.471 OA
ATOM     21  C   UNL     1      32.502 -23.246 -16.935  0.00  0.00    +0.252 C 
ENDBRANCH  10  20
TORSDOF 2
ENDMDL
MODEL 2
REMARK VINA RESULT:      -8.8      3.035      7.440
REMARK  Name = 5289419
REMARK  2 active torsions:
REMARK  status: ('A' for Active; 'I' for Inactive)
REMARK    1  A    between atoms: C_9  and  C_15
REMARK    2  A    between atoms: C_10  and  O_20
REMARK                            x       y       z     vdW  Elec       q    Type
REMARK                         _______ _______ _______ _____ _____    ______ ____
ROOT
ATOM      1  O   UNL     1      35.142 -16.462 -20.050  0.00  0.00    -0.270 OA
ATOM      2  N   UNL     1      34.440 -14.614 -21.342  0.00  0.00    -0.280 N 
ATOM      3  C   UNL     1      34.138 -15.634 -23.381  0.00  0.00    +0.021 C 
ATOM      4  C   UNL     1      34.067 -14.427 -22.678  0.00  0.00    +0.051 C 
ATOM      5  C   UNL     1      34.584 -16.631 -22.413  0.00  0.00    +0.056 C 
ATOM      6  C   UNL     1      34.776 -15.947 -21.090  0.00  0.00    +0.250 C 
ATOM      7  C   UNL     1      33.811 -15.689 -24.722  0.00  0.00    +0.038 C 
ATOM      8  C   UNL     1      33.674 -13.246 -23.275  0.00  0.00    +0.018 C 
ATOM      9  C   UNL     1      34.804 -17.933 -22.603  0.00  0.00    +0.020 C 
ATOM     10  C   UNL     1      33.411 -14.503 -25.347  0.00  0.00    +0.139 C 
ATOM     11  C   UNL     1      33.343 -13.293 -24.629  0.00  0.00    +0.038 C 
ATOM     12  H   UNL     1      34.463 -13.898 -20.667  0.00  0.00    +0.155 HD
ENDROOT
BRANCH   9  15
ATOM     13  N   UNL     1      36.552 -18.870 -21.269  0.00  0.00    -0.315 N 
ATOM     14  N   UNL     1      35.552 -20.427 -20.040  0.00  0.00    -0.314 N 
ATOM     15  C   UNL     1      35.257 -18.891 -21.578  0.00  0.00    +0.061 C 
ATOM     16  C   UNL     1      34.638 -19.813 -20.859  0.00  0.00    +0.074 C 
ATOM     17  C   UNL     1      36.695 -19.837 -20.312  0.00  0.00    +0.182 C 
ATOM     18  H   UNL     1      37.251 -18.287 -21.645  0.00  0.00    +0.148 HD
ATOM     19  H   UNL     1      35.389 -21.150 -19.392  0.00  0.00    +0.148 HD
ENDBRANCH   9  15
BRANCH  10  20
ATOM     20  O   UNL     1      33.083 -14.517 -26.670  0.00  0.00    -0.471 OA
ATOM     21  C   UNL     1      33.297 -13.312 -27.403  0.00  0.00    +0.252 C 
ENDBRANCH  10  20
TORSDOF 2
ENDMDL
MODEL 3
REMARK VINA RESULT:      -8.7      2.752      7.454
REMARK  Name = 5289419
REMARK  2 active torsions:
REMARK  status: ('A' for Active; 'I' for Inactive)
REMARK    1  A    between atoms: C_9  and  C_15
REMARK    2  A    between atoms: C_10  and  O_20
REMARK                            x       y       z     vdW  Elec       q    Type
REMARK                         _______ _______ _______ _____ _____    ______ ____
ROOT
ATOM      1  O   UNL     1      34.983 -19.357 -23.861  0.00  0.00    -0.270 OA
ATOM      2  N   UNL     1      34.221 -17.586 -25.225  0.00  0.00    -0.280 N 
ATOM      3  C   UNL     1      34.195 -15.873 -23.690  0.00  0.00    +0.021 C 
ATOM      4  C   UNL     1      33.949 -16.228 -25.019  0.00  0.00    +0.051 C 
ATOM      5  C   UNL     1      34.649 -17.094 -23.031  0.00  0.00    +0.056 C 
ATOM      6  C   UNL     1      34.660 -18.199 -24.047  0.00  0.00    +0.250 C 
ATOM      7  C   UNL     1      33.995 -14.577 -23.258  0.00  0.00    +0.038 C 
ATOM      8  C   UNL     1      33.500 -15.319 -25.957  0.00  0.00    +0.018 C 
ATOM      9  C   UNL     1      35.007 -17.267 -21.757  0.00  0.00    +0.020 C 
ATOM     10  C   UNL     1      33.540 -13.638 -24.191  0.00  0.00    +0.139 C 
ATOM     11  C   UNL     1      33.295 -14.007 -25.528  0.00  0.00    +0.038 C 
ATOM     12  H   UNL     1      34.117 -18.049 -26.087  0.00  0.00    +0.155 HD
ENDROOT
BRANCH   9  15
ATOM     13  N   UNL     1      34.514 -19.413 -20.827  0.00  0.00    -0.315 N 
ATOM     14  N   UNL     1      36.494 -20.265 -20.293  0.00  0.00    -0.314 N 
ATOM     15  C   UNL     1      35.459 -18.532 -21.151  0.00  0.00    +0.061 C 
ATOM     16  C   UNL     1      36.651 -19.017 -20.841  0.00  0.00    +0.074 C 
ATOM     17  C   UNL     1      35.197 -20.473 -20.298  0.00  0.00    +0.182 C 
ATOM     18  H   UNL     1      33.541 -19.321 -20.944  0.00  0.00    +0.148 HD
ATOM     19  H   UNL     1      37.199 -20.871 -19.967  0.00  0.00    +0.148 HD
ENDBRANCH   9  15
BRANCH  10  20
ATOM     20  O   UNL     1      33.329 -12.349 -23.802  0.00  0.00    -0.471 OA
ATOM     21  C   UNL     1      33.938 -11.328 -24.588  0.00  0.00    +0.252 C 
ENDBRANCH  10  20
TORSDOF 2
ENDMDL
MODEL 4
REMARK VINA RESULT:      -8.6      3.517      6.340
REMARK  Name = 5289419
REMARK  2 active torsions:
REMARK  status: ('A' for Active; 'I' for Inactive)
REMARK    1  A    between atoms: C_9  and  C_15
REMARK    2  A    between atoms: C_10  and  O_20
REMARK                            x       y       z     vdW  Elec       q    Type
REMARK                         _______ _______ _______ _____ _____    ______ ____
ROOT
ATOM      1  O   UNL     1      32.946 -13.796 -25.730  0.00  0.00    -0.270 OA
ATOM      2  N   UNL     1      33.588 -16.068 -25.726  0.00  0.00    -0.280 N 
ATOM      3  C   UNL     1      34.497 -16.231 -23.619  0.00  0.00    +0.021 C 
ATOM      4  C   UNL     1      34.206 -16.919 -24.801  0.00  0.00    +0.051 C 
ATOM      5  C   UNL     1      34.027 -14.865 -23.829  0.00  0.00    +0.056 C 
ATOM      6  C   UNL     1      33.438 -14.779 -25.207  0.00  0.00    +0.250 C 
ATOM      7  C   UNL     1      35.110 -16.874 -22.562  0.00  0.00    +0.038 C 
ATOM      8  C   UNL     1      34.510 -18.255 -24.974  0.00  0.00    +0.018 C 
ATOM      9  C   UNL     1      34.080 -13.830 -22.989  0.00  0.00    +0.020 C 
ATOM     10  C   UNL     1      35.428 -18.229 -22.715  0.00  0.00    +0.139 C 
ATOM     11  C   UNL     1      35.130 -18.911 -23.910  0.00  0.00    +0.038 C 
ATOM     12  H   UNL     1      33.297 -16.344 -26.625  0.00  0.00    +0.155 HD
ENDROOT
BRANCH   9  15
ATOM     13  N   UNL     1      34.328 -11.711 -24.067  0.00  0.00    -0.315 N 
ATOM     14  N   UNL     1      32.545 -10.546 -23.438  0.00  0.00    -0.314 N 
ATOM     15  C   UNL     1      33.585 -12.469 -23.263  0.00  0.00    +0.061 C 
ATOM     16  C   UNL     1      32.514 -11.796 -22.873  0.00  0.00    +0.074 C 
ATOM     17  C   UNL     1      33.650 -10.526 -24.150  0.00  0.00    +0.182 C 
ATOM     18  H   UNL     1      35.177 -11.951 -24.504  0.00  0.00    +0.148 HD
ATOM     19  H   UNL     1      31.885  -9.822 -23.334  0.00  0.00    +0.148 HD
ENDBRANCH   9  15
BRANCH  10  20
ATOM     20  O   UNL     1      36.035 -18.898 -21.694  0.00  0.00    -0.471 OA
ATOM     21  C   UNL     1      35.207 -19.724 -20.879  0.00  0.00    +0.252 C 
ENDBRANCH  10  20
TORSDOF 2
ENDMDL
MODEL 5
REMARK VINA RESULT:      -8.4      4.349      8.167
REMARK  Name = 5289419
REMARK  2 active torsions:
REMARK  status: ('A' for Active; 'I' for Inactive)
REMARK    1  A    between atoms: C_9  and  C_15
REMARK    2  A    between atoms: C_10  and  O_20
REMARK                            x       y       z     vdW  Elec       q    Type
REMARK                         _______ _______ _______ _____ _____    ______ ____
ROOT
ATOM      1  O   UNL     1      37.892 -23.088 -14.778  0.00  0.00    -0.270 OA
ATOM      2  N   UNL     1      37.586 -22.067 -16.886  0.00  0.00    -0.280 N 
ATOM      3  C   UNL     1      35.360 -22.525 -17.239  0.00  0.00    +0.021 C 
ATOM      4  C   UNL     1      36.505 -21.918 -17.763  0.00  0.00    +0.051 C 
ATOM      5  C   UNL     1      35.761 -23.086 -15.953  0.00  0.00    +0.056 C 
ATOM      6  C   UNL     1      37.215 -22.778 -15.740  0.00  0.00    +0.250 C 
ATOM      7  C   UNL     1      34.168 -22.500 -17.937  0.00  0.00    +0.038 C 
ATOM      8  C   UNL     1      36.508 -21.273 -18.984  0.00  0.00    +0.018 C 
ATOM      9  C   UNL     1      35.019 -23.763 -15.074  0.00  0.00    +0.020 C 
ATOM     10  C   UNL     1      34.148 -21.853 -19.177  0.00  0.00    +0.139 C 
ATOM     11  C   UNL     1      35.308 -21.245 -19.695  0.00  0.00    +0.038 C 
ATOM     12  H   UNL     1      38.490 -21.718 -17.054  0.00  0.00    +0.155 HD
ENDROOT
BRANCH   9  15
ATOM     13  N   UNL     1      36.284 -25.371 -13.839  0.00  0.00    -0.315 N 
ATOM     14  N   UNL     1      35.974 -24.819 -11.710  0.00  0.00    -0.314 N 
ATOM     15  C   UNL     1      35.487 -24.306 -13.787  0.00  0.00    +0.061 C 
ATOM     16  C   UNL     1      35.285 -23.957 -12.526  0.00  0.00    +0.074 C 
ATOM     17  C   UNL     1      36.564 -25.659 -12.531  0.00  0.00    +0.182 C 
ATOM     18  H   UNL     1      36.602 -25.845 -14.641  0.00  0.00    +0.148 HD
ATOM     19  H   UNL     1      36.016 -24.811 -10.726  0.00  0.00    +0.148 HD
ENDBRANCH   9  15
BRANCH  10  20
ATOM     20  O   UNL     1      32.991 -21.809 -19.896  0.00  0.00    -0.471 OA
ATOM     21  C   UNL     1      32.698 -20.592 -20.579  0.00  0.00    +0.252 C 
ENDBRANCH  10  20
TORSDOF 2
ENDMDL
MODEL 6
REMARK VINA RESULT:      -8.3      2.132      2.819
REMARK  Name = 5289419
REMARK  2 active torsions:
REMARK  status: ('A' for Active; 'I' for Inactive)
REMARK    1  A    between atoms: C_9  and  C_15
REMARK    2  A    between atoms: C_10  and  O_20
REMARK                            x       y       z     vdW  Elec       q    Type
REMARK                         _______ _______ _______ _____ _____    ______ ____
ROOT
ATOM      1  O   UNL     1      32.975 -19.575 -21.702  0.00  0.00    -0.270 OA
ATOM      2  N   UNL     1      32.699 -21.181 -19.993  0.00  0.00    -0.280 N 
ATOM      3  C   UNL     1      34.844 -21.271 -19.168  0.00  0.00    +0.021 C 
ATOM      4  C   UNL     1      33.544 -21.771 -19.046  0.00  0.00    +0.051 C 
ATOM      5  C   UNL     1      34.797 -20.309 -20.265  0.00  0.00    +0.056 C 
ATOM      6  C   UNL     1      33.391 -20.264 -20.790  0.00  0.00    +0.250 C 
ATOM      7  C   UNL     1      35.850 -21.712 -18.331  0.00  0.00    +0.038 C 
ATOM      8  C   UNL     1      33.201 -22.716 -18.099  0.00  0.00    +0.018 C 
ATOM      9  C   UNL     1      35.788 -19.567 -20.762  0.00  0.00    +0.020 C 
ATOM     10  C   UNL     1      35.525 -22.670 -17.365  0.00  0.00    +0.139 C 
ATOM     11  C   UNL     1      34.213 -23.166 -17.250  0.00  0.00    +0.038 C 
ATOM     12  H   UNL     1      31.741 -21.387 -20.086  0.00  0.00    +0.155 HD
ENDROOT
BRANCH   9  15
ATOM     13  N   UNL     1      35.255 -17.383 -21.574  0.00  0.00    -0.315 N 
ATOM     14  N   UNL     1      35.637 -17.484 -23.759  0.00  0.00    -0.314 N 
ATOM     15  C   UNL     1      35.675 -18.610 -21.877  0.00  0.00    +0.061 C 
ATOM     16  C   UNL     1      35.909 -18.696 -23.177  0.00  0.00    +0.074 C 
ATOM     17  C   UNL     1      35.245 -16.716 -22.767  0.00  0.00    +0.182 C 
ATOM     18  H   UNL     1      35.008 -17.034 -20.687  0.00  0.00    +0.148 HD
ATOM     19  H   UNL     1      35.717 -17.243 -24.711  0.00  0.00    +0.148 HD
ENDBRANCH   9  15
BRANCH  10  20
ATOM     20  O   UNL     1      36.492 -23.131 -16.521  0.00  0.00    -0.471 OA
ATOM     21  C   UNL     1      37.531 -22.220 -16.168  0.00  0.00    +0.252 C 
ENDBRANCH  10  20
TORSDOF 2
ENDMDL
MODEL 7
REMARK VINA RESULT:      -8.3      5.794      9.158
REMARK  Name = 5289419
REMARK  2 active torsions:
REMARK  status: ('A' for Active; 'I' for Inactive)
REMARK    1  A    between atoms: C_9  and  C_15
REMARK    2  A    between atoms: C_10  and  O_20
REMARK                            x       y       z     vdW  Elec       q    Type
REMARK                         _______ _______ _______ _____ _____    ______ ____
ROOT
ATOM      1  O   UNL     1      34.579 -24.618 -12.318  0.00  0.00    -0.270 OA
ATOM      2  N   UNL     1      32.741 -23.897 -13.614  0.00  0.00    -0.280 N 
ATOM      3  C   UNL     1      33.783 -23.535 -15.632  0.00  0.00    +0.021 C 
ATOM      4  C   UNL     1      32.568 -23.491 -14.943  0.00  0.00    +0.051 C 
ATOM      5  C   UNL     1      34.772 -23.999 -14.664  0.00  0.00    +0.056 C 
ATOM      6  C   UNL     1      34.074 -24.229 -13.355  0.00  0.00    +0.250 C 
ATOM      7  C   UNL     1      33.851 -23.176 -16.964  0.00  0.00    +0.038 C 
ATOM      8  C   UNL     1      31.390 -23.095 -15.545  0.00  0.00    +0.018 C 
ATOM      9  C   UNL     1      36.078 -24.203 -14.843  0.00  0.00    +0.020 C 
ATOM     10  C   UNL     1      32.669 -22.770 -17.594  0.00  0.00    +0.139 C 
ATOM     11  C   UNL     1      31.451 -22.730 -16.890  0.00  0.00    +0.038 C 
ATOM     12  H   UNL     1      32.017 -23.942 -12.949  0.00  0.00    +0.155 HD
ENDROOT
BRANCH   9  15
ATOM     13  N   UNL     1      37.485 -23.764 -12.961  0.00  0.00    -0.315 N 
ATOM     14  N   UNL     1      38.391 -25.730 -12.463  0.00  0.00    -0.314 N 
ATOM     15  C   UNL     1      37.028 -24.674 -13.819  0.00  0.00    +0.061 C 
ATOM     16  C   UNL     1      37.554 -25.856 -13.544  0.00  0.00    +0.074 C 
ATOM     17  C   UNL     1      38.327 -24.459 -12.137  0.00  0.00    +0.182 C 
ATOM     18  H   UNL     1      37.264 -22.806 -12.927  0.00  0.00    +0.148 HD
ATOM     19  H   UNL     1      38.922 -26.436 -12.028  0.00  0.00    +0.148 HD
ENDBRANCH   9  15
BRANCH  10  20
ATOM     20  O   UNL     1      32.697 -22.407 -18.908  0.00  0.00    -0.471 OA
ATOM     21  C   UNL     1      33.900 -21.814 -19.390  0.00  0.00    +0.252 C 
ENDBRANCH  10  20
TORSDOF 2
ENDMDL
MODEL 8
REMARK VINA RESULT:      -8.3      4.515      8.591
REMARK  Name = 5289419
REMARK  2 active torsions:
REMARK  status: ('A' for Active; 'I' for Inactive)
REMARK    1  A    between atoms: C_9  and  C_15
REMARK    2  A    between atoms: C_10  and  O_20
REMARK                            x       y       z     vdW  Elec       q    Type
REMARK                         _______ _______ _______ _____ _____    ______ ____
ROOT
ATOM      1  O   UNL     1      34.643 -24.407 -14.299  0.00  0.00    -0.270 OA
ATOM      2  N   UNL     1      33.907 -23.618 -16.399  0.00  0.00    -0.280 N 
ATOM      3  C   UNL     1      35.783 -22.481 -17.087  0.00  0.00    +0.021 C 
ATOM      4  C   UNL     1      34.477 -22.850 -17.421  0.00  0.00    +0.051 C 
ATOM      5  C   UNL     1      36.036 -23.061 -15.772  0.00  0.00    +0.056 C 
ATOM      6  C   UNL     1      34.801 -23.798 -15.340  0.00  0.00    +0.250 C 
ATOM      7  C   UNL     1      36.542 -21.717 -17.952  0.00  0.00    +0.038 C 
ATOM      8  C   UNL     1      33.884 -22.477 -18.612  0.00  0.00    +0.018 C 
ATOM      9  C   UNL     1      37.142 -22.988 -15.030  0.00  0.00    +0.020 C 
ATOM     10  C   UNL     1      35.961 -21.327 -19.164  0.00  0.00    +0.139 C 
ATOM     11  C   UNL     1      34.645 -21.705 -19.490  0.00  0.00    +0.038 C 
ATOM     12  H   UNL     1      32.993 -23.985 -16.424  0.00  0.00    +0.155 HD
ENDROOT
BRANCH   9  15
ATOM     13  N   UNL     1      37.677 -24.885 -13.678  0.00  0.00    -0.315 N 
ATOM     14  N   UNL     1      37.530 -24.148 -11.588  0.00  0.00    -0.314 N 
ATOM     15  C   UNL     1      37.334 -23.599 -13.703  0.00  0.00    +0.061 C 
ATOM     16  C   UNL     1      37.239 -23.135 -12.467  0.00  0.00    +0.074 C 
ATOM     17  C   UNL     1      37.789 -25.188 -12.349  0.00  0.00    +0.182 C 
ATOM     18  H   UNL     1      37.819 -25.484 -14.446  0.00  0.00    +0.148 HD
ATOM     19  H   UNL     1      37.543 -24.105 -10.604  0.00  0.00    +0.148 HD
ENDBRANCH   9  15
BRANCH  10  20
ATOM     20  O   UNL     1      36.679 -20.571 -20.043  0.00  0.00    -0.471 OA
ATOM     21  C   UNL     1      35.944 -19.686 -20.885  0.00  0.00    +0.252 C 
ENDBRANCH  10  20
TORSDOF 2
ENDMDL
MODEL 9
REMARK VINA RESULT:      -8.1      6.468      9.121
REMARK  Name = 5289419
REMARK  2 active torsions:
REMARK  status: ('A' for Active; 'I' for Inactive)
REMARK    1  A    between atoms: C_9  and  C_15
REMARK    2  A    between atoms: C_10  and  O_20
REMARK                            x       y       z     vdW  Elec       q    Type
REMARK                         _______ _______ _______ _____ _____    ______ ____
ROOT
ATOM      1  O   UNL     1      36.599 -23.817 -15.346  0.00  0.00    -0.270 OA
ATOM      2  N   UNL     1      34.658 -23.319 -16.595  0.00  0.00    -0.280 N 
ATOM      3  C   UNL     1      33.062 -23.475 -14.947  0.00  0.00    +0.021 C 
ATOM      4  C   UNL     1      33.293 -23.217 -16.301  0.00  0.00    +0.051 C 
ATOM      5  C   UNL     1      34.372 -23.755 -14.367  0.00  0.00    +0.056 C 
ATOM      6  C   UNL     1      35.399 -23.649 -15.457  0.00  0.00    +0.250 C 
ATOM      7  C   UNL     1      31.782 -23.428 -14.429  0.00  0.00    +0.038 C 
ATOM      8  C   UNL     1      32.274 -22.907 -17.180  0.00  0.00    +0.018 C 
ATOM      9  C   UNL     1      34.673 -24.058 -13.103  0.00  0.00    +0.020 C 
ATOM     10  C   UNL     1      30.734 -23.117 -15.302  0.00  0.00    +0.139 C 
ATOM     11  C   UNL     1      30.979 -22.859 -16.665  0.00  0.00    +0.038 C 
ATOM     12  H   UNL     1      35.046 -23.177 -17.489  0.00  0.00    +0.155 HD
ENDROOT
BRANCH   9  15
ATOM     13  N   UNL     1      36.514 -25.551 -12.794  0.00  0.00    -0.315 N 
ATOM     14  N   UNL     1      38.020 -24.365 -11.673  0.00  0.00    -0.314 N 
ATOM     15  C   UNL     1      36.023 -24.332 -12.579  0.00  0.00    +0.061 C 
ATOM     16  C   UNL     1      36.903 -23.605 -11.911  0.00  0.00    +0.074 C 
ATOM     17  C   UNL     1      37.754 -25.531 -12.217  0.00  0.00    +0.182 C 
ATOM     18  H   UNL     1      36.081 -26.299 -13.265  0.00  0.00    +0.148 HD
ATOM     19  H   UNL     1      38.841 -24.096 -11.200  0.00  0.00    +0.148 HD
ENDBRANCH   9  15
BRANCH  10  20
ATOM     20  O   UNL     1      29.456 -23.063 -14.829  0.00  0.00    -0.471 OA
ATOM     21  C   UNL     1      28.472 -22.488 -15.686  0.00  0.00    +0.252 C 
ENDBRANCH  10  20
TORSDOF 2
ENDMDL
