MODEL 1
REMARK VINA RESULT:      -8.0      0.000      0.000
REMARK  Name = 10258
REMARK  2 active torsions:
REMARK  status: ('A' for Active; 'I' for Inactive)
REMARK    1  A    between atoms: C_4  and  O_11
REMARK    2  A    between atoms: O_11  and  S_12
REMARK                            x       y       z     vdW  Elec       q    Type
REMARK                         _______ _______ _______ _____ _____    ______ ____
ROOT
ATOM      1  N   UNL     1      35.709 -25.726 -14.979  0.00  0.00    -0.309 N 
ATOM      2  C   UNL     1      37.171 -25.361 -13.334  0.00  0.00    +0.052 C 
ATOM      3  C   UNL     1      35.884 -25.059 -13.787  0.00  0.00    +0.051 C 
ATOM      4  C   UNL     1      37.759 -26.231 -14.294  0.00  0.00    +0.191 C 
ATOM      5  C   UNL     1      36.835 -26.437 -15.293  0.00  0.00    +0.102 C 
ATOM      6  C   UNL     1      37.610 -24.800 -12.118  0.00  0.00    +0.004 C 
ATOM      7  C   UNL     1      35.013 -24.220 -13.084  0.00  0.00    +0.015 C 
ATOM      8  C   UNL     1      36.749 -23.959 -11.404  0.00  0.00    +0.000 C 
ATOM      9  C   UNL     1      35.472 -23.674 -11.881  0.00  0.00    +0.001 C 
ATOM     10  H   UNL     1      34.891 -25.696 -15.525  0.00  0.00    +0.152 HD
ENDROOT
BRANCH   4  11
ATOM     11  O   UNL     1      38.984 -26.775 -14.271  0.00  0.00    -0.321 OA
BRANCH  11  12
ATOM     12  S   UNL     1      40.384 -25.990 -14.622  0.00  0.00    +0.282 S 
ATOM     13  O   UNL     1      41.521 -26.952 -13.957  0.00  0.00    -0.105 OA
ATOM     14  O   UNL     1      40.400 -24.735 -13.894  0.00  0.00    -0.105 OA
ATOM     15  O   UNL     1      40.577 -26.022 -16.059  0.00  0.00    -0.012 OA
ENDBRANCH  11  12
ENDBRANCH   4  11
TORSDOF 2
ENDMDL
MODEL 2
REMARK VINA RESULT:      -7.9     10.290     11.025
REMARK  Name = 10258
REMARK  2 active torsions:
REMARK  status: ('A' for Active; 'I' for Inactive)
REMARK    1  A    between atoms: C_4  and  O_11
REMARK    2  A    between atoms: O_11  and  S_12
REMARK                            x       y       z     vdW  Elec       q    Type
REMARK                         _______ _______ _______ _____ _____    ______ ____
ROOT
ATOM      1  N   UNL     1      36.707 -19.765 -20.665  0.00  0.00    -0.309 N 
ATOM      2  C   UNL     1      34.476 -19.771 -20.626  0.00  0.00    +0.052 C 
ATOM      3  C   UNL     1      35.614 -20.474 -20.221  0.00  0.00    +0.051 C 
ATOM      4  C   UNL     1      34.926 -18.617 -21.326  0.00  0.00    +0.191 C 
ATOM      5  C   UNL     1      36.302 -18.641 -21.332  0.00  0.00    +0.102 C 
ATOM      6  C   UNL     1      33.207 -20.288 -20.296  0.00  0.00    +0.004 C 
ATOM      7  C   UNL     1      35.545 -21.673 -19.502  0.00  0.00    +0.015 C 
ATOM      8  C   UNL     1      33.124 -21.485 -19.577  0.00  0.00    +0.000 C 
ATOM      9  C   UNL     1      34.275 -22.166 -19.187  0.00  0.00    +0.001 C 
ATOM     10  H   UNL     1      37.645 -20.028 -20.521  0.00  0.00    +0.152 HD
ENDROOT
BRANCH   4  11
ATOM     11  O   UNL     1      34.182 -17.656 -21.892  0.00  0.00    -0.321 OA
BRANCH  11  12
ATOM     12  S   UNL     1      34.461 -16.040 -21.777  0.00  0.00    +0.282 S 
ATOM     13  O   UNL     1      32.970 -15.398 -21.939  0.00  0.00    -0.105 OA
ATOM     14  O   UNL     1      35.238 -15.627 -22.932  0.00  0.00    -0.105 OA
ATOM     15  O   UNL     1      34.914 -15.749 -20.430  0.00  0.00    -0.012 OA
ENDBRANCH  11  12
ENDBRANCH   4  11
TORSDOF 2
ENDMDL
MODEL 3
REMARK VINA RESULT:      -7.6      8.363      9.496
REMARK  Name = 10258
REMARK  2 active torsions:
REMARK  status: ('A' for Active; 'I' for Inactive)
REMARK    1  A    between atoms: C_4  and  O_11
REMARK    2  A    between atoms: O_11  and  S_12
REMARK                            x       y       z     vdW  Elec       q    Type
REMARK                         _______ _______ _______ _____ _____    ______ ____
ROOT
ATOM      1  N   UNL     1      31.121 -23.454 -14.195  0.00  0.00    -0.309 N 
ATOM      2  C   UNL     1      31.545 -22.966 -16.331  0.00  0.00    +0.052 C 
ATOM      3  C   UNL     1      32.129 -23.382 -15.131  0.00  0.00    +0.051 C 
ATOM      4  C   UNL     1      30.155 -22.794 -16.082  0.00  0.00    +0.191 C 
ATOM      5  C   UNL     1      29.926 -23.101 -14.760  0.00  0.00    +0.102 C 
ATOM      6  C   UNL     1      32.367 -22.809 -17.465  0.00  0.00    +0.004 C 
ATOM      7  C   UNL     1      33.497 -23.647 -15.009  0.00  0.00    +0.015 C 
ATOM      8  C   UNL     1      33.737 -23.072 -17.357  0.00  0.00    +0.000 C 
ATOM      9  C   UNL     1      34.292 -23.484 -16.148  0.00  0.00    +0.001 C 
ATOM     10  H   UNL     1      31.244 -23.722 -13.256  0.00  0.00    +0.152 HD
ENDROOT
BRANCH   4  11
ATOM     11  O   UNL     1      29.206 -22.405 -16.945  0.00  0.00    -0.321 OA
BRANCH  11  12
ATOM     12  S   UNL     1      27.678 -23.003 -17.018  0.00  0.00    +0.282 S 
ATOM     13  O   UNL     1      26.993 -22.118 -18.205  0.00  0.00    -0.105 OA
ATOM     14  O   UNL     1      26.996 -22.670 -15.781  0.00  0.00    -0.105 OA
ATOM     15  O   UNL     1      27.747 -24.375 -17.487  0.00  0.00    -0.012 OA
ENDBRANCH  11  12
ENDBRANCH   4  11
TORSDOF 2
ENDMDL
MODEL 4
REMARK VINA RESULT:      -7.5      4.002      5.120
REMARK  Name = 10258
REMARK  2 active torsions:
REMARK  status: ('A' for Active; 'I' for Inactive)
REMARK    1  A    between atoms: C_4  and  O_11
REMARK    2  A    between atoms: O_11  and  S_12
REMARK                            x       y       z     vdW  Elec       q    Type
REMARK                         _______ _______ _______ _____ _____    ______ ____
ROOT
ATOM      1  N   UNL     1      35.609 -23.723 -15.542  0.00  0.00    -0.309 N 
ATOM      2  C   UNL     1      33.707 -23.616 -14.380  0.00  0.00    +0.052 C 
ATOM      3  C   UNL     1      34.248 -23.548 -15.667  0.00  0.00    +0.051 C 
ATOM      4  C   UNL     1      34.788 -23.839 -13.483  0.00  0.00    +0.191 C 
ATOM      5  C   UNL     1      35.944 -23.900 -14.227  0.00  0.00    +0.102 C 
ATOM      6  C   UNL     1      32.314 -23.466 -14.223  0.00  0.00    +0.004 C 
ATOM      7  C   UNL     1      33.465 -23.335 -16.806  0.00  0.00    +0.015 C 
ATOM      8  C   UNL     1      31.518 -23.253 -15.354  0.00  0.00    +0.000 C 
ATOM      9  C   UNL     1      32.086 -23.189 -16.624  0.00  0.00    +0.001 C 
ATOM     10  H   UNL     1      36.247 -23.722 -16.292  0.00  0.00    +0.152 HD
ENDROOT
BRANCH   4  11
ATOM     11  O   UNL     1      34.737 -23.971 -12.150  0.00  0.00    -0.321 OA
BRANCH  11  12
ATOM     12  S   UNL     1      35.993 -24.410 -11.185  0.00  0.00    +0.282 S 
ATOM     13  O   UNL     1      35.292 -24.578  -9.722  0.00  0.00    -0.105 OA
ATOM     14  O   UNL     1      36.915 -23.292 -11.097  0.00  0.00    -0.105 OA
ATOM     15  O   UNL     1      36.450 -25.723 -11.599  0.00  0.00    -0.012 OA
ENDBRANCH  11  12
ENDBRANCH   4  11
TORSDOF 2
ENDMDL
MODEL 5
REMARK VINA RESULT:      -7.4     13.845     14.633
REMARK  Name = 10258
REMARK  2 active torsions:
REMARK  status: ('A' for Active; 'I' for Inactive)
REMARK    1  A    between atoms: C_4  and  O_11
REMARK    2  A    between atoms: O_11  and  S_12
REMARK                            x       y       z     vdW  Elec       q    Type
REMARK                         _______ _______ _______ _____ _____    ______ ____
ROOT
ATOM      1  N   UNL     1      34.825 -17.033 -21.063  0.00  0.00    -0.309 N 
ATOM      2  C   UNL     1      34.641 -16.571 -23.238  0.00  0.00    +0.052 C 
ATOM      3  C   UNL     1      34.786 -17.608 -22.313  0.00  0.00    +0.051 C 
ATOM      4  C   UNL     1      34.594 -15.356 -22.499  0.00  0.00    +0.191 C 
ATOM      5  C   UNL     1      34.709 -15.673 -21.164  0.00  0.00    +0.102 C 
ATOM      6  C   UNL     1      34.574 -16.890 -24.609  0.00  0.00    +0.004 C 
ATOM      7  C   UNL     1      34.869 -18.952 -22.693  0.00  0.00    +0.015 C 
ATOM      8  C   UNL     1      34.654 -18.230 -25.003  0.00  0.00    +0.000 C 
ATOM      9  C   UNL     1      34.799 -19.244 -24.059  0.00  0.00    +0.001 C 
ATOM     10  H   UNL     1      34.921 -17.529 -20.218  0.00  0.00    +0.152 HD
ENDROOT
BRANCH   4  11
ATOM     11  O   UNL     1      34.462 -14.109 -22.972  0.00  0.00    -0.321 OA
BRANCH  11  12
ATOM     12  S   UNL     1      33.055 -13.416 -23.461  0.00  0.00    +0.282 S 
ATOM     13  O   UNL     1      33.466 -11.851 -23.664  0.00  0.00    -0.105 OA
ATOM     14  O   UNL     1      32.109 -13.476 -22.362  0.00  0.00    -0.105 OA
ATOM     15  O   UNL     1      32.715 -13.947 -24.768  0.00  0.00    -0.012 OA
ENDBRANCH  11  12
ENDBRANCH   4  11
TORSDOF 2
ENDMDL
MODEL 6
REMARK VINA RESULT:      -7.4      1.761      2.380
REMARK  Name = 10258
REMARK  2 active torsions:
REMARK  status: ('A' for Active; 'I' for Inactive)
REMARK    1  A    between atoms: C_4  and  O_11
REMARK    2  A    between atoms: O_11  and  S_12
REMARK                            x       y       z     vdW  Elec       q    Type
REMARK                         _______ _______ _______ _____ _____    ______ ____
ROOT
ATOM      1  N   UNL     1      35.887 -25.258 -12.740  0.00  0.00    -0.309 N 
ATOM      2  C   UNL     1      37.132 -24.053 -14.146  0.00  0.00    +0.052 C 
ATOM      3  C   UNL     1      35.819 -24.354 -13.777  0.00  0.00    +0.051 C 
ATOM      4  C   UNL     1      37.988 -24.805 -13.295  0.00  0.00    +0.191 C 
ATOM      5  C   UNL     1      37.194 -25.536 -12.441  0.00  0.00    +0.102 C 
ATOM      6  C   UNL     1      37.348 -23.140 -15.198  0.00  0.00    +0.004 C 
ATOM      7  C   UNL     1      34.707 -23.788 -14.411  0.00  0.00    +0.015 C 
ATOM      8  C   UNL     1      36.245 -22.566 -15.841  0.00  0.00    +0.000 C 
ATOM      9  C   UNL     1      34.946 -22.886 -15.452  0.00  0.00    +0.001 C 
ATOM     10  H   UNL     1      35.108 -25.646 -12.280  0.00  0.00    +0.152 HD
ENDROOT
BRANCH   4  11
ATOM     11  O   UNL     1      39.329 -24.830 -13.289  0.00  0.00    -0.321 OA
BRANCH  11  12
ATOM     12  S   UNL     1      40.276 -25.528 -14.436  0.00  0.00    +0.282 S 
ATOM     13  O   UNL     1      41.083 -26.672 -13.600  0.00  0.00    -0.105 OA
ATOM     14  O   UNL     1      41.251 -24.549 -14.882  0.00  0.00    -0.105 OA
ATOM     15  O   UNL     1      39.416 -26.210 -15.385  0.00  0.00    -0.012 OA
ENDBRANCH  11  12
ENDBRANCH   4  11
TORSDOF 2
ENDMDL
MODEL 7
REMARK VINA RESULT:      -7.3      6.127      6.826
REMARK  Name = 10258
REMARK  2 active torsions:
REMARK  status: ('A' for Active; 'I' for Inactive)
REMARK    1  A    between atoms: C_4  and  O_11
REMARK    2  A    between atoms: O_11  and  S_12
REMARK                            x       y       z     vdW  Elec       q    Type
REMARK                         _______ _______ _______ _____ _____    ______ ____
ROOT
ATOM      1  N   UNL     1      32.432 -22.240 -18.363  0.00  0.00    -0.309 N 
ATOM      2  C   UNL     1      34.635 -22.030 -18.643  0.00  0.00    +0.052 C 
ATOM      3  C   UNL     1      33.392 -21.602 -19.116  0.00  0.00    +0.051 C 
ATOM      4  C   UNL     1      34.386 -22.945 -17.582  0.00  0.00    +0.191 C 
ATOM      5  C   UNL     1      33.022 -23.052 -17.434  0.00  0.00    +0.102 C 
ATOM      6  C   UNL     1      35.802 -21.523 -19.250  0.00  0.00    +0.004 C 
ATOM      7  C   UNL     1      33.258 -20.690 -20.169  0.00  0.00    +0.015 C 
ATOM      8  C   UNL     1      35.682 -20.610 -20.303  0.00  0.00    +0.000 C 
ATOM      9  C   UNL     1      34.430 -20.201 -20.754  0.00  0.00    +0.001 C 
ATOM     10  H   UNL     1      31.461 -22.126 -18.477  0.00  0.00    +0.152 HD
ENDROOT
BRANCH   4  11
ATOM     11  O   UNL     1      35.284 -23.604 -16.836  0.00  0.00    -0.321 OA
BRANCH  11  12
ATOM     12  S   UNL     1      36.143 -22.966 -15.589  0.00  0.00    +0.282 S 
ATOM     13  O   UNL     1      37.260 -24.116 -15.286  0.00  0.00    -0.105 OA
ATOM     14  O   UNL     1      35.275 -22.889 -14.428  0.00  0.00    -0.105 OA
ATOM     15  O   UNL     1      36.849 -21.794 -16.073  0.00  0.00    -0.012 OA
ENDBRANCH  11  12
ENDBRANCH   4  11
TORSDOF 2
ENDMDL
MODEL 8
REMARK VINA RESULT:      -7.3      7.169      7.892
REMARK  Name = 10258
REMARK  2 active torsions:
REMARK  status: ('A' for Active; 'I' for Inactive)
REMARK    1  A    between atoms: C_4  and  O_11
REMARK    2  A    between atoms: O_11  and  S_12
REMARK                            x       y       z     vdW  Elec       q    Type
REMARK                         _______ _______ _______ _____ _____    ______ ____
ROOT
ATOM      1  N   UNL     1      36.712 -20.680 -19.604  0.00  0.00    -0.309 N 
ATOM      2  C   UNL     1      34.553 -21.228 -19.482  0.00  0.00    +0.052 C 
ATOM      3  C   UNL     1      35.465 -20.368 -20.098  0.00  0.00    +0.051 C 
ATOM      4  C   UNL     1      35.295 -22.066 -18.605  0.00  0.00    +0.191 C 
ATOM      5  C   UNL     1      36.620 -21.705 -18.702  0.00  0.00    +0.102 C 
ATOM      6  C   UNL     1      33.187 -21.118 -19.815  0.00  0.00    +0.004 C 
ATOM      7  C   UNL     1      35.079 -19.399 -21.031  0.00  0.00    +0.015 C 
ATOM      8  C   UNL     1      32.787 -20.154 -20.747  0.00  0.00    +0.000 C 
ATOM      9  C   UNL     1      33.719 -19.309 -21.345  0.00  0.00    +0.001 C 
ATOM     10  H   UNL     1      37.548 -20.231 -19.864  0.00  0.00    +0.152 HD
ENDROOT
BRANCH   4  11
ATOM     11  O   UNL     1      34.832 -23.041 -17.809  0.00  0.00    -0.321 OA
BRANCH  11  12
ATOM     12  S   UNL     1      34.973 -23.086 -16.173  0.00  0.00    +0.282 S 
ATOM     13  O   UNL     1      35.586 -24.573 -15.898  0.00  0.00    -0.105 OA
ATOM     14  O   UNL     1      33.640 -23.055 -15.598  0.00  0.00    -0.105 OA
ATOM     15  O   UNL     1      35.981 -22.122 -15.775  0.00  0.00    -0.012 OA
ENDBRANCH  11  12
ENDBRANCH   4  11
TORSDOF 2
ENDMDL
MODEL 9
REMARK VINA RESULT:      -7.1     12.468     13.104
REMARK  Name = 10258
REMARK  2 active torsions:
REMARK  status: ('A' for Active; 'I' for Inactive)
REMARK    1  A    between atoms: C_4  and  O_11
REMARK    2  A    between atoms: O_11  and  S_12
REMARK                            x       y       z     vdW  Elec       q    Type
REMARK                         _______ _______ _______ _____ _____    ______ ____
ROOT
ATOM      1  N   UNL     1      34.102 -15.352 -24.191  0.00  0.00    -0.309 N 
ATOM      2  C   UNL     1      33.962 -15.485 -21.968  0.00  0.00    +0.052 C 
ATOM      3  C   UNL     1      33.516 -14.776 -23.086  0.00  0.00    +0.051 C 
ATOM      4  C   UNL     1      34.832 -16.506 -22.441  0.00  0.00    +0.191 C 
ATOM      5  C   UNL     1      34.898 -16.399 -23.811  0.00  0.00    +0.102 C 
ATOM      6  C   UNL     1      33.507 -15.095 -20.692  0.00  0.00    +0.004 C 
ATOM      7  C   UNL     1      32.637 -13.691 -22.991  0.00  0.00    +0.015 C 
ATOM      8  C   UNL     1      32.627 -14.012 -20.583  0.00  0.00    +0.000 C 
ATOM      9  C   UNL     1      32.200 -13.322 -21.715  0.00  0.00    +0.001 C 
ATOM     10  H   UNL     1      33.965 -15.055 -25.119  0.00  0.00    +0.152 HD
ENDROOT
BRANCH   4  11
ATOM     11  O   UNL     1      35.490 -17.426 -21.720  0.00  0.00    -0.321 OA
BRANCH  11  12
ATOM     12  S   UNL     1      34.993 -18.971 -21.462  0.00  0.00    +0.282 S 
ATOM     13  O   UNL     1      33.480 -18.778 -20.883  0.00  0.00    -0.105 OA
ATOM     14  O   UNL     1      35.796 -19.537 -20.393  0.00  0.00    -0.105 OA
ATOM     15  O   UNL     1      34.884 -19.636 -22.746  0.00  0.00    -0.012 OA
ENDBRANCH  11  12
ENDBRANCH   4  11
TORSDOF 2
ENDMDL
