MODEL 1
REMARK VINA RESULT:     -11.4      0.000      0.000
REMARK  Name = 24963036
REMARK  7 active torsions:
REMARK  status: ('A' for Active; 'I' for Inactive)
REMARK    1  A    between atoms: N_2  and  C_20
REMARK    2  A    between atoms: C_3  and  C_7
REMARK    3  A    between atoms: C_11  and  C_12
REMARK    4  A    between atoms: C_12  and  O_13
REMARK    5  A    between atoms: O_13  and  C_14
REMARK    6  A    between atoms: C_20  and  C_21
REMARK    7  A    between atoms: C_26  and  C_29
REMARK                            x       y       z     vdW  Elec       q    Type
REMARK                         _______ _______ _______ _____ _____    ______ ____
ROOT
ATOM      1  O   UNL     1      32.295 -25.042 -13.328  0.00  0.00    -0.273 OA
ATOM      2  N   UNL     1      34.207 -23.727 -13.140  0.00  0.00    -0.299 N 
ATOM      3  C   UNL     1      32.926 -24.018 -13.578  0.00  0.00    +0.241 C 
ATOM      4  H   UNL     1      34.609 -22.869 -13.408  0.00  0.00    +0.150 HD
ENDROOT
BRANCH   3   7
ATOM      5  O   UNL     1      34.787 -22.777 -15.903  0.00  0.00    -0.272 OA
ATOM      6  N   UNL     1      32.528 -23.271 -15.801  0.00  0.00    -0.271 N 
ATOM      7  C   UNL     1      32.342 -22.911 -14.402  0.00  0.00    +0.152 C 
ATOM      8  C   UNL     1      30.831 -22.811 -14.225  0.00  0.00    +0.031 C 
ATOM      9  C   UNL     1      30.287 -23.795 -15.260  0.00  0.00    +0.024 C 
ATOM     10  C   UNL     1      31.262 -23.656 -16.419  0.00  0.00    +0.094 C 
ATOM     11  C   UNL     1      33.737 -23.103 -16.459  0.00  0.00    +0.256 C 
BRANCH  11  12
ATOM     12  C   UNL     1      33.709 -23.359 -17.945  0.00  0.00    +0.227 C 
BRANCH  12  13
ATOM     13  O   UNL     1      34.873 -22.775 -18.476  0.00  0.00    -0.347 OA
BRANCH  13  14
ATOM     14  C   UNL     1      34.598 -21.988 -19.629  0.00  0.00    +0.116 C 
ATOM     15  C   UNL     1      33.252 -21.285 -19.461  0.00  0.00    +0.030 C 
ATOM     16  C   UNL     1      35.731 -20.986 -19.848  0.00  0.00    +0.030 C 
ATOM     17  C   UNL     1      32.955 -20.351 -20.630  0.00  0.00    +0.002 C 
ATOM     18  C   UNL     1      35.436 -20.052 -21.018  0.00  0.00    +0.002 C 
ATOM     19  C   UNL     1      34.089 -19.352 -20.851  0.00  0.00    +0.000 C 
ENDBRANCH  13  14
ENDBRANCH  12  13
ENDBRANCH  11  12
ENDBRANCH   3   7
BRANCH   2  20
ATOM     20  C   UNL     1      34.981 -24.621 -12.310  0.00  0.00    +0.116 C 
BRANCH  20  21
ATOM     21  C   UNL     1      36.291 -24.986 -12.947  0.00  0.00    -0.003 C 
ATOM     22  C   UNL     1      36.328 -25.391 -14.281  0.00  0.00    -0.003 C 
ATOM     23  C   UNL     1      37.470 -24.922 -12.204  0.00  0.00    -0.003 C 
ATOM     24  C   UNL     1      37.545 -25.731 -14.873  0.00  0.00    +0.002 C 
ATOM     25  C   UNL     1      38.686 -25.261 -12.796  0.00  0.00    +0.002 C 
ATOM     26  C   UNL     1      38.724 -25.666 -14.130  0.00  0.00    +0.031 C 
BRANCH  26  29
ATOM     27  N   UNL     1      40.982 -26.695 -14.034  0.00  0.00    -0.343 N 
ATOM     28  N   UNL     1      40.224 -25.699 -16.007  0.00  0.00    -0.285 NA
ATOM     29  C   UNL     1      39.992 -26.020 -14.747  0.00  0.00    +0.117 C 
ATOM     30  H   UNL     1      41.833 -26.927 -14.472  0.00  0.00    +0.144 HD
ATOM     31  H   UNL     1      40.829 -26.941 -13.093  0.00  0.00    +0.144 HD
ATOM     32  H   UNL     1      41.081 -25.939 -16.427  0.00  0.00    +0.188 HD
ENDBRANCH  26  29
ENDBRANCH  20  21
ENDBRANCH   2  20
TORSDOF 7
ENDMDL
MODEL 2
REMARK VINA RESULT:     -11.3      2.154      6.501
REMARK  Name = 24963036
REMARK  7 active torsions:
REMARK  status: ('A' for Active; 'I' for Inactive)
REMARK    1  A    between atoms: N_2  and  C_20
REMARK    2  A    between atoms: C_3  and  C_7
REMARK    3  A    between atoms: C_11  and  C_12
REMARK    4  A    between atoms: C_12  and  O_13
REMARK    5  A    between atoms: O_13  and  C_14
REMARK    6  A    between atoms: C_20  and  C_21
REMARK    7  A    between atoms: C_26  and  C_29
REMARK                            x       y       z     vdW  Elec       q    Type
REMARK                         _______ _______ _______ _____ _____    ______ ____
ROOT
ATOM      1  O   UNL     1      34.852 -23.925 -12.697  0.00  0.00    -0.273 OA
ATOM      2  N   UNL     1      33.310 -24.994 -14.075  0.00  0.00    -0.299 N 
ATOM      3  C   UNL     1      34.574 -24.570 -13.705  0.00  0.00    +0.241 C 
ATOM      4  H   UNL     1      33.213 -25.507 -14.910  0.00  0.00    +0.150 HD
ENDROOT
BRANCH   3   7
ATOM      5  O   UNL     1      34.182 -23.706 -16.789  0.00  0.00    -0.272 OA
ATOM      6  N   UNL     1      36.046 -23.830 -15.422  0.00  0.00    -0.271 N 
ATOM      7  C   UNL     1      35.628 -25.010 -14.677  0.00  0.00    +0.152 C 
ATOM      8  C   UNL     1      36.889 -25.487 -13.966  0.00  0.00    +0.031 C 
ATOM      9  C   UNL     1      37.689 -24.202 -13.764  0.00  0.00    +0.024 C 
ATOM     10  C   UNL     1      37.381 -23.397 -15.018  0.00  0.00    +0.094 C 
ATOM     11  C   UNL     1      35.308 -23.315 -16.477  0.00  0.00    +0.256 C 
BRANCH  11  12
ATOM     12  C   UNL     1      35.969 -22.201 -17.249  0.00  0.00    +0.227 C 
BRANCH  12  13
ATOM     13  O   UNL     1      35.598 -22.370 -18.595  0.00  0.00    -0.347 OA
BRANCH  13  14
ATOM     14  C   UNL     1      35.014 -21.192 -19.141  0.00  0.00    +0.116 C 
ATOM     15  C   UNL     1      35.863 -20.693 -20.310  0.00  0.00    +0.030 C 
ATOM     16  C   UNL     1      33.578 -21.485 -19.574  0.00  0.00    +0.030 C 
ATOM     17  C   UNL     1      35.227 -19.486 -20.992  0.00  0.00    +0.002 C 
ATOM     18  C   UNL     1      32.941 -20.278 -20.255  0.00  0.00    +0.002 C 
ATOM     19  C   UNL     1      33.790 -19.778 -21.421  0.00  0.00    +0.000 C 
ENDBRANCH  13  14
ENDBRANCH  12  13
ENDBRANCH  11  12
ENDBRANCH   3   7
BRANCH   2  20
ATOM     20  C   UNL     1      32.124 -24.719 -13.295  0.00  0.00    +0.116 C 
BRANCH  20  21
ATOM     21  C   UNL     1      30.984 -24.251 -14.152  0.00  0.00    -0.003 C 
ATOM     22  C   UNL     1      29.992 -25.149 -14.545  0.00  0.00    -0.003 C 
ATOM     23  C   UNL     1      30.918 -22.918 -14.558  0.00  0.00    -0.003 C 
ATOM     24  C   UNL     1      28.933 -24.714 -15.343  0.00  0.00    +0.002 C 
ATOM     25  C   UNL     1      29.859 -22.483 -15.354  0.00  0.00    +0.002 C 
ATOM     26  C   UNL     1      28.867 -23.381 -15.747  0.00  0.00    +0.031 C 
BRANCH  26  29
ATOM     27  N   UNL     1      26.746 -22.129 -16.061  0.00  0.00    -0.343 N 
ATOM     28  N   UNL     1      27.712 -23.276 -17.852  0.00  0.00    -0.285 NA
ATOM     29  C   UNL     1      27.764 -22.928 -16.579  0.00  0.00    +0.117 C 
ATOM     30  H   UNL     1      26.008 -21.833 -16.642  0.00  0.00    +0.144 HD
ATOM     31  H   UNL     1      26.765 -21.861 -15.113  0.00  0.00    +0.144 HD
ATOM     32  H   UNL     1      26.966 -22.970 -18.416  0.00  0.00    +0.188 HD
ENDBRANCH  26  29
ENDBRANCH  20  21
ENDBRANCH   2  20
TORSDOF 7
ENDMDL
MODEL 3
REMARK VINA RESULT:     -10.6      8.451     13.718
REMARK  Name = 24963036
REMARK  7 active torsions:
REMARK  status: ('A' for Active; 'I' for Inactive)
REMARK    1  A    between atoms: N_2  and  C_20
REMARK    2  A    between atoms: C_3  and  C_7
REMARK    3  A    between atoms: C_11  and  C_12
REMARK    4  A    between atoms: C_12  and  O_13
REMARK    5  A    between atoms: O_13  and  C_14
REMARK    6  A    between atoms: C_20  and  C_21
REMARK    7  A    between atoms: C_26  and  C_29
REMARK                            x       y       z     vdW  Elec       q    Type
REMARK                         _______ _______ _______ _____ _____    ______ ____
ROOT
ATOM      1  O   UNL     1      32.317 -15.200 -21.830  0.00  0.00    -0.273 OA
ATOM      2  N   UNL     1      32.680 -13.007 -22.524  0.00  0.00    -0.299 N 
ATOM      3  C   UNL     1      32.995 -14.350 -22.402  0.00  0.00    +0.241 C 
ATOM      4  H   UNL     1      33.306 -12.421 -23.008  0.00  0.00    +0.150 HD
ENDROOT
BRANCH   3   7
ATOM      5  O   UNL     1      35.090 -16.161 -20.747  0.00  0.00    -0.272 OA
ATOM      6  N   UNL     1      34.458 -16.137 -22.973  0.00  0.00    -0.271 N 
ATOM      7  C   UNL     1      34.286 -14.694 -23.082  0.00  0.00    +0.152 C 
ATOM      8  C   UNL     1      34.226 -14.423 -24.581  0.00  0.00    +0.031 C 
ATOM      9  C   UNL     1      33.643 -15.714 -25.152  0.00  0.00    +0.024 C 
ATOM     10  C   UNL     1      34.242 -16.792 -24.261  0.00  0.00    +0.094 C 
ATOM     11  C   UNL     1      34.920 -16.747 -21.818  0.00  0.00    +0.256 C 
BRANCH  11  12
ATOM     12  C   UNL     1      35.207 -18.223 -21.932  0.00  0.00    +0.227 C 
BRANCH  12  13
ATOM     13  O   UNL     1      34.126 -18.891 -21.330  0.00  0.00    -0.347 OA
BRANCH  13  14
ATOM     14  C   UNL     1      34.480 -20.199 -20.894  0.00  0.00    +0.116 C 
ATOM     15  C   UNL     1      35.861 -20.165 -20.241  0.00  0.00    +0.030 C 
ATOM     16  C   UNL     1      33.416 -20.725 -19.932  0.00  0.00    +0.030 C 
ATOM     17  C   UNL     1      36.246 -21.526 -19.669  0.00  0.00    +0.002 C 
ATOM     18  C   UNL     1      33.800 -22.086 -19.360  0.00  0.00    +0.002 C 
ATOM     19  C   UNL     1      35.181 -22.052 -18.710  0.00  0.00    +0.000 C 
ENDBRANCH  13  14
ENDBRANCH  12  13
ENDBRANCH  11  12
ENDBRANCH   3   7
BRANCH   2  20
ATOM     20  C   UNL     1      31.477 -12.425 -21.976  0.00  0.00    +0.116 C 
BRANCH  20  21
ATOM     21  C   UNL     1      31.683 -10.998 -21.558  0.00  0.00    -0.003 C 
ATOM     22  C   UNL     1      31.875 -10.010 -22.525  0.00  0.00    -0.003 C 
ATOM     23  C   UNL     1      31.685 -10.659 -20.205  0.00  0.00    -0.003 C 
ATOM     24  C   UNL     1      32.068  -8.683 -22.137  0.00  0.00    +0.002 C 
ATOM     25  C   UNL     1      31.878  -9.334 -19.818  0.00  0.00    +0.002 C 
ATOM     26  C   UNL     1      32.070  -8.346 -20.783  0.00  0.00    +0.031 C 
BRANCH  26  29
ATOM     27  N   UNL     1      31.663  -5.912 -21.063  0.00  0.00    -0.343 N 
ATOM     28  N   UNL     1      33.049  -6.685 -19.348  0.00  0.00    -0.285 NA
ATOM     29  C   UNL     1      32.272  -6.964 -20.380  0.00  0.00    +0.117 C 
ATOM     30  H   UNL     1      31.813  -4.983 -20.772  0.00  0.00    +0.144 HD
ATOM     31  H   UNL     1      31.083  -6.099 -21.837  0.00  0.00    +0.144 HD
ATOM     32  H   UNL     1      33.186  -5.751 -19.073  0.00  0.00    +0.188 HD
ENDBRANCH  26  29
ENDBRANCH  20  21
ENDBRANCH   2  20
TORSDOF 7
ENDMDL
MODEL 4
REMARK VINA RESULT:     -10.6      7.490     11.268
REMARK  Name = 24963036
REMARK  7 active torsions:
REMARK  status: ('A' for Active; 'I' for Inactive)
REMARK    1  A    between atoms: N_2  and  C_20
REMARK    2  A    between atoms: C_3  and  C_7
REMARK    3  A    between atoms: C_11  and  C_12
REMARK    4  A    between atoms: C_12  and  O_13
REMARK    5  A    between atoms: O_13  and  C_14
REMARK    6  A    between atoms: C_20  and  C_21
REMARK    7  A    between atoms: C_26  and  C_29
REMARK                            x       y       z     vdW  Elec       q    Type
REMARK                         _______ _______ _______ _____ _____    ______ ____
ROOT
ATOM      1  O   UNL     1      33.812 -16.164 -23.587  0.00  0.00    -0.273 OA
ATOM      2  N   UNL     1      35.130 -17.167 -21.951  0.00  0.00    -0.299 N 
ATOM      3  C   UNL     1      34.476 -16.107 -22.555  0.00  0.00    +0.241 C 
ATOM      4  H   UNL     1      35.632 -16.997 -21.122  0.00  0.00    +0.150 HD
ENDROOT
BRANCH   3   7
ATOM      5  O   UNL     1      34.585 -13.372 -24.263  0.00  0.00    -0.272 OA
ATOM      6  N   UNL     1      33.595 -13.919 -22.244  0.00  0.00    -0.271 N 
ATOM      7  C   UNL     1      34.637 -14.829 -21.788  0.00  0.00    +0.152 C 
ATOM      8  C   UNL     1      34.360 -15.022 -20.302  0.00  0.00    +0.031 C 
ATOM      9  C   UNL     1      32.848 -14.832 -20.195  0.00  0.00    +0.024 C 
ATOM     10  C   UNL     1      32.559 -13.754 -21.228  0.00  0.00    +0.094 C 
ATOM     11  C   UNL     1      33.695 -13.205 -23.428  0.00  0.00    +0.256 C 
BRANCH  11  12
ATOM     12  C   UNL     1      32.614 -12.179 -23.662  0.00  0.00    +0.227 C 
BRANCH  12  13
ATOM     13  O   UNL     1      33.211 -11.120 -24.368  0.00  0.00    -0.347 OA
BRANCH  13  14
ATOM     14  C   UNL     1      33.478 -10.001 -23.530  0.00  0.00    +0.116 C 
ATOM     15  C   UNL     1      34.507  -9.092 -24.200  0.00  0.00    +0.030 C 
ATOM     16  C   UNL     1      32.175  -9.257 -23.238  0.00  0.00    +0.030 C 
ATOM     17  C   UNL     1      34.755  -7.826 -23.385  0.00  0.00    +0.002 C 
ATOM     18  C   UNL     1      32.423  -7.991 -22.422  0.00  0.00    +0.002 C 
ATOM     19  C   UNL     1      33.453  -7.085 -23.091  0.00  0.00    +0.000 C 
ENDBRANCH  13  14
ENDBRANCH  12  13
ENDBRANCH  11  12
ENDBRANCH   3   7
BRANCH   2  20
ATOM     20  C   UNL     1      35.110 -18.512 -22.480  0.00  0.00    +0.116 C 
BRANCH  20  21
ATOM     21  C   UNL     1      34.700 -19.517 -21.443  0.00  0.00    -0.003 C 
ATOM     22  C   UNL     1      35.656 -20.353 -20.865  0.00  0.00    -0.003 C 
ATOM     23  C   UNL     1      33.363 -19.617 -21.058  0.00  0.00    -0.003 C 
ATOM     24  C   UNL     1      35.275 -21.288 -19.902  0.00  0.00    +0.002 C 
ATOM     25  C   UNL     1      32.982 -20.552 -20.095  0.00  0.00    +0.002 C 
ATOM     26  C   UNL     1      33.937 -21.387 -19.517  0.00  0.00    +0.031 C 
BRANCH  26  29
ATOM     27  N   UNL     1      32.218 -22.464 -18.086  0.00  0.00    -0.343 N 
ATOM     28  N   UNL     1      34.443 -23.170 -17.988  0.00  0.00    -0.285 NA
ATOM     29  C   UNL     1      33.540 -22.362 -18.514  0.00  0.00    +0.117 C 
ATOM     30  H   UNL     1      31.971 -23.132 -17.406  0.00  0.00    +0.144 HD
ATOM     31  H   UNL     1      31.531 -21.868 -18.464  0.00  0.00    +0.144 HD
ATOM     32  H   UNL     1      34.176 -23.831 -17.310  0.00  0.00    +0.188 HD
ENDBRANCH  26  29
ENDBRANCH  20  21
ENDBRANCH   2  20
TORSDOF 7
ENDMDL
MODEL 5
REMARK VINA RESULT:     -10.6      6.948     11.016
REMARK  Name = 24963036
REMARK  7 active torsions:
REMARK  status: ('A' for Active; 'I' for Inactive)
REMARK    1  A    between atoms: N_2  and  C_20
REMARK    2  A    between atoms: C_3  and  C_7
REMARK    3  A    between atoms: C_11  and  C_12
REMARK    4  A    between atoms: C_12  and  O_13
REMARK    5  A    between atoms: O_13  and  C_14
REMARK    6  A    between atoms: C_20  and  C_21
REMARK    7  A    between atoms: C_26  and  C_29
REMARK                            x       y       z     vdW  Elec       q    Type
REMARK                         _______ _______ _______ _____ _____    ______ ____
ROOT
ATOM      1  O   UNL     1      35.660 -15.658 -23.453  0.00  0.00    -0.273 OA
ATOM      2  N   UNL     1      34.333 -17.239 -22.377  0.00  0.00    -0.299 N 
ATOM      3  C   UNL     1      34.561 -16.093 -23.119  0.00  0.00    +0.241 C 
ATOM      4  H   UNL     1      33.403 -17.487 -22.171  0.00  0.00    +0.150 HD
ENDROOT
BRANCH   3   7
ATOM      5  O   UNL     1      32.479 -15.375 -20.761  0.00  0.00    -0.272 OA
ATOM      6  N   UNL     1      33.141 -14.239 -22.666  0.00  0.00    -0.271 N 
ATOM      7  C   UNL     1      33.287 -15.412 -23.518  0.00  0.00    +0.152 C 
ATOM      8  C   UNL     1      33.362 -14.855 -24.935  0.00  0.00    +0.031 C 
ATOM      9  C   UNL     1      33.977 -13.471 -24.739  0.00  0.00    +0.024 C 
ATOM     10  C   UNL     1      33.386 -13.010 -23.416  0.00  0.00    +0.094 C 
ATOM     11  C   UNL     1      32.674 -14.317 -21.363  0.00  0.00    +0.256 C 
BRANCH  11  12
ATOM     12  C   UNL     1      32.417 -12.996 -20.684  0.00  0.00    +0.227 C 
BRANCH  12  13
ATOM     13  O   UNL     1      31.305 -12.423 -21.325  0.00  0.00    -0.347 OA
BRANCH  13  14
ATOM     14  C   UNL     1      31.158 -11.043 -21.012  0.00  0.00    +0.116 C 
ATOM     15  C   UNL     1      31.684 -10.779 -19.602  0.00  0.00    +0.030 C 
ATOM     16  C   UNL     1      31.893 -10.200 -22.054  0.00  0.00    +0.030 C 
ATOM     17  C   UNL     1      31.639  -9.294 -19.255  0.00  0.00    +0.002 C 
ATOM     18  C   UNL     1      31.848  -8.715 -21.707  0.00  0.00    +0.002 C 
ATOM     19  C   UNL     1      32.371  -8.451 -20.297  0.00  0.00    +0.000 C 
ENDBRANCH  13  14
ENDBRANCH  12  13
ENDBRANCH  11  12
ENDBRANCH   3   7
BRANCH   2  20
ATOM     20  C   UNL     1      35.396 -18.090 -21.889  0.00  0.00    +0.116 C 
BRANCH  20  21
ATOM     21  C   UNL     1      34.867 -19.250 -21.097  0.00  0.00    -0.003 C 
ATOM     22  C   UNL     1      33.490 -19.437 -20.968  0.00  0.00    -0.003 C 
ATOM     23  C   UNL     1      35.751 -20.141 -20.489  0.00  0.00    -0.003 C 
ATOM     24  C   UNL     1      32.999 -20.515 -20.231  0.00  0.00    +0.002 C 
ATOM     25  C   UNL     1      35.260 -21.219 -19.753  0.00  0.00    +0.002 C 
ATOM     26  C   UNL     1      33.884 -21.406 -19.623  0.00  0.00    +0.031 C 
BRANCH  26  29
ATOM     27  N   UNL     1      32.301 -22.377 -17.976  0.00  0.00    -0.343 N 
ATOM     28  N   UNL     1      33.926 -23.721 -18.981  0.00  0.00    -0.285 NA
ATOM     29  C   UNL     1      33.372 -22.528 -18.855  0.00  0.00    +0.117 C 
ATOM     30  H   UNL     1      31.969 -23.151 -17.466  0.00  0.00    +0.144 HD
ATOM     31  H   UNL     1      31.876 -21.495 -17.865  0.00  0.00    +0.144 HD
ATOM     32  H   UNL     1      33.580 -24.482 -18.463  0.00  0.00    +0.188 HD
ENDBRANCH  26  29
ENDBRANCH  20  21
ENDBRANCH   2  20
TORSDOF 7
ENDMDL
MODEL 6
REMARK VINA RESULT:     -10.4      8.574     13.883
REMARK  Name = 24963036
REMARK  7 active torsions:
REMARK  status: ('A' for Active; 'I' for Inactive)
REMARK    1  A    between atoms: N_2  and  C_20
REMARK    2  A    between atoms: C_3  and  C_7
REMARK    3  A    between atoms: C_11  and  C_12
REMARK    4  A    between atoms: C_12  and  O_13
REMARK    5  A    between atoms: O_13  and  C_14
REMARK    6  A    between atoms: C_20  and  C_21
REMARK    7  A    between atoms: C_26  and  C_29
REMARK                            x       y       z     vdW  Elec       q    Type
REMARK                         _______ _______ _______ _____ _____    ______ ____
ROOT
ATOM      1  O   UNL     1      34.563 -14.276 -24.144  0.00  0.00    -0.273 OA
ATOM      2  N   UNL     1      32.833 -12.951 -23.325  0.00  0.00    -0.299 N 
ATOM      3  C   UNL     1      33.571 -14.117 -23.438  0.00  0.00    +0.241 C 
ATOM      4  H   UNL     1      32.054 -12.946 -22.723  0.00  0.00    +0.150 HD
ENDROOT
BRANCH   3   7
ATOM      5  O   UNL     1      34.596 -17.114 -24.049  0.00  0.00    -0.272 OA
ATOM      6  N   UNL     1      34.187 -15.969 -22.079  0.00  0.00    -0.271 N 
ATOM      7  C   UNL     1      33.041 -15.211 -22.561  0.00  0.00    +0.152 C 
ATOM      8  C   UNL     1      32.383 -14.660 -21.301  0.00  0.00    +0.031 C 
ATOM      9  C   UNL     1      33.550 -14.517 -20.326  0.00  0.00    +0.024 C 
ATOM     10  C   UNL     1      34.434 -15.708 -20.663  0.00  0.00    +0.094 C 
ATOM     11  C   UNL     1      34.831 -16.921 -22.854  0.00  0.00    +0.256 C 
BRANCH  11  12
ATOM     12  C   UNL     1      35.883 -17.736 -22.144  0.00  0.00    +0.227 C 
BRANCH  12  13
ATOM     13  O   UNL     1      35.481 -19.080 -22.237  0.00  0.00    -0.347 OA
BRANCH  13  14
ATOM     14  C   UNL     1      34.974 -19.574 -21.002  0.00  0.00    +0.116 C 
ATOM     15  C   UNL     1      33.484 -19.881 -21.147  0.00  0.00    +0.030 C 
ATOM     16  C   UNL     1      35.765 -20.811 -20.580  0.00  0.00    +0.030 C 
ATOM     17  C   UNL     1      32.913 -20.505 -19.877  0.00  0.00    +0.002 C 
ATOM     18  C   UNL     1      35.195 -21.435 -19.310  0.00  0.00    +0.002 C 
ATOM     19  C   UNL     1      33.706 -21.740 -19.453  0.00  0.00    +0.000 C 
ENDBRANCH  13  14
ENDBRANCH  12  13
ENDBRANCH  11  12
ENDBRANCH   3   7
BRANCH   2  20
ATOM     20  C   UNL     1      33.151 -11.741 -24.048  0.00  0.00    +0.116 C 
BRANCH  20  21
ATOM     21  C   UNL     1      32.977 -10.516 -23.198  0.00  0.00    -0.003 C 
ATOM     22  C   UNL     1      33.682  -9.351 -23.502  0.00  0.00    -0.003 C 
ATOM     23  C   UNL     1      32.113 -10.543 -22.104  0.00  0.00    -0.003 C 
ATOM     24  C   UNL     1      33.522  -8.212 -22.712  0.00  0.00    +0.002 C 
ATOM     25  C   UNL     1      31.952  -9.404 -21.314  0.00  0.00    +0.002 C 
ATOM     26  C   UNL     1      32.656  -8.240 -21.617  0.00  0.00    +0.031 C 
BRANCH  26  29
ATOM     27  N   UNL     1      31.844  -5.918 -21.279  0.00  0.00    -0.343 N 
ATOM     28  N   UNL     1      32.959  -7.038 -19.559  0.00  0.00    -0.285 NA
ATOM     29  C   UNL     1      32.490  -7.053 -20.793  0.00  0.00    +0.117 C 
ATOM     30  H   UNL     1      31.741  -5.125 -20.704  0.00  0.00    +0.144 HD
ATOM     31  H   UNL     1      31.490  -5.908 -22.198  0.00  0.00    +0.144 HD
ATOM     32  H   UNL     1      32.847  -6.237 -18.999  0.00  0.00    +0.188 HD
ENDBRANCH  26  29
ENDBRANCH  20  21
ENDBRANCH   2  20
TORSDOF 7
ENDMDL
MODEL 7
REMARK VINA RESULT:     -10.2     10.024     15.393
REMARK  Name = 24963036
REMARK  7 active torsions:
REMARK  status: ('A' for Active; 'I' for Inactive)
REMARK    1  A    between atoms: N_2  and  C_20
REMARK    2  A    between atoms: C_3  and  C_7
REMARK    3  A    between atoms: C_11  and  C_12
REMARK    4  A    between atoms: C_12  and  O_13
REMARK    5  A    between atoms: O_13  and  C_14
REMARK    6  A    between atoms: C_20  and  C_21
REMARK    7  A    between atoms: C_26  and  C_29
REMARK                            x       y       z     vdW  Elec       q    Type
REMARK                         _______ _______ _______ _____ _____    ______ ____
ROOT
ATOM      1  O   UNL     1      32.028 -13.626 -22.560  0.00  0.00    -0.273 OA
ATOM      2  N   UNL     1      32.732 -11.430 -22.874  0.00  0.00    -0.299 N 
ATOM      3  C   UNL     1      32.783 -12.800 -23.065  0.00  0.00    +0.241 C 
ATOM      4  H   UNL     1      33.395 -10.867 -23.335  0.00  0.00    +0.150 HD
ENDROOT
BRANCH   3   7
ATOM      5  O   UNL     1      35.059 -14.775 -21.913  0.00  0.00    -0.272 OA
ATOM      6  N   UNL     1      33.978 -14.654 -23.956  0.00  0.00    -0.271 N 
ATOM      7  C   UNL     1      33.879 -13.201 -24.006  0.00  0.00    +0.152 C 
ATOM      8  C   UNL     1      33.524 -12.887 -25.455  0.00  0.00    +0.031 C 
ATOM      9  C   UNL     1      32.754 -14.126 -25.908  0.00  0.00    +0.024 C 
ATOM     10  C   UNL     1      33.457 -15.260 -25.178  0.00  0.00    +0.094 C 
ATOM     11  C   UNL     1      34.633 -15.321 -22.932  0.00  0.00    +0.256 C 
BRANCH  11  12
ATOM     12  C   UNL     1      34.795 -16.808 -23.125  0.00  0.00    +0.227 C 
BRANCH  12  13
ATOM     13  O   UNL     1      35.405 -17.301 -21.957  0.00  0.00    -0.347 OA
BRANCH  13  14
ATOM     14  C   UNL     1      35.095 -18.671 -21.729  0.00  0.00    +0.116 C 
ATOM     15  C   UNL     1      36.163 -19.296 -20.833  0.00  0.00    +0.030 C 
ATOM     16  C   UNL     1      33.703 -18.785 -21.108  0.00  0.00    +0.030 C 
ATOM     17  C   UNL     1      35.825 -20.740 -20.478  0.00  0.00    +0.002 C 
ATOM     18  C   UNL     1      33.364 -20.230 -20.754  0.00  0.00    +0.002 C 
ATOM     19  C   UNL     1      34.433 -20.855 -19.861  0.00  0.00    +0.000 C 
ENDBRANCH  13  14
ENDBRANCH  12  13
ENDBRANCH  11  12
ENDBRANCH   3   7
BRANCH   2  20
ATOM     20  C   UNL     1      31.752 -10.785 -22.029  0.00  0.00    +0.116 C 
BRANCH  20  21
ATOM     21  C   UNL     1      31.671  -9.309 -22.289  0.00  0.00    -0.003 C 
ATOM     22  C   UNL     1      31.242  -8.842 -23.531  0.00  0.00    -0.003 C 
ATOM     23  C   UNL     1      32.027  -8.404 -21.289  0.00  0.00    -0.003 C 
ATOM     24  C   UNL     1      31.168  -7.470 -23.773  0.00  0.00    +0.002 C 
ATOM     25  C   UNL     1      31.952  -7.032 -21.530  0.00  0.00    +0.002 C 
ATOM     26  C   UNL     1      31.524  -6.565 -22.772  0.00  0.00    +0.031 C 
BRANCH  26  29
ATOM     27  N   UNL     1      31.818  -4.595 -24.255  0.00  0.00    -0.343 N 
ATOM     28  N   UNL     1      31.022  -4.321 -22.075  0.00  0.00    -0.285 NA
ATOM     29  C   UNL     1      31.447  -5.135 -23.024  0.00  0.00    +0.117 C 
ATOM     30  H   UNL     1      31.757  -3.624 -24.404  0.00  0.00    +0.144 HD
ATOM     31  H   UNL     1      32.140  -5.185 -24.974  0.00  0.00    +0.144 HD
ATOM     32  H   UNL     1      30.968  -3.353 -22.244  0.00  0.00    +0.188 HD
ENDBRANCH  26  29
ENDBRANCH  20  21
ENDBRANCH   2  20
TORSDOF 7
ENDMDL
MODEL 8
REMARK VINA RESULT:     -10.1      9.713     15.168
REMARK  Name = 24963036
REMARK  7 active torsions:
REMARK  status: ('A' for Active; 'I' for Inactive)
REMARK    1  A    between atoms: N_2  and  C_20
REMARK    2  A    between atoms: C_3  and  C_7
REMARK    3  A    between atoms: C_11  and  C_12
REMARK    4  A    between atoms: C_12  and  O_13
REMARK    5  A    between atoms: O_13  and  C_14
REMARK    6  A    between atoms: C_20  and  C_21
REMARK    7  A    between atoms: C_26  and  C_29
REMARK                            x       y       z     vdW  Elec       q    Type
REMARK                         _______ _______ _______ _____ _____    ______ ____
ROOT
ATOM      1  O   UNL     1      33.505 -13.052 -26.037  0.00  0.00    -0.273 OA
ATOM      2  N   UNL     1      33.891 -12.044 -23.974  0.00  0.00    -0.299 N 
ATOM      3  C   UNL     1      33.430 -13.046 -24.810  0.00  0.00    +0.241 C 
ATOM      4  H   UNL     1      33.773 -12.153 -23.003  0.00  0.00    +0.150 HD
ENDROOT
BRANCH   3   7
ATOM      5  O   UNL     1      33.580 -15.965 -26.176  0.00  0.00    -0.272 OA
ATOM      6  N   UNL     1      33.826 -15.244 -23.991  0.00  0.00    -0.271 N 
ATOM      7  C   UNL     1      32.825 -14.187 -24.050  0.00  0.00    +0.152 C 
ATOM      8  C   UNL     1      32.561 -13.821 -22.594  0.00  0.00    +0.031 C 
ATOM      9  C   UNL     1      33.887 -14.135 -21.904  0.00  0.00    +0.024 C 
ATOM     10  C   UNL     1      34.384 -15.366 -22.646  0.00  0.00    +0.094 C 
ATOM     11  C   UNL     1      34.070 -16.100 -25.053  0.00  0.00    +0.256 C 
BRANCH  11  12
ATOM     12  C   UNL     1      35.008 -17.244 -24.765  0.00  0.00    +0.227 C 
BRANCH  12  13
ATOM     13  O   UNL     1      34.234 -18.263 -24.182  0.00  0.00    -0.347 OA
BRANCH  13  14
ATOM     14  C   UNL     1      34.971 -19.012 -23.222  0.00  0.00    +0.116 C 
ATOM     15  C   UNL     1      36.228 -18.241 -22.825  0.00  0.00    +0.030 C 
ATOM     16  C   UNL     1      34.086 -19.305 -22.011  0.00  0.00    +0.030 C 
ATOM     17  C   UNL     1      37.004 -18.958 -21.724  0.00  0.00    +0.002 C 
ATOM     18  C   UNL     1      34.860 -20.023 -20.910  0.00  0.00    +0.002 C 
ATOM     19  C   UNL     1      36.119 -19.254 -20.516  0.00  0.00    +0.000 C 
ENDBRANCH  13  14
ENDBRANCH  12  13
ENDBRANCH  11  12
ENDBRANCH   3   7
BRANCH   2  20
ATOM     20  C   UNL     1      34.537 -10.845 -24.458  0.00  0.00    +0.116 C 
BRANCH  20  21
ATOM     21  C   UNL     1      33.893  -9.602 -23.916  0.00  0.00    -0.003 C 
ATOM     22  C   UNL     1      32.556  -9.627 -23.518  0.00  0.00    -0.003 C 
ATOM     23  C   UNL     1      34.630  -8.423 -23.811  0.00  0.00    -0.003 C 
ATOM     24  C   UNL     1      31.956  -8.471 -23.015  0.00  0.00    +0.002 C 
ATOM     25  C   UNL     1      34.031  -7.268 -23.308  0.00  0.00    +0.002 C 
ATOM     26  C   UNL     1      32.695  -7.292 -22.910  0.00  0.00    +0.031 C 
BRANCH  26  29
ATOM     27  N   UNL     1      31.459  -5.163 -23.231  0.00  0.00    -0.343 N 
ATOM     28  N   UNL     1      32.078  -5.854 -21.087  0.00  0.00    -0.285 NA
ATOM     29  C   UNL     1      32.070  -6.088 -22.387  0.00  0.00    +0.117 C 
ATOM     30  H   UNL     1      31.041  -4.354 -22.855  0.00  0.00    +0.144 HD
ATOM     31  H   UNL     1      31.445  -5.318 -24.203  0.00  0.00    +0.144 HD
ATOM     32  H   UNL     1      31.655  -5.040 -20.730  0.00  0.00    +0.188 HD
ENDBRANCH  26  29
ENDBRANCH  20  21
ENDBRANCH   2  20
TORSDOF 7
ENDMDL
MODEL 9
REMARK VINA RESULT:     -10.0      5.276      8.653
REMARK  Name = 24963036
REMARK  7 active torsions:
REMARK  status: ('A' for Active; 'I' for Inactive)
REMARK    1  A    between atoms: N_2  and  C_20
REMARK    2  A    between atoms: C_3  and  C_7
REMARK    3  A    between atoms: C_11  and  C_12
REMARK    4  A    between atoms: C_12  and  O_13
REMARK    5  A    between atoms: O_13  and  C_14
REMARK    6  A    between atoms: C_20  and  C_21
REMARK    7  A    between atoms: C_26  and  C_29
REMARK                            x       y       z     vdW  Elec       q    Type
REMARK                         _______ _______ _______ _____ _____    ______ ____
ROOT
ATOM      1  O   UNL     1      36.731 -18.421 -21.704  0.00  0.00    -0.273 OA
ATOM      2  N   UNL     1      35.522 -20.185 -20.782  0.00  0.00    -0.299 N 
ATOM      3  C   UNL     1      35.690 -19.061 -21.573  0.00  0.00    +0.241 C 
ATOM      4  H   UNL     1      34.636 -20.613 -20.759  0.00  0.00    +0.150 HD
ENDROOT
BRANCH   3   7
ATOM      5  O   UNL     1      34.337 -16.226 -20.836  0.00  0.00    -0.272 OA
ATOM      6  N   UNL     1      34.630 -17.348 -22.839  0.00  0.00    -0.271 N 
ATOM      7  C   UNL     1      34.437 -18.691 -22.308  0.00  0.00    +0.152 C 
ATOM      8  C   UNL     1      34.222 -19.567 -23.537  0.00  0.00    +0.031 C 
ATOM      9  C   UNL     1      35.011 -18.845 -24.628  0.00  0.00    +0.024 C 
ATOM     10  C   UNL     1      34.814 -17.376 -24.288  0.00  0.00    +0.094 C 
ATOM     11  C   UNL     1      34.491 -16.211 -22.058  0.00  0.00    +0.256 C 
BRANCH  11  12
ATOM     12  C   UNL     1      34.551 -14.901 -22.802  0.00  0.00    +0.227 C 
BRANCH  12  13
ATOM     13  O   UNL     1      33.244 -14.381 -22.807  0.00  0.00    -0.347 OA
BRANCH  13  14
ATOM     14  C   UNL     1      32.962 -13.654 -23.997  0.00  0.00    +0.116 C 
ATOM     15  C   UNL     1      33.911 -12.462 -24.108  0.00  0.00    +0.030 C 
ATOM     16  C   UNL     1      33.082 -14.582 -25.205  0.00  0.00    +0.030 C 
ATOM     17  C   UNL     1      33.714 -11.705 -25.418  0.00  0.00    +0.002 C 
ATOM     18  C   UNL     1      32.883 -13.826 -26.516  0.00  0.00    +0.002 C 
ATOM     19  C   UNL     1      33.830 -12.633 -26.625  0.00  0.00    +0.000 C 
ENDBRANCH  13  14
ENDBRANCH  12  13
ENDBRANCH  11  12
ENDBRANCH   3   7
BRANCH   2  20
ATOM     20  C   UNL     1      36.585 -20.760 -19.990  0.00  0.00    +0.116 C 
BRANCH  20  21
ATOM     21  C   UNL     1      36.057 -21.507 -18.800  0.00  0.00    -0.003 C 
ATOM     22  C   UNL     1      34.773 -22.052 -18.833  0.00  0.00    -0.003 C 
ATOM     23  C   UNL     1      36.849 -21.656 -17.662  0.00  0.00    -0.003 C 
ATOM     24  C   UNL     1      34.281 -22.746 -17.726  0.00  0.00    +0.002 C 
ATOM     25  C   UNL     1      36.357 -22.350 -16.556  0.00  0.00    +0.002 C 
ATOM     26  C   UNL     1      35.074 -22.894 -16.588  0.00  0.00    +0.031 C 
BRANCH  26  29
ATOM     27  N   UNL     1      35.080 -24.857 -15.067  0.00  0.00    -0.343 N 
ATOM     28  N   UNL     1      33.581 -23.100 -14.716  0.00  0.00    -0.285 NA
ATOM     29  C   UNL     1      34.561 -23.617 -15.435  0.00  0.00    +0.117 C 
ATOM     30  H   UNL     1      34.718 -25.329 -14.282  0.00  0.00    +0.144 HD
ATOM     31  H   UNL     1      35.809 -25.261 -15.592  0.00  0.00    +0.144 HD
ATOM     32  H   UNL     1      33.233 -23.587 -13.935  0.00  0.00    +0.188 HD
ENDBRANCH  26  29
ENDBRANCH  20  21
ENDBRANCH   2  20
TORSDOF 7
ENDMDL
