MODEL 1
REMARK VINA RESULT:      -6.9      0.000      0.000
REMARK  Name = 5289299
REMARK  7 active torsions:
REMARK  status: ('A' for Active; 'I' for Inactive)
REMARK    1  A    between atoms: C_2  and  C_10
REMARK    2  A    between atoms: C_3  and  O_6
REMARK    3  A    between atoms: C_4  and  O_8
REMARK    4  A    between atoms: C_10  and  O_11
REMARK    5  A    between atoms: O_11  and  P_12
REMARK    6  A    between atoms: P_12  and  O_14
REMARK    7  A    between atoms: P_12  and  O_16
REMARK                            x       y       z     vdW  Elec       q    Type
REMARK                         _______ _______ _______ _____ _____    ______ ____
ROOT
ATOM      1  O   UNL     1      36.144 -24.018 -13.732  0.00  0.00    -0.348 OA
ATOM      2  C   UNL     1      37.496 -24.460 -13.515  0.00  0.00    +0.174 C 
ATOM      3  C   UNL     1      37.590 -24.825 -12.037  0.00  0.00    +0.169 C 
ATOM      4  C   UNL     1      36.640 -23.826 -11.412  0.00  0.00    +0.169 C 
ATOM      5  C   UNL     1      35.544 -23.720 -12.459  0.00  0.00    +0.174 C 
ENDROOT
BRANCH   3   6
ATOM      6  O   UNL     1      37.109 -26.145 -11.811  0.00  0.00    -0.379 OA
ATOM      7  H   UNL     1      37.378 -26.716 -12.547  0.00  0.00    +0.211 HD
ENDBRANCH   3   6
BRANCH   4   8
ATOM      8  O   UNL     1      37.300 -22.574 -11.277  0.00  0.00    -0.379 OA
ATOM      9  H   UNL     1      38.203 -22.645 -11.623  0.00  0.00    +0.211 HD
ENDBRANCH   4   8
BRANCH   2  10
ATOM     10  C   UNL     1      37.822 -25.580 -14.485  0.00  0.00    +0.186 C 
BRANCH  10  11
ATOM     11  O   UNL     1      38.960 -26.282 -14.013  0.00  0.00    -0.271 OA
BRANCH  11  12
ATOM     12  P   UNL     1      40.422 -25.812 -14.522  0.00  0.00    +0.473 P 
ATOM     13  O   UNL     1      40.888 -24.492 -13.982  0.00  0.00    -0.227 OA
BRANCH  12  14
ATOM     14  O   UNL     1      40.314 -25.900 -16.133  0.00  0.00    -0.303 OA
ATOM     15  H   UNL     1      39.409 -26.139 -16.384  0.00  0.00    +0.222 HD
ENDBRANCH  12  14
BRANCH  12  16
ATOM     16  O   UNL     1      41.358 -27.075 -14.143  0.00  0.00    -0.303 OA
ATOM     17  H   UNL     1      42.215 -26.989 -14.589  0.00  0.00    +0.222 HD
ENDBRANCH  12  16
ENDBRANCH  11  12
ENDBRANCH  10  11
ENDBRANCH   2  10
TORSDOF 7
ENDMDL
MODEL 2
REMARK VINA RESULT:      -6.8      1.937      2.771
REMARK  Name = 5289299
REMARK  7 active torsions:
REMARK  status: ('A' for Active; 'I' for Inactive)
REMARK    1  A    between atoms: C_2  and  C_10
REMARK    2  A    between atoms: C_3  and  O_6
REMARK    3  A    between atoms: C_4  and  O_8
REMARK    4  A    between atoms: C_10  and  O_11
REMARK    5  A    between atoms: O_11  and  P_12
REMARK    6  A    between atoms: P_12  and  O_14
REMARK    7  A    between atoms: P_12  and  O_16
REMARK                            x       y       z     vdW  Elec       q    Type
REMARK                         _______ _______ _______ _____ _____    ______ ____
ROOT
ATOM      1  O   UNL     1      37.890 -22.899 -14.673  0.00  0.00    -0.348 OA
ATOM      2  C   UNL     1      37.203 -23.878 -13.872  0.00  0.00    +0.174 C 
ATOM      3  C   UNL     1      36.143 -24.497 -14.777  0.00  0.00    +0.169 C 
ATOM      4  C   UNL     1      35.763 -23.323 -15.653  0.00  0.00    +0.169 C 
ATOM      5  C   UNL     1      37.091 -22.607 -15.833  0.00  0.00    +0.174 C 
ENDROOT
BRANCH   3   6
ATOM      6  O   UNL     1      36.704 -25.528 -15.579  0.00  0.00    -0.379 OA
ATOM      7  H   UNL     1      37.191 -26.148 -15.014  0.00  0.00    +0.211 HD
ENDBRANCH   3   6
BRANCH   4   8
ATOM      8  O   UNL     1      34.856 -22.486 -14.948  0.00  0.00    -0.379 OA
ATOM      9  H   UNL     1      35.097 -22.467 -14.008  0.00  0.00    +0.211 HD
ENDBRANCH   4   8
BRANCH   2  10
ATOM     10  C   UNL     1      38.213 -24.850 -13.291  0.00  0.00    +0.186 C 
BRANCH  10  11
ATOM     11  O   UNL     1      39.429 -24.735 -14.011  0.00  0.00    -0.271 OA
BRANCH  11  12
ATOM     12  P   UNL     1      40.077 -26.074 -14.649  0.00  0.00    +0.473 P 
ATOM     13  O   UNL     1      41.312 -26.572 -13.958  0.00  0.00    -0.227 OA
BRANCH  12  14
ATOM     14  O   UNL     1      40.263 -25.702 -16.212  0.00  0.00    -0.303 OA
ATOM     15  H   UNL     1      40.469 -26.506 -16.714  0.00  0.00    +0.222 HD
ENDBRANCH  12  14
BRANCH  12  16
ATOM     16  O   UNL     1      38.834 -27.107 -14.658  0.00  0.00    -0.303 OA
ATOM     17  H   UNL     1      38.503 -27.208 -15.564  0.00  0.00    +0.222 HD
ENDBRANCH  12  16
ENDBRANCH  11  12
ENDBRANCH  10  11
ENDBRANCH   2  10
TORSDOF 7
ENDMDL
MODEL 3
REMARK VINA RESULT:      -6.7      1.334      2.226
REMARK  Name = 5289299
REMARK  7 active torsions:
REMARK  status: ('A' for Active; 'I' for Inactive)
REMARK    1  A    between atoms: C_2  and  C_10
REMARK    2  A    between atoms: C_3  and  O_6
REMARK    3  A    between atoms: C_4  and  O_8
REMARK    4  A    between atoms: C_10  and  O_11
REMARK    5  A    between atoms: O_11  and  P_12
REMARK    6  A    between atoms: P_12  and  O_14
REMARK    7  A    between atoms: P_12  and  O_16
REMARK                            x       y       z     vdW  Elec       q    Type
REMARK                         _______ _______ _______ _____ _____    ______ ____
ROOT
ATOM      1  O   UNL     1      36.588 -25.455 -11.348  0.00  0.00    -0.348 OA
ATOM      2  C   UNL     1      36.871 -25.560 -12.755  0.00  0.00    +0.174 C 
ATOM      3  C   UNL     1      36.370 -24.265 -13.386  0.00  0.00    +0.169 C 
ATOM      4  C   UNL     1      35.171 -23.945 -12.521  0.00  0.00    +0.169 C 
ATOM      5  C   UNL     1      35.628 -24.402 -11.147  0.00  0.00    +0.174 C 
ENDROOT
BRANCH   3   6
ATOM      6  O   UNL     1      37.340 -23.232 -13.256  0.00  0.00    -0.379 OA
ATOM      7  H   UNL     1      37.131 -22.514 -13.873  0.00  0.00    +0.211 HD
ENDBRANCH   3   6
BRANCH   4   8
ATOM      8  O   UNL     1      34.064 -24.731 -12.946  0.00  0.00    -0.379 OA
ATOM      9  H   UNL     1      33.491 -24.920 -12.187  0.00  0.00    +0.211 HD
ENDBRANCH   4   8
BRANCH   2  10
ATOM     10  C   UNL     1      38.347 -25.853 -12.951  0.00  0.00    +0.186 C 
BRANCH  10  11
ATOM     11  O   UNL     1      38.619 -25.939 -14.340  0.00  0.00    -0.271 OA
BRANCH  11  12
ATOM     12  P   UNL     1      39.838 -25.061 -14.943  0.00  0.00    +0.473 P 
ATOM     13  O   UNL     1      40.894 -24.676 -13.950  0.00  0.00    -0.227 OA
BRANCH  12  14
ATOM     14  O   UNL     1      39.095 -23.826 -15.676  0.00  0.00    -0.303 OA
ATOM     15  H   UNL     1      38.198 -24.092 -15.931  0.00  0.00    +0.222 HD
ENDBRANCH  12  14
BRANCH  12  16
ATOM     16  O   UNL     1      40.357 -25.967 -16.177  0.00  0.00    -0.303 OA
ATOM     17  H   UNL     1      40.023 -25.601 -17.011  0.00  0.00    +0.222 HD
ENDBRANCH  12  16
ENDBRANCH  11  12
ENDBRANCH  10  11
ENDBRANCH   2  10
TORSDOF 7
ENDMDL
MODEL 4
REMARK VINA RESULT:      -6.6      1.316      1.611
REMARK  Name = 5289299
REMARK  7 active torsions:
REMARK  status: ('A' for Active; 'I' for Inactive)
REMARK    1  A    between atoms: C_2  and  C_10
REMARK    2  A    between atoms: C_3  and  O_6
REMARK    3  A    between atoms: C_4  and  O_8
REMARK    4  A    between atoms: C_10  and  O_11
REMARK    5  A    between atoms: O_11  and  P_12
REMARK    6  A    between atoms: P_12  and  O_14
REMARK    7  A    between atoms: P_12  and  O_16
REMARK                            x       y       z     vdW  Elec       q    Type
REMARK                         _______ _______ _______ _____ _____    ______ ____
ROOT
ATOM      1  O   UNL     1      35.711 -25.420 -15.409  0.00  0.00    -0.348 OA
ATOM      2  C   UNL     1      36.990 -25.215 -14.782  0.00  0.00    +0.174 C 
ATOM      3  C   UNL     1      36.696 -24.839 -13.333  0.00  0.00    +0.169 C 
ATOM      4  C   UNL     1      35.398 -24.073 -13.471  0.00  0.00    +0.169 C 
ATOM      5  C   UNL     1      34.691 -24.828 -14.584  0.00  0.00    +0.174 C 
ENDROOT
BRANCH   3   6
ATOM      6  O   UNL     1      36.481 -26.001 -12.543  0.00  0.00    -0.379 OA
ATOM      7  H   UNL     1      36.274 -26.752 -13.122  0.00  0.00    +0.211 HD
ENDBRANCH   3   6
BRANCH   4   8
ATOM      8  O   UNL     1      35.680 -22.745 -13.894  0.00  0.00    -0.379 OA
ATOM      9  H   UNL     1      35.788 -22.728 -14.858  0.00  0.00    +0.211 HD
ENDBRANCH   4   8
BRANCH   2  10
ATOM     10  C   UNL     1      37.847 -26.452 -14.973  0.00  0.00    +0.186 C 
BRANCH  10  11
ATOM     11  O   UNL     1      38.897 -26.436 -14.019  0.00  0.00    -0.271 OA
BRANCH  11  12
ATOM     12  P   UNL     1      40.334 -25.839 -14.463  0.00  0.00    +0.473 P 
ATOM     13  O   UNL     1      40.662 -24.488 -13.897  0.00  0.00    -0.227 OA
BRANCH  12  14
ATOM     14  O   UNL     1      40.301 -25.921 -16.078  0.00  0.00    -0.303 OA
ATOM     15  H   UNL     1      41.156 -25.636 -16.434  0.00  0.00    +0.222 HD
ENDBRANCH  12  14
BRANCH  12  16
ATOM     16  O   UNL     1      41.358 -27.020 -14.051  0.00  0.00    -0.303 OA
ATOM     17  H   UNL     1      41.810 -26.784 -13.226  0.00  0.00    +0.222 HD
ENDBRANCH  12  16
ENDBRANCH  11  12
ENDBRANCH  10  11
ENDBRANCH   2  10
TORSDOF 7
ENDMDL
MODEL 5
REMARK VINA RESULT:      -6.5      1.120      1.760
REMARK  Name = 5289299
REMARK  7 active torsions:
REMARK  status: ('A' for Active; 'I' for Inactive)
REMARK    1  A    between atoms: C_2  and  C_10
REMARK    2  A    between atoms: C_3  and  O_6
REMARK    3  A    between atoms: C_4  and  O_8
REMARK    4  A    between atoms: C_10  and  O_11
REMARK    5  A    between atoms: O_11  and  P_12
REMARK    6  A    between atoms: P_12  and  O_14
REMARK    7  A    between atoms: P_12  and  O_16
REMARK                            x       y       z     vdW  Elec       q    Type
REMARK                         _______ _______ _______ _____ _____    ______ ____
ROOT
ATOM      1  O   UNL     1      36.110 -23.254 -13.078  0.00  0.00    -0.348 OA
ATOM      2  C   UNL     1      37.354 -23.947 -12.870  0.00  0.00    +0.174 C 
ATOM      3  C   UNL     1      37.013 -25.194 -12.059  0.00  0.00    +0.169 C 
ATOM      4  C   UNL     1      35.867 -24.700 -11.204  0.00  0.00    +0.169 C 
ATOM      5  C   UNL     1      35.136 -23.761 -12.148  0.00  0.00    +0.174 C 
ENDROOT
BRANCH   3   6
ATOM      6  O   UNL     1      36.558 -26.240 -12.908  0.00  0.00    -0.379 OA
ATOM      7  H   UNL     1      36.480 -27.060 -12.396  0.00  0.00    +0.211 HD
ENDBRANCH   3   6
BRANCH   4   8
ATOM      8  O   UNL     1      36.386 -23.968 -10.101  0.00  0.00    -0.379 OA
ATOM      9  H   UNL     1      36.727 -24.585  -9.435  0.00  0.00    +0.211 HD
ENDBRANCH   4   8
BRANCH   2  10
ATOM     10  C   UNL     1      38.018 -24.203 -14.210  0.00  0.00    +0.186 C 
BRANCH  10  11
ATOM     11  O   UNL     1      39.334 -24.683 -13.987  0.00  0.00    -0.271 OA
BRANCH  11  12
ATOM     12  P   UNL     1      39.762 -26.097 -14.649  0.00  0.00    +0.473 P 
ATOM     13  O   UNL     1      38.681 -27.138 -14.674  0.00  0.00    -0.227 OA
BRANCH  12  14
ATOM     14  O   UNL     1      41.100 -26.509 -13.841  0.00  0.00    -0.303 OA
ATOM     15  H   UNL     1      40.868 -26.756 -12.933  0.00  0.00    +0.222 HD
ENDBRANCH  12  14
BRANCH  12  16
ATOM     16  O   UNL     1      40.323 -25.660 -16.100  0.00  0.00    -0.303 OA
ATOM     17  H   UNL     1      41.185 -26.077 -16.253  0.00  0.00    +0.222 HD
ENDBRANCH  12  16
ENDBRANCH  11  12
ENDBRANCH  10  11
ENDBRANCH   2  10
TORSDOF 7
ENDMDL
MODEL 6
REMARK VINA RESULT:      -6.4      2.261      4.689
REMARK  Name = 5289299
REMARK  7 active torsions:
REMARK  status: ('A' for Active; 'I' for Inactive)
REMARK    1  A    between atoms: C_2  and  C_10
REMARK    2  A    between atoms: C_3  and  O_6
REMARK    3  A    between atoms: C_4  and  O_8
REMARK    4  A    between atoms: C_10  and  O_11
REMARK    5  A    between atoms: O_11  and  P_12
REMARK    6  A    between atoms: P_12  and  O_14
REMARK    7  A    between atoms: P_12  and  O_16
REMARK                            x       y       z     vdW  Elec       q    Type
REMARK                         _______ _______ _______ _____ _____    ______ ____
ROOT
ATOM      1  O   UNL     1      38.877 -24.338 -13.514  0.00  0.00    -0.348 OA
ATOM      2  C   UNL     1      37.879 -24.507 -14.537  0.00  0.00    +0.174 C 
ATOM      3  C   UNL     1      38.009 -25.947 -15.022  0.00  0.00    +0.169 C 
ATOM      4  C   UNL     1      39.496 -26.187 -14.880  0.00  0.00    +0.169 C 
ATOM      5  C   UNL     1      39.832 -25.409 -13.619  0.00  0.00    +0.174 C 
ENDROOT
BRANCH   3   6
ATOM      6  O   UNL     1      37.299 -26.834 -14.167  0.00  0.00    -0.379 OA
ATOM      7  H   UNL     1      37.458 -27.750 -14.447  0.00  0.00    +0.211 HD
ENDBRANCH   3   6
BRANCH   4   8
ATOM      8  O   UNL     1      40.171 -25.615 -15.993  0.00  0.00    -0.379 OA
ATOM      9  H   UNL     1      39.633 -25.729 -16.792  0.00  0.00    +0.211 HD
ENDBRANCH   4   8
BRANCH   2  10
ATOM     10  C   UNL     1      36.519 -24.127 -13.981  0.00  0.00    +0.186 C 
BRANCH  10  11
ATOM     11  O   UNL     1      36.679 -23.665 -12.650  0.00  0.00    -0.271 OA
BRANCH  11  12
ATOM     12  P   UNL     1      36.103 -24.577 -11.443  0.00  0.00    +0.473 P 
ATOM     13  O   UNL     1      36.218 -23.966 -10.077  0.00  0.00    -0.227 OA
BRANCH  12  14
ATOM     14  O   UNL     1      36.864 -25.991 -11.633  0.00  0.00    -0.303 OA
ATOM     15  H   UNL     1      37.801 -25.832 -11.824  0.00  0.00    +0.222 HD
ENDBRANCH  12  14
BRANCH  12  16
ATOM     16  O   UNL     1      34.594 -24.899 -11.924  0.00  0.00    -0.303 OA
ATOM     17  H   UNL     1      34.074 -25.215 -11.169  0.00  0.00    +0.222 HD
ENDBRANCH  12  16
ENDBRANCH  11  12
ENDBRANCH  10  11
ENDBRANCH   2  10
TORSDOF 7
ENDMDL
MODEL 7
REMARK VINA RESULT:      -6.2      6.972      9.218
REMARK  Name = 5289299
REMARK  7 active torsions:
REMARK  status: ('A' for Active; 'I' for Inactive)
REMARK    1  A    between atoms: C_2  and  C_10
REMARK    2  A    between atoms: C_3  and  O_6
REMARK    3  A    between atoms: C_4  and  O_8
REMARK    4  A    between atoms: C_10  and  O_11
REMARK    5  A    between atoms: O_11  and  P_12
REMARK    6  A    between atoms: P_12  and  O_14
REMARK    7  A    between atoms: P_12  and  O_16
REMARK                            x       y       z     vdW  Elec       q    Type
REMARK                         _______ _______ _______ _____ _____    ______ ____
ROOT
ATOM      1  O   UNL     1      31.413 -23.607 -15.490  0.00  0.00    -0.348 OA
ATOM      2  C   UNL     1      30.994 -24.927 -15.095  0.00  0.00    +0.174 C 
ATOM      3  C   UNL     1      31.462 -25.106 -13.654  0.00  0.00    +0.169 C 
ATOM      4  C   UNL     1      32.746 -24.306 -13.646  0.00  0.00    +0.169 C 
ATOM      5  C   UNL     1      32.412 -23.143 -14.564  0.00  0.00    +0.174 C 
ENDROOT
BRANCH   3   6
ATOM      6  O   UNL     1      30.534 -24.526 -12.746  0.00  0.00    -0.379 OA
ATOM      7  H   UNL     1      29.775 -24.177 -13.239  0.00  0.00    +0.211 HD
ENDBRANCH   3   6
BRANCH   4   8
ATOM      8  O   UNL     1      33.788 -25.086 -14.217  0.00  0.00    -0.379 OA
ATOM      9  H   UNL     1      33.513 -25.404 -15.091  0.00  0.00    +0.211 HD
ENDBRANCH   4   8
BRANCH   2  10
ATOM     10  C   UNL     1      29.500 -25.068 -15.318  0.00  0.00    +0.186 C 
BRANCH  10  11
ATOM     11  O   UNL     1      28.897 -23.788 -15.215  0.00  0.00    -0.271 OA
BRANCH  11  12
ATOM     12  P   UNL     1      28.275 -23.119 -16.551  0.00  0.00    +0.473 P 
ATOM     13  O   UNL     1      27.649 -24.086 -17.513  0.00  0.00    -0.227 OA
BRANCH  12  14
ATOM     14  O   UNL     1      29.499 -22.246 -17.147  0.00  0.00    -0.303 OA
ATOM     15  H   UNL     1      30.127 -22.832 -17.596  0.00  0.00    +0.222 HD
ENDBRANCH  12  14
BRANCH  12  16
ATOM     16  O   UNL     1      27.272 -21.998 -15.959  0.00  0.00    -0.303 OA
ATOM     17  H   UNL     1      26.468 -21.965 -16.500  0.00  0.00    +0.222 HD
ENDBRANCH  12  16
ENDBRANCH  11  12
ENDBRANCH  10  11
ENDBRANCH   2  10
TORSDOF 7
ENDMDL
MODEL 8
REMARK VINA RESULT:      -6.2      2.453      4.880
REMARK  Name = 5289299
REMARK  7 active torsions:
REMARK  status: ('A' for Active; 'I' for Inactive)
REMARK    1  A    between atoms: C_2  and  C_10
REMARK    2  A    between atoms: C_3  and  O_6
REMARK    3  A    between atoms: C_4  and  O_8
REMARK    4  A    between atoms: C_10  and  O_11
REMARK    5  A    between atoms: O_11  and  P_12
REMARK    6  A    between atoms: P_12  and  O_14
REMARK    7  A    between atoms: P_12  and  O_16
REMARK                            x       y       z     vdW  Elec       q    Type
REMARK                         _______ _______ _______ _____ _____    ______ ____
ROOT
ATOM      1  O   UNL     1      38.976 -25.152 -12.872  0.00  0.00    -0.348 OA
ATOM      2  C   UNL     1      37.756 -25.191 -13.635  0.00  0.00    +0.174 C 
ATOM      3  C   UNL     1      38.112 -25.837 -14.970  0.00  0.00    +0.169 C 
ATOM      4  C   UNL     1      39.530 -25.351 -15.178  0.00  0.00    +0.169 C 
ATOM      5  C   UNL     1      40.086 -25.353 -13.764  0.00  0.00    +0.174 C 
ENDROOT
BRANCH   3   6
ATOM      6  O   UNL     1      38.105 -27.255 -14.863  0.00  0.00    -0.379 OA
ATOM      7  H   UNL     1      37.195 -27.565 -14.737  0.00  0.00    +0.211 HD
ENDBRANCH   3   6
BRANCH   4   8
ATOM      8  O   UNL     1      39.501 -24.022 -15.682  0.00  0.00    -0.379 OA
ATOM      9  H   UNL     1      40.300 -23.551 -15.398  0.00  0.00    +0.211 HD
ENDBRANCH   4   8
BRANCH   2  10
ATOM     10  C   UNL     1      36.683 -25.903 -12.832  0.00  0.00    +0.186 C 
BRANCH  10  11
ATOM     11  O   UNL     1      36.789 -25.511 -11.473  0.00  0.00    -0.271 OA
BRANCH  11  12
ATOM     12  P   UNL     1      36.097 -24.123 -11.014  0.00  0.00    +0.473 P 
ATOM     13  O   UNL     1      37.023 -22.944 -10.946  0.00  0.00    -0.227 OA
BRANCH  12  14
ATOM     14  O   UNL     1      35.359 -24.503  -9.626  0.00  0.00    -0.303 OA
ATOM     15  H   UNL     1      34.993 -23.700  -9.223  0.00  0.00    +0.222 HD
ENDBRANCH  12  14
BRANCH  12  16
ATOM     16  O   UNL     1      34.871 -23.970 -12.056  0.00  0.00    -0.303 OA
ATOM     17  H   UNL     1      35.089 -24.429 -12.882  0.00  0.00    +0.222 HD
ENDBRANCH  12  16
ENDBRANCH  11  12
ENDBRANCH  10  11
ENDBRANCH   2  10
TORSDOF 7
ENDMDL
MODEL 9
REMARK VINA RESULT:      -6.2      7.273      9.548
REMARK  Name = 5289299
REMARK  7 active torsions:
REMARK  status: ('A' for Active; 'I' for Inactive)
REMARK    1  A    between atoms: C_2  and  C_10
REMARK    2  A    between atoms: C_3  and  O_6
REMARK    3  A    between atoms: C_4  and  O_8
REMARK    4  A    between atoms: C_10  and  O_11
REMARK    5  A    between atoms: O_11  and  P_12
REMARK    6  A    between atoms: P_12  and  O_14
REMARK    7  A    between atoms: P_12  and  O_16
REMARK                            x       y       z     vdW  Elec       q    Type
REMARK                         _______ _______ _______ _____ _____    ______ ____
ROOT
ATOM      1  O   UNL     1      31.213 -25.249 -14.081  0.00  0.00    -0.348 OA
ATOM      2  C   UNL     1      30.347 -24.110 -14.233  0.00  0.00    +0.174 C 
ATOM      3  C   UNL     1      31.244 -22.946 -14.641  0.00  0.00    +0.169 C 
ATOM      4  C   UNL     1      32.523 -23.270 -13.901  0.00  0.00    +0.169 C 
ATOM      5  C   UNL     1      32.572 -24.786 -13.981  0.00  0.00    +0.174 C 
ENDROOT
BRANCH   3   6
ATOM      6  O   UNL     1      31.488 -22.963 -16.042  0.00  0.00    -0.379 OA
ATOM      7  H   UNL     1      31.216 -22.115 -16.428  0.00  0.00    +0.211 HD
ENDBRANCH   3   6
BRANCH   4   8
ATOM      8  O   UNL     1      32.395 -22.863 -12.544  0.00  0.00    -0.379 OA
ATOM      9  H   UNL     1      33.080 -23.296 -12.011  0.00  0.00    +0.211 HD
ENDBRANCH   4   8
BRANCH   2  10
ATOM     10  C   UNL     1      29.236 -24.450 -15.209  0.00  0.00    +0.186 C 
BRANCH  10  11
ATOM     11  O   UNL     1      28.307 -23.378 -15.241  0.00  0.00    -0.271 OA
BRANCH  11  12
ATOM     12  P   UNL     1      27.831 -22.812 -16.680  0.00  0.00    +0.473 P 
ATOM     13  O   UNL     1      26.640 -21.900 -16.640  0.00  0.00    -0.227 OA
BRANCH  12  14
ATOM     14  O   UNL     1      27.649 -24.147 -17.575  0.00  0.00    -0.303 OA
ATOM     15  H   UNL     1      27.399 -24.889 -17.004  0.00  0.00    +0.222 HD
ENDBRANCH  12  14
BRANCH  12  16
ATOM     16  O   UNL     1      29.181 -22.150 -17.271  0.00  0.00    -0.303 OA
ATOM     17  H   UNL     1      29.804 -21.983 -16.547  0.00  0.00    +0.222 HD
ENDBRANCH  12  16
ENDBRANCH  11  12
ENDBRANCH  10  11
ENDBRANCH   2  10
TORSDOF 7
ENDMDL
