MODEL 1
REMARK VINA RESULT:      -6.9      0.000      0.000
REMARK  Name = 11230
REMARK  2 active torsions:
REMARK  status: ('A' for Active; 'I' for Inactive)
REMARK    1  A    between atoms: C_1  and  C_8
REMARK    2  A    between atoms: C_1  and  O_11
REMARK                            x       y       z     vdW  Elec       q    Type
REMARK                         _______ _______ _______ _____ _____    ______ ____
ROOT
ATOM      1  C   UNL     1      34.963 -18.823 -21.759  0.00  0.00    +0.093 C 
ATOM      2  C   UNL     1      33.613 -18.767 -21.032  0.00  0.00    +0.032 C 
ATOM      3  C   UNL     1      36.035 -19.462 -20.857  0.00  0.00    +0.052 C 
ATOM      4  C   UNL     1      33.148 -20.156 -20.576  0.00  0.00    +0.024 C 
ATOM      5  C   UNL     1      34.247 -20.992 -19.971  0.00  0.00    -0.048 C 
ATOM      6  C   UNL     1      35.544 -20.659 -20.094  0.00  0.00    -0.032 C 
ATOM      7  C   UNL     1      33.811 -22.221 -19.230  0.00  0.00    +0.026 C 
ENDROOT
BRANCH   1   8
ATOM      8  C   UNL     1      35.404 -17.430 -22.209  0.00  0.00    +0.025 C 
ATOM      9  C   UNL     1      34.973 -17.173 -23.650  0.00  0.00    +0.002 C 
ATOM     10  C   UNL     1      34.834 -16.363 -21.277  0.00  0.00    +0.002 C 
ENDBRANCH   1   8
BRANCH   1  11
ATOM     11  O   UNL     1      34.832 -19.633 -22.932  0.00  0.00    -0.386 OA
ATOM     12  H   UNL     1      34.288 -20.410 -22.729  0.00  0.00    +0.210 HD
ENDBRANCH   1  11
TORSDOF 2
ENDMDL
MODEL 2
REMARK VINA RESULT:      -6.7      1.460      2.141
REMARK  Name = 11230
REMARK  2 active torsions:
REMARK  status: ('A' for Active; 'I' for Inactive)
REMARK    1  A    between atoms: C_1  and  C_8
REMARK    2  A    between atoms: C_1  and  O_11
REMARK                            x       y       z     vdW  Elec       q    Type
REMARK                         _______ _______ _______ _____ _____    ______ ____
ROOT
ATOM      1  C   UNL     1      35.371 -18.019 -21.677  0.00  0.00    +0.093 C 
ATOM      2  C   UNL     1      36.671 -18.834 -21.626  0.00  0.00    +0.032 C 
ATOM      3  C   UNL     1      34.149 -18.953 -21.705  0.00  0.00    +0.052 C 
ATOM      4  C   UNL     1      36.709 -19.776 -20.416  0.00  0.00    +0.024 C 
ATOM      5  C   UNL     1      35.408 -20.497 -20.170  0.00  0.00    -0.048 C 
ATOM      6  C   UNL     1      34.264 -20.123 -20.769  0.00  0.00    -0.032 C 
ATOM      7  C   UNL     1      35.462 -21.650 -19.212  0.00  0.00    +0.026 C 
ENDROOT
BRANCH   1   8
ATOM      8  C   UNL     1      35.357 -17.083 -22.886  0.00  0.00    +0.025 C 
ATOM      9  C   UNL     1      34.925 -17.836 -24.140  0.00  0.00    +0.002 C 
ATOM     10  C   UNL     1      34.436 -15.893 -22.628  0.00  0.00    +0.002 C 
ENDBRANCH   1   8
BRANCH   1  11
ATOM     11  O   UNL     1      35.280 -17.206 -20.501  0.00  0.00    -0.386 OA
ATOM     12  H   UNL     1      36.082 -17.317 -19.968  0.00  0.00    +0.210 HD
ENDBRANCH   1  11
TORSDOF 2
ENDMDL
MODEL 3
REMARK VINA RESULT:      -6.6      1.308      4.322
REMARK  Name = 11230
REMARK  2 active torsions:
REMARK  status: ('A' for Active; 'I' for Inactive)
REMARK    1  A    between atoms: C_1  and  C_8
REMARK    2  A    between atoms: C_1  and  O_11
REMARK                            x       y       z     vdW  Elec       q    Type
REMARK                         _______ _______ _______ _____ _____    ______ ____
ROOT
ATOM      1  C   UNL     1      34.878 -19.014 -21.317  0.00  0.00    +0.093 C 
ATOM      2  C   UNL     1      33.758 -18.032 -20.945  0.00  0.00    +0.032 C 
ATOM      3  C   UNL     1      35.106 -19.020 -22.839  0.00  0.00    +0.052 C 
ATOM      4  C   UNL     1      34.060 -16.609 -21.431  0.00  0.00    +0.024 C 
ATOM      5  C   UNL     1      34.619 -16.554 -22.830  0.00  0.00    -0.048 C 
ATOM      6  C   UNL     1      35.074 -17.651 -23.458  0.00  0.00    -0.032 C 
ATOM      7  C   UNL     1      34.644 -15.201 -23.479  0.00  0.00    +0.026 C 
ENDROOT
BRANCH   1   8
ATOM      8  C   UNL     1      34.560 -20.425 -20.819  0.00  0.00    +0.025 C 
ATOM      9  C   UNL     1      35.634 -20.903 -19.847  0.00  0.00    +0.002 C 
ATOM     10  C   UNL     1      33.183 -20.460 -20.160  0.00  0.00    +0.002 C 
ENDBRANCH   1   8
BRANCH   1  11
ATOM     11  O   UNL     1      36.095 -18.599 -20.688  0.00  0.00    -0.386 OA
ATOM     12  H   UNL     1      35.911 -17.869 -20.078  0.00  0.00    +0.210 HD
ENDBRANCH   1  11
TORSDOF 2
ENDMDL
MODEL 4
REMARK VINA RESULT:      -6.3      2.052      3.474
REMARK  Name = 11230
REMARK  2 active torsions:
REMARK  status: ('A' for Active; 'I' for Inactive)
REMARK    1  A    between atoms: C_1  and  C_8
REMARK    2  A    between atoms: C_1  and  O_11
REMARK                            x       y       z     vdW  Elec       q    Type
REMARK                         _______ _______ _______ _____ _____    ______ ____
ROOT
ATOM      1  C   UNL     1      34.513 -16.457 -23.360  0.00  0.00    +0.093 C 
ATOM      2  C   UNL     1      34.309 -17.882 -23.892  0.00  0.00    +0.032 C 
ATOM      3  C   UNL     1      34.232 -16.400 -21.848  0.00  0.00    +0.052 C 
ATOM      4  C   UNL     1      35.195 -18.899 -23.161  0.00  0.00    +0.024 C 
ATOM      5  C   UNL     1      35.240 -18.697 -21.667  0.00  0.00    -0.048 C 
ATOM      6  C   UNL     1      34.789 -17.571 -21.088  0.00  0.00    -0.032 C 
ATOM      7  C   UNL     1      35.823 -19.823 -20.866  0.00  0.00    +0.026 C 
ENDROOT
BRANCH   1   8
ATOM      8  C   UNL     1      33.626 -15.459 -24.106  0.00  0.00    +0.025 C 
ATOM      9  C   UNL     1      34.017 -14.027 -23.751  0.00  0.00    +0.002 C 
ATOM     10  C   UNL     1      33.720 -15.685 -25.613  0.00  0.00    +0.002 C 
ENDBRANCH   1   8
BRANCH   1  11
ATOM     11  O   UNL     1      35.874 -16.066 -23.572  0.00  0.00    -0.386 OA
ATOM     12  H   UNL     1      35.913 -15.394 -24.269  0.00  0.00    +0.210 HD
ENDBRANCH   1  11
TORSDOF 2
ENDMDL
MODEL 5
REMARK VINA RESULT:      -6.2      2.373      4.924
REMARK  Name = 11230
REMARK  2 active torsions:
REMARK  status: ('A' for Active; 'I' for Inactive)
REMARK    1  A    between atoms: C_1  and  C_8
REMARK    2  A    between atoms: C_1  and  O_11
REMARK                            x       y       z     vdW  Elec       q    Type
REMARK                         _______ _______ _______ _____ _____    ______ ____
ROOT
ATOM      1  C   UNL     1      34.537 -16.930 -21.329  0.00  0.00    +0.093 C 
ATOM      2  C   UNL     1      33.031 -16.942 -21.032  0.00  0.00    +0.032 C 
ATOM      3  C   UNL     1      34.836 -16.065 -22.566  0.00  0.00    +0.052 C 
ATOM      4  C   UNL     1      32.478 -15.526 -20.822  0.00  0.00    +0.024 C 
ATOM      5  C   UNL     1      32.998 -14.521 -21.817  0.00  0.00    -0.048 C 
ATOM      6  C   UNL     1      34.054 -14.782 -22.607  0.00  0.00    -0.032 C 
ATOM      7  C   UNL     1      32.274 -13.208 -21.869  0.00  0.00    +0.026 C 
ENDROOT
BRANCH   1   8
ATOM      8  C   UNL     1      35.069 -18.350 -21.529  0.00  0.00    +0.025 C 
ATOM      9  C   UNL     1      34.084 -19.373 -20.970  0.00  0.00    +0.002 C 
ATOM     10  C   UNL     1      35.340 -18.616 -23.008  0.00  0.00    +0.002 C 
ENDBRANCH   1   8
BRANCH   1  11
ATOM     11  O   UNL     1      35.232 -16.362 -20.214  0.00  0.00    -0.386 OA
ATOM     12  H   UNL     1      34.654 -15.731 -19.759  0.00  0.00    +0.210 HD
ENDBRANCH   1  11
TORSDOF 2
ENDMDL
MODEL 6
REMARK VINA RESULT:      -6.2     10.047     11.521
REMARK  Name = 11230
REMARK  2 active torsions:
REMARK  status: ('A' for Active; 'I' for Inactive)
REMARK    1  A    between atoms: C_1  and  C_8
REMARK    2  A    between atoms: C_1  and  O_11
REMARK                            x       y       z     vdW  Elec       q    Type
REMARK                         _______ _______ _______ _____ _____    ______ ____
ROOT
ATOM      1  C   UNL     1      32.581  -8.064 -22.806  0.00  0.00    +0.093 C 
ATOM      2  C   UNL     1      32.624  -9.595 -22.700  0.00  0.00    +0.032 C 
ATOM      3  C   UNL     1      34.001  -7.495 -22.976  0.00  0.00    +0.052 C 
ATOM      4  C   UNL     1      33.298 -10.235 -23.921  0.00  0.00    +0.024 C 
ATOM      5  C   UNL     1      34.546  -9.518 -24.367  0.00  0.00    -0.048 C 
ATOM      6  C   UNL     1      34.858  -8.289 -23.922  0.00  0.00    -0.032 C 
ATOM      7  C   UNL     1      35.417 -10.253 -25.343  0.00  0.00    +0.026 C 
ENDROOT
BRANCH   1   8
ATOM      8  C   UNL     1      31.901  -7.448 -21.583  0.00  0.00    +0.025 C 
ATOM      9  C   UNL     1      32.606  -7.885 -20.302  0.00  0.00    +0.002 C 
ATOM     10  C   UNL     1      31.882  -5.925 -21.694  0.00  0.00    +0.002 C 
ENDBRANCH   1   8
BRANCH   1  11
ATOM     11  O   UNL     1      31.815  -7.694 -23.958  0.00  0.00    -0.386 OA
ATOM     12  H   UNL     1      31.307  -8.459 -24.268  0.00  0.00    +0.210 HD
ENDBRANCH   1  11
TORSDOF 2
ENDMDL
MODEL 7
REMARK VINA RESULT:      -6.2      9.880     11.145
REMARK  Name = 11230
REMARK  2 active torsions:
REMARK  status: ('A' for Active; 'I' for Inactive)
REMARK    1  A    between atoms: C_1  and  C_8
REMARK    2  A    between atoms: C_1  and  O_11
REMARK                            x       y       z     vdW  Elec       q    Type
REMARK                         _______ _______ _______ _____ _____    ______ ____
ROOT
ATOM      1  C   UNL     1      32.427  -8.147 -22.691  0.00  0.00    +0.093 C 
ATOM      2  C   UNL     1      33.068  -7.852 -21.328  0.00  0.00    +0.032 C 
ATOM      3  C   UNL     1      32.230  -9.661 -22.878  0.00  0.00    +0.052 C 
ATOM      4  C   UNL     1      32.235  -8.415 -20.169  0.00  0.00    +0.024 C 
ATOM      5  C   UNL     1      31.711  -9.805 -20.422  0.00  0.00    -0.048 C 
ATOM      6  C   UNL     1      31.727 -10.360 -21.646  0.00  0.00    -0.032 C 
ATOM      7  C   UNL     1      31.162 -10.531 -19.230  0.00  0.00    +0.026 C 
ENDROOT
BRANCH   1   8
ATOM      8  C   UNL     1      33.269  -7.572 -23.831  0.00  0.00    +0.025 C 
ATOM      9  C   UNL     1      32.762  -6.187 -24.223  0.00  0.00    +0.002 C 
ATOM     10  C   UNL     1      34.741  -7.513 -23.430  0.00  0.00    +0.002 C 
ENDBRANCH   1   8
BRANCH   1  11
ATOM     11  O   UNL     1      31.139  -7.523 -22.749  0.00  0.00    -0.386 OA
ATOM     12  H   UNL     1      30.951  -7.254 -23.661  0.00  0.00    +0.210 HD
ENDBRANCH   1  11
TORSDOF 2
ENDMDL
MODEL 8
REMARK VINA RESULT:      -6.1      1.193      4.310
REMARK  Name = 11230
REMARK  2 active torsions:
REMARK  status: ('A' for Active; 'I' for Inactive)
REMARK    1  A    between atoms: C_1  and  C_8
REMARK    2  A    between atoms: C_1  and  O_11
REMARK                            x       y       z     vdW  Elec       q    Type
REMARK                         _______ _______ _______ _____ _____    ______ ____
ROOT
ATOM      1  C   UNL     1      34.846 -19.180 -21.650  0.00  0.00    +0.093 C 
ATOM      2  C   UNL     1      35.226 -19.193 -23.138  0.00  0.00    +0.032 C 
ATOM      3  C   UNL     1      35.259 -17.849 -20.999  0.00  0.00    +0.052 C 
ATOM      4  C   UNL     1      34.593 -18.022 -23.900  0.00  0.00    +0.024 C 
ATOM      5  C   UNL     1      34.660 -16.711 -23.160  0.00  0.00    -0.048 C 
ATOM      6  C   UNL     1      34.975 -16.647 -21.855  0.00  0.00    -0.032 C 
ATOM      7  C   UNL     1      34.348 -15.482 -23.962  0.00  0.00    +0.026 C 
ENDROOT
BRANCH   1   8
ATOM      8  C   UNL     1      35.482 -20.358 -20.911  0.00  0.00    +0.025 C 
ATOM      9  C   UNL     1      36.780 -19.926 -20.235  0.00  0.00    +0.002 C 
ATOM     10  C   UNL     1      34.508 -20.934 -19.886  0.00  0.00    +0.002 C 
ENDBRANCH   1   8
BRANCH   1  11
ATOM     11  O   UNL     1      33.425 -19.312 -21.528  0.00  0.00    -0.386 OA
ATOM     12  H   UNL     1      33.186 -19.381 -20.591  0.00  0.00    +0.210 HD
ENDBRANCH   1  11
TORSDOF 2
ENDMDL
MODEL 9
REMARK VINA RESULT:      -6.1      3.647      5.379
REMARK  Name = 11230
REMARK  2 active torsions:
REMARK  status: ('A' for Active; 'I' for Inactive)
REMARK    1  A    between atoms: C_1  and  C_8
REMARK    2  A    between atoms: C_1  and  O_11
REMARK                            x       y       z     vdW  Elec       q    Type
REMARK                         _______ _______ _______ _____ _____    ______ ____
ROOT
ATOM      1  C   UNL     1      33.819 -22.818 -18.311  0.00  0.00    +0.093 C 
ATOM      2  C   UNL     1      32.449 -22.372 -17.780  0.00  0.00    +0.032 C 
ATOM      3  C   UNL     1      34.881 -22.736 -17.201  0.00  0.00    +0.052 C 
ATOM      4  C   UNL     1      32.004 -23.206 -16.572  0.00  0.00    +0.024 C 
ATOM      5  C   UNL     1      33.105 -23.460 -15.575  0.00  0.00    -0.048 C 
ATOM      6  C   UNL     1      34.397 -23.230 -15.867  0.00  0.00    -0.032 C 
ATOM      7  C   UNL     1      32.677 -23.992 -14.239  0.00  0.00    +0.026 C 
ENDROOT
BRANCH   1   8
ATOM      8  C   UNL     1      34.241 -21.979 -19.518  0.00  0.00    +0.025 C 
ATOM      9  C   UNL     1      33.218 -20.879 -19.787  0.00  0.00    +0.002 C 
ATOM     10  C   UNL     1      35.628 -21.381 -19.294  0.00  0.00    +0.002 C 
ENDBRANCH   1   8
BRANCH   1  11
ATOM     11  O   UNL     1      33.734 -24.181 -18.743  0.00  0.00    -0.386 OA
ATOM     12  H   UNL     1      33.008 -24.275 -19.378  0.00  0.00    +0.210 HD
ENDBRANCH   1  11
TORSDOF 2
ENDMDL
