MODEL 1
REMARK VINA RESULT:      -7.1      0.000      0.000
REMARK  Name = 4644
REMARK  0 active torsions:
REMARK  status: ('A' for Active; 'I' for Inactive)
REMARK                            x       y       z     vdW  Elec       q    Type
REMARK                         _______ _______ _______ _____ _____    ______ ____
ROOT
ATOM      1  O   UNL     1      38.338 -22.300 -11.992  0.00  0.00    -0.269 OA
ATOM      2  O   UNL     1      35.273 -24.626  -9.435  0.00  0.00    -0.193 OA
ATOM      3  N   UNL     1      35.030 -24.861 -14.119  0.00  0.00    -0.239 N 
ATOM      4  N   UNL     1      35.798 -24.216 -15.011  0.00  0.00    -0.262 N 
ATOM      5  N   UNL     1      36.786 -23.484 -10.708  0.00  0.00    -0.198 N 
ATOM      6  N   UNL     1      35.036 -24.833 -11.700  0.00  0.00    -0.304 NA
ATOM      7  C   UNL     1      36.651 -23.580 -13.035  0.00  0.00    +0.116 C 
ATOM      8  C   UNL     1      35.481 -24.496 -12.866  0.00  0.00    +0.216 C 
ATOM      9  C   UNL     1      36.766 -23.485 -14.368  0.00  0.00    +0.084 C 
ATOM     10  C   UNL     1      37.370 -23.038 -11.893  0.00  0.00    +0.264 C 
ATOM     11  C   UNL     1      35.668 -24.337 -10.566  0.00  0.00    +0.273 C 
ATOM     12  H   UNL     1      34.288 -25.475 -14.320  0.00  0.00    +0.172 HD
ATOM     13  H   UNL     1      35.684 -24.261 -15.988  0.00  0.00    +0.170 HD
ATOM     14  H   UNL     1      37.201 -23.168  -9.873  0.00  0.00    +0.169 HD
ENDROOT
TORSDOF 0
ENDMDL
MODEL 2
REMARK VINA RESULT:      -7.1      7.277      8.659
REMARK  Name = 4644
REMARK  0 active torsions:
REMARK  status: ('A' for Active; 'I' for Inactive)
REMARK                            x       y       z     vdW  Elec       q    Type
REMARK                         _______ _______ _______ _____ _____    ______ ____
ROOT
ATOM      1  O   UNL     1      32.255 -20.162 -20.952  0.00  0.00    -0.269 OA
ATOM      2  O   UNL     1      33.644 -23.739 -18.378  0.00  0.00    -0.193 OA
ATOM      3  N   UNL     1      36.767 -20.492 -19.704  0.00  0.00    -0.239 N 
ATOM      4  N   UNL     1      36.554 -19.424 -20.489  0.00  0.00    -0.262 N 
ATOM      5  N   UNL     1      32.967 -21.964 -19.647  0.00  0.00    -0.198 N 
ATOM      6  N   UNL     1      35.271 -22.235 -18.949  0.00  0.00    -0.304 NA
ATOM      7  C   UNL     1      34.523 -20.365 -20.327  0.00  0.00    +0.116 C 
ATOM      8  C   UNL     1      35.556 -21.144 -19.578  0.00  0.00    +0.216 C 
ATOM      9  C   UNL     1      35.227 -19.340 -20.830  0.00  0.00    +0.084 C 
ATOM     10  C   UNL     1      33.130 -20.780 -20.365  0.00  0.00    +0.264 C 
ATOM     11  C   UNL     1      33.960 -22.698 -18.959  0.00  0.00    +0.273 C 
ATOM     12  H   UNL     1      37.623 -20.759 -19.297  0.00  0.00    +0.172 HD
ATOM     13  H   UNL     1      37.251 -18.791 -20.778  0.00  0.00    +0.170 HD
ATOM     14  H   UNL     1      32.054 -22.331 -19.615  0.00  0.00    +0.169 HD
ENDROOT
TORSDOF 0
ENDMDL
MODEL 3
REMARK VINA RESULT:      -6.8      2.409      2.414
REMARK  Name = 4644
REMARK  0 active torsions:
REMARK  status: ('A' for Active; 'I' for Inactive)
REMARK                            x       y       z     vdW  Elec       q    Type
REMARK                         _______ _______ _______ _____ _____    ______ ____
ROOT
ATOM      1  O   UNL     1      39.193 -23.008 -11.589  0.00  0.00    -0.269 OA
ATOM      2  O   UNL     1      34.975 -24.827 -11.097  0.00  0.00    -0.193 OA
ATOM      3  N   UNL     1      37.998 -26.778 -14.115  0.00  0.00    -0.239 N 
ATOM      4  N   UNL     1      39.235 -26.356 -14.422  0.00  0.00    -0.262 N 
ATOM      5  N   UNL     1      37.064 -23.938 -11.345  0.00  0.00    -0.198 N 
ATOM      6  N   UNL     1      36.341 -25.880 -12.599  0.00  0.00    -0.304 NA
ATOM      7  C   UNL     1      38.557 -24.892 -12.862  0.00  0.00    +0.116 C 
ATOM      8  C   UNL     1      37.500 -25.903 -13.171  0.00  0.00    +0.216 C 
ATOM      9  C   UNL     1      39.568 -25.263 -13.662  0.00  0.00    +0.084 C 
ATOM     10  C   UNL     1      38.348 -23.841 -11.879  0.00  0.00    +0.264 C 
ATOM     11  C   UNL     1      36.069 -24.891 -11.661  0.00  0.00    +0.273 C 
ATOM     12  H   UNL     1      37.535 -27.561 -14.492  0.00  0.00    +0.172 HD
ATOM     13  H   UNL     1      39.820 -26.773 -15.096  0.00  0.00    +0.170 HD
ATOM     14  H   UNL     1      36.823 -23.265 -10.667  0.00  0.00    +0.169 HD
ENDROOT
TORSDOF 0
ENDMDL
MODEL 4
REMARK VINA RESULT:      -6.7      3.120      3.969
REMARK  Name = 4644
REMARK  0 active torsions:
REMARK  status: ('A' for Active; 'I' for Inactive)
REMARK                            x       y       z     vdW  Elec       q    Type
REMARK                         _______ _______ _______ _____ _____    ______ ____
ROOT
ATOM      1  O   UNL     1      37.914 -23.239 -12.861  0.00  0.00    -0.269 OA
ATOM      2  O   UNL     1      40.985 -26.438 -14.159  0.00  0.00    -0.193 OA
ATOM      3  N   UNL     1      36.464 -26.964 -15.318  0.00  0.00    -0.239 N 
ATOM      4  N   UNL     1      35.436 -26.169 -14.985  0.00  0.00    -0.262 N 
ATOM      5  N   UNL     1      39.459 -24.860 -13.526  0.00  0.00    -0.198 N 
ATOM      6  N   UNL     1      38.821 -26.823 -14.794  0.00  0.00    -0.304 NA
ATOM      7  C   UNL     1      37.210 -25.134 -14.080  0.00  0.00    +0.116 C 
ATOM      8  C   UNL     1      37.600 -26.402 -14.770  0.00  0.00    +0.216 C 
ATOM      9  C   UNL     1      35.885 -25.080 -14.280  0.00  0.00    +0.084 C 
ATOM     10  C   UNL     1      38.192 -24.289 -13.420  0.00  0.00    +0.264 C 
ATOM     11  C   UNL     1      39.807 -26.071 -14.167  0.00  0.00    +0.273 C 
ATOM     12  H   UNL     1      36.417 -27.791 -15.852  0.00  0.00    +0.172 HD
ATOM     13  H   UNL     1      34.494 -26.342 -15.214  0.00  0.00    +0.170 HD
ATOM     14  H   UNL     1      40.197 -24.362 -13.106  0.00  0.00    +0.169 HD
ENDROOT
TORSDOF 0
ENDMDL
MODEL 5
REMARK VINA RESULT:      -6.7      3.182      4.697
REMARK  Name = 4644
REMARK  0 active torsions:
REMARK  status: ('A' for Active; 'I' for Inactive)
REMARK                            x       y       z     vdW  Elec       q    Type
REMARK                         _______ _______ _______ _____ _____    ______ ____
ROOT
ATOM      1  O   UNL     1      35.893 -25.648 -15.316  0.00  0.00    -0.269 OA
ATOM      2  O   UNL     1      40.507 -25.860 -15.437  0.00  0.00    -0.193 OA
ATOM      3  N   UNL     1      38.370 -24.099 -11.644  0.00  0.00    -0.239 N 
ATOM      4  N   UNL     1      37.053 -23.914 -11.458  0.00  0.00    -0.262 N 
ATOM      5  N   UNL     1      38.226 -25.754 -15.365  0.00  0.00    -0.198 N 
ATOM      6  N   UNL     1      39.603 -24.981 -13.528  0.00  0.00    -0.304 NA
ATOM      7  C   UNL     1      37.166 -24.857 -13.491  0.00  0.00    +0.116 C 
ATOM      8  C   UNL     1      38.523 -24.657 -12.897  0.00  0.00    +0.216 C 
ATOM      9  C   UNL     1      36.349 -24.387 -12.537  0.00  0.00    +0.084 C 
ATOM     10  C   UNL     1      36.986 -25.454 -14.805  0.00  0.00    +0.264 C 
ATOM     11  C   UNL     1      39.503 -25.542 -14.796  0.00  0.00    +0.273 C 
ATOM     12  H   UNL     1      39.088 -23.878 -11.008  0.00  0.00    +0.172 HD
ATOM     13  H   UNL     1      36.651 -23.500 -10.660  0.00  0.00    +0.170 HD
ATOM     14  H   UNL     1      38.212 -26.163 -16.261  0.00  0.00    +0.169 HD
ENDROOT
TORSDOF 0
ENDMDL
MODEL 6
REMARK VINA RESULT:      -6.6      3.104      4.226
REMARK  Name = 4644
REMARK  0 active torsions:
REMARK  status: ('A' for Active; 'I' for Inactive)
REMARK                            x       y       z     vdW  Elec       q    Type
REMARK                         _______ _______ _______ _____ _____    ______ ____
ROOT
ATOM      1  O   UNL     1      36.973 -26.102 -12.048  0.00  0.00    -0.269 OA
ATOM      2  O   UNL     1      41.054 -26.273 -14.207  0.00  0.00    -0.193 OA
ATOM      3  N   UNL     1      37.735 -23.338 -15.763  0.00  0.00    -0.239 N 
ATOM      4  N   UNL     1      36.485 -23.195 -15.296  0.00  0.00    -0.262 N 
ATOM      5  N   UNL     1      39.035 -26.177 -13.144  0.00  0.00    -0.198 N 
ATOM      6  N   UNL     1      39.534 -24.799 -15.072  0.00  0.00    -0.304 NA
ATOM      7  C   UNL     1      37.377 -24.738 -13.932  0.00  0.00    +0.116 C 
ATOM      8  C   UNL     1      38.345 -24.300 -14.984  0.00  0.00    +0.216 C 
ATOM      9  C   UNL     1      36.289 -24.001 -14.202  0.00  0.00    +0.084 C 
ATOM     10  C   UNL     1      37.731 -25.731 -12.931  0.00  0.00    +0.264 C 
ATOM     11  C   UNL     1      39.931 -25.765 -14.156  0.00  0.00    +0.273 C 
ATOM     12  H   UNL     1      38.138 -22.851 -16.518  0.00  0.00    +0.172 HD
ATOM     13  H   UNL     1      35.805 -22.596 -15.682  0.00  0.00    +0.170 HD
ATOM     14  H   UNL     1      39.370 -26.858 -12.516  0.00  0.00    +0.169 HD
ENDROOT
TORSDOF 0
ENDMDL
MODEL 7
REMARK VINA RESULT:      -6.6     14.078     15.119
REMARK  Name = 4644
REMARK  0 active torsions:
REMARK  status: ('A' for Active; 'I' for Inactive)
REMARK                            x       y       z     vdW  Elec       q    Type
REMARK                         _______ _______ _______ _____ _____    ______ ____
ROOT
ATOM      1  O   UNL     1      32.877 -15.811 -26.697  0.00  0.00    -0.269 OA
ATOM      2  O   UNL     1      33.653 -12.691 -23.378  0.00  0.00    -0.193 OA
ATOM      3  N   UNL     1      35.661 -16.926 -23.088  0.00  0.00    -0.239 N 
ATOM      4  N   UNL     1      35.508 -17.964 -23.925  0.00  0.00    -0.262 N 
ATOM      5  N   UNL     1      33.280 -14.239 -25.016  0.00  0.00    -0.198 N 
ATOM      6  N   UNL     1      34.696 -14.709 -23.108  0.00  0.00    -0.304 NA
ATOM      7  C   UNL     1      34.257 -16.351 -24.859  0.00  0.00    +0.116 C 
ATOM      8  C   UNL     1      34.893 -15.893 -23.586  0.00  0.00    +0.216 C 
ATOM      9  C   UNL     1      34.702 -17.611 -24.979  0.00  0.00    +0.084 C 
ATOM     10  C   UNL     1      33.401 -15.477 -25.645  0.00  0.00    +0.264 C 
ATOM     11  C   UNL     1      33.875 -13.828 -23.801  0.00  0.00    +0.273 C 
ATOM     12  H   UNL     1      36.215 -16.906 -22.274  0.00  0.00    +0.172 HD
ATOM     13  H   UNL     1      35.916 -18.851 -23.801  0.00  0.00    +0.170 HD
ATOM     14  H   UNL     1      32.714 -13.573 -25.471  0.00  0.00    +0.169 HD
ENDROOT
TORSDOF 0
ENDMDL
MODEL 8
REMARK VINA RESULT:      -6.6      3.061      3.950
REMARK  Name = 4644
REMARK  0 active torsions:
REMARK  status: ('A' for Active; 'I' for Inactive)
REMARK                            x       y       z     vdW  Elec       q    Type
REMARK                         _______ _______ _______ _____ _____    ______ ____
ROOT
ATOM      1  O   UNL     1      37.971 -26.391 -11.952  0.00  0.00    -0.269 OA
ATOM      2  O   UNL     1      36.866 -27.463 -16.308  0.00  0.00    -0.193 OA
ATOM      3  N   UNL     1      34.797 -23.794 -14.232  0.00  0.00    -0.239 N 
ATOM      4  N   UNL     1      34.956 -23.373 -12.967  0.00  0.00    -0.262 N 
ATOM      5  N   UNL     1      37.408 -26.922 -14.156  0.00  0.00    -0.198 N 
ATOM      6  N   UNL     1      35.782 -25.653 -15.425  0.00  0.00    -0.304 NA
ATOM      7  C   UNL     1      36.362 -25.115 -13.117  0.00  0.00    +0.116 C 
ATOM      8  C   UNL     1      35.619 -24.892 -14.394  0.00  0.00    +0.216 C 
ATOM      9  C   UNL     1      35.898 -24.137 -12.325  0.00  0.00    +0.084 C 
ATOM     10  C   UNL     1      37.333 -26.188 -12.974  0.00  0.00    +0.264 C 
ATOM     11  C   UNL     1      36.683 -26.707 -15.351  0.00  0.00    +0.273 C 
ATOM     12  H   UNL     1      34.206 -23.397 -14.912  0.00  0.00    +0.172 HD
ATOM     13  H   UNL     1      34.467 -22.621 -12.560  0.00  0.00    +0.170 HD
ATOM     14  H   UNL     1      38.040 -27.677 -14.160  0.00  0.00    +0.169 HD
ENDROOT
TORSDOF 0
ENDMDL
MODEL 9
REMARK VINA RESULT:      -6.5      7.706      9.088
REMARK  Name = 4644
REMARK  0 active torsions:
REMARK  status: ('A' for Active; 'I' for Inactive)
REMARK                            x       y       z     vdW  Elec       q    Type
REMARK                         _______ _______ _______ _____ _____    ______ ____
ROOT
ATOM      1  O   UNL     1      37.072 -21.671 -18.779  0.00  0.00    -0.269 OA
ATOM      2  O   UNL     1      36.186 -18.169 -21.660  0.00  0.00    -0.193 OA
ATOM      3  N   UNL     1      32.675 -20.950 -20.250  0.00  0.00    -0.239 N 
ATOM      4  N   UNL     1      32.755 -22.035 -19.464  0.00  0.00    -0.262 N 
ATOM      5  N   UNL     1      36.612 -19.901 -20.232  0.00  0.00    -0.198 N 
ATOM      6  N   UNL     1      34.382 -19.439 -21.056  0.00  0.00    -0.304 NA
ATOM      7  C   UNL     1      34.873 -21.297 -19.552  0.00  0.00    +0.116 C 
ATOM      8  C   UNL     1      33.955 -20.450 -20.374  0.00  0.00    +0.216 C 
ATOM      9  C   UNL     1      34.046 -22.218 -19.035  0.00  0.00    +0.084 C 
ATOM     10  C   UNL     1      36.295 -21.012 -19.453  0.00  0.00    +0.264 C 
ATOM     11  C   UNL     1      35.734 -19.121 -21.019  0.00  0.00    +0.273 C 
ATOM     12  H   UNL     1      31.858 -20.582 -20.660  0.00  0.00    +0.172 HD
ATOM     13  H   UNL     1      31.996 -22.616 -19.228  0.00  0.00    +0.170 HD
ATOM     14  H   UNL     1      37.559 -19.626 -20.234  0.00  0.00    +0.169 HD
ENDROOT
TORSDOF 0
ENDMDL
