MODEL 1
REMARK VINA RESULT:      -8.3      0.000      0.000
REMARK  Name = 251636
REMARK  1 active torsions:
REMARK  status: ('A' for Active; 'I' for Inactive)
REMARK    1  A    between atoms: C_6  and  O_22
REMARK                            x       y       z     vdW  Elec       q    Type
REMARK                         _______ _______ _______ _____ _____    ______ ____
ROOT
ATOM      1  O   UNL     1      33.454 -19.324 -21.016  0.00  0.00    -0.291 OA
ATOM      2  C   UNL     1      35.723 -24.450 -14.674  0.00  0.00    +0.023 C 
ATOM      3  C   UNL     1      36.614 -23.345 -15.286  0.00  0.00    +0.002 C 
ATOM      4  C   UNL     1      36.317 -23.087 -16.769  0.00  0.00    +0.001 C 
ATOM      5  C   UNL     1      34.826 -22.655 -16.924  0.00  0.00    +0.004 C 
ATOM      6  C   UNL     1      36.338 -24.552 -13.241  0.00  0.00    +0.088 C 
ATOM      7  C   UNL     1      34.262 -23.977 -14.772  0.00  0.00    +0.002 C 
ATOM      8  C   UNL     1      38.025 -23.768 -14.889  0.00  0.00    +0.002 C 
ATOM      9  C   UNL     1      33.860 -23.644 -16.221  0.00  0.00    +0.000 C 
ATOM     10  C   UNL     1      37.279 -22.069 -17.432  0.00  0.00    +0.004 C 
ATOM     11  C   UNL     1      37.864 -24.404 -13.496  0.00  0.00    +0.027 C 
ATOM     12  C   UNL     1      34.447 -22.438 -18.423  0.00  0.00    +0.019 C 
ATOM     13  C   UNL     1      35.849 -25.822 -15.398  0.00  0.00    +0.002 C 
ATOM     14  C   UNL     1      36.919 -21.936 -18.919  0.00  0.00    +0.022 C 
ATOM     15  C   UNL     1      35.471 -21.574 -19.143  0.00  0.00    -0.042 C 
ATOM     16  C   UNL     1      35.860 -23.486 -12.246  0.00  0.00    +0.029 C 
ATOM     17  C   UNL     1      33.023 -21.852 -18.536  0.00  0.00    +0.012 C 
ATOM     18  C   UNL     1      37.326 -20.694 -16.756  0.00  0.00    +0.000 C 
ATOM     19  C   UNL     1      32.715 -21.328 -19.926  0.00  0.00    +0.069 C 
ATOM     20  C   UNL     1      35.155 -20.566 -19.973  0.00  0.00    +0.029 C 
ATOM     21  C   UNL     1      33.743 -20.305 -20.335  0.00  0.00    +0.173 C 
ENDROOT
BRANCH   6  22
ATOM     22  O   UNL     1      36.052 -25.802 -12.616  0.00  0.00    -0.387 OA
ATOM     23  H   UNL     1      35.096 -25.964 -12.642  0.00  0.00    +0.210 HD
ENDBRANCH   6  22
TORSDOF 1
ENDMDL
MODEL 2
REMARK VINA RESULT:      -8.0     16.429     21.016
REMARK  Name = 251636
REMARK  1 active torsions:
REMARK  status: ('A' for Active; 'I' for Inactive)
REMARK    1  A    between atoms: C_6  and  O_22
REMARK                            x       y       z     vdW  Elec       q    Type
REMARK                         _______ _______ _______ _____ _____    ______ ____
ROOT
ATOM      1  O   UNL     1      32.749  -8.054 -20.415  0.00  0.00    -0.291 OA
ATOM      2  C   UNL     1      33.755  -4.015 -27.786  0.00  0.00    +0.023 C 
ATOM      3  C   UNL     1      32.827  -3.554 -26.639  0.00  0.00    +0.002 C 
ATOM      4  C   UNL     1      32.277  -4.719 -25.805  0.00  0.00    +0.001 C 
ATOM      5  C   UNL     1      33.470  -5.509 -25.182  0.00  0.00    +0.004 C 
ATOM      6  C   UNL     1      34.036  -2.650 -28.493  0.00  0.00    +0.088 C 
ATOM      7  C   UNL     1      34.960  -4.731 -27.150  0.00  0.00    +0.002 C 
ATOM      8  C   UNL     1      31.836  -2.628 -27.336  0.00  0.00    +0.002 C 
ATOM      9  C   UNL     1      34.526  -5.902 -26.249  0.00  0.00    +0.000 C 
ATOM     10  C   UNL     1      31.252  -4.288 -24.727  0.00  0.00    +0.004 C 
ATOM     11  C   UNL     1      32.662  -1.926 -28.431  0.00  0.00    +0.027 C 
ATOM     12  C   UNL     1      32.974  -6.747 -24.371  0.00  0.00    +0.019 C 
ATOM     13  C   UNL     1      33.070  -4.993 -28.784  0.00  0.00    +0.002 C 
ATOM     14  C   UNL     1      30.736  -5.538 -24.000  0.00  0.00    +0.022 C 
ATOM     15  C   UNL     1      31.845  -6.380 -23.419  0.00  0.00    -0.042 C 
ATOM     16  C   UNL     1      35.121  -1.786 -27.838  0.00  0.00    +0.029 C 
ATOM     17  C   UNL     1      34.155  -7.410 -23.630  0.00  0.00    +0.012 C 
ATOM     18  C   UNL     1      31.769  -3.248 -23.726  0.00  0.00    +0.000 C 
ATOM     19  C   UNL     1      33.701  -8.414 -22.586  0.00  0.00    +0.069 C 
ATOM     20  C   UNL     1      31.773  -6.794 -22.143  0.00  0.00    +0.029 C 
ATOM     21  C   UNL     1      32.764  -7.755 -21.607  0.00  0.00    +0.173 C 
ENDROOT
BRANCH   6  22
ATOM     22  O   UNL     1      34.456  -2.817 -29.845  0.00  0.00    -0.387 OA
ATOM     23  H   UNL     1      33.829  -3.393 -30.310  0.00  0.00    +0.210 HD
ENDBRANCH   6  22
TORSDOF 1
ENDMDL
MODEL 3
REMARK VINA RESULT:      -7.8      3.051      6.083
REMARK  Name = 251636
REMARK  1 active torsions:
REMARK  status: ('A' for Active; 'I' for Inactive)
REMARK    1  A    between atoms: C_6  and  O_22
REMARK                            x       y       z     vdW  Elec       q    Type
REMARK                         _______ _______ _______ _____ _____    ______ ____
ROOT
ATOM      1  O   UNL     1      39.597 -24.684 -14.999  0.00  0.00    -0.291 OA
ATOM      2  C   UNL     1      31.172 -23.972 -14.593  0.00  0.00    +0.023 C 
ATOM      3  C   UNL     1      32.034 -23.634 -15.831  0.00  0.00    +0.002 C 
ATOM      4  C   UNL     1      33.446 -23.154 -15.466  0.00  0.00    +0.001 C 
ATOM      5  C   UNL     1      34.172 -24.273 -14.656  0.00  0.00    +0.004 C 
ATOM      6  C   UNL     1      29.805 -24.297 -15.277  0.00  0.00    +0.088 C 
ATOM      7  C   UNL     1      31.867 -25.123 -13.844  0.00  0.00    +0.002 C 
ATOM      8  C   UNL     1      31.137 -22.705 -16.643  0.00  0.00    +0.002 C 
ATOM      9  C   UNL     1      33.316 -24.771 -13.461  0.00  0.00    +0.000 C 
ATOM     10  C   UNL     1      34.284 -22.696 -16.686  0.00  0.00    +0.004 C 
ATOM     11  C   UNL     1      29.711 -23.237 -16.410  0.00  0.00    +0.027 C 
ATOM     12  C   UNL     1      35.594 -23.817 -14.202  0.00  0.00    +0.019 C 
ATOM     13  C   UNL     1      30.997 -22.777 -13.612  0.00  0.00    +0.002 C 
ATOM     14  C   UNL     1      35.648 -22.191 -16.193  0.00  0.00    +0.022 C 
ATOM     15  C   UNL     1      36.383 -23.206 -15.352  0.00  0.00    -0.042 C 
ATOM     16  C   UNL     1      29.686 -25.711 -15.862  0.00  0.00    +0.029 C 
ATOM     17  C   UNL     1      36.351 -24.994 -13.551  0.00  0.00    +0.012 C 
ATOM     18  C   UNL     1      34.458 -23.754 -17.782  0.00  0.00    +0.000 C 
ATOM     19  C   UNL     1      37.832 -24.713 -13.376  0.00  0.00    +0.069 C 
ATOM     20  C   UNL     1      37.669 -23.488 -15.614  0.00  0.00    +0.029 C 
ATOM     21  C   UNL     1      38.451 -24.352 -14.702  0.00  0.00    +0.173 C 
ENDROOT
BRANCH   6  22
ATOM     22  O   UNL     1      28.706 -24.171 -14.377  0.00  0.00    -0.387 OA
ATOM     23  H   UNL     1      28.132 -24.949 -14.458  0.00  0.00    +0.210 HD
ENDBRANCH   6  22
TORSDOF 1
ENDMDL
MODEL 4
REMARK VINA RESULT:      -7.4      2.508      3.588
REMARK  Name = 251636
REMARK  1 active torsions:
REMARK  status: ('A' for Active; 'I' for Inactive)
REMARK    1  A    between atoms: C_6  and  O_22
REMARK                            x       y       z     vdW  Elec       q    Type
REMARK                         _______ _______ _______ _____ _____    ______ ____
ROOT
ATOM      1  O   UNL     1      29.437 -22.020 -16.879  0.00  0.00    -0.291 OA
ATOM      2  C   UNL     1      36.501 -24.566 -12.971  0.00  0.00    +0.023 C 
ATOM      3  C   UNL     1      36.454 -23.799 -14.312  0.00  0.00    +0.002 C 
ATOM      4  C   UNL     1      35.185 -24.089 -15.126  0.00  0.00    +0.001 C 
ATOM      5  C   UNL     1      33.936 -23.681 -14.285  0.00  0.00    +0.004 C 
ATOM      6  C   UNL     1      37.922 -24.163 -12.461  0.00  0.00    +0.088 C 
ATOM      7  C   UNL     1      35.301 -24.100 -12.128  0.00  0.00    +0.002 C 
ATOM      8  C   UNL     1      37.808 -24.106 -14.943  0.00  0.00    +0.002 C 
ATOM      9  C   UNL     1      33.964 -24.303 -12.864  0.00  0.00    +0.000 C 
ATOM     10  C   UNL     1      35.175 -23.424 -16.525  0.00  0.00    +0.004 C 
ATOM     11  C   UNL     1      38.784 -24.182 -13.754  0.00  0.00    +0.027 C 
ATOM     12  C   UNL     1      32.609 -24.011 -15.039  0.00  0.00    +0.019 C 
ATOM     13  C   UNL     1      36.421 -26.111 -13.135  0.00  0.00    +0.002 C 
ATOM     14  C   UNL     1      33.889 -23.829 -17.261  0.00  0.00    +0.022 C 
ATOM     15  C   UNL     1      32.639 -23.513 -16.476  0.00  0.00    -0.042 C 
ATOM     16  C   UNL     1      38.009 -22.788 -11.784  0.00  0.00    +0.029 C 
ATOM     17  C   UNL     1      31.398 -23.447 -14.263  0.00  0.00    +0.012 C 
ATOM     18  C   UNL     1      35.343 -21.900 -16.516  0.00  0.00    +0.000 C 
ATOM     19  C   UNL     1      30.122 -23.455 -15.084  0.00  0.00    +0.069 C 
ATOM     20  C   UNL     1      31.622 -22.866 -17.069  0.00  0.00    +0.029 C 
ATOM     21  C   UNL     1      30.328 -22.696 -16.369  0.00  0.00    +0.173 C 
ENDROOT
BRANCH   6  22
ATOM     22  O   UNL     1      38.434 -25.085 -11.501  0.00  0.00    -0.387 OA
ATOM     23  H   UNL     1      37.747 -25.284 -10.846  0.00  0.00    +0.210 HD
ENDBRANCH   6  22
TORSDOF 1
ENDMDL
MODEL 5
REMARK VINA RESULT:      -7.4      6.413      9.696
REMARK  Name = 251636
REMARK  1 active torsions:
REMARK  status: ('A' for Active; 'I' for Inactive)
REMARK    1  A    between atoms: C_6  and  O_22
REMARK                            x       y       z     vdW  Elec       q    Type
REMARK                         _______ _______ _______ _____ _____    ______ ____
ROOT
ATOM      1  O   UNL     1      33.754 -10.758 -25.525  0.00  0.00    -0.291 OA
ATOM      2  C   UNL     1      34.556 -18.113 -21.412  0.00  0.00    +0.023 C 
ATOM      3  C   UNL     1      34.799 -17.910 -22.925  0.00  0.00    +0.002 C 
ATOM      4  C   UNL     1      33.940 -16.789 -23.526  0.00  0.00    +0.001 C 
ATOM      5  C   UNL     1      34.264 -15.449 -22.794  0.00  0.00    +0.004 C 
ATOM      6  C   UNL     1      35.458 -19.361 -21.144  0.00  0.00    +0.088 C 
ATOM      7  C   UNL     1      34.946 -16.806 -20.699  0.00  0.00    +0.002 C 
ATOM      8  C   UNL     1      34.662 -19.317 -23.498  0.00  0.00    +0.002 C 
ATOM      9  C   UNL     1      34.174 -15.594 -21.252  0.00  0.00    +0.000 C 
ATOM     10  C   UNL     1      34.079 -16.649 -25.062  0.00  0.00    +0.004 C 
ATOM     11  C   UNL     1      35.238 -20.239 -22.407  0.00  0.00    +0.027 C 
ATOM     12  C   UNL     1      33.373 -14.281 -23.321  0.00  0.00    +0.019 C 
ATOM     13  C   UNL     1      33.078 -18.447 -21.059  0.00  0.00    +0.002 C 
ATOM     14  C   UNL     1      33.137 -15.539 -25.551  0.00  0.00    +0.022 C 
ATOM     15  C   UNL     1      33.359 -14.225 -24.842  0.00  0.00    -0.042 C 
ATOM     16  C   UNL     1      36.951 -19.061 -20.958  0.00  0.00    +0.029 C 
ATOM     17  C   UNL     1      33.826 -12.940 -22.704  0.00  0.00    +0.012 C 
ATOM     18  C   UNL     1      35.510 -16.410 -25.560  0.00  0.00    +0.000 C 
ATOM     19  C   UNL     1      33.219 -11.738 -23.403  0.00  0.00    +0.069 C 
ATOM     20  C   UNL     1      33.488 -13.094 -25.554  0.00  0.00    +0.029 C 
ATOM     21  C   UNL     1      33.538 -11.779 -24.875  0.00  0.00    +0.173 C 
ENDROOT
BRANCH   6  22
ATOM     22  O   UNL     1      35.069 -20.066 -19.966  0.00  0.00    -0.387 OA
ATOM     23  H   UNL     1      35.401 -19.597 -19.185  0.00  0.00    +0.210 HD
ENDBRANCH   6  22
TORSDOF 1
ENDMDL
MODEL 6
REMARK VINA RESULT:      -6.7      7.422     10.170
REMARK  Name = 251636
REMARK  1 active torsions:
REMARK  status: ('A' for Active; 'I' for Inactive)
REMARK    1  A    between atoms: C_6  and  O_22
REMARK                            x       y       z     vdW  Elec       q    Type
REMARK                         _______ _______ _______ _____ _____    ______ ____
ROOT
ATOM      1  O   UNL     1      31.822  -9.690 -21.477  0.00  0.00    -0.291 OA
ATOM      2  C   UNL     1      34.515 -17.709 -21.802  0.00  0.00    +0.023 C 
ATOM      3  C   UNL     1      34.494 -16.729 -22.997  0.00  0.00    +0.002 C 
ATOM      4  C   UNL     1      33.370 -15.688 -22.901  0.00  0.00    +0.001 C 
ATOM      5  C   UNL     1      33.553 -14.859 -21.592  0.00  0.00    +0.004 C 
ATOM      6  C   UNL     1      35.654 -18.680 -22.249  0.00  0.00    +0.088 C 
ATOM      7  C   UNL     1      34.765 -16.882 -20.528  0.00  0.00    +0.002 C 
ATOM      8  C   UNL     1      34.528 -17.651 -24.211  0.00  0.00    +0.002 C 
ATOM      9  C   UNL     1      33.717 -15.770 -20.346  0.00  0.00    +0.000 C 
ATOM     10  C   UNL     1      33.257 -14.773 -24.146  0.00  0.00    +0.004 C 
ATOM     11  C   UNL     1      35.412 -18.835 -23.777  0.00  0.00    +0.027 C 
ATOM     12  C   UNL     1      32.401 -13.822 -21.407  0.00  0.00    +0.019 C 
ATOM     13  C   UNL     1      33.188 -18.501 -21.624  0.00  0.00    +0.002 C 
ATOM     14  C   UNL     1      32.071 -13.816 -23.957  0.00  0.00    +0.022 C 
ATOM     15  C   UNL     1      32.156 -13.020 -22.677  0.00  0.00    -0.042 C 
ATOM     16  C   UNL     1      37.081 -18.182 -21.985  0.00  0.00    +0.029 C 
ATOM     17  C   UNL     1      32.694 -12.905 -20.200  0.00  0.00    +0.012 C 
ATOM     18  C   UNL     1      34.534 -13.999 -24.495  0.00  0.00    +0.000 C 
ATOM     19  C   UNL     1      31.786 -11.690 -20.154  0.00  0.00    +0.069 C 
ATOM     20  C   UNL     1      31.976 -11.690 -22.703  0.00  0.00    +0.029 C 
ATOM     21  C   UNL     1      31.889 -10.917 -21.443  0.00  0.00    +0.173 C 
ENDROOT
BRANCH   6  22
ATOM     22  O   UNL     1      35.574 -19.946 -21.596  0.00  0.00    -0.387 OA
ATOM     23  H   UNL     1      36.443 -20.178 -21.233  0.00  0.00    +0.210 HD
ENDBRANCH   6  22
TORSDOF 1
ENDMDL
MODEL 7
REMARK VINA RESULT:      -6.4      1.385      3.200
REMARK  Name = 251636
REMARK  1 active torsions:
REMARK  status: ('A' for Active; 'I' for Inactive)
REMARK    1  A    between atoms: C_6  and  O_22
REMARK                            x       y       z     vdW  Elec       q    Type
REMARK                         _______ _______ _______ _____ _____    ______ ____
ROOT
ATOM      1  O   UNL     1      35.221 -19.555 -23.055  0.00  0.00    -0.291 OA
ATOM      2  C   UNL     1      36.364 -23.244 -15.522  0.00  0.00    +0.023 C 
ATOM      3  C   UNL     1      35.259 -23.618 -16.536  0.00  0.00    +0.002 C 
ATOM      4  C   UNL     1      34.812 -22.432 -17.401  0.00  0.00    +0.001 C 
ATOM      5  C   UNL     1      36.040 -21.887 -18.195  0.00  0.00    +0.004 C 
ATOM      6  C   UNL     1      36.503 -24.590 -14.741  0.00  0.00    +0.088 C 
ATOM      7  C   UNL     1      37.590 -22.774 -16.323  0.00  0.00    +0.002 C 
ATOM      8  C   UNL     1      34.216 -24.326 -15.678  0.00  0.00    +0.002 C 
ATOM      9  C   UNL     1      37.251 -21.606 -17.267  0.00  0.00    +0.000 C 
ATOM     10  C   UNL     1      33.623 -22.756 -18.340  0.00  0.00    +0.004 C 
ATOM     11  C   UNL     1      35.034 -25.084 -14.615  0.00  0.00    +0.027 C 
ATOM     12  C   UNL     1      35.659 -20.636 -19.048  0.00  0.00    +0.019 C 
ATOM     13  C   UNL     1      35.949 -22.109 -14.541  0.00  0.00    +0.002 C 
ATOM     14  C   UNL     1      33.233 -21.486 -19.110  0.00  0.00    +0.022 C 
ATOM     15  C   UNL     1      34.392 -20.872 -19.858  0.00  0.00    -0.042 C 
ATOM     16  C   UNL     1      37.365 -25.658 -15.427  0.00  0.00    +0.029 C 
ATOM     17  C   UNL     1      36.843 -20.221 -19.947  0.00  0.00    +0.012 C 
ATOM     18  C   UNL     1      33.863 -23.926 -19.302  0.00  0.00    +0.000 C 
ATOM     19  C   UNL     1      36.442 -19.223 -21.018  0.00  0.00    +0.069 C 
ATOM     20  C   UNL     1      34.250 -20.531 -21.149  0.00  0.00    +0.029 C 
ATOM     21  C   UNL     1      35.315 -19.779 -21.849  0.00  0.00    +0.173 C 
ENDROOT
BRANCH   6  22
ATOM     22  O   UNL     1      37.085 -24.411 -13.452  0.00  0.00    -0.387 OA
ATOM     23  H   UNL     1      37.969 -24.022 -13.548  0.00  0.00    +0.210 HD
ENDBRANCH   6  22
TORSDOF 1
ENDMDL
MODEL 8
REMARK VINA RESULT:      -6.3      2.392      7.466
REMARK  Name = 251636
REMARK  1 active torsions:
REMARK  status: ('A' for Active; 'I' for Inactive)
REMARK    1  A    between atoms: C_6  and  O_22
REMARK                            x       y       z     vdW  Elec       q    Type
REMARK                         _______ _______ _______ _____ _____    ______ ____
ROOT
ATOM      1  O   UNL     1      34.546 -24.955 -16.013  0.00  0.00    -0.291 OA
ATOM      2  C   UNL     1      34.366 -18.856 -21.881  0.00  0.00    +0.023 C 
ATOM      3  C   UNL     1      35.630 -19.632 -21.443  0.00  0.00    +0.002 C 
ATOM      4  C   UNL     1      35.573 -20.097 -19.981  0.00  0.00    +0.001 C 
ATOM      5  C   UNL     1      34.336 -21.030 -19.791  0.00  0.00    +0.004 C 
ATOM      6  C   UNL     1      34.780 -18.431 -23.326  0.00  0.00    +0.088 C 
ATOM      7  C   UNL     1      33.168 -19.812 -21.752  0.00  0.00    +0.002 C 
ATOM      8  C   UNL     1      36.773 -18.716 -21.869  0.00  0.00    +0.002 C 
ATOM      9  C   UNL     1      33.033 -20.381 -20.328  0.00  0.00    +0.000 C 
ATOM     10  C   UNL     1      36.878 -20.771 -19.488  0.00  0.00    +0.004 C 
ATOM     11  C   UNL     1      36.282 -18.063 -23.175  0.00  0.00    +0.027 C 
ATOM     12  C   UNL     1      34.189 -21.487 -18.305  0.00  0.00    +0.019 C 
ATOM     13  C   UNL     1      34.085 -17.591 -21.021  0.00  0.00    +0.002 C 
ATOM     14  C   UNL     1      36.719 -21.142 -18.006  0.00  0.00    +0.022 C 
ATOM     15  C   UNL     1      35.506 -22.000 -17.741  0.00  0.00    -0.042 C 
ATOM     16  C   UNL     1      34.603 -19.510 -24.402  0.00  0.00    +0.029 C 
ATOM     17  C   UNL     1      33.064 -22.536 -18.177  0.00  0.00    +0.012 C 
ATOM     18  C   UNL     1      37.327 -21.984 -20.310  0.00  0.00    +0.000 C 
ATOM     19  C   UNL     1      33.078 -23.248 -16.836  0.00  0.00    +0.069 C 
ATOM     20  C   UNL     1      35.625 -23.119 -17.009  0.00  0.00    +0.029 C 
ATOM     21  C   UNL     1      34.424 -23.881 -16.599  0.00  0.00    +0.173 C 
ENDROOT
BRANCH   6  22
ATOM     22  O   UNL     1      34.032 -17.310 -23.795  0.00  0.00    -0.387 OA
ATOM     23  H   UNL     1      33.905 -17.385 -24.754  0.00  0.00    +0.210 HD
ENDBRANCH   6  22
TORSDOF 1
ENDMDL
MODEL 9
REMARK VINA RESULT:      -6.3     10.884     15.482
REMARK  Name = 251636
REMARK  1 active torsions:
REMARK  status: ('A' for Active; 'I' for Inactive)
REMARK    1  A    between atoms: C_6  and  O_22
REMARK                            x       y       z     vdW  Elec       q    Type
REMARK                         _______ _______ _______ _____ _____    ______ ____
ROOT
ATOM      1  O   UNL     1      33.150 -15.644 -20.228  0.00  0.00    -0.291 OA
ATOM      2  C   UNL     1      32.181  -8.032 -23.802  0.00  0.00    +0.023 C 
ATOM      3  C   UNL     1      32.166  -8.308 -22.281  0.00  0.00    +0.002 C 
ATOM      4  C   UNL     1      31.643  -9.708 -21.930  0.00  0.00    +0.001 C 
ATOM      5  C   UNL     1      32.552 -10.778 -22.613  0.00  0.00    +0.004 C 
ATOM      6  C   UNL     1      32.630  -6.535 -23.816  0.00  0.00    +0.088 C 
ATOM      7  C   UNL     1      33.134  -9.051 -24.450  0.00  0.00    +0.002 C 
ATOM      8  C   UNL     1      31.438  -7.096 -21.709  0.00  0.00    +0.002 C 
ATOM      9  C   UNL     1      32.733 -10.502 -24.129  0.00  0.00    +0.000 C 
ATOM     10  C   UNL     1      31.507  -9.961 -20.408  0.00  0.00    +0.004 C 
ATOM     11  C   UNL     1      31.868  -5.922 -22.608  0.00  0.00    +0.027 C 
ATOM     12  C   UNL     1      32.032 -12.225 -22.342  0.00  0.00    +0.019 C 
ATOM     13  C   UNL     1      30.783  -8.167 -24.472  0.00  0.00    +0.002 C 
ATOM     14  C   UNL     1      30.928 -11.366 -20.185  0.00  0.00    +0.022 C 
ATOM     15  C   UNL     1      31.730 -12.448 -20.868  0.00  0.00    -0.042 C 
ATOM     16  C   UNL     1      34.140  -6.304 -23.665  0.00  0.00    +0.029 C 
ATOM     17  C   UNL     1      33.036 -13.265 -22.884  0.00  0.00    +0.012 C 
ATOM     18  C   UNL     1      32.799  -9.769 -19.605  0.00  0.00    +0.000 C 
ATOM     19  C   UNL     1      32.753 -14.669 -22.382  0.00  0.00    +0.069 C 
ATOM     20  C   UNL     1      32.094 -13.544 -20.183  0.00  0.00    +0.029 C 
ATOM     21  C   UNL     1      32.732 -14.686 -20.876  0.00  0.00    +0.173 C 
ENDROOT
BRANCH   6  22
ATOM     22  O   UNL     1      32.270  -5.873 -25.026  0.00  0.00    -0.387 OA
ATOM     23  H   UNL     1      31.385  -5.487 -24.932  0.00  0.00    +0.210 HD
ENDBRANCH   6  22
TORSDOF 1
ENDMDL
