MODEL 1
REMARK VINA RESULT:     -10.2      0.000      0.000
REMARK  Name = 9549223
REMARK  6 active torsions:
REMARK  status: ('A' for Active; 'I' for Inactive)
REMARK    1  A    between atoms: N_1  and  N_4
REMARK    2  A    between atoms: N_1  and  C_15
REMARK    3  A    between atoms: C_5  and  C_7
REMARK    4  A    between atoms: C_12  and  O_13
REMARK    5  A    between atoms: C_15  and  C_17
REMARK    6  A    between atoms: C_16  and  C_22
REMARK                            x       y       z     vdW  Elec       q    Type
REMARK                         _______ _______ _______ _____ _____    ______ ____
ROOT
ATOM      1  N   UNL     1      35.729 -18.062 -20.985  0.00  0.00    -0.225 NA
ATOM      2  H   UNL     1      35.989 -18.267 -20.020  0.00  0.00    +0.145 HD
ENDROOT
BRANCH   1   4
ATOM      3  O   UNL     1      35.553 -16.262 -23.079  0.00  0.00    -0.269 OA
ATOM      4  N   UNL     1      34.831 -17.006 -21.003  0.00  0.00    -0.246 N 
ATOM      5  C   UNL     1      34.800 -16.136 -22.097  0.00  0.00    +0.259 C 
ATOM      6  H   UNL     1      34.217 -16.868 -20.246  0.00  0.00    +0.169 HD
BRANCH   5   7
ATOM      7  C   UNL     1      33.844 -15.041 -22.035  0.00  0.00    +0.055 C 
ATOM      8  C   UNL     1      33.332 -14.632 -20.804  0.00  0.00    +0.008 C 
ATOM      9  C   UNL     1      33.442 -14.399 -23.206  0.00  0.00    +0.008 C 
ATOM     10  C   UNL     1      32.416 -13.581 -20.744  0.00  0.00    +0.037 C 
ATOM     11  C   UNL     1      32.527 -13.347 -23.145  0.00  0.00    +0.037 C 
ATOM     12  C   UNL     1      32.014 -12.939 -21.915  0.00  0.00    +0.134 C 
BRANCH  12  13
ATOM     13  O   UNL     1      31.122 -11.912 -21.855  0.00  0.00    -0.506 OA
ATOM     14  H   UNL     1      31.294 -11.115 -22.314  0.00  0.00    +0.292 HD
ENDBRANCH  12  13
ENDBRANCH   5   7
ENDBRANCH   1   4
BRANCH   1  15
ATOM     15  C   UNL     1      35.125 -19.245 -21.582  0.00  0.00    +0.114 C 
BRANCH  15  17
ATOM     16  C   UNL     1      34.051 -22.159 -18.635  0.00  0.00    -0.023 C 
ATOM     17  C   UNL     1      34.748 -20.267 -20.547  0.00  0.00    -0.005 C 
ATOM     18  C   UNL     1      33.057 -21.454 -19.313  0.00  0.00    -0.005 C 
ATOM     19  C   UNL     1      35.395 -21.913 -18.915  0.00  0.00    -0.005 C 
ATOM     20  C   UNL     1      33.407 -20.505 -20.274  0.00  0.00    -0.003 C 
ATOM     21  C   UNL     1      35.745 -20.964 -19.875  0.00  0.00    -0.003 C 
BRANCH  16  22
ATOM     22  C   UNL     1      33.677 -23.173 -17.607  0.00  0.00    +0.022 C 
ATOM     23  C   UNL     1      32.223 -23.016 -17.125  0.00  0.00    +0.005 C 
ATOM     24  C   UNL     1      34.632 -23.167 -16.398  0.00  0.00    +0.005 C 
ENDBRANCH  16  22
ENDBRANCH  15  17
ENDBRANCH   1  15
TORSDOF 6
ENDMDL
MODEL 2
REMARK VINA RESULT:     -10.1      2.284      8.224
REMARK  Name = 9549223
REMARK  6 active torsions:
REMARK  status: ('A' for Active; 'I' for Inactive)
REMARK    1  A    between atoms: N_1  and  N_4
REMARK    2  A    between atoms: N_1  and  C_15
REMARK    3  A    between atoms: C_5  and  C_7
REMARK    4  A    between atoms: C_12  and  O_13
REMARK    5  A    between atoms: C_15  and  C_17
REMARK    6  A    between atoms: C_16  and  C_22
REMARK                            x       y       z     vdW  Elec       q    Type
REMARK                         _______ _______ _______ _____ _____    ______ ____
ROOT
ATOM      1  N   UNL     1      35.610 -16.417 -23.236  0.00  0.00    -0.225 NA
ATOM      2  H   UNL     1      36.433 -16.436 -23.838  0.00  0.00    +0.145 HD
ENDROOT
BRANCH   1   4
ATOM      3  O   UNL     1      35.295 -16.834 -20.519  0.00  0.00    -0.269 OA
ATOM      4  N   UNL     1      35.422 -17.673 -22.678  0.00  0.00    -0.246 N 
ATOM      5  C   UNL     1      35.269 -17.806 -21.295  0.00  0.00    +0.259 C 
ATOM      6  H   UNL     1      35.397 -18.469 -23.256  0.00  0.00    +0.169 HD
BRANCH   5   7
ATOM      7  C   UNL     1      35.095 -19.156 -20.782  0.00  0.00    +0.055 C 
ATOM      8  C   UNL     1      33.812 -19.679 -20.622  0.00  0.00    +0.008 C 
ATOM      9  C   UNL     1      36.209 -19.927 -20.452  0.00  0.00    +0.008 C 
ATOM     10  C   UNL     1      33.644 -20.975 -20.132  0.00  0.00    +0.037 C 
ATOM     11  C   UNL     1      36.041 -21.222 -19.962  0.00  0.00    +0.037 C 
ATOM     12  C   UNL     1      34.759 -21.746 -19.801  0.00  0.00    +0.134 C 
BRANCH  12  13
ATOM     13  O   UNL     1      34.594 -23.010 -19.324  0.00  0.00    -0.506 OA
ATOM     14  H   UNL     1      35.208 -23.363 -18.713  0.00  0.00    +0.292 HD
ENDBRANCH  12  13
ENDBRANCH   5   7
ENDBRANCH   1   4
BRANCH   1  15
ATOM     15  C   UNL     1      34.445 -16.038 -24.023  0.00  0.00    +0.114 C 
BRANCH  15  17
ATOM     16  C   UNL     1      32.283 -12.807 -22.230  0.00  0.00    -0.023 C 
ATOM     17  C   UNL     1      33.687 -14.904 -23.393  0.00  0.00    -0.005 C 
ATOM     18  C   UNL     1      32.975 -12.605 -23.424  0.00  0.00    -0.005 C 
ATOM     19  C   UNL     1      32.296 -14.060 -21.620  0.00  0.00    -0.005 C 
ATOM     20  C   UNL     1      33.680 -13.658 -24.008  0.00  0.00    -0.003 C 
ATOM     21  C   UNL     1      33.000 -15.113 -22.204  0.00  0.00    -0.003 C 
BRANCH  16  22
ATOM     22  C   UNL     1      31.530 -11.681 -21.605  0.00  0.00    +0.022 C 
ATOM     23  C   UNL     1      31.923 -10.312 -22.191  0.00  0.00    +0.005 C 
ATOM     24  C   UNL     1      31.675 -11.655 -20.072  0.00  0.00    +0.005 C 
ENDBRANCH  16  22
ENDBRANCH  15  17
ENDBRANCH   1  15
TORSDOF 6
ENDMDL
MODEL 3
REMARK VINA RESULT:     -10.1      2.284      8.208
REMARK  Name = 9549223
REMARK  6 active torsions:
REMARK  status: ('A' for Active; 'I' for Inactive)
REMARK    1  A    between atoms: N_1  and  N_4
REMARK    2  A    between atoms: N_1  and  C_15
REMARK    3  A    between atoms: C_5  and  C_7
REMARK    4  A    between atoms: C_12  and  O_13
REMARK    5  A    between atoms: C_15  and  C_17
REMARK    6  A    between atoms: C_16  and  C_22
REMARK                            x       y       z     vdW  Elec       q    Type
REMARK                         _______ _______ _______ _____ _____    ______ ____
ROOT
ATOM      1  N   UNL     1      35.625 -16.419 -23.231  0.00  0.00    -0.225 NA
ATOM      2  H   UNL     1      36.448 -16.436 -23.834  0.00  0.00    +0.145 HD
ENDROOT
BRANCH   1   4
ATOM      3  O   UNL     1      35.302 -16.840 -20.516  0.00  0.00    -0.269 OA
ATOM      4  N   UNL     1      35.436 -17.675 -22.676  0.00  0.00    -0.246 N 
ATOM      5  C   UNL     1      35.280 -17.811 -21.294  0.00  0.00    +0.259 C 
ATOM      6  H   UNL     1      35.413 -18.471 -23.256  0.00  0.00    +0.169 HD
BRANCH   5   7
ATOM      7  C   UNL     1      35.105 -19.162 -20.784  0.00  0.00    +0.055 C 
ATOM      8  C   UNL     1      36.221 -19.933 -20.459  0.00  0.00    +0.008 C 
ATOM      9  C   UNL     1      33.823 -19.686 -20.619  0.00  0.00    +0.008 C 
ATOM     10  C   UNL     1      36.054 -21.229 -19.969  0.00  0.00    +0.037 C 
ATOM     11  C   UNL     1      33.657 -20.981 -20.129  0.00  0.00    +0.037 C 
ATOM     12  C   UNL     1      34.772 -21.753 -19.804  0.00  0.00    +0.134 C 
BRANCH  12  13
ATOM     13  O   UNL     1      34.610 -23.016 -19.325  0.00  0.00    -0.506 OA
ATOM     14  H   UNL     1      33.921 -23.558 -19.654  0.00  0.00    +0.292 HD
ENDBRANCH  12  13
ENDBRANCH   5   7
ENDBRANCH   1   4
BRANCH   1  15
ATOM     15  C   UNL     1      34.460 -16.036 -24.017  0.00  0.00    +0.114 C 
BRANCH  15  17
ATOM     16  C   UNL     1      32.289 -12.825 -22.200  0.00  0.00    -0.023 C 
ATOM     17  C   UNL     1      33.698 -14.910 -23.380  0.00  0.00    -0.005 C 
ATOM     18  C   UNL     1      32.315 -14.081 -21.593  0.00  0.00    -0.005 C 
ATOM     19  C   UNL     1      32.970 -12.616 -23.399  0.00  0.00    -0.005 C 
ATOM     20  C   UNL     1      33.022 -15.127 -22.185  0.00  0.00    -0.003 C 
ATOM     21  C   UNL     1      33.677 -13.662 -23.991  0.00  0.00    -0.003 C 
BRANCH  16  22
ATOM     22  C   UNL     1      31.533 -11.706 -21.567  0.00  0.00    +0.022 C 
ATOM     23  C   UNL     1      31.940 -10.329 -22.126  0.00  0.00    +0.005 C 
ATOM     24  C   UNL     1      31.658 -11.704 -20.032  0.00  0.00    +0.005 C 
ENDBRANCH  16  22
ENDBRANCH  15  17
ENDBRANCH   1  15
TORSDOF 6
ENDMDL
MODEL 4
REMARK VINA RESULT:     -10.0      5.051      9.908
REMARK  Name = 9549223
REMARK  6 active torsions:
REMARK  status: ('A' for Active; 'I' for Inactive)
REMARK    1  A    between atoms: N_1  and  N_4
REMARK    2  A    between atoms: N_1  and  C_15
REMARK    3  A    between atoms: C_5  and  C_7
REMARK    4  A    between atoms: C_12  and  O_13
REMARK    5  A    between atoms: C_15  and  C_17
REMARK    6  A    between atoms: C_16  and  C_22
REMARK                            x       y       z     vdW  Elec       q    Type
REMARK                         _______ _______ _______ _____ _____    ______ ____
ROOT
ATOM      1  N   UNL     1      35.947 -22.340 -17.601  0.00  0.00    -0.225 NA
ATOM      2  H   UNL     1      36.698 -22.890 -18.018  0.00  0.00    +0.145 HD
ENDROOT
BRANCH   1   4
ATOM      3  O   UNL     1      37.928 -22.837 -15.734  0.00  0.00    -0.269 OA
ATOM      4  N   UNL     1      35.684 -22.815 -16.326  0.00  0.00    -0.246 N 
ATOM      5  C   UNL     1      36.738 -23.042 -15.435  0.00  0.00    +0.259 C 
ATOM      6  H   UNL     1      34.757 -22.992 -16.048  0.00  0.00    +0.169 HD
BRANCH   5   7
ATOM      7  C   UNL     1      36.385 -23.559 -14.122  0.00  0.00    +0.055 C 
ATOM      8  C   UNL     1      35.050 -23.820 -13.812  0.00  0.00    +0.008 C 
ATOM      9  C   UNL     1      37.380 -23.794 -13.173  0.00  0.00    +0.008 C 
ATOM     10  C   UNL     1      34.711 -24.316 -12.553  0.00  0.00    +0.037 C 
ATOM     11  C   UNL     1      37.040 -24.291 -11.915  0.00  0.00    +0.037 C 
ATOM     12  C   UNL     1      35.706 -24.552 -11.604  0.00  0.00    +0.134 C 
BRANCH  12  13
ATOM     13  O   UNL     1      35.375 -25.037 -10.377  0.00  0.00    -0.506 OA
ATOM     14  H   UNL     1      35.751 -25.838 -10.073  0.00  0.00    +0.292 HD
ENDBRANCH  12  13
ENDBRANCH   5   7
ENDBRANCH   1   4
BRANCH   1  15
ATOM     15  C   UNL     1      34.755 -22.445 -18.432  0.00  0.00    +0.114 C 
BRANCH  15  17
ATOM     16  C   UNL     1      34.575 -19.340 -21.374  0.00  0.00    -0.023 C 
ATOM     17  C   UNL     1      34.692 -21.355 -19.463  0.00  0.00    -0.005 C 
ATOM     18  C   UNL     1      35.811 -19.800 -20.921  0.00  0.00    -0.005 C 
ATOM     19  C   UNL     1      33.398 -19.889 -20.868  0.00  0.00    -0.005 C 
ATOM     20  C   UNL     1      35.870 -20.812 -19.962  0.00  0.00    -0.003 C 
ATOM     21  C   UNL     1      33.456 -20.901 -19.909  0.00  0.00    -0.003 C 
BRANCH  16  22
ATOM     22  C   UNL     1      34.512 -18.257 -22.398  0.00  0.00    +0.022 C 
ATOM     23  C   UNL     1      35.347 -18.583 -23.651  0.00  0.00    +0.005 C 
ATOM     24  C   UNL     1      34.929 -16.887 -21.833  0.00  0.00    +0.005 C 
ENDBRANCH  16  22
ENDBRANCH  15  17
ENDBRANCH   1  15
TORSDOF 6
ENDMDL
MODEL 5
REMARK VINA RESULT:     -10.0      5.040      9.886
REMARK  Name = 9549223
REMARK  6 active torsions:
REMARK  status: ('A' for Active; 'I' for Inactive)
REMARK    1  A    between atoms: N_1  and  N_4
REMARK    2  A    between atoms: N_1  and  C_15
REMARK    3  A    between atoms: C_5  and  C_7
REMARK    4  A    between atoms: C_12  and  O_13
REMARK    5  A    between atoms: C_15  and  C_17
REMARK    6  A    between atoms: C_16  and  C_22
REMARK                            x       y       z     vdW  Elec       q    Type
REMARK                         _______ _______ _______ _____ _____    ______ ____
ROOT
ATOM      1  N   UNL     1      35.976 -22.314 -17.621  0.00  0.00    -0.225 NA
ATOM      2  H   UNL     1      36.742 -22.851 -18.029  0.00  0.00    +0.145 HD
ENDROOT
BRANCH   1   4
ATOM      3  O   UNL     1      37.948 -22.838 -15.752  0.00  0.00    -0.269 OA
ATOM      4  N   UNL     1      35.707 -22.794 -16.348  0.00  0.00    -0.246 N 
ATOM      5  C   UNL     1      36.756 -23.035 -15.457  0.00  0.00    +0.259 C 
ATOM      6  H   UNL     1      34.777 -22.965 -16.073  0.00  0.00    +0.169 HD
BRANCH   5   7
ATOM      7  C   UNL     1      36.396 -23.556 -14.147  0.00  0.00    +0.055 C 
ATOM      8  C   UNL     1      37.389 -23.807 -13.201  0.00  0.00    +0.008 C 
ATOM      9  C   UNL     1      35.059 -23.803 -13.837  0.00  0.00    +0.008 C 
ATOM     10  C   UNL     1      37.045 -24.305 -11.944  0.00  0.00    +0.037 C 
ATOM     11  C   UNL     1      34.715 -24.301 -12.580  0.00  0.00    +0.037 C 
ATOM     12  C   UNL     1      35.707 -24.553 -11.634  0.00  0.00    +0.134 C 
BRANCH  12  13
ATOM     13  O   UNL     1      35.372 -25.037 -10.407  0.00  0.00    -0.506 OA
ATOM     14  H   UNL     1      34.637 -25.608 -10.314  0.00  0.00    +0.292 HD
ENDBRANCH  12  13
ENDBRANCH   5   7
ENDBRANCH   1   4
BRANCH   1  15
ATOM     15  C   UNL     1      34.796 -22.440 -18.466  0.00  0.00    +0.114 C 
BRANCH  15  17
ATOM     16  C   UNL     1      34.572 -19.313 -21.380  0.00  0.00    -0.023 C 
ATOM     17  C   UNL     1      34.717 -21.342 -19.488  0.00  0.00    -0.005 C 
ATOM     18  C   UNL     1      35.815 -19.775 -20.948  0.00  0.00    -0.005 C 
ATOM     19  C   UNL     1      33.403 -19.868 -20.862  0.00  0.00    -0.005 C 
ATOM     20  C   UNL     1      35.888 -20.795 -19.998  0.00  0.00    -0.003 C 
ATOM     21  C   UNL     1      33.476 -20.887 -19.913  0.00  0.00    -0.003 C 
BRANCH  16  22
ATOM     22  C   UNL     1      34.494 -18.223 -22.395  0.00  0.00    +0.022 C 
ATOM     23  C   UNL     1      35.264 -18.562 -23.685  0.00  0.00    +0.005 C 
ATOM     24  C   UNL     1      34.974 -16.867 -21.842  0.00  0.00    +0.005 C 
ENDBRANCH  16  22
ENDBRANCH  15  17
ENDBRANCH   1  15
TORSDOF 6
ENDMDL
MODEL 6
REMARK VINA RESULT:     -10.0      2.319      2.925
REMARK  Name = 9549223
REMARK  6 active torsions:
REMARK  status: ('A' for Active; 'I' for Inactive)
REMARK    1  A    between atoms: N_1  and  N_4
REMARK    2  A    between atoms: N_1  and  C_15
REMARK    3  A    between atoms: C_5  and  C_7
REMARK    4  A    between atoms: C_12  and  O_13
REMARK    5  A    between atoms: C_15  and  C_17
REMARK    6  A    between atoms: C_16  and  C_22
REMARK                            x       y       z     vdW  Elec       q    Type
REMARK                         _______ _______ _______ _____ _____    ______ ____
ROOT
ATOM      1  N   UNL     1      36.400 -19.240 -20.205  0.00  0.00    -0.225 NA
ATOM      2  H   UNL     1      35.718 -19.029 -19.476  0.00  0.00    +0.145 HD
ENDROOT
BRANCH   1   4
ATOM      3  O   UNL     1      35.217 -16.751 -20.454  0.00  0.00    -0.269 OA
ATOM      4  N   UNL     1      35.951 -18.732 -21.414  0.00  0.00    -0.246 N 
ATOM      5  C   UNL     1      35.363 -17.464 -21.463  0.00  0.00    +0.259 C 
ATOM      6  H   UNL     1      36.046 -19.263 -22.238  0.00  0.00    +0.169 HD
BRANCH   5   7
ATOM      7  C   UNL     1      34.900 -17.007 -22.764  0.00  0.00    +0.055 C 
ATOM      8  C   UNL     1      34.337 -15.737 -22.896  0.00  0.00    +0.008 C 
ATOM      9  C   UNL     1      35.019 -17.836 -23.879  0.00  0.00    +0.008 C 
ATOM     10  C   UNL     1      33.894 -15.297 -24.143  0.00  0.00    +0.037 C 
ATOM     11  C   UNL     1      34.576 -17.395 -25.126  0.00  0.00    +0.037 C 
ATOM     12  C   UNL     1      34.013 -16.127 -25.259  0.00  0.00    +0.134 C 
BRANCH  12  13
ATOM     13  O   UNL     1      33.582 -15.696 -26.475  0.00  0.00    -0.506 OA
ATOM     14  H   UNL     1      32.743 -15.289 -26.558  0.00  0.00    +0.292 HD
ENDBRANCH  12  13
ENDBRANCH   5   7
ENDBRANCH   1   4
BRANCH   1  15
ATOM     15  C   UNL     1      36.571 -20.684 -20.300  0.00  0.00    +0.114 C 
BRANCH  15  17
ATOM     16  C   UNL     1      34.150 -22.775 -17.456  0.00  0.00    -0.023 C 
ATOM     17  C   UNL     1      35.722 -21.417 -19.302  0.00  0.00    -0.005 C 
ATOM     18  C   UNL     1      33.595 -22.343 -18.661  0.00  0.00    -0.005 C 
ATOM     19  C   UNL     1      35.493 -22.525 -17.177  0.00  0.00    -0.005 C 
ATOM     20  C   UNL     1      34.384 -21.662 -19.587  0.00  0.00    -0.003 C 
ATOM     21  C   UNL     1      36.282 -21.843 -18.104  0.00  0.00    -0.003 C 
BRANCH  16  22
ATOM     22  C   UNL     1      33.306 -23.504 -16.465  0.00  0.00    +0.022 C 
ATOM     23  C   UNL     1      31.820 -23.111 -16.555  0.00  0.00    +0.005 C 
ATOM     24  C   UNL     1      33.808 -23.323 -15.019  0.00  0.00    +0.005 C 
ENDBRANCH  16  22
ENDBRANCH  15  17
ENDBRANCH   1  15
TORSDOF 6
ENDMDL
MODEL 7
REMARK VINA RESULT:      -9.9      4.490      8.947
REMARK  Name = 9549223
REMARK  6 active torsions:
REMARK  status: ('A' for Active; 'I' for Inactive)
REMARK    1  A    between atoms: N_1  and  N_4
REMARK    2  A    between atoms: N_1  and  C_15
REMARK    3  A    between atoms: C_5  and  C_7
REMARK    4  A    between atoms: C_12  and  O_13
REMARK    5  A    between atoms: C_15  and  C_17
REMARK    6  A    between atoms: C_16  and  C_22
REMARK                            x       y       z     vdW  Elec       q    Type
REMARK                         _______ _______ _______ _____ _____    ______ ____
ROOT
ATOM      1  N   UNL     1      33.968 -23.078 -19.177  0.00  0.00    -0.225 NA
ATOM      2  H   UNL     1      33.273 -22.511 -19.662  0.00  0.00    +0.145 HD
ENDROOT
BRANCH   1   4
ATOM      3  O   UNL     1      31.799 -21.887 -17.939  0.00  0.00    -0.269 OA
ATOM      4  N   UNL     1      33.437 -23.530 -17.979  0.00  0.00    -0.246 N 
ATOM      5  C   UNL     1      32.338 -22.877 -17.413  0.00  0.00    +0.259 C 
ATOM      6  H   UNL     1      33.833 -24.311 -17.528  0.00  0.00    +0.169 HD
BRANCH   5   7
ATOM      7  C   UNL     1      31.849 -23.398 -16.146  0.00  0.00    +0.055 C 
ATOM      8  C   UNL     1      30.487 -23.651 -15.977  0.00  0.00    +0.008 C 
ATOM      9  C   UNL     1      32.739 -23.645 -15.101  0.00  0.00    +0.008 C 
ATOM     10  C   UNL     1      30.017 -24.152 -14.762  0.00  0.00    +0.037 C 
ATOM     11  C   UNL     1      32.268 -24.146 -13.887  0.00  0.00    +0.037 C 
ATOM     12  C   UNL     1      30.907 -24.399 -13.717  0.00  0.00    +0.134 C 
BRANCH  12  13
ATOM     13  O   UNL     1      30.448 -24.888 -12.534  0.00  0.00    -0.506 OA
ATOM     14  H   UNL     1      30.786 -25.693 -12.197  0.00  0.00    +0.292 HD
ENDBRANCH  12  13
ENDBRANCH   5   7
ENDBRANCH   1   4
BRANCH   1  15
ATOM     15  C   UNL     1      35.157 -22.274 -18.927  0.00  0.00    +0.114 C 
BRANCH  15  17
ATOM     16  C   UNL     1      35.266 -18.773 -21.388  0.00  0.00    -0.023 C 
ATOM     17  C   UNL     1      35.195 -21.046 -19.791  0.00  0.00    -0.005 C 
ATOM     18  C   UNL     1      34.047 -19.392 -21.110  0.00  0.00    -0.005 C 
ATOM     19  C   UNL     1      36.448 -19.294 -20.866  0.00  0.00    -0.005 C 
ATOM     20  C   UNL     1      34.012 -20.533 -20.308  0.00  0.00    -0.003 C 
ATOM     21  C   UNL     1      36.413 -20.435 -20.064  0.00  0.00    -0.003 C 
BRANCH  16  22
ATOM     22  C   UNL     1      35.304 -17.553 -22.246  0.00  0.00    +0.022 C 
ATOM     23  C   UNL     1      34.298 -16.480 -21.790  0.00  0.00    +0.005 C 
ATOM     24  C   UNL     1      35.085 -17.874 -23.737  0.00  0.00    +0.005 C 
ENDBRANCH  16  22
ENDBRANCH  15  17
ENDBRANCH   1  15
TORSDOF 6
ENDMDL
MODEL 8
REMARK VINA RESULT:      -9.7      4.646      9.081
REMARK  Name = 9549223
REMARK  6 active torsions:
REMARK  status: ('A' for Active; 'I' for Inactive)
REMARK    1  A    between atoms: N_1  and  N_4
REMARK    2  A    between atoms: N_1  and  C_15
REMARK    3  A    between atoms: C_5  and  C_7
REMARK    4  A    between atoms: C_12  and  O_13
REMARK    5  A    between atoms: C_15  and  C_17
REMARK    6  A    between atoms: C_16  and  C_22
REMARK                            x       y       z     vdW  Elec       q    Type
REMARK                         _______ _______ _______ _____ _____    ______ ____
ROOT
ATOM      1  N   UNL     1      34.909 -22.458 -17.907  0.00  0.00    -0.225 NA
ATOM      2  H   UNL     1      35.713 -22.984 -17.565  0.00  0.00    +0.145 HD
ENDROOT
BRANCH   1   4
ATOM      3  O   UNL     1      34.545 -22.854 -15.193  0.00  0.00    -0.269 OA
ATOM      4  N   UNL     1      33.748 -22.991 -17.368  0.00  0.00    -0.246 N 
ATOM      5  C   UNL     1      33.636 -23.162 -15.985  0.00  0.00    +0.259 C 
ATOM      6  H   UNL     1      33.004 -23.250 -17.958  0.00  0.00    +0.169 HD
BRANCH   5   7
ATOM      7  C   UNL     1      32.396 -23.744 -15.495  0.00  0.00    +0.055 C 
ATOM      8  C   UNL     1      32.397 -24.498 -14.321  0.00  0.00    +0.008 C 
ATOM      9  C   UNL     1      31.208 -23.550 -16.198  0.00  0.00    +0.008 C 
ATOM     10  C   UNL     1      31.208 -25.056 -13.850  0.00  0.00    +0.037 C 
ATOM     11  C   UNL     1      30.019 -24.108 -15.726  0.00  0.00    +0.037 C 
ATOM     12  C   UNL     1      30.019 -24.861 -14.553  0.00  0.00    +0.134 C 
BRANCH  12  13
ATOM     13  O   UNL     1      28.860 -25.405 -14.092  0.00  0.00    -0.506 OA
ATOM     14  H   UNL     1      28.498 -26.159 -14.511  0.00  0.00    +0.292 HD
ENDBRANCH  12  13
ENDBRANCH   5   7
ENDBRANCH   1   4
BRANCH   1  15
ATOM     15  C   UNL     1      34.867 -22.534 -19.361  0.00  0.00    +0.114 C 
BRANCH  15  17
ATOM     16  C   UNL     1      34.512 -18.663 -21.155  0.00  0.00    -0.023 C 
ATOM     17  C   UNL     1      34.743 -21.176 -19.991  0.00  0.00    -0.005 C 
ATOM     18  C   UNL     1      33.366 -19.373 -20.795  0.00  0.00    -0.005 C 
ATOM     19  C   UNL     1      35.773 -19.215 -20.932  0.00  0.00    -0.005 C 
ATOM     20  C   UNL     1      33.482 -20.634 -20.210  0.00  0.00    -0.003 C 
ATOM     21  C   UNL     1      35.889 -20.476 -20.347  0.00  0.00    -0.003 C 
BRANCH  16  22
ATOM     22  C   UNL     1      34.388 -17.315 -21.780  0.00  0.00    +0.022 C 
ATOM     23  C   UNL     1      35.228 -17.182 -23.065  0.00  0.00    +0.005 C 
ATOM     24  C   UNL     1      34.744 -16.178 -20.803  0.00  0.00    +0.005 C 
ENDBRANCH  16  22
ENDBRANCH  15  17
ENDBRANCH   1  15
TORSDOF 6
ENDMDL
MODEL 9
REMARK VINA RESULT:      -9.5      4.473     10.406
REMARK  Name = 9549223
REMARK  6 active torsions:
REMARK  status: ('A' for Active; 'I' for Inactive)
REMARK    1  A    between atoms: N_1  and  N_4
REMARK    2  A    between atoms: N_1  and  C_15
REMARK    3  A    between atoms: C_5  and  C_7
REMARK    4  A    between atoms: C_12  and  O_13
REMARK    5  A    between atoms: C_15  and  C_17
REMARK    6  A    between atoms: C_16  and  C_22
REMARK                            x       y       z     vdW  Elec       q    Type
REMARK                         _______ _______ _______ _____ _____    ______ ____
ROOT
ATOM      1  N   UNL     1      33.735 -11.900 -25.006  0.00  0.00    -0.225 NA
ATOM      2  H   UNL     1      32.826 -11.629 -24.631  0.00  0.00    +0.145 HD
ENDROOT
BRANCH   1   4
ATOM      3  O   UNL     1      32.196 -13.342 -23.215  0.00  0.00    -0.269 OA
ATOM      4  N   UNL     1      34.218 -12.989 -24.297  0.00  0.00    -0.246 N 
ATOM      5  C   UNL     1      33.380 -13.670 -23.409  0.00  0.00    +0.259 C 
ATOM      6  H   UNL     1      35.150 -13.283 -24.419  0.00  0.00    +0.169 HD
BRANCH   5   7
ATOM      7  C   UNL     1      33.963 -14.791 -22.688  0.00  0.00    +0.055 C 
ATOM      8  C   UNL     1      34.460 -15.889 -23.391  0.00  0.00    +0.008 C 
ATOM      9  C   UNL     1      34.026 -14.768 -21.294  0.00  0.00    +0.008 C 
ATOM     10  C   UNL     1      35.021 -16.963 -22.699  0.00  0.00    +0.037 C 
ATOM     11  C   UNL     1      34.587 -15.843 -20.604  0.00  0.00    +0.037 C 
ATOM     12  C   UNL     1      35.084 -16.940 -21.306  0.00  0.00    +0.134 C 
BRANCH  12  13
ATOM     13  O   UNL     1      35.632 -17.988 -20.633  0.00  0.00    -0.506 OA
ATOM     14  H   UNL     1      35.701 -18.826 -21.045  0.00  0.00    +0.292 HD
ENDBRANCH  12  13
ENDBRANCH   5   7
ENDBRANCH   1   4
BRANCH   1  15
ATOM     15  C   UNL     1      34.657 -10.778 -24.892  0.00  0.00    +0.114 C 
BRANCH  15  17
ATOM     16  C   UNL     1      33.089  -7.665 -22.408  0.00  0.00    -0.023 C 
ATOM     17  C   UNL     1      34.107  -9.685 -24.021  0.00  0.00    -0.005 C 
ATOM     18  C   UNL     1      32.416  -8.883 -22.507  0.00  0.00    -0.005 C 
ATOM     19  C   UNL     1      34.271  -7.460 -23.118  0.00  0.00    -0.005 C 
ATOM     20  C   UNL     1      32.928  -9.897 -23.317  0.00  0.00    -0.003 C 
ATOM     21  C   UNL     1      34.782  -8.475 -23.927  0.00  0.00    -0.003 C 
BRANCH  16  22
ATOM     22  C   UNL     1      32.542  -6.579 -21.542  0.00  0.00    +0.022 C 
ATOM     23  C   UNL     1      32.253  -7.059 -20.107  0.00  0.00    +0.005 C 
ATOM     24  C   UNL     1      31.279  -5.930 -22.140  0.00  0.00    +0.005 C 
ENDBRANCH  16  22
ENDBRANCH  15  17
ENDBRANCH   1  15
TORSDOF 6
ENDMDL
