MODEL 1
REMARK VINA RESULT:      -7.8      0.000      0.000
REMARK  Name = 47528
REMARK  5 active torsions:
REMARK  status: ('A' for Active; 'I' for Inactive)
REMARK    1  A    between atoms: N_2  and  C_11
REMARK    2  A    between atoms: C_3  and  C_6
REMARK    3  A    between atoms: C_11  and  C_12
REMARK    4  A    between atoms: C_12  and  O_13
REMARK    5  A    between atoms: O_13  and  N_16
REMARK                            x       y       z     vdW  Elec       q    Type
REMARK                         _______ _______ _______ _____ _____    ______ ____
ROOT
ATOM      1  O   UNL     1      33.881 -23.798 -18.774  0.00  0.00    -0.270 OA
ATOM      2  N   UNL     1      32.400 -22.355 -17.724  0.00  0.00    -0.297 N 
ATOM      3  C   UNL     1      33.417 -22.652 -18.642  0.00  0.00    +0.247 C 
ATOM      4  H   UNL     1      32.078 -21.426 -17.671  0.00  0.00    +0.150 HD
ENDROOT
BRANCH   3   6
ATOM      5  N   UNL     1      35.846 -20.289 -20.214  0.00  0.00    -0.242 NA
ATOM      6  C   UNL     1      33.936 -21.548 -19.431  0.00  0.00    +0.072 C 
ATOM      7  C   UNL     1      33.083 -20.711 -20.142  0.00  0.00    +0.008 C 
ATOM      8  C   UNL     1      35.297 -21.297 -19.499  0.00  0.00    +0.103 C 
ATOM      9  C   UNL     1      33.610 -19.663 -20.889  0.00  0.00    +0.021 C 
ATOM     10  C   UNL     1      34.986 -19.496 -20.892  0.00  0.00    +0.099 C 
ENDBRANCH   3   6
BRANCH   2  11
ATOM     11  C   UNL     1      31.798 -23.338 -16.852  0.00  0.00    +0.141 C 
BRANCH  11  12
ATOM     12  C   UNL     1      30.544 -22.799 -16.187  0.00  0.00    +0.264 C 
BRANCH  12  13
ATOM     13  O   UNL     1      29.624 -22.379 -17.185  0.00  0.00    -0.334 OA
BRANCH  13  16
ATOM     14  O   UNL     1      27.849 -22.006 -15.916  0.00  0.00    -0.090 OA
ATOM     15  O   UNL     1      27.688 -23.514 -17.550  0.00  0.00    -0.090 OA
ATOM     16  N   UNL     1      28.268 -22.668 -16.867  0.00  0.00    +0.218 N 
ENDBRANCH  13  16
ENDBRANCH  12  13
ENDBRANCH  11  12
ENDBRANCH   2  11
TORSDOF 5
ENDMDL
MODEL 2
REMARK VINA RESULT:      -7.7      5.610      8.055
REMARK  Name = 47528
REMARK  5 active torsions:
REMARK  status: ('A' for Active; 'I' for Inactive)
REMARK    1  A    between atoms: N_2  and  C_11
REMARK    2  A    between atoms: C_3  and  C_6
REMARK    3  A    between atoms: C_11  and  C_12
REMARK    4  A    between atoms: C_12  and  O_13
REMARK    5  A    between atoms: O_13  and  N_16
REMARK                            x       y       z     vdW  Elec       q    Type
REMARK                         _______ _______ _______ _____ _____    ______ ____
ROOT
ATOM      1  O   UNL     1      35.667 -18.059 -20.868  0.00  0.00    -0.270 OA
ATOM      2  N   UNL     1      34.947 -19.159 -22.779  0.00  0.00    -0.297 N 
ATOM      3  C   UNL     1      35.117 -19.044 -21.393  0.00  0.00    +0.247 C 
ATOM      4  H   UNL     1      34.504 -19.965 -23.128  0.00  0.00    +0.150 HD
ENDROOT
BRANCH   3   6
ATOM      5  N   UNL     1      32.779 -21.437 -19.732  0.00  0.00    -0.242 NA
ATOM      6  C   UNL     1      34.641 -20.147 -20.576  0.00  0.00    +0.072 C 
ATOM      7  C   UNL     1      35.528 -20.953 -19.872  0.00  0.00    +0.008 C 
ATOM      8  C   UNL     1      33.287 -20.427 -20.474  0.00  0.00    +0.103 C 
ATOM      9  C   UNL     1      35.042 -22.002 -19.098  0.00  0.00    +0.021 C 
ATOM     10  C   UNL     1      33.671 -22.200 -19.062  0.00  0.00    +0.099 C 
ENDBRANCH   3   6
BRANCH   2  11
ATOM     11  C   UNL     1      35.389 -18.158 -23.724  0.00  0.00    +0.141 C 
BRANCH  11  12
ATOM     12  C   UNL     1      34.393 -17.984 -24.857  0.00  0.00    +0.264 C 
BRANCH  12  13
ATOM     13  O   UNL     1      34.783 -16.879 -25.662  0.00  0.00    -0.334 OA
BRANCH  13  16
ATOM     14  O   UNL     1      33.518 -15.483 -24.499  0.00  0.00    -0.090 OA
ATOM     15  O   UNL     1      33.496 -15.335 -26.723  0.00  0.00    -0.090 OA
ATOM     16  N   UNL     1      33.851 -15.804 -25.640  0.00  0.00    +0.218 N 
ENDBRANCH  13  16
ENDBRANCH  12  13
ENDBRANCH  11  12
ENDBRANCH   2  11
TORSDOF 5
ENDMDL
MODEL 3
REMARK VINA RESULT:      -7.4      4.772      7.007
REMARK  Name = 47528
REMARK  5 active torsions:
REMARK  status: ('A' for Active; 'I' for Inactive)
REMARK    1  A    between atoms: N_2  and  C_11
REMARK    2  A    between atoms: C_3  and  C_6
REMARK    3  A    between atoms: C_11  and  C_12
REMARK    4  A    between atoms: C_12  and  O_13
REMARK    5  A    between atoms: O_13  and  N_16
REMARK                            x       y       z     vdW  Elec       q    Type
REMARK                         _______ _______ _______ _____ _____    ______ ____
ROOT
ATOM      1  O   UNL     1      36.405 -18.844 -20.633  0.00  0.00    -0.270 OA
ATOM      2  N   UNL     1      34.900 -19.301 -22.336  0.00  0.00    -0.297 N 
ATOM      3  C   UNL     1      35.430 -19.491 -21.053  0.00  0.00    +0.247 C 
ATOM      4  H   UNL     1      34.127 -19.846 -22.606  0.00  0.00    +0.150 HD
ENDROOT
BRANCH   3   6
ATOM      5  N   UNL     1      32.779 -21.570 -19.440  0.00  0.00    -0.242 NA
ATOM      6  C   UNL     1      34.803 -20.506 -20.224  0.00  0.00    +0.072 C 
ATOM      7  C   UNL     1      35.567 -21.364 -19.442  0.00  0.00    +0.008 C 
ATOM      8  C   UNL     1      33.425 -20.648 -20.188  0.00  0.00    +0.103 C 
ATOM      9  C   UNL     1      34.938 -22.326 -18.658  0.00  0.00    +0.021 C 
ATOM     10  C   UNL     1      33.554 -22.387 -18.692  0.00  0.00    +0.099 C 
ENDBRANCH   3   6
BRANCH   2  11
ATOM     11  C   UNL     1      35.427 -18.347 -23.286  0.00  0.00    +0.141 C 
BRANCH  11  12
ATOM     12  C   UNL     1      34.636 -17.051 -23.272  0.00  0.00    +0.264 C 
BRANCH  12  13
ATOM     13  O   UNL     1      35.215 -16.156 -22.333  0.00  0.00    -0.334 OA
BRANCH  13  16
ATOM     14  O   UNL     1      33.403 -16.654 -21.163  0.00  0.00    -0.090 OA
ATOM     15  O   UNL     1      34.920 -15.303 -20.246  0.00  0.00    -0.090 OA
ATOM     16  N   UNL     1      34.456 -16.017 -21.137  0.00  0.00    +0.218 N 
ENDBRANCH  13  16
ENDBRANCH  12  13
ENDBRANCH  11  12
ENDBRANCH   2  11
TORSDOF 5
ENDMDL
MODEL 4
REMARK VINA RESULT:      -7.4      5.433      7.972
REMARK  Name = 47528
REMARK  5 active torsions:
REMARK  status: ('A' for Active; 'I' for Inactive)
REMARK    1  A    between atoms: N_2  and  C_11
REMARK    2  A    between atoms: C_3  and  C_6
REMARK    3  A    between atoms: C_11  and  C_12
REMARK    4  A    between atoms: C_12  and  O_13
REMARK    5  A    between atoms: O_13  and  N_16
REMARK                            x       y       z     vdW  Elec       q    Type
REMARK                         _______ _______ _______ _____ _____    ______ ____
ROOT
ATOM      1  O   UNL     1      35.892 -18.632 -22.407  0.00  0.00    -0.270 OA
ATOM      2  N   UNL     1      34.451 -17.272 -21.202  0.00  0.00    -0.297 N 
ATOM      3  C   UNL     1      35.027 -18.509 -21.522  0.00  0.00    +0.247 C 
ATOM      4  H   UNL     1      33.772 -17.245 -20.492  0.00  0.00    +0.150 HD
ENDROOT
BRANCH   3   6
ATOM      5  N   UNL     1      32.687 -20.961 -19.953  0.00  0.00    -0.242 NA
ATOM      6  C   UNL     1      34.551 -19.668 -20.786  0.00  0.00    +0.072 C 
ATOM      7  C   UNL     1      35.442 -20.574 -20.222  0.00  0.00    +0.008 C 
ATOM      8  C   UNL     1      33.195 -19.904 -20.625  0.00  0.00    +0.103 C 
ATOM      9  C   UNL     1      34.956 -21.674 -19.523  0.00  0.00    +0.021 C 
ATOM     10  C   UNL     1      33.582 -21.821 -19.418  0.00  0.00    +0.099 C 
ENDBRANCH   3   6
BRANCH   2  11
ATOM     11  C   UNL     1      34.801 -16.033 -21.861  0.00  0.00    +0.141 C 
BRANCH  11  12
ATOM     12  C   UNL     1      34.060 -15.873 -23.176  0.00  0.00    +0.264 C 
BRANCH  12  13
ATOM     13  O   UNL     1      34.982 -15.984 -24.253  0.00  0.00    -0.334 OA
BRANCH  13  16
ATOM     14  O   UNL     1      34.582 -17.769 -25.499  0.00  0.00    -0.090 OA
ATOM     15  O   UNL     1      33.849 -15.789 -26.214  0.00  0.00    -0.090 OA
ATOM     16  N   UNL     1      34.417 -16.550 -25.429  0.00  0.00    +0.218 N 
ENDBRANCH  13  16
ENDBRANCH  12  13
ENDBRANCH  11  12
ENDBRANCH   2  11
TORSDOF 5
ENDMDL
MODEL 5
REMARK VINA RESULT:      -7.3      5.811      8.707
REMARK  Name = 47528
REMARK  5 active torsions:
REMARK  status: ('A' for Active; 'I' for Inactive)
REMARK    1  A    between atoms: N_2  and  C_11
REMARK    2  A    between atoms: C_3  and  C_6
REMARK    3  A    between atoms: C_11  and  C_12
REMARK    4  A    between atoms: C_12  and  O_13
REMARK    5  A    between atoms: O_13  and  N_16
REMARK                            x       y       z     vdW  Elec       q    Type
REMARK                         _______ _______ _______ _____ _____    ______ ____
ROOT
ATOM      1  O   UNL     1      36.031 -23.804 -16.069  0.00  0.00    -0.270 OA
ATOM      2  N   UNL     1      35.739 -25.783 -14.896  0.00  0.00    -0.297 N 
ATOM      3  C   UNL     1      35.328 -24.515 -15.329  0.00  0.00    +0.247 C 
ATOM      4  H   UNL     1      35.134 -26.293 -14.311  0.00  0.00    +0.150 HD
ENDROOT
BRANCH   3   6
ATOM      5  N   UNL     1      32.504 -23.731 -13.013  0.00  0.00    -0.242 NA
ATOM      6  C   UNL     1      34.039 -24.041 -14.855  0.00  0.00    +0.072 C 
ATOM      7  C   UNL     1      33.123 -23.463 -15.726  0.00  0.00    +0.008 C 
ATOM      8  C   UNL     1      33.685 -24.151 -13.519  0.00  0.00    +0.103 C 
ATOM      9  C   UNL     1      31.897 -23.019 -15.242  0.00  0.00    +0.021 C 
ATOM     10  C   UNL     1      31.638 -23.174 -13.890  0.00  0.00    +0.099 C 
ENDBRANCH   3   6
BRANCH   2  11
ATOM     11  C   UNL     1      37.002 -26.382 -15.261  0.00  0.00    +0.141 C 
BRANCH  11  12
ATOM     12  C   UNL     1      38.104 -25.994 -14.292  0.00  0.00    +0.264 C 
BRANCH  12  13
ATOM     13  O   UNL     1      39.271 -26.755 -14.575  0.00  0.00    -0.334 OA
BRANCH  13  16
ATOM     14  O   UNL     1      41.404 -26.787 -13.984  0.00  0.00    -0.090 OA
ATOM     15  O   UNL     1      40.473 -24.827 -14.495  0.00  0.00    -0.090 OA
ATOM     16  N   UNL     1      40.482 -26.049 -14.334  0.00  0.00    +0.218 N 
ENDBRANCH  13  16
ENDBRANCH  12  13
ENDBRANCH  11  12
ENDBRANCH   2  11
TORSDOF 5
ENDMDL
MODEL 6
REMARK VINA RESULT:      -7.1      5.857      8.093
REMARK  Name = 47528
REMARK  5 active torsions:
REMARK  status: ('A' for Active; 'I' for Inactive)
REMARK    1  A    between atoms: N_2  and  C_11
REMARK    2  A    between atoms: C_3  and  C_6
REMARK    3  A    between atoms: C_11  and  C_12
REMARK    4  A    between atoms: C_12  and  O_13
REMARK    5  A    between atoms: O_13  and  N_16
REMARK                            x       y       z     vdW  Elec       q    Type
REMARK                         _______ _______ _______ _____ _____    ______ ____
ROOT
ATOM      1  O   UNL     1      36.324 -23.980 -15.908  0.00  0.00    -0.270 OA
ATOM      2  N   UNL     1      36.235 -25.500 -14.158  0.00  0.00    -0.297 N 
ATOM      3  C   UNL     1      35.689 -24.499 -14.973  0.00  0.00    +0.247 C 
ATOM      4  H   UNL     1      35.677 -25.867 -13.436  0.00  0.00    +0.150 HD
ENDROOT
BRANCH   3   6
ATOM      5  N   UNL     1      32.581 -23.778 -13.030  0.00  0.00    -0.242 NA
ATOM      6  C   UNL     1      34.337 -24.064 -14.667  0.00  0.00    +0.072 C 
ATOM      7  C   UNL     1      33.513 -23.535 -15.654  0.00  0.00    +0.008 C 
ATOM      8  C   UNL     1      33.828 -24.164 -13.382  0.00  0.00    +0.103 C 
ATOM      9  C   UNL     1      32.224 -23.127 -15.331  0.00  0.00    +0.021 C 
ATOM     10  C   UNL     1      31.809 -23.268 -14.016  0.00  0.00    +0.099 C 
ENDBRANCH   3   6
BRANCH   2  11
ATOM     11  C   UNL     1      37.573 -26.021 -14.321  0.00  0.00    +0.141 C 
BRANCH  11  12
ATOM     12  C   UNL     1      38.436 -25.732 -13.105  0.00  0.00    +0.264 C 
BRANCH  12  13
ATOM     13  O   UNL     1      38.625 -24.329 -12.984  0.00  0.00    -0.334 OA
BRANCH  13  16
ATOM     14  O   UNL     1      38.376 -22.616 -11.604  0.00  0.00    -0.090 OA
ATOM     15  O   UNL     1      37.205 -24.472 -11.214  0.00  0.00    -0.090 OA
ATOM     16  N   UNL     1      38.008 -23.769 -11.832  0.00  0.00    +0.218 N 
ENDBRANCH  13  16
ENDBRANCH  12  13
ENDBRANCH  11  12
ENDBRANCH   2  11
TORSDOF 5
ENDMDL
MODEL 7
REMARK VINA RESULT:      -7.0      3.676      5.618
REMARK  Name = 47528
REMARK  5 active torsions:
REMARK  status: ('A' for Active; 'I' for Inactive)
REMARK    1  A    between atoms: N_2  and  C_11
REMARK    2  A    between atoms: C_3  and  C_6
REMARK    3  A    between atoms: C_11  and  C_12
REMARK    4  A    between atoms: C_12  and  O_13
REMARK    5  A    between atoms: O_13  and  N_16
REMARK                            x       y       z     vdW  Elec       q    Type
REMARK                         _______ _______ _______ _____ _____    ______ ____
ROOT
ATOM      1  O   UNL     1      35.100 -19.466 -22.554  0.00  0.00    -0.270 OA
ATOM      2  N   UNL     1      36.123 -19.062 -20.513  0.00  0.00    -0.297 N 
ATOM      3  C   UNL     1      35.424 -18.664 -21.660  0.00  0.00    +0.247 C 
ATOM      4  H   UNL     1      36.348 -18.376 -19.844  0.00  0.00    +0.150 HD
ENDROOT
BRANCH   3   6
ATOM      5  N   UNL     1      34.870 -15.303 -23.192  0.00  0.00    -0.242 NA
ATOM      6  C   UNL     1      35.104 -17.252 -21.781  0.00  0.00    +0.072 C 
ATOM      7  C   UNL     1      34.739 -16.501 -20.670  0.00  0.00    +0.008 C 
ATOM      8  C   UNL     1      35.155 -16.612 -23.009  0.00  0.00    +0.103 C 
ATOM      9  C   UNL     1      34.440 -15.151 -20.818  0.00  0.00    +0.021 C 
ATOM     10  C   UNL     1      34.519 -14.604 -22.089  0.00  0.00    +0.099 C 
ENDBRANCH   3   6
BRANCH   2  11
ATOM     11  C   UNL     1      36.533 -20.425 -20.259  0.00  0.00    +0.141 C 
BRANCH  11  12
ATOM     12  C   UNL     1      35.564 -21.135 -19.331  0.00  0.00    +0.264 C 
BRANCH  12  13
ATOM     13  O   UNL     1      34.476 -21.648 -20.089  0.00  0.00    -0.334 OA
BRANCH  13  16
ATOM     14  O   UNL     1      32.682 -20.382 -19.813  0.00  0.00    -0.090 OA
ATOM     15  O   UNL     1      32.798 -22.314 -18.708  0.00  0.00    -0.090 OA
ATOM     16  N   UNL     1      33.209 -21.442 -19.476  0.00  0.00    +0.218 N 
ENDBRANCH  13  16
ENDBRANCH  12  13
ENDBRANCH  11  12
ENDBRANCH   2  11
TORSDOF 5
ENDMDL
MODEL 8
REMARK VINA RESULT:      -6.9      5.113      7.697
REMARK  Name = 47528
REMARK  5 active torsions:
REMARK  status: ('A' for Active; 'I' for Inactive)
REMARK    1  A    between atoms: N_2  and  C_11
REMARK    2  A    between atoms: C_3  and  C_6
REMARK    3  A    between atoms: C_11  and  C_12
REMARK    4  A    between atoms: C_12  and  O_13
REMARK    5  A    between atoms: O_13  and  N_16
REMARK                            x       y       z     vdW  Elec       q    Type
REMARK                         _______ _______ _______ _____ _____    ______ ____
ROOT
ATOM      1  O   UNL     1      34.745 -23.563 -16.687  0.00  0.00    -0.270 OA
ATOM      2  N   UNL     1      35.097 -23.134 -14.435  0.00  0.00    -0.297 N 
ATOM      3  C   UNL     1      34.280 -23.357 -15.552  0.00  0.00    +0.247 C 
ATOM      4  H   UNL     1      34.664 -22.978 -13.566  0.00  0.00    +0.150 HD
ENDROOT
BRANCH   3   6
ATOM      5  N   UNL     1      30.984 -23.374 -13.794  0.00  0.00    -0.242 NA
ATOM      6  C   UNL     1      32.844 -23.316 -15.338  0.00  0.00    +0.072 C 
ATOM      7  C   UNL     1      31.963 -23.184 -16.405  0.00  0.00    +0.008 C 
ATOM      8  C   UNL     1      32.309 -23.406 -14.062  0.00  0.00    +0.103 C 
ATOM      9  C   UNL     1      30.593 -23.147 -16.169  0.00  0.00    +0.021 C 
ATOM     10  C   UNL     1      30.158 -23.245 -14.857  0.00  0.00    +0.099 C 
ENDBRANCH   3   6
BRANCH   2  11
ATOM     11  C   UNL     1      36.541 -23.121 -14.491  0.00  0.00    +0.141 C 
BRANCH  11  12
ATOM     12  C   UNL     1      37.130 -24.435 -14.009  0.00  0.00    +0.264 C 
BRANCH  12  13
ATOM     13  O   UNL     1      38.355 -24.183 -13.335  0.00  0.00    -0.334 OA
BRANCH  13  16
ATOM     14  O   UNL     1      37.720 -24.773 -11.298  0.00  0.00    -0.090 OA
ATOM     15  O   UNL     1      38.523 -22.717 -11.606  0.00  0.00    -0.090 OA
ATOM     16  N   UNL     1      38.190 -23.849 -11.962  0.00  0.00    +0.218 N 
ENDBRANCH  13  16
ENDBRANCH  12  13
ENDBRANCH  11  12
ENDBRANCH   2  11
TORSDOF 5
ENDMDL
MODEL 9
REMARK VINA RESULT:      -6.9      5.333      7.425
REMARK  Name = 47528
REMARK  5 active torsions:
REMARK  status: ('A' for Active; 'I' for Inactive)
REMARK    1  A    between atoms: N_2  and  C_11
REMARK    2  A    between atoms: C_3  and  C_6
REMARK    3  A    between atoms: C_11  and  C_12
REMARK    4  A    between atoms: C_12  and  O_13
REMARK    5  A    between atoms: O_13  and  N_16
REMARK                            x       y       z     vdW  Elec       q    Type
REMARK                         _______ _______ _______ _____ _____    ______ ____
ROOT
ATOM      1  O   UNL     1      34.216 -19.276 -22.580  0.00  0.00    -0.270 OA
ATOM      2  N   UNL     1      35.046 -17.973 -20.851  0.00  0.00    -0.297 N 
ATOM      3  C   UNL     1      34.543 -19.166 -21.386  0.00  0.00    +0.247 C 
ATOM      4  H   UNL     1      35.286 -17.955 -19.897  0.00  0.00    +0.150 HD
ENDROOT
BRANCH   3   6
ATOM      5  N   UNL     1      32.927 -21.790 -19.274  0.00  0.00    -0.242 NA
ATOM      6  C   UNL     1      34.393 -20.286 -20.472  0.00  0.00    +0.072 C 
ATOM      7  C   UNL     1      35.502 -20.921 -19.927  0.00  0.00    +0.008 C 
ATOM      8  C   UNL     1      33.137 -20.754 -20.117  0.00  0.00    +0.103 C 
ATOM      9  C   UNL     1      35.327 -21.991 -19.056  0.00  0.00    +0.021 C 
ATOM     10  C   UNL     1      34.030 -22.383 -18.763  0.00  0.00    +0.099 C 
ENDBRANCH   3   6
BRANCH   2  11
ATOM     11  C   UNL     1      35.231 -16.766 -21.625  0.00  0.00    +0.141 C 
BRANCH  11  12
ATOM     12  C   UNL     1      34.354 -15.636 -21.115  0.00  0.00    +0.264 C 
BRANCH  12  13
ATOM     13  O   UNL     1      34.391 -14.557 -22.038  0.00  0.00    -0.334 OA
BRANCH  13  16
ATOM     14  O   UNL     1      33.313 -14.923 -23.936  0.00  0.00    -0.090 OA
ATOM     15  O   UNL     1      32.241 -13.865 -22.293  0.00  0.00    -0.090 OA
ATOM     16  N   UNL     1      33.205 -14.431 -22.813  0.00  0.00    +0.218 N 
ENDBRANCH  13  16
ENDBRANCH  12  13
ENDBRANCH  11  12
ENDBRANCH   2  11
TORSDOF 5
ENDMDL
