MODEL 1
REMARK VINA RESULT:      -6.2      0.000      0.000
REMARK  Name = 153976
REMARK  4 active torsions:
REMARK  status: ('A' for Active; 'I' for Inactive)
REMARK    1  A    between atoms: C_1  and  O_25
REMARK    2  A    between atoms: C_7  and  C_21
REMARK    3  A    between atoms: C_7  and  O_27
REMARK    4  A    between atoms: C_19  and  O_29
REMARK                            x       y       z     vdW  Elec       q    Type
REMARK                         _______ _______ _______ _____ _____    ______ ____
ROOT
ATOM      1  C   UNL     1      32.795 -23.528 -15.289  0.00  0.00    +0.091 C 
ATOM      2  C   UNL     1      34.237 -23.313 -14.740  0.00  0.00    +0.025 C 
ATOM      3  C   UNL     1      31.740 -23.915 -14.211  0.00  0.00    +0.049 C 
ATOM      4  C   UNL     1      34.731 -24.465 -13.824  0.00  0.00    +0.002 C 
ATOM      5  C   UNL     1      36.197 -24.232 -13.289  0.00  0.00    +0.000 C 
ATOM      6  C   UNL     1      37.159 -23.956 -14.491  0.00  0.00    +0.002 C 
ATOM      7  C   UNL     1      30.542 -24.496 -15.071  0.00  0.00    +0.112 C 
ATOM      8  C   UNL     1      32.318 -25.024 -13.277  0.00  0.00    +0.005 C 
ATOM      9  C   UNL     1      33.700 -24.710 -12.709  0.00  0.00    +0.000 C 
ATOM     10  C   UNL     1      32.671 -24.647 -16.346  0.00  0.00    +0.030 C 
ATOM     11  C   UNL     1      35.234 -23.019 -15.880  0.00  0.00    +0.002 C 
ATOM     12  C   UNL     1      36.656 -22.805 -15.376  0.00  0.00    +0.000 C 
ATOM     13  C   UNL     1      31.288 -25.293 -16.168  0.00  0.00    +0.034 C 
ATOM     14  C   UNL     1      36.743 -25.458 -12.499  0.00  0.00    +0.002 C 
ATOM     15  C   UNL     1      31.327 -22.724 -13.318  0.00  0.00    +0.005 C 
ATOM     16  C   UNL     1      37.424 -25.217 -15.347  0.00  0.00    +0.029 C 
ATOM     17  C   UNL     1      36.250 -23.033 -12.305  0.00  0.00    +0.000 C 
ATOM     18  C   UNL     1      36.983 -26.699 -13.355  0.00  0.00    +0.029 C 
ATOM     19  C   UNL     1      37.919 -26.402 -14.522  0.00  0.00    +0.111 C 
ENDROOT
BRANCH   7  21
ATOM     20  O   UNL     1      28.591 -21.939 -16.941  0.00  0.00    -0.448 OA
ATOM     21  C   UNL     1      29.546 -23.460 -15.614  0.00  0.00    +0.043 C 
ATOM     22  C   UNL     1      28.350 -23.048 -15.002  0.00  0.00    +0.042 C 
ATOM     23  C   UNL     1      29.657 -22.766 -16.786  0.00  0.00    +0.178 C 
ATOM     24  C   UNL     1      27.800 -22.116 -15.851  0.00  0.00    +0.179 C 
ENDBRANCH   7  21
BRANCH   1  25
ATOM     25  O   UNL     1      32.410 -22.312 -15.945  0.00  0.00    -0.387 OA
ATOM     26  H   UNL     1      31.540 -22.427 -16.356  0.00  0.00    +0.210 HD
ENDBRANCH   1  25
BRANCH   7  27
ATOM     27  O   UNL     1      29.823 -25.463 -14.284  0.00  0.00    -0.383 OA
ATOM     28  H   UNL     1      29.744 -25.142 -13.372  0.00  0.00    +0.211 HD
ENDBRANCH   7  27
BRANCH  19  29
ATOM     29  O   UNL     1      39.226 -26.107 -14.035  0.00  0.00    -0.384 OA
ATOM     30  H   UNL     1      39.743 -26.926 -13.978  0.00  0.00    +0.210 HD
ENDBRANCH  19  29
TORSDOF 4
ENDMDL
MODEL 2
REMARK VINA RESULT:      -4.5     14.649     16.786
REMARK  Name = 153976
REMARK  4 active torsions:
REMARK  status: ('A' for Active; 'I' for Inactive)
REMARK    1  A    between atoms: C_1  and  O_25
REMARK    2  A    between atoms: C_7  and  C_21
REMARK    3  A    between atoms: C_7  and  O_27
REMARK    4  A    between atoms: C_19  and  O_29
REMARK                            x       y       z     vdW  Elec       q    Type
REMARK                         _______ _______ _______ _____ _____    ______ ____
ROOT
ATOM      1  C   UNL     1      32.232  -9.335 -22.553  0.00  0.00    +0.091 C 
ATOM      2  C   UNL     1      31.937 -10.861 -22.657  0.00  0.00    +0.025 C 
ATOM      3  C   UNL     1      33.112  -8.763 -23.704  0.00  0.00    +0.049 C 
ATOM      4  C   UNL     1      33.204 -11.723 -22.909  0.00  0.00    +0.002 C 
ATOM      5  C   UNL     1      32.883 -13.265 -22.999  0.00  0.00    +0.000 C 
ATOM      6  C   UNL     1      32.087 -13.713 -21.730  0.00  0.00    +0.002 C 
ATOM      7  C   UNL     1      33.611  -7.376 -23.121  0.00  0.00    +0.112 C 
ATOM      8  C   UNL     1      34.329  -9.706 -23.961  0.00  0.00    +0.005 C 
ATOM      9  C   UNL     1      33.957 -11.177 -24.134  0.00  0.00    +0.000 C 
ATOM     10  C   UNL     1      32.981  -8.912 -21.270  0.00  0.00    +0.030 C 
ATOM     11  C   UNL     1      31.137 -11.362 -21.437  0.00  0.00    +0.002 C 
ATOM     12  C   UNL     1      30.833 -12.854 -21.507  0.00  0.00    +0.000 C 
ATOM     13  C   UNL     1      33.889  -7.728 -21.640  0.00  0.00    +0.034 C 
ATOM     14  C   UNL     1      34.172 -14.135 -23.098  0.00  0.00    +0.002 C 
ATOM     15  C   UNL     1      32.343  -8.622 -25.036  0.00  0.00    +0.005 C 
ATOM     16  C   UNL     1      32.959 -13.733 -20.452  0.00  0.00    +0.029 C 
ATOM     17  C   UNL     1      32.050 -13.591 -24.267  0.00  0.00    +0.000 C 
ATOM     18  C   UNL     1      35.030 -14.130 -21.835  0.00  0.00    +0.029 C 
ATOM     19  C   UNL     1      34.229 -14.565 -20.613  0.00  0.00    +0.111 C 
ENDROOT
BRANCH   7  21
ATOM     20  O   UNL     1      31.187  -4.563 -22.882  0.00  0.00    -0.448 OA
ATOM     21  C   UNL     1      32.656  -6.188 -23.316  0.00  0.00    +0.043 C 
ATOM     22  C   UNL     1      32.384  -5.522 -24.524  0.00  0.00    +0.042 C 
ATOM     23  C   UNL     1      31.913  -5.579 -22.345  0.00  0.00    +0.178 C 
ATOM     24  C   UNL     1      31.480  -4.536 -24.208  0.00  0.00    +0.179 C 
ENDBRANCH   7  21
BRANCH   1  25
ATOM     25  O   UNL     1      30.965  -8.664 -22.517  0.00  0.00    -0.387 OA
ATOM     26  H   UNL     1      30.300  -9.248 -22.120  0.00  0.00    +0.210 HD
ENDBRANCH   1  25
BRANCH   7  27
ATOM     27  O   UNL     1      34.884  -7.050 -23.708  0.00  0.00    -0.383 OA
ATOM     28  H   UNL     1      34.920  -7.394 -24.614  0.00  0.00    +0.211 HD
ENDBRANCH   7  27
BRANCH  19  29
ATOM     29  O   UNL     1      33.864 -15.938 -20.731  0.00  0.00    -0.384 OA
ATOM     30  H   UNL     1      32.982 -16.073 -20.352  0.00  0.00    +0.210 HD
ENDBRANCH  19  29
TORSDOF 4
ENDMDL
MODEL 3
REMARK VINA RESULT:      -4.5     13.720     16.141
REMARK  Name = 153976
REMARK  4 active torsions:
REMARK  status: ('A' for Active; 'I' for Inactive)
REMARK    1  A    between atoms: C_1  and  O_25
REMARK    2  A    between atoms: C_7  and  C_21
REMARK    3  A    between atoms: C_7  and  O_27
REMARK    4  A    between atoms: C_19  and  O_29
REMARK                            x       y       z     vdW  Elec       q    Type
REMARK                         _______ _______ _______ _____ _____    ______ ____
ROOT
ATOM      1  C   UNL     1      33.728 -12.160 -23.686  0.00  0.00    +0.091 C 
ATOM      2  C   UNL     1      33.304 -10.665 -23.793  0.00  0.00    +0.025 C 
ATOM      3  C   UNL     1      32.553 -13.153 -23.443  0.00  0.00    +0.049 C 
ATOM      4  C   UNL     1      32.373 -10.199 -22.640  0.00  0.00    +0.002 C 
ATOM      5  C   UNL     1      31.966  -8.679 -22.762  0.00  0.00    +0.000 C 
ATOM      6  C   UNL     1      33.251  -7.799 -22.898  0.00  0.00    +0.002 C 
ATOM      7  C   UNL     1      33.287 -14.463 -22.937  0.00  0.00    +0.112 C 
ATOM      8  C   UNL     1      31.612 -12.599 -22.327  0.00  0.00    +0.005 C 
ATOM      9  C   UNL     1      31.171 -11.153 -22.539  0.00  0.00    +0.000 C 
ATOM     10  C   UNL     1      34.714 -12.467 -22.538  0.00  0.00    +0.030 C 
ATOM     11  C   UNL     1      34.532  -9.743 -23.945  0.00  0.00    +0.002 C 
ATOM     12  C   UNL     1      34.151  -8.270 -24.050  0.00  0.00    +0.000 C 
ATOM     13  C   UNL     1      34.398 -13.882 -22.029  0.00  0.00    +0.034 C 
ATOM     14  C   UNL     1      31.161  -8.179 -21.527  0.00  0.00    +0.002 C 
ATOM     15  C   UNL     1      31.692 -13.386 -24.703  0.00  0.00    +0.005 C 
ATOM     16  C   UNL     1      34.061  -7.716 -21.582  0.00  0.00    +0.029 C 
ATOM     17  C   UNL     1      31.051  -8.442 -23.993  0.00  0.00    +0.000 C 
ATOM     18  C   UNL     1      31.970  -8.120 -20.233  0.00  0.00    +0.029 C 
ATOM     19  C   UNL     1      33.219  -7.260 -20.394  0.00  0.00    +0.111 C 
ENDROOT
BRANCH   7  21
ATOM     20  O   UNL     1      34.075 -16.388 -26.021  0.00  0.00    -0.448 OA
ATOM     21  C   UNL     1      33.803 -15.406 -24.034  0.00  0.00    +0.043 C 
ATOM     22  C   UNL     1      34.772 -16.413 -23.885  0.00  0.00    +0.042 C 
ATOM     23  C   UNL     1      33.404 -15.422 -25.342  0.00  0.00    +0.178 C 
ATOM     24  C   UNL     1      34.906 -16.987 -25.128  0.00  0.00    +0.179 C 
ENDBRANCH   7  21
BRANCH   1  25
ATOM     25  O   UNL     1      34.413 -12.490 -24.902  0.00  0.00    -0.387 OA
ATOM     26  H   UNL     1      34.905 -13.316 -24.783  0.00  0.00    +0.210 HD
ENDBRANCH   1  25
BRANCH   7  27
ATOM     27  O   UNL     1      32.399 -15.197 -22.074  0.00  0.00    -0.383 OA
ATOM     28  H   UNL     1      31.484 -15.075 -22.373  0.00  0.00    +0.211 HD
ENDBRANCH   7  27
BRANCH  19  29
ATOM     29  O   UNL     1      32.851  -5.897 -20.590  0.00  0.00    -0.384 OA
ATOM     30  H   UNL     1      33.443  -5.325 -20.077  0.00  0.00    +0.210 HD
ENDBRANCH  19  29
TORSDOF 4
ENDMDL
MODEL 4
REMARK VINA RESULT:      -3.7     11.381     14.091
REMARK  Name = 153976
REMARK  4 active torsions:
REMARK  status: ('A' for Active; 'I' for Inactive)
REMARK    1  A    between atoms: C_1  and  O_25
REMARK    2  A    between atoms: C_7  and  C_21
REMARK    3  A    between atoms: C_7  and  O_27
REMARK    4  A    between atoms: C_19  and  O_29
REMARK                            x       y       z     vdW  Elec       q    Type
REMARK                         _______ _______ _______ _____ _____    ______ ____
ROOT
ATOM      1  C   UNL     1      33.134 -14.099 -22.247  0.00  0.00    +0.091 C 
ATOM      2  C   UNL     1      32.121 -12.918 -22.184  0.00  0.00    +0.025 C 
ATOM      3  C   UNL     1      33.114 -15.040 -21.006  0.00  0.00    +0.049 C 
ATOM      4  C   UNL     1      32.174 -12.126 -20.849  0.00  0.00    +0.002 C 
ATOM      5  C   UNL     1      31.148 -10.927 -20.811  0.00  0.00    +0.000 C 
ATOM      6  C   UNL     1      31.356 -10.017 -22.065  0.00  0.00    +0.002 C 
ATOM      7  C   UNL     1      34.486 -15.825 -21.127  0.00  0.00    +0.112 C 
ATOM      8  C   UNL     1      33.095 -14.191 -19.697  0.00  0.00    +0.005 C 
ATOM      9  C   UNL     1      32.023 -13.104 -19.670  0.00  0.00    +0.000 C 
ATOM     10  C   UNL     1      34.614 -13.672 -22.363  0.00  0.00    +0.030 C 
ATOM     11  C   UNL     1      32.266 -11.988 -23.406  0.00  0.00    +0.002 C 
ATOM     12  C   UNL     1      31.289 -10.818 -23.374  0.00  0.00    +0.000 C 
ATOM     13  C   UNL     1      35.452 -14.716 -21.610  0.00  0.00    +0.034 C 
ATOM     14  C   UNL     1      31.311 -10.047 -19.537  0.00  0.00    +0.002 C 
ATOM     15  C   UNL     1      31.882 -15.971 -20.976  0.00  0.00    +0.005 C 
ATOM     16  C   UNL     1      32.668  -9.200 -22.000  0.00  0.00    +0.029 C 
ATOM     17  C   UNL     1      29.684 -11.443 -20.789  0.00  0.00    +0.000 C 
ATOM     18  C   UNL     1      32.619  -9.261 -19.480  0.00  0.00    +0.029 C 
ATOM     19  C   UNL     1      32.799  -8.386 -20.716  0.00  0.00    +0.111 C 
ENDROOT
BRANCH   7  21
ATOM     20  O   UNL     1      34.223 -19.189 -22.693  0.00  0.00    -0.448 OA
ATOM     21  C   UNL     1      34.465 -17.073 -22.022  0.00  0.00    +0.043 C 
ATOM     22  C   UNL     1      34.785 -17.128 -23.390  0.00  0.00    +0.042 C 
ATOM     23  C   UNL     1      34.131 -18.341 -21.636  0.00  0.00    +0.178 C 
ATOM     24  C   UNL     1      34.622 -18.443 -23.757  0.00  0.00    +0.179 C 
ENDBRANCH   7  21
BRANCH   1  25
ATOM     25  O   UNL     1      32.837 -14.843 -23.438  0.00  0.00    -0.387 OA
ATOM     26  H   UNL     1      33.373 -14.506 -24.172  0.00  0.00    +0.210 HD
ENDBRANCH   1  25
BRANCH   7  27
ATOM     27  O   UNL     1      34.928 -16.205 -19.811  0.00  0.00    -0.383 OA
ATOM     28  H   UNL     1      34.567 -15.585 -19.157  0.00  0.00    +0.211 HD
ENDBRANCH   7  27
BRANCH  19  29
ATOM     29  O   UNL     1      31.818  -7.351 -20.728  0.00  0.00    -0.384 OA
ATOM     30  H   UNL     1      30.955  -7.720 -20.486  0.00  0.00    +0.210 HD
ENDBRANCH  19  29
TORSDOF 4
ENDMDL
MODEL 5
REMARK VINA RESULT:      -3.6      1.778      7.197
REMARK  Name = 153976
REMARK  4 active torsions:
REMARK  status: ('A' for Active; 'I' for Inactive)
REMARK    1  A    between atoms: C_1  and  O_25
REMARK    2  A    between atoms: C_7  and  C_21
REMARK    3  A    between atoms: C_7  and  O_27
REMARK    4  A    between atoms: C_19  and  O_29
REMARK                            x       y       z     vdW  Elec       q    Type
REMARK                         _______ _______ _______ _____ _____    ______ ____
ROOT
ATOM      1  C   UNL     1      34.434 -24.724 -13.989  0.00  0.00    +0.091 C 
ATOM      2  C   UNL     1      32.983 -24.198 -13.779  0.00  0.00    +0.025 C 
ATOM      3  C   UNL     1      35.421 -23.683 -14.595  0.00  0.00    +0.049 C 
ATOM      4  C   UNL     1      32.392 -23.490 -15.029  0.00  0.00    +0.002 C 
ATOM      5  C   UNL     1      30.918 -22.977 -14.798  0.00  0.00    +0.000 C 
ATOM      6  C   UNL     1      30.024 -24.154 -14.288  0.00  0.00    +0.002 C 
ATOM      7  C   UNL     1      36.624 -24.581 -15.104  0.00  0.00    +0.112 C 
ATOM      8  C   UNL     1      34.749 -22.952 -15.799  0.00  0.00    +0.005 C 
ATOM      9  C   UNL     1      33.361 -22.391 -15.498  0.00  0.00    +0.000 C 
ATOM     10  C   UNL     1      34.547 -25.936 -14.939  0.00  0.00    +0.030 C 
ATOM     11  C   UNL     1      32.052 -25.313 -13.259  0.00  0.00    +0.002 C 
ATOM     12  C   UNL     1      30.621 -24.832 -13.046  0.00  0.00    +0.000 C 
ATOM     13  C   UNL     1      35.887 -25.813 -15.680  0.00  0.00    +0.034 C 
ATOM     14  C   UNL     1      30.278 -22.405 -16.098  0.00  0.00    +0.002 C 
ATOM     15  C   UNL     1      35.855 -22.603 -13.579  0.00  0.00    +0.005 C 
ATOM     16  C   UNL     1      29.733 -25.203 -15.387  0.00  0.00    +0.029 C 
ATOM     17  C   UNL     1      30.883 -21.821 -13.762  0.00  0.00    +0.000 C 
ATOM     18  C   UNL     1      30.013 -23.451 -17.178  0.00  0.00    +0.029 C 
ATOM     19  C   UNL     1      29.144 -24.590 -16.654  0.00  0.00    +0.111 C 
ENDROOT
BRANCH   7  21
ATOM     20  O   UNL     1      39.260 -26.035 -12.918  0.00  0.00    -0.448 OA
ATOM     21  C   UNL     1      37.693 -24.922 -14.055  0.00  0.00    +0.043 C 
ATOM     22  C   UNL     1      38.128 -24.096 -13.003  0.00  0.00    +0.042 C 
ATOM     23  C   UNL     1      38.402 -26.087 -13.969  0.00  0.00    +0.178 C 
ATOM     24  C   UNL     1      39.087 -24.820 -12.334  0.00  0.00    +0.179 C 
ENDBRANCH   7  21
BRANCH   1  25
ATOM     25  O   UNL     1      34.907 -25.170 -12.710  0.00  0.00    -0.387 OA
ATOM     26  H   UNL     1      34.791 -26.130 -12.639  0.00  0.00    +0.210 HD
ENDBRANCH   1  25
BRANCH   7  27
ATOM     27  O   UNL     1      37.260 -23.928 -16.218  0.00  0.00    -0.383 OA
ATOM     28  H   UNL     1      36.609 -23.383 -16.687  0.00  0.00    +0.211 HD
ENDBRANCH   7  27
BRANCH  19  29
ATOM     29  O   UNL     1      27.834 -24.109 -16.364  0.00  0.00    -0.384 OA
ATOM     30  H   UNL     1      27.206 -24.848 -16.383  0.00  0.00    +0.210 HD
ENDBRANCH  19  29
TORSDOF 4
ENDMDL
MODEL 6
REMARK VINA RESULT:      -3.2      9.653     11.582
REMARK  Name = 153976
REMARK  4 active torsions:
REMARK  status: ('A' for Active; 'I' for Inactive)
REMARK    1  A    between atoms: C_1  and  O_25
REMARK    2  A    between atoms: C_7  and  C_21
REMARK    3  A    between atoms: C_7  and  O_27
REMARK    4  A    between atoms: C_19  and  O_29
REMARK                            x       y       z     vdW  Elec       q    Type
REMARK                         _______ _______ _______ _____ _____    ______ ____
ROOT
ATOM      1  C   UNL     1      33.106 -15.488 -21.584  0.00  0.00    +0.091 C 
ATOM      2  C   UNL     1      33.324 -17.005 -21.867  0.00  0.00    +0.025 C 
ATOM      3  C   UNL     1      33.561 -14.541 -22.733  0.00  0.00    +0.049 C 
ATOM      4  C   UNL     1      34.752 -17.344 -22.373  0.00  0.00    +0.002 C 
ATOM      5  C   UNL     1      34.953 -18.886 -22.642  0.00  0.00    +0.000 C 
ATOM      6  C   UNL     1      34.551 -19.699 -21.368  0.00  0.00    +0.002 C 
ATOM      7  C   UNL     1      33.652 -13.128 -22.021  0.00  0.00    +0.112 C 
ATOM      8  C   UNL     1      34.969 -14.973 -23.251  0.00  0.00    +0.005 C 
ATOM      9  C   UNL     1      35.086 -16.458 -23.586  0.00  0.00    +0.000 C 
ATOM     10  C   UNL     1      33.856 -14.952 -20.345  0.00  0.00    +0.030 C 
ATOM     11  C   UNL     1      32.929 -17.865 -20.648  0.00  0.00    +0.002 C 
ATOM     12  C   UNL     1      33.132 -19.356 -20.891  0.00  0.00    +0.000 C 
ATOM     13  C   UNL     1      34.251 -13.498 -20.643  0.00  0.00    +0.034 C 
ATOM     14  C   UNL     1      36.427 -19.238 -23.002  0.00  0.00    +0.002 C 
ATOM     15  C   UNL     1      32.598 -14.554 -23.941  0.00  0.00    +0.005 C 
ATOM     16  C   UNL     1      35.563 -19.533 -20.209  0.00  0.00    +0.029 C 
ATOM     17  C   UNL     1      34.095 -19.361 -23.844  0.00  0.00    +0.000 C 
ATOM     18  C   UNL     1      37.414 -19.052 -21.852  0.00  0.00    +0.029 C 
ATOM     19  C   UNL     1      36.997 -19.851 -20.622  0.00  0.00    +0.111 C 
ENDROOT
BRANCH   7  21
ATOM     20  O   UNL     1      30.609 -11.047 -22.523  0.00  0.00    -0.448 OA
ATOM     21  C   UNL     1      32.339 -12.334 -21.943  0.00  0.00    +0.043 C 
ATOM     22  C   UNL     1      31.501 -12.210 -20.820  0.00  0.00    +0.042 C 
ATOM     23  C   UNL     1      31.765 -11.616 -22.954  0.00  0.00    +0.178 C 
ATOM     24  C   UNL     1      30.455 -11.414 -21.223  0.00  0.00    +0.179 C 
ENDBRANCH   7  21
BRANCH   1  25
ATOM     25  O   UNL     1      31.708 -15.308 -21.316  0.00  0.00    -0.387 OA
ATOM     26  H   UNL     1      31.436 -15.901 -20.599  0.00  0.00    +0.210 HD
ENDBRANCH   1  25
BRANCH   7  27
ATOM     27  O   UNL     1      34.640 -12.325 -22.693  0.00  0.00    -0.383 OA
ATOM     28  H   UNL     1      34.589 -11.412 -22.370  0.00  0.00    +0.211 HD
ENDBRANCH   7  27
BRANCH  19  29
ATOM     29  O   UNL     1      37.097 -21.248 -20.890  0.00  0.00    -0.384 OA
ATOM     30  H   UNL     1      37.748 -21.647 -20.293  0.00  0.00    +0.210 HD
ENDBRANCH  19  29
TORSDOF 4
ENDMDL
MODEL 7
REMARK VINA RESULT:      -3.2     14.464     17.042
REMARK  Name = 153976
REMARK  4 active torsions:
REMARK  status: ('A' for Active; 'I' for Inactive)
REMARK    1  A    between atoms: C_1  and  O_25
REMARK    2  A    between atoms: C_7  and  C_21
REMARK    3  A    between atoms: C_7  and  O_27
REMARK    4  A    between atoms: C_19  and  O_29
REMARK                            x       y       z     vdW  Elec       q    Type
REMARK                         _______ _______ _______ _____ _____    ______ ____
ROOT
ATOM      1  C   UNL     1      32.529 -11.026 -21.949  0.00  0.00    +0.091 C 
ATOM      2  C   UNL     1      32.987  -9.537 -21.914  0.00  0.00    +0.025 C 
ATOM      3  C   UNL     1      33.104 -11.855 -23.135  0.00  0.00    +0.049 C 
ATOM      4  C   UNL     1      32.823  -8.805 -23.273  0.00  0.00    +0.002 C 
ATOM      5  C   UNL     1      33.282  -7.296 -23.212  0.00  0.00    +0.000 C 
ATOM      6  C   UNL     1      32.547  -6.570 -22.038  0.00  0.00    +0.002 C 
ATOM      7  C   UNL     1      32.155 -13.124 -23.181  0.00  0.00    +0.112 C 
ATOM      8  C   UNL     1      32.979 -11.042 -24.462  0.00  0.00    +0.005 C 
ATOM      9  C   UNL     1      33.522  -9.617 -24.378  0.00  0.00    +0.000 C 
ATOM     10  C   UNL     1      31.002 -11.225 -22.065  0.00  0.00    +0.030 C 
ATOM     11  C   UNL     1      32.306  -8.768 -20.763  0.00  0.00    +0.002 C 
ATOM     12  C   UNL     1      32.731  -7.305 -20.702  0.00  0.00    +0.000 C 
ATOM     13  C   UNL     1      30.769 -12.502 -22.887  0.00  0.00    +0.034 C 
ATOM     14  C   UNL     1      32.973  -6.528 -24.531  0.00  0.00    +0.002 C 
ATOM     15  C   UNL     1      34.594 -12.217 -22.950  0.00  0.00    +0.005 C 
ATOM     16  C   UNL     1      31.043  -6.343 -22.324  0.00  0.00    +0.029 C 
ATOM     17  C   UNL     1      34.815  -7.185 -23.002  0.00  0.00    +0.000 C 
ATOM     18  C   UNL     1      31.485  -6.327 -24.806  0.00  0.00    +0.029 C 
ATOM     19  C   UNL     1      30.792  -5.622 -23.645  0.00  0.00    +0.111 C 
ENDROOT
BRANCH   7  21
ATOM     20  O   UNL     1      33.469 -16.155 -21.471  0.00  0.00    -0.448 OA
ATOM     21  C   UNL     1      32.537 -14.278 -22.243  0.00  0.00    +0.043 C 
ATOM     22  C   UNL     1      32.110 -14.454 -20.915  0.00  0.00    +0.042 C 
ATOM     23  C   UNL     1      33.358 -15.329 -22.543  0.00  0.00    +0.178 C 
ATOM     24  C   UNL     1      32.707 -15.616 -20.484  0.00  0.00    +0.179 C 
ENDBRANCH   7  21
BRANCH   1  25
ATOM     25  O   UNL     1      32.917 -11.614 -20.699  0.00  0.00    -0.387 OA
ATOM     26  H   UNL     1      32.717 -12.562 -20.711  0.00  0.00    +0.210 HD
ENDBRANCH   1  25
BRANCH   7  27
ATOM     27  O   UNL     1      32.100 -13.621 -24.531  0.00  0.00    -0.383 OA
ATOM     28  H   UNL     1      32.197 -12.882 -25.152  0.00  0.00    +0.211 HD
ENDBRANCH   7  27
BRANCH  19  29
ATOM     29  O   UNL     1      31.267  -4.282 -23.534  0.00  0.00    -0.384 OA
ATOM     30  H   UNL     1      30.652  -3.764 -22.993  0.00  0.00    +0.210 HD
ENDBRANCH  19  29
TORSDOF 4
ENDMDL
