MODEL 1
REMARK VINA RESULT:      -7.2      0.000      0.000
REMARK  Name = 24832027
REMARK  14 active torsions:
REMARK  status: ('A' for Active; 'I' for Inactive)
REMARK    1  A    between atoms: C_1  and  C_3
REMARK    2  A    between atoms: C_1  and  C_6
REMARK    3  A    between atoms: C_1  and  C_18
REMARK    4  A    between atoms: C_3  and  O_4
REMARK    5  A    between atoms: C_6  and  C_7
REMARK    6  A    between atoms: C_7  and  C_9
REMARK    7  A    between atoms: C_7  and  C_12
REMARK    8  A    between atoms: C_9  and  O_10
REMARK    9  A    between atoms: C_12  and  C_13
REMARK   10  A    between atoms: C_13  and  C_15
REMARK   11  A    between atoms: C_15  and  O_16
REMARK   12  A    between atoms: C_18  and  C_19
REMARK   13  A    between atoms: C_19  and  C_22
REMARK   14  A    between atoms: C_22  and  O_23
REMARK                            x       y       z     vdW  Elec       q    Type
REMARK                         _______ _______ _______ _____ _____    ______ ____
ROOT
ATOM      1  C   UNL     1      34.939 -23.927 -14.298  0.00  0.00    +0.100 C 
ENDROOT
BRANCH   1   3
ATOM      2  O   UNL     1      32.858 -23.896 -13.013  0.00  0.00    -0.250 OA
ATOM      3  C   UNL     1      34.029 -24.228 -13.117  0.00  0.00    +0.313 C 
BRANCH   3   4
ATOM      4  O   UNL     1      34.700 -24.920 -12.160  0.00  0.00    -0.480 OA
ATOM      5  H   UNL     1      34.934 -25.816 -12.307  0.00  0.00    +0.295 HD
ENDBRANCH   3   4
ENDBRANCH   1   3
BRANCH   1   6
ATOM      6  C   UNL     1      35.413 -25.219 -14.992  0.00  0.00    +0.022 C 
BRANCH   6   7
ATOM      7  C   UNL     1      36.947 -25.375 -15.049  0.00  0.00    +0.100 C 
BRANCH   7   9
ATOM      8  O   UNL     1      38.289 -27.373 -14.721  0.00  0.00    -0.250 OA
ATOM      9  C   UNL     1      37.382 -26.646 -14.339  0.00  0.00    +0.313 C 
BRANCH   9  10
ATOM     10  O   UNL     1      36.641 -26.889 -13.229  0.00  0.00    -0.480 OA
ATOM     11  H   UNL     1      36.899 -27.563 -12.633  0.00  0.00    +0.295 HD
ENDBRANCH   9  10
ENDBRANCH   7   9
BRANCH   7  12
ATOM     12  C   UNL     1      37.691 -24.172 -14.430  0.00  0.00    +0.023 C 
BRANCH  12  13
ATOM     13  C   UNL     1      38.554 -24.529 -13.219  0.00  0.00    +0.110 C 
BRANCH  13  15
ATOM     14  O   UNL     1      38.405 -22.742 -11.603  0.00  0.00    -0.250 OA
ATOM     15  C   UNL     1      38.108 -23.883 -11.933  0.00  0.00    +0.314 C 
BRANCH  15  16
ATOM     16  O   UNL     1      37.350 -24.707 -11.168  0.00  0.00    -0.480 OA
ATOM     17  H   UNL     1      36.422 -24.737 -11.289  0.00  0.00    +0.295 HD
ENDBRANCH  15  16
ENDBRANCH  13  15
ENDBRANCH  12  13
ENDBRANCH   7  12
ENDBRANCH   6   7
ENDBRANCH   1   6
BRANCH   1  18
ATOM     18  C   UNL     1      34.243 -22.930 -15.252  0.00  0.00    +0.022 C 
BRANCH  18  19
ATOM     19  C   UNL     1      33.536 -23.545 -16.479  0.00  0.00    +0.099 C 
ATOM     20  C   UNL     1      34.057 -22.913 -17.770  0.00  0.00    +0.012 C 
BRANCH  19  22
ATOM     21  O   UNL     1      31.421 -22.553 -17.171  0.00  0.00    -0.250 OA
ATOM     22  C   UNL     1      32.031 -23.329 -16.446  0.00  0.00    +0.313 C 
BRANCH  22  23
ATOM     23  O   UNL     1      31.422 -24.072 -15.486  0.00  0.00    -0.480 OA
ATOM     24  H   UNL     1      31.047 -23.652 -14.736  0.00  0.00    +0.295 HD
ENDBRANCH  22  23
ENDBRANCH  19  22
ENDBRANCH  18  19
ENDBRANCH   1  18
TORSDOF 14
ENDMDL
MODEL 2
REMARK VINA RESULT:      -7.1      2.167      3.640
REMARK  Name = 24832027
REMARK  14 active torsions:
REMARK  status: ('A' for Active; 'I' for Inactive)
REMARK    1  A    between atoms: C_1  and  C_3
REMARK    2  A    between atoms: C_1  and  C_6
REMARK    3  A    between atoms: C_1  and  C_18
REMARK    4  A    between atoms: C_3  and  O_4
REMARK    5  A    between atoms: C_6  and  C_7
REMARK    6  A    between atoms: C_7  and  C_9
REMARK    7  A    between atoms: C_7  and  C_12
REMARK    8  A    between atoms: C_9  and  O_10
REMARK    9  A    between atoms: C_12  and  C_13
REMARK   10  A    between atoms: C_13  and  C_15
REMARK   11  A    between atoms: C_15  and  O_16
REMARK   12  A    between atoms: C_18  and  C_19
REMARK   13  A    between atoms: C_19  and  C_22
REMARK   14  A    between atoms: C_22  and  O_23
REMARK                            x       y       z     vdW  Elec       q    Type
REMARK                         _______ _______ _______ _____ _____    ______ ____
ROOT
ATOM      1  C   UNL     1      36.225 -23.525 -15.115  0.00  0.00    +0.100 C 
ENDROOT
BRANCH   1   3
ATOM      2  O   UNL     1      36.656 -21.968 -16.951  0.00  0.00    -0.250 OA
ATOM      3  C   UNL     1      37.071 -22.772 -16.129  0.00  0.00    +0.313 C 
BRANCH   3   4
ATOM      4  O   UNL     1      38.378 -23.120 -16.016  0.00  0.00    -0.480 OA
ATOM      5  H   UNL     1      38.856 -23.400 -16.772  0.00  0.00    +0.295 HD
ENDBRANCH   3   4
ENDBRANCH   1   3
BRANCH   1   6
ATOM      6  C   UNL     1      36.920 -23.601 -13.742  0.00  0.00    +0.022 C 
BRANCH   6   7
ATOM      7  C   UNL     1      36.616 -24.892 -12.953  0.00  0.00    +0.100 C 
BRANCH   7   9
ATOM      8  O   UNL     1      36.986 -24.006 -10.722  0.00  0.00    -0.250 OA
ATOM      9  C   UNL     1      36.243 -24.566 -11.517  0.00  0.00    +0.313 C 
BRANCH   9  10
ATOM     10  O   UNL     1      34.985 -24.973 -11.212  0.00  0.00    -0.480 OA
ATOM     11  H   UNL     1      34.264 -24.385 -11.317  0.00  0.00    +0.295 HD
ENDBRANCH   9  10
ENDBRANCH   7   9
BRANCH   7  12
ATOM     12  C   UNL     1      37.801 -25.883 -12.954  0.00  0.00    +0.023 C 
BRANCH  12  13
ATOM     13  C   UNL     1      39.150 -25.239 -13.280  0.00  0.00    +0.110 C 
BRANCH  13  15
ATOM     14  O   UNL     1      41.026 -26.120 -14.517  0.00  0.00    -0.250 OA
ATOM     15  C   UNL     1      39.837 -25.827 -14.484  0.00  0.00    +0.314 C 
BRANCH  15  16
ATOM     16  O   UNL     1      39.001 -25.987 -15.540  0.00  0.00    -0.480 OA
ATOM     17  H   UNL     1      38.839 -26.843 -15.883  0.00  0.00    +0.295 HD
ENDBRANCH  15  16
ENDBRANCH  13  15
ENDBRANCH  12  13
ENDBRANCH   7  12
ENDBRANCH   6   7
ENDBRANCH   1   6
BRANCH   1  18
ATOM     18  C   UNL     1      34.807 -22.913 -15.060  0.00  0.00    +0.022 C 
BRANCH  18  19
ATOM     19  C   UNL     1      33.634 -23.897 -15.260  0.00  0.00    +0.099 C 
ATOM     20  C   UNL     1      32.596 -23.306 -16.215  0.00  0.00    +0.012 C 
BRANCH  19  22
ATOM     21  O   UNL     1      32.098 -25.111 -13.810  0.00  0.00    -0.250 OA
ATOM     22  C   UNL     1      32.919 -24.214 -13.956  0.00  0.00    +0.313 C 
BRANCH  22  23
ATOM     23  O   UNL     1      33.262 -23.362 -12.956  0.00  0.00    -0.480 OA
ATOM     24  H   UNL     1      33.824 -22.632 -13.135  0.00  0.00    +0.295 HD
ENDBRANCH  22  23
ENDBRANCH  19  22
ENDBRANCH  18  19
ENDBRANCH   1  18
TORSDOF 14
ENDMDL
MODEL 3
REMARK VINA RESULT:      -7.1      1.716      4.095
REMARK  Name = 24832027
REMARK  14 active torsions:
REMARK  status: ('A' for Active; 'I' for Inactive)
REMARK    1  A    between atoms: C_1  and  C_3
REMARK    2  A    between atoms: C_1  and  C_6
REMARK    3  A    between atoms: C_1  and  C_18
REMARK    4  A    between atoms: C_3  and  O_4
REMARK    5  A    between atoms: C_6  and  C_7
REMARK    6  A    between atoms: C_7  and  C_9
REMARK    7  A    between atoms: C_7  and  C_12
REMARK    8  A    between atoms: C_9  and  O_10
REMARK    9  A    between atoms: C_12  and  C_13
REMARK   10  A    between atoms: C_13  and  C_15
REMARK   11  A    between atoms: C_15  and  O_16
REMARK   12  A    between atoms: C_18  and  C_19
REMARK   13  A    between atoms: C_19  and  C_22
REMARK   14  A    between atoms: C_22  and  O_23
REMARK                            x       y       z     vdW  Elec       q    Type
REMARK                         _______ _______ _______ _____ _____    ______ ____
ROOT
ATOM      1  C   UNL     1      32.783 -23.555 -16.256  0.00  0.00    +0.100 C 
ENDROOT
BRANCH   1   3
ATOM      2  O   UNL     1      32.258 -22.284 -18.278  0.00  0.00    -0.250 OA
ATOM      3  C   UNL     1      33.031 -22.986 -17.644  0.00  0.00    +0.313 C 
BRANCH   3   4
ATOM      4  O   UNL     1      34.246 -23.376 -18.111  0.00  0.00    -0.480 OA
ATOM      5  H   UNL     1      34.301 -24.007 -18.802  0.00  0.00    +0.295 HD
ENDBRANCH   3   4
ENDBRANCH   1   3
BRANCH   1   6
ATOM      6  C   UNL     1      33.909 -23.170 -15.276  0.00  0.00    +0.022 C 
BRANCH   6   7
ATOM      7  C   UNL     1      34.469 -24.356 -14.463  0.00  0.00    +0.100 C 
BRANCH   7   9
ATOM      8  O   UNL     1      34.914 -24.662 -12.095  0.00  0.00    -0.250 OA
ATOM      9  C   UNL     1      34.247 -24.137 -12.976  0.00  0.00    +0.313 C 
BRANCH   9  10
ATOM     10  O   UNL     1      33.213 -23.292 -12.734  0.00  0.00    -0.480 OA
ATOM     11  H   UNL     1      32.335 -23.565 -12.910  0.00  0.00    +0.295 HD
ENDBRANCH   9  10
ENDBRANCH   7   9
BRANCH   7  12
ATOM     12  C   UNL     1      35.973 -24.595 -14.719  0.00  0.00    +0.023 C 
BRANCH  12  13
ATOM     13  C   UNL     1      36.314 -26.027 -15.135  0.00  0.00    +0.110 C 
BRANCH  13  15
ATOM     14  O   UNL     1      38.330 -27.232 -14.577  0.00  0.00    -0.250 OA
ATOM     15  C   UNL     1      37.279 -26.723 -14.210  0.00  0.00    +0.314 C 
BRANCH  15  16
ATOM     16  O   UNL     1      36.853 -26.737 -12.923  0.00  0.00    -0.480 OA
ATOM     17  H   UNL     1      36.825 -27.544 -12.448  0.00  0.00    +0.295 HD
ENDBRANCH  15  16
ENDBRANCH  13  15
ENDBRANCH  12  13
ENDBRANCH   7  12
ENDBRANCH   6   7
ENDBRANCH   1   6
BRANCH   1  18
ATOM     18  C   UNL     1      31.373 -23.152 -15.770  0.00  0.00    +0.022 C 
BRANCH  18  19
ATOM     19  C   UNL     1      30.301 -24.262 -15.799  0.00  0.00    +0.099 C 
ATOM     20  C   UNL     1      28.973 -23.712 -16.322  0.00  0.00    +0.012 C 
BRANCH  19  22
ATOM     21  O   UNL     1      30.793 -24.742 -13.462  0.00  0.00    -0.250 OA
ATOM     22  C   UNL     1      30.036 -24.843 -14.419  0.00  0.00    +0.313 C 
BRANCH  22  23
ATOM     23  O   UNL     1      28.866 -25.530 -14.361  0.00  0.00    -0.480 OA
ATOM     24  H   UNL     1      28.811 -26.320 -13.859  0.00  0.00    +0.295 HD
ENDBRANCH  22  23
ENDBRANCH  19  22
ENDBRANCH  18  19
ENDBRANCH   1  18
TORSDOF 14
ENDMDL
MODEL 4
REMARK VINA RESULT:      -7.0      2.877      5.402
REMARK  Name = 24832027
REMARK  14 active torsions:
REMARK  status: ('A' for Active; 'I' for Inactive)
REMARK    1  A    between atoms: C_1  and  C_3
REMARK    2  A    between atoms: C_1  and  C_6
REMARK    3  A    between atoms: C_1  and  C_18
REMARK    4  A    between atoms: C_3  and  O_4
REMARK    5  A    between atoms: C_6  and  C_7
REMARK    6  A    between atoms: C_7  and  C_9
REMARK    7  A    between atoms: C_7  and  C_12
REMARK    8  A    between atoms: C_9  and  O_10
REMARK    9  A    between atoms: C_12  and  C_13
REMARK   10  A    between atoms: C_13  and  C_15
REMARK   11  A    between atoms: C_15  and  O_16
REMARK   12  A    between atoms: C_18  and  C_19
REMARK   13  A    between atoms: C_19  and  C_22
REMARK   14  A    between atoms: C_22  and  O_23
REMARK                            x       y       z     vdW  Elec       q    Type
REMARK                         _______ _______ _______ _____ _____    ______ ____
ROOT
ATOM      1  C   UNL     1      30.632 -23.473 -14.690  0.00  0.00    +0.100 C 
ENDROOT
BRANCH   1   3
ATOM      2  O   UNL     1      30.229 -25.876 -14.905  0.00  0.00    -0.250 OA
ATOM      3  C   UNL     1      30.481 -24.906 -14.205  0.00  0.00    +0.313 C 
BRANCH   3   4
ATOM      4  O   UNL     1      30.653 -24.977 -12.860  0.00  0.00    -0.480 OA
ATOM      5  H   UNL     1      30.429 -24.244 -12.320  0.00  0.00    +0.295 HD
ENDBRANCH   3   4
ENDBRANCH   1   3
BRANCH   1   6
ATOM      6  C   UNL     1      32.062 -22.945 -14.463  0.00  0.00    +0.022 C 
BRANCH   6   7
ATOM      7  C   UNL     1      33.165 -23.830 -15.080  0.00  0.00    +0.100 C 
BRANCH   7   9
ATOM      8  O   UNL     1      35.393 -24.159 -14.171  0.00  0.00    -0.250 OA
ATOM      9  C   UNL     1      34.180 -24.232 -14.024  0.00  0.00    +0.313 C 
BRANCH   9  10
ATOM     10  O   UNL     1      33.587 -24.689 -12.893  0.00  0.00    -0.480 OA
ATOM     11  H   UNL     1      34.048 -25.274 -12.326  0.00  0.00    +0.295 HD
ENDBRANCH   9  10
ENDBRANCH   7   9
BRANCH   7  12
ATOM     12  C   UNL     1      33.898 -23.138 -16.250  0.00  0.00    +0.023 C 
BRANCH  12  13
ATOM     13  C   UNL     1      33.354 -23.505 -17.631  0.00  0.00    +0.110 C 
BRANCH  13  15
ATOM     14  O   UNL     1      33.081 -22.093 -19.570  0.00  0.00    -0.250 OA
ATOM     15  C   UNL     1      33.825 -22.600 -18.739  0.00  0.00    +0.314 C 
BRANCH  15  16
ATOM     16  O   UNL     1      35.168 -22.414 -18.729  0.00  0.00    -0.480 OA
ATOM     17  H   UNL     1      35.541 -21.672 -19.161  0.00  0.00    +0.295 HD
ENDBRANCH  15  16
ENDBRANCH  13  15
ENDBRANCH  12  13
ENDBRANCH   7  12
ENDBRANCH   6   7
ENDBRANCH   1   6
BRANCH   1  18
ATOM     18  C   UNL     1      30.156 -23.365 -16.157  0.00  0.00    +0.022 C 
BRANCH  18  19
ATOM     19  C   UNL     1      28.927 -22.466 -16.408  0.00  0.00    +0.099 C 
ATOM     20  C   UNL     1      28.252 -22.099 -15.086  0.00  0.00    +0.012 C 
BRANCH  19  22
ATOM     21  O   UNL     1      27.815 -24.357 -17.468  0.00  0.00    -0.250 OA
ATOM     22  C   UNL     1      27.880 -23.150 -17.274  0.00  0.00    +0.313 C 
BRANCH  22  23
ATOM     23  O   UNL     1      27.027 -22.265 -17.851  0.00  0.00    -0.480 OA
ATOM     24  H   UNL     1      26.890 -21.424 -17.461  0.00  0.00    +0.295 HD
ENDBRANCH  22  23
ENDBRANCH  19  22
ENDBRANCH  18  19
ENDBRANCH   1  18
TORSDOF 14
ENDMDL
MODEL 5
REMARK VINA RESULT:      -7.0      2.374      7.067
REMARK  Name = 24832027
REMARK  14 active torsions:
REMARK  status: ('A' for Active; 'I' for Inactive)
REMARK    1  A    between atoms: C_1  and  C_3
REMARK    2  A    between atoms: C_1  and  C_6
REMARK    3  A    between atoms: C_1  and  C_18
REMARK    4  A    between atoms: C_3  and  O_4
REMARK    5  A    between atoms: C_6  and  C_7
REMARK    6  A    between atoms: C_7  and  C_9
REMARK    7  A    between atoms: C_7  and  C_12
REMARK    8  A    between atoms: C_9  and  O_10
REMARK    9  A    between atoms: C_12  and  C_13
REMARK   10  A    between atoms: C_13  and  C_15
REMARK   11  A    between atoms: C_15  and  O_16
REMARK   12  A    between atoms: C_18  and  C_19
REMARK   13  A    between atoms: C_19  and  C_22
REMARK   14  A    between atoms: C_22  and  O_23
REMARK                            x       y       z     vdW  Elec       q    Type
REMARK                         _______ _______ _______ _____ _____    ______ ____
ROOT
ATOM      1  C   UNL     1      33.106 -23.025 -16.473  0.00  0.00    +0.100 C 
ENDROOT
BRANCH   1   3
ATOM      2  O   UNL     1      32.561 -22.060 -18.653  0.00  0.00    -0.250 OA
ATOM      3  C   UNL     1      33.109 -22.927 -17.990  0.00  0.00    +0.313 C 
BRANCH   3   4
ATOM      4  O   UNL     1      33.805 -23.959 -18.535  0.00  0.00    -0.480 OA
ATOM      5  H   UNL     1      34.741 -23.974 -18.479  0.00  0.00    +0.295 HD
ENDBRANCH   3   4
ENDBRANCH   1   3
BRANCH   1   6
ATOM      6  C   UNL     1      31.790 -23.631 -15.947  0.00  0.00    +0.022 C 
BRANCH   6   7
ATOM      7  C   UNL     1      31.141 -22.827 -14.801  0.00  0.00    +0.100 C 
BRANCH   7   9
ATOM      8  O   UNL     1      30.778 -24.398 -12.984  0.00  0.00    -0.250 OA
ATOM      9  C   UNL     1      31.432 -23.479 -13.460  0.00  0.00    +0.313 C 
BRANCH   9  10
ATOM     10  O   UNL     1      32.503 -22.921 -12.842  0.00  0.00    -0.480 OA
ATOM     11  H   UNL     1      32.380 -22.402 -12.073  0.00  0.00    +0.295 HD
ENDBRANCH   9  10
ENDBRANCH   7   9
BRANCH   7  12
ATOM     12  C   UNL     1      29.613 -22.678 -14.969  0.00  0.00    +0.023 C 
BRANCH  12  13
ATOM     13  C   UNL     1      28.990 -23.698 -15.923  0.00  0.00    +0.110 C 
BRANCH  13  15
ATOM     14  O   UNL     1      27.486 -23.746 -17.811  0.00  0.00    -0.250 OA
ATOM     15  C   UNL     1      28.071 -23.096 -16.954  0.00  0.00    +0.314 C 
BRANCH  15  16
ATOM     16  O   UNL     1      27.967 -21.749 -16.840  0.00  0.00    -0.480 OA
ATOM     17  H   UNL     1      27.326 -21.374 -16.270  0.00  0.00    +0.295 HD
ENDBRANCH  15  16
ENDBRANCH  13  15
ENDBRANCH  12  13
ENDBRANCH   7  12
ENDBRANCH   6   7
ENDBRANCH   1   6
BRANCH   1  18
ATOM     18  C   UNL     1      34.369 -23.777 -15.995  0.00  0.00    +0.022 C 
BRANCH  18  19
ATOM     19  C   UNL     1      35.313 -22.991 -15.060  0.00  0.00    +0.099 C 
ATOM     20  C   UNL     1      36.554 -22.524 -15.822  0.00  0.00    +0.012 C 
BRANCH  19  22
ATOM     21  O   UNL     1      36.916 -23.775 -13.401  0.00  0.00    -0.250 OA
ATOM     22  C   UNL     1      35.794 -23.832 -13.888  0.00  0.00    +0.313 C 
BRANCH  22  23
ATOM     23  O   UNL     1      34.845 -24.696 -13.447  0.00  0.00    -0.480 OA
ATOM     24  H   UNL     1      34.848 -25.587 -13.742  0.00  0.00    +0.295 HD
ENDBRANCH  22  23
ENDBRANCH  19  22
ENDBRANCH  18  19
ENDBRANCH   1  18
TORSDOF 14
ENDMDL
MODEL 6
REMARK VINA RESULT:      -7.0      2.191      5.771
REMARK  Name = 24832027
REMARK  14 active torsions:
REMARK  status: ('A' for Active; 'I' for Inactive)
REMARK    1  A    between atoms: C_1  and  C_3
REMARK    2  A    between atoms: C_1  and  C_6
REMARK    3  A    between atoms: C_1  and  C_18
REMARK    4  A    between atoms: C_3  and  O_4
REMARK    5  A    between atoms: C_6  and  C_7
REMARK    6  A    between atoms: C_7  and  C_9
REMARK    7  A    between atoms: C_7  and  C_12
REMARK    8  A    between atoms: C_9  and  O_10
REMARK    9  A    between atoms: C_12  and  C_13
REMARK   10  A    between atoms: C_13  and  C_15
REMARK   11  A    between atoms: C_15  and  O_16
REMARK   12  A    between atoms: C_18  and  C_19
REMARK   13  A    between atoms: C_19  and  C_22
REMARK   14  A    between atoms: C_22  and  O_23
REMARK                            x       y       z     vdW  Elec       q    Type
REMARK                         _______ _______ _______ _____ _____    ______ ____
ROOT
ATOM      1  C   UNL     1      36.848 -24.381 -12.910  0.00  0.00    +0.100 C 
ENDROOT
BRANCH   1   3
ATOM      2  O   UNL     1      36.492 -24.134 -10.503  0.00  0.00    -0.250 OA
ATOM      3  C   UNL     1      36.071 -24.454 -11.605  0.00  0.00    +0.313 C 
BRANCH   3   4
ATOM      4  O   UNL     1      34.822 -24.943 -11.817  0.00  0.00    -0.480 OA
ATOM      5  H   UNL     1      34.073 -24.433 -11.578  0.00  0.00    +0.295 HD
ENDBRANCH   3   4
ENDBRANCH   1   3
BRANCH   1   6
ATOM      6  C   UNL     1      36.530 -23.089 -13.688  0.00  0.00    +0.022 C 
BRANCH   6   7
ATOM      7  C   UNL     1      36.146 -23.322 -15.164  0.00  0.00    +0.100 C 
BRANCH   7   9
ATOM      8  O   UNL     1      36.914 -21.779 -16.876  0.00  0.00    -0.250 OA
ATOM      9  C   UNL     1      37.167 -22.682 -16.089  0.00  0.00    +0.313 C 
BRANCH   9  10
ATOM     10  O   UNL     1      38.398 -23.232 -15.948  0.00  0.00    -0.480 OA
ATOM     11  H   UNL     1      38.638 -23.643 -15.141  0.00  0.00    +0.295 HD
ENDBRANCH   9  10
ENDBRANCH   7   9
BRANCH   7  12
ATOM     12  C   UNL     1      34.742 -22.775 -15.507  0.00  0.00    +0.023 C 
BRANCH  12  13
ATOM     13  C   UNL     1      33.966 -23.635 -16.506  0.00  0.00    +0.110 C 
BRANCH  13  15
ATOM     14  O   UNL     1      32.522 -22.559 -18.113  0.00  0.00    -0.250 OA
ATOM     15  C   UNL     1      33.644 -22.936 -17.800  0.00  0.00    +0.314 C 
BRANCH  15  16
ATOM     16  O   UNL     1      34.732 -22.776 -18.594  0.00  0.00    -0.480 OA
ATOM     17  H   UNL     1      34.788 -23.233 -19.410  0.00  0.00    +0.295 HD
ENDBRANCH  15  16
ENDBRANCH  13  15
ENDBRANCH  12  13
ENDBRANCH   7  12
ENDBRANCH   6   7
ENDBRANCH   1   6
BRANCH   1  18
ATOM     18  C   UNL     1      38.355 -24.583 -12.633  0.00  0.00    +0.022 C 
BRANCH  18  19
ATOM     19  C   UNL     1      39.013 -25.802 -13.314  0.00  0.00    +0.099 C 
ATOM     20  C   UNL     1      40.262 -25.375 -14.087  0.00  0.00    +0.012 C 
BRANCH  19  22
ATOM     21  O   UNL     1      37.254 -27.336 -14.011  0.00  0.00    -0.250 OA
ATOM     22  C   UNL     1      38.081 -26.482 -14.304  0.00  0.00    +0.313 C 
BRANCH  22  23
ATOM     23  O   UNL     1      38.285 -26.064 -15.580  0.00  0.00    -0.480 OA
ATOM     24  H   UNL     1      37.661 -25.499 -15.993  0.00  0.00    +0.295 HD
ENDBRANCH  22  23
ENDBRANCH  19  22
ENDBRANCH  18  19
ENDBRANCH   1  18
TORSDOF 14
ENDMDL
MODEL 7
REMARK VINA RESULT:      -6.9      8.328     11.561
REMARK  Name = 24832027
REMARK  14 active torsions:
REMARK  status: ('A' for Active; 'I' for Inactive)
REMARK    1  A    between atoms: C_1  and  C_3
REMARK    2  A    between atoms: C_1  and  C_6
REMARK    3  A    between atoms: C_1  and  C_18
REMARK    4  A    between atoms: C_3  and  O_4
REMARK    5  A    between atoms: C_6  and  C_7
REMARK    6  A    between atoms: C_7  and  C_9
REMARK    7  A    between atoms: C_7  and  C_12
REMARK    8  A    between atoms: C_9  and  O_10
REMARK    9  A    between atoms: C_12  and  C_13
REMARK   10  A    between atoms: C_13  and  C_15
REMARK   11  A    between atoms: C_15  and  O_16
REMARK   12  A    between atoms: C_18  and  C_19
REMARK   13  A    between atoms: C_19  and  C_22
REMARK   14  A    between atoms: C_22  and  O_23
REMARK                            x       y       z     vdW  Elec       q    Type
REMARK                         _______ _______ _______ _____ _____    ______ ____
ROOT
ATOM      1  C   UNL     1      34.139 -16.520 -23.668  0.00  0.00    +0.100 C 
ENDROOT
BRANCH   1   3
ATOM      2  O   UNL     1      33.365 -15.240 -25.602  0.00  0.00    -0.250 OA
ATOM      3  C   UNL     1      34.080 -16.112 -25.131  0.00  0.00    +0.313 C 
BRANCH   3   4
ATOM      4  O   UNL     1      34.932 -16.866 -25.874  0.00  0.00    -0.480 OA
ATOM      5  H   UNL     1      34.763 -17.780 -25.996  0.00  0.00    +0.295 HD
ENDBRANCH   3   4
ENDBRANCH   1   3
BRANCH   1   6
ATOM      6  C   UNL     1      34.774 -17.914 -23.493  0.00  0.00    +0.022 C 
BRANCH   6   7
ATOM      7  C   UNL     1      34.774 -18.427 -22.038  0.00  0.00    +0.100 C 
BRANCH   7   9
ATOM      8  O   UNL     1      36.486 -19.007 -20.415  0.00  0.00    -0.250 OA
ATOM      9  C   UNL     1      36.196 -18.606 -21.535  0.00  0.00    +0.313 C 
BRANCH   9  10
ATOM     10  O   UNL     1      37.116 -18.263 -22.472  0.00  0.00    -0.480 OA
ATOM     11  H   UNL     1      37.840 -18.831 -22.646  0.00  0.00    +0.295 HD
ENDBRANCH   9  10
ENDBRANCH   7   9
BRANCH   7  12
ATOM     12  C   UNL     1      34.010 -19.759 -21.877  0.00  0.00    +0.023 C 
BRANCH  12  13
ATOM     13  C   UNL     1      33.231 -19.876 -20.566  0.00  0.00    +0.110 C 
BRANCH  13  15
ATOM     14  O   UNL     1      32.723 -21.943 -19.426  0.00  0.00    -0.250 OA
ATOM     15  C   UNL     1      33.555 -21.111 -19.766  0.00  0.00    +0.314 C 
BRANCH  15  16
ATOM     16  O   UNL     1      34.870 -21.199 -19.447  0.00  0.00    -0.480 OA
ATOM     17  H   UNL     1      35.315 -22.021 -19.515  0.00  0.00    +0.295 HD
ENDBRANCH  15  16
ENDBRANCH  13  15
ENDBRANCH  12  13
ENDBRANCH   7  12
ENDBRANCH   6   7
ENDBRANCH   1   6
BRANCH   1  18
ATOM     18  C   UNL     1      34.837 -15.413 -22.845  0.00  0.00    +0.022 C 
BRANCH  18  19
ATOM     19  C   UNL     1      33.916 -14.530 -21.975  0.00  0.00    +0.099 C 
ATOM     20  C   UNL     1      32.792 -15.368 -21.366  0.00  0.00    +0.012 C 
BRANCH  19  22
ATOM     21  O   UNL     1      32.108 -13.039 -22.636  0.00  0.00    -0.250 OA
ATOM     22  C   UNL     1      33.265 -13.414 -22.776  0.00  0.00    +0.313 C 
BRANCH  22  23
ATOM     23  O   UNL     1      34.102 -12.886 -23.705  0.00  0.00    -0.480 OA
ATOM     24  H   UNL     1      34.040 -13.157 -24.600  0.00  0.00    +0.295 HD
ENDBRANCH  22  23
ENDBRANCH  19  22
ENDBRANCH  18  19
ENDBRANCH   1  18
TORSDOF 14
ENDMDL
MODEL 8
REMARK VINA RESULT:      -6.7      2.177      3.231
REMARK  Name = 24832027
REMARK  14 active torsions:
REMARK  status: ('A' for Active; 'I' for Inactive)
REMARK    1  A    between atoms: C_1  and  C_3
REMARK    2  A    between atoms: C_1  and  C_6
REMARK    3  A    between atoms: C_1  and  C_18
REMARK    4  A    between atoms: C_3  and  O_4
REMARK    5  A    between atoms: C_6  and  C_7
REMARK    6  A    between atoms: C_7  and  C_9
REMARK    7  A    between atoms: C_7  and  C_12
REMARK    8  A    between atoms: C_9  and  O_10
REMARK    9  A    between atoms: C_12  and  C_13
REMARK   10  A    between atoms: C_13  and  C_15
REMARK   11  A    between atoms: C_15  and  O_16
REMARK   12  A    between atoms: C_18  and  C_19
REMARK   13  A    between atoms: C_19  and  C_22
REMARK   14  A    between atoms: C_22  and  O_23
REMARK                            x       y       z     vdW  Elec       q    Type
REMARK                         _______ _______ _______ _____ _____    ______ ____
ROOT
ATOM      1  C   UNL     1      35.069 -23.810 -13.743  0.00  0.00    +0.100 C 
ENDROOT
BRANCH   1   3
ATOM      2  O   UNL     1      32.868 -23.310 -14.684  0.00  0.00    -0.250 OA
ATOM      3  C   UNL     1      33.564 -23.947 -13.907  0.00  0.00    +0.313 C 
BRANCH   3   4
ATOM      4  O   UNL     1      33.071 -24.879 -13.050  0.00  0.00    -0.480 OA
ATOM      5  H   UNL     1      33.657 -25.393 -12.530  0.00  0.00    +0.295 HD
ENDBRANCH   3   4
ENDBRANCH   1   3
BRANCH   1   6
ATOM      6  C   UNL     1      35.785 -25.162 -13.935  0.00  0.00    +0.022 C 
BRANCH   6   7
ATOM      7  C   UNL     1      36.798 -25.502 -12.822  0.00  0.00    +0.100 C 
BRANCH   7   9
ATOM      8  O   UNL     1      35.319 -25.144 -10.928  0.00  0.00    -0.250 OA
ATOM      9  C   UNL     1      36.368 -24.883 -11.502  0.00  0.00    +0.313 C 
BRANCH   9  10
ATOM     10  O   UNL     1      37.282 -23.998 -11.032  0.00  0.00    -0.480 OA
ATOM     11  H   UNL     1      37.778 -23.476 -11.630  0.00  0.00    +0.295 HD
ENDBRANCH   9  10
ENDBRANCH   7   9
BRANCH   7  12
ATOM     12  C   UNL     1      38.230 -25.032 -13.157  0.00  0.00    +0.023 C 
BRANCH  12  13
ATOM     13  C   UNL     1      38.883 -25.797 -14.310  0.00  0.00    +0.110 C 
BRANCH  13  15
ATOM     14  O   UNL     1      40.948 -24.548 -14.271  0.00  0.00    -0.250 OA
ATOM     15  C   UNL     1      40.377 -25.624 -14.396  0.00  0.00    +0.314 C 
BRANCH  15  16
ATOM     16  O   UNL     1      41.026 -26.789 -14.641  0.00  0.00    -0.480 OA
ATOM     17  H   UNL     1      40.741 -27.347 -15.336  0.00  0.00    +0.295 HD
ENDBRANCH  15  16
ENDBRANCH  13  15
ENDBRANCH  12  13
ENDBRANCH   7  12
ENDBRANCH   6   7
ENDBRANCH   1   6
BRANCH   1  18
ATOM     18  C   UNL     1      35.596 -22.691 -14.669  0.00  0.00    +0.022 C 
BRANCH  18  19
ATOM     19  C   UNL     1      36.279 -23.156 -15.974  0.00  0.00    +0.099 C 
ATOM     20  C   UNL     1      37.705 -22.610 -16.056  0.00  0.00    +0.012 C 
BRANCH  19  22
ATOM     21  O   UNL     1      35.985 -21.872 -18.024  0.00  0.00    -0.250 OA
ATOM     22  C   UNL     1      35.541 -22.676 -17.213  0.00  0.00    +0.313 C 
BRANCH  22  23
ATOM     23  O   UNL     1      34.298 -23.212 -17.316  0.00  0.00    -0.480 OA
ATOM     24  H   UNL     1      33.936 -23.398 -18.161  0.00  0.00    +0.295 HD
ENDBRANCH  22  23
ENDBRANCH  19  22
ENDBRANCH  18  19
ENDBRANCH   1  18
TORSDOF 14
ENDMDL
MODEL 9
REMARK VINA RESULT:      -6.7      2.215      3.684
REMARK  Name = 24832027
REMARK  14 active torsions:
REMARK  status: ('A' for Active; 'I' for Inactive)
REMARK    1  A    between atoms: C_1  and  C_3
REMARK    2  A    between atoms: C_1  and  C_6
REMARK    3  A    between atoms: C_1  and  C_18
REMARK    4  A    between atoms: C_3  and  O_4
REMARK    5  A    between atoms: C_6  and  C_7
REMARK    6  A    between atoms: C_7  and  C_9
REMARK    7  A    between atoms: C_7  and  C_12
REMARK    8  A    between atoms: C_9  and  O_10
REMARK    9  A    between atoms: C_12  and  C_13
REMARK   10  A    between atoms: C_13  and  C_15
REMARK   11  A    between atoms: C_15  and  O_16
REMARK   12  A    between atoms: C_18  and  C_19
REMARK   13  A    between atoms: C_19  and  C_22
REMARK   14  A    between atoms: C_22  and  O_23
REMARK                            x       y       z     vdW  Elec       q    Type
REMARK                         _______ _______ _______ _____ _____    ______ ____
ROOT
ATOM      1  C   UNL     1      36.515 -23.970 -14.903  0.00  0.00    +0.100 C 
ENDROOT
BRANCH   1   3
ATOM      2  O   UNL     1      36.648 -22.084 -16.454  0.00  0.00    -0.250 OA
ATOM      3  C   UNL     1      37.194 -22.999 -15.854  0.00  0.00    +0.313 C 
BRANCH   3   4
ATOM      4  O   UNL     1      38.516 -23.287 -15.970  0.00  0.00    -0.480 OA
ATOM      5  H   UNL     1      38.993 -23.606 -15.228  0.00  0.00    +0.295 HD
ENDBRANCH   3   4
ENDBRANCH   1   3
BRANCH   1   6
ATOM      6  C   UNL     1      36.357 -23.367 -13.493  0.00  0.00    +0.022 C 
BRANCH   6   7
ATOM      7  C   UNL     1      36.294 -24.416 -12.363  0.00  0.00    +0.100 C 
BRANCH   7   9
ATOM      8  O   UNL     1      36.185 -24.211  -9.945  0.00  0.00    -0.250 OA
ATOM      9  C   UNL     1      36.575 -23.769 -11.018  0.00  0.00    +0.313 C 
BRANCH   9  10
ATOM     10  O   UNL     1      37.308 -22.634 -11.141  0.00  0.00    -0.480 OA
ATOM     11  H   UNL     1      37.332 -22.179 -11.958  0.00  0.00    +0.295 HD
ENDBRANCH   9  10
ENDBRANCH   7   9
BRANCH   7  12
ATOM     12  C   UNL     1      37.283 -25.583 -12.579  0.00  0.00    +0.023 C 
BRANCH  12  13
ATOM     13  C   UNL     1      38.749 -25.152 -12.650  0.00  0.00    +0.110 C 
BRANCH  13  15
ATOM     14  O   UNL     1      39.144 -26.646 -14.504  0.00  0.00    -0.250 OA
ATOM     15  C   UNL     1      39.481 -25.657 -13.865  0.00  0.00    +0.314 C 
BRANCH  15  16
ATOM     16  O   UNL     1      40.567 -24.905 -14.173  0.00  0.00    -0.480 OA
ATOM     17  H   UNL     1      40.482 -24.176 -14.755  0.00  0.00    +0.295 HD
ENDBRANCH  15  16
ENDBRANCH  13  15
ENDBRANCH  12  13
ENDBRANCH   7  12
ENDBRANCH   6   7
ENDBRANCH   1   6
BRANCH   1  18
ATOM     18  C   UNL     1      35.185 -24.461 -15.519  0.00  0.00    +0.022 C 
BRANCH  18  19
ATOM     19  C   UNL     1      33.979 -23.508 -15.379  0.00  0.00    +0.099 C 
ATOM     20  C   UNL     1      32.929 -24.106 -14.442  0.00  0.00    +0.012 C 
BRANCH  19  22
ATOM     21  O   UNL     1      32.092 -23.070 -16.857  0.00  0.00    -0.250 OA
ATOM     22  C   UNL     1      33.296 -23.243 -16.711  0.00  0.00    +0.313 C 
BRANCH  22  23
ATOM     23  O   UNL     1      34.168 -23.252 -17.752  0.00  0.00    -0.480 OA
ATOM     24  H   UNL     1      34.016 -23.815 -18.486  0.00  0.00    +0.295 HD
ENDBRANCH  22  23
ENDBRANCH  19  22
ENDBRANCH  18  19
ENDBRANCH   1  18
TORSDOF 14
ENDMDL
