MODEL 1
REMARK VINA RESULT:      -8.1      0.000      0.000
REMARK  Name = 56961879
REMARK  4 active torsions:
REMARK  status: ('A' for Active; 'I' for Inactive)
REMARK    1  A    between atoms: N_1  and  C_10
REMARK    2  A    between atoms: N_9  and  C_16
REMARK    3  A    between atoms: C_23  and  C_27
REMARK    4  A    between atoms: N_26  and  C_30
REMARK                            x       y       z     vdW  Elec       q    Type
REMARK                         _______ _______ _______ _____ _____    ______ ____
ROOT
ATOM      1  N   UNL     1      35.448 -23.299 -13.835  0.00  0.00    +0.389 N 
ATOM      2  N   UNL     1      33.107 -24.666 -14.747  0.00  0.00    -0.286 N 
ATOM      3  C   UNL     1      34.871 -23.671 -12.538  0.00  0.00    -0.075 C 
ATOM      4  C   UNL     1      35.582 -24.415 -14.786  0.00  0.00    -0.055 C 
ATOM      5  C   UNL     1      33.337 -23.558 -12.546  0.00  0.00    -0.001 C 
ATOM      6  C   UNL     1      34.385 -25.366 -14.914  0.00  0.00    +0.070 C 
ATOM      7  C   UNL     1      32.619 -24.630 -13.365  0.00  0.00    +0.091 C 
ATOM      8  H   UNL     1      34.774 -22.651 -14.244  0.00  0.00    -0.080 HD
ATOM      9  N   UNL     1      33.365 -23.475 -16.770  0.00  0.00    -0.386 NA
ATOM     10  C   UNL     1      32.566 -23.868 -15.753  0.00  0.00    +0.183 C 
ATOM     11  C   UNL     1      31.228 -23.527 -15.642  0.00  0.00    +0.044 C 
ATOM     12  C   UNL     1      30.674 -22.731 -16.639  0.00  0.00    -0.015 C 
ATOM     13  C   UNL     1      32.792 -22.703 -17.720  0.00  0.00    +0.168 C 
ATOM     14  C   UNL     1      31.465 -22.306 -17.701  0.00  0.00    +0.090 C 
ENDROOT
BRANCH   1  16
ATOM     15  N   UNL     1      38.808 -24.740 -13.726  0.00  0.00    +0.388 N 
ATOM     16  C   UNL     1      36.744 -22.638 -13.667  0.00  0.00    -0.062 C 
ATOM     17  C   UNL     1      37.635 -22.896 -14.888  0.00  0.00    -0.044 C 
ATOM     18  C   UNL     1      37.445 -23.150 -12.406  0.00  0.00    -0.044 C 
ATOM     19  C   UNL     1      38.117 -24.348 -14.963  0.00  0.00    -0.079 C 
ATOM     20  C   UNL     1      37.934 -24.595 -12.553  0.00  0.00    -0.079 C 
ATOM     21  H   UNL     1      39.603 -24.113 -13.601  0.00  0.00    -0.080 HD
BRANCH  15  22
ATOM     22  C   UNL     1      39.304 -26.112 -13.829  0.00  0.00    -0.058 C 
ATOM     23  C   UNL     1      38.280 -26.967 -14.569  0.00  0.00    -0.023 C 
ATOM     24  C   UNL     1      40.653 -26.135 -14.541  0.00  0.00    -0.023 C 
ENDBRANCH  15  22
ENDBRANCH   1  16
BRANCH  13  27
ATOM     25  O   UNL     1      34.525 -23.079 -19.226  0.00  0.00    -0.267 OA
ATOM     26  N   UNL     1      33.472 -20.984 -19.284  0.00  0.00    -0.278 N 
ATOM     27  C   UNL     1      33.664 -22.288 -18.805  0.00  0.00    +0.275 C 
ATOM     28  H   UNL     1      32.749 -20.473 -18.852  0.00  0.00    +0.155 HD
BRANCH  26  30
ATOM     29  N   UNL     1      35.575 -18.962 -22.322  0.00  0.00    -0.242 NA
ATOM     30  C   UNL     1      34.179 -20.304 -20.305  0.00  0.00    +0.054 C 
ATOM     31  C   UNL     1      35.564 -20.198 -20.244  0.00  0.00    +0.035 C 
ATOM     32  C   UNL     1      33.491 -19.740 -21.374  0.00  0.00    +0.035 C 
ATOM     33  C   UNL     1      36.208 -19.523 -21.268  0.00  0.00    +0.100 C 
ATOM     34  C   UNL     1      34.228 -19.085 -22.348  0.00  0.00    +0.100 C 
ENDBRANCH  26  30
ENDBRANCH  13  27
TORSDOF 4
ENDMDL
MODEL 2
REMARK VINA RESULT:      -7.4     13.097     17.611
REMARK  Name = 56961879
REMARK  4 active torsions:
REMARK  status: ('A' for Active; 'I' for Inactive)
REMARK    1  A    between atoms: N_1  and  C_10
REMARK    2  A    between atoms: N_9  and  C_16
REMARK    3  A    between atoms: C_23  and  C_27
REMARK    4  A    between atoms: N_26  and  C_30
REMARK                            x       y       z     vdW  Elec       q    Type
REMARK                         _______ _______ _______ _____ _____    ______ ____
ROOT
ATOM      1  N   UNL     1      31.925  -7.126 -23.329  0.00  0.00    +0.389 N 
ATOM      2  N   UNL     1      32.942  -7.998 -20.801  0.00  0.00    -0.286 N 
ATOM      3  C   UNL     1      31.722  -5.896 -22.554  0.00  0.00    -0.075 C 
ATOM      4  C   UNL     1      33.286  -7.682 -23.245  0.00  0.00    -0.055 C 
ATOM      5  C   UNL     1      31.273  -6.199 -21.115  0.00  0.00    -0.001 C 
ATOM      6  C   UNL     1      33.930  -7.737 -21.854  0.00  0.00    +0.070 C 
ATOM      7  C   UNL     1      32.358  -6.788 -20.214  0.00  0.00    +0.091 C 
ATOM      8  H   UNL     1      31.306  -7.812 -22.895  0.00  0.00    -0.080 HD
ATOM      9  N   UNL     1      32.550 -10.201 -21.557  0.00  0.00    -0.386 NA
ATOM     10  C   UNL     1      32.406  -9.267 -20.591  0.00  0.00    +0.183 C 
ATOM     11  C   UNL     1      31.753  -9.489 -19.389  0.00  0.00    +0.044 C 
ATOM     12  C   UNL     1      31.213 -10.750 -19.165  0.00  0.00    -0.015 C 
ATOM     13  C   UNL     1      32.013 -11.416 -21.304  0.00  0.00    +0.168 C 
ATOM     14  C   UNL     1      31.341 -11.738 -20.136  0.00  0.00    +0.090 C 
ENDROOT
BRANCH   1  16
ATOM     15  N   UNL     1      31.941  -4.078 -25.351  0.00  0.00    +0.388 N 
ATOM     16  C   UNL     1      31.557  -6.934 -24.733  0.00  0.00    -0.062 C 
ATOM     17  C   UNL     1      32.756  -6.409 -25.530  0.00  0.00    -0.044 C 
ATOM     18  C   UNL     1      30.394  -5.944 -24.849  0.00  0.00    -0.044 C 
ATOM     19  C   UNL     1      33.105  -4.960 -25.175  0.00  0.00    -0.079 C 
ATOM     20  C   UNL     1      30.811  -4.508 -24.515  0.00  0.00    -0.079 C 
ATOM     21  H   UNL     1      31.649  -4.139 -26.326  0.00  0.00    -0.080 HD
BRANCH  15  22
ATOM     22  C   UNL     1      32.300  -2.692 -25.053  0.00  0.00    -0.058 C 
ATOM     23  C   UNL     1      31.797  -1.786 -26.173  0.00  0.00    -0.023 C 
ATOM     24  C   UNL     1      31.719  -2.272 -23.707  0.00  0.00    -0.023 C 
ENDBRANCH  15  22
ENDBRANCH   1  16
BRANCH  13  27
ATOM     25  O   UNL     1      31.802 -13.574 -22.145  0.00  0.00    -0.267 OA
ATOM     26  N   UNL     1      32.782 -11.958 -23.535  0.00  0.00    -0.278 N 
ATOM     27  C   UNL     1      32.176 -12.407 -22.352  0.00  0.00    +0.275 C 
ATOM     28  H   UNL     1      33.025 -11.005 -23.554  0.00  0.00    +0.155 HD
BRANCH  26  30
ATOM     29  N   UNL     1      33.695 -14.148 -27.015  0.00  0.00    -0.242 NA
ATOM     30  C   UNL     1      33.089 -12.695 -24.705  0.00  0.00    +0.054 C 
ATOM     31  C   UNL     1      33.483 -12.033 -25.863  0.00  0.00    +0.035 C 
ATOM     32  C   UNL     1      32.999 -14.082 -24.700  0.00  0.00    +0.035 C 
ATOM     33  C   UNL     1      33.771 -12.799 -26.981  0.00  0.00    +0.100 C 
ATOM     34  C   UNL     1      33.309 -14.756 -25.871  0.00  0.00    +0.100 C 
ENDBRANCH  26  30
ENDBRANCH  13  27
TORSDOF 4
ENDMDL
MODEL 3
REMARK VINA RESULT:      -7.4     11.717     17.718
REMARK  Name = 56961879
REMARK  4 active torsions:
REMARK  status: ('A' for Active; 'I' for Inactive)
REMARK    1  A    between atoms: N_1  and  C_10
REMARK    2  A    between atoms: N_9  and  C_16
REMARK    3  A    between atoms: C_23  and  C_27
REMARK    4  A    between atoms: N_26  and  C_30
REMARK                            x       y       z     vdW  Elec       q    Type
REMARK                         _______ _______ _______ _____ _____    ______ ____
ROOT
ATOM      1  N   UNL     1      32.117  -6.793 -23.685  0.00  0.00    +0.389 N 
ATOM      2  N   UNL     1      32.768  -7.915 -21.136  0.00  0.00    -0.286 N 
ATOM      3  C   UNL     1      31.601  -5.727 -22.818  0.00  0.00    -0.075 C 
ATOM      4  C   UNL     1      33.506  -7.192 -23.400  0.00  0.00    -0.055 C 
ATOM      5  C   UNL     1      30.943  -6.296 -21.550  0.00  0.00    -0.001 C 
ATOM      6  C   UNL     1      33.884  -7.383 -21.925  0.00  0.00    +0.070 C 
ATOM      7  C   UNL     1      31.917  -6.886 -20.531  0.00  0.00    +0.091 C 
ATOM      8  H   UNL     1      31.535  -7.604 -23.476  0.00  0.00    -0.080 HD
ATOM      9  N   UNL     1      32.844 -10.007 -22.228  0.00  0.00    -0.386 NA
ATOM     10  C   UNL     1      32.391  -9.255 -21.201  0.00  0.00    +0.183 C 
ATOM     11  C   UNL     1      31.568  -9.732 -20.194  0.00  0.00    +0.044 C 
ATOM     12  C   UNL     1      31.183 -11.068 -20.245  0.00  0.00    -0.015 C 
ATOM     13  C   UNL     1      32.450 -11.301 -22.245  0.00  0.00    +0.168 C 
ATOM     14  C   UNL     1      31.629 -11.873 -21.288  0.00  0.00    +0.090 C 
ENDROOT
BRANCH   1  16
ATOM     15  N   UNL     1      31.551  -3.522 -25.220  0.00  0.00    +0.388 N 
ATOM     16  C   UNL     1      31.990  -6.433 -25.099  0.00  0.00    -0.062 C 
ATOM     17  C   UNL     1      33.089  -5.442 -25.497  0.00  0.00    -0.044 C 
ATOM     18  C   UNL     1      30.617  -5.809 -25.369  0.00  0.00    -0.044 C 
ATOM     19  C   UNL     1      32.878  -4.056 -24.879  0.00  0.00    -0.079 C 
ATOM     20  C   UNL     1      30.479  -4.412 -24.755  0.00  0.00    -0.079 C 
ATOM     21  H   UNL     1      31.490  -3.464 -26.237  0.00  0.00    -0.080 HD
BRANCH  15  22
ATOM     22  C   UNL     1      31.382  -2.180 -24.663  0.00  0.00    -0.058 C 
ATOM     23  C   UNL     1      29.909  -1.786 -24.728  0.00  0.00    -0.023 C 
ATOM     24  C   UNL     1      31.898  -2.133 -23.229  0.00  0.00    -0.023 C 
ENDBRANCH  15  22
ENDBRANCH   1  16
BRANCH  13  27
ATOM     25  O   UNL     1      33.381 -11.519 -24.366  0.00  0.00    -0.267 OA
ATOM     26  N   UNL     1      32.862 -13.487 -23.200  0.00  0.00    -0.278 N 
ATOM     27  C   UNL     1      32.944 -12.095 -23.356  0.00  0.00    +0.275 C 
ATOM     28  H   UNL     1      32.493 -13.799 -22.342  0.00  0.00    +0.155 HD
BRANCH  26  30
ATOM     29  N   UNL     1      33.986 -16.505 -25.914  0.00  0.00    -0.242 NA
ATOM     30  C   UNL     1      33.239 -14.502 -24.112  0.00  0.00    +0.054 C 
ATOM     31  C   UNL     1      34.107 -15.513 -23.712  0.00  0.00    +0.035 C 
ATOM     32  C   UNL     1      32.744 -14.492 -25.412  0.00  0.00    +0.035 C 
ATOM     33  C   UNL     1      34.446 -16.482 -24.643  0.00  0.00    +0.100 C 
ATOM     34  C   UNL     1      33.145 -15.507 -26.267  0.00  0.00    +0.100 C 
ENDBRANCH  26  30
ENDBRANCH  13  27
TORSDOF 4
ENDMDL
MODEL 4
REMARK VINA RESULT:      -6.6     14.232     19.514
REMARK  Name = 56961879
REMARK  4 active torsions:
REMARK  status: ('A' for Active; 'I' for Inactive)
REMARK    1  A    between atoms: N_1  and  C_10
REMARK    2  A    between atoms: N_9  and  C_16
REMARK    3  A    between atoms: C_23  and  C_27
REMARK    4  A    between atoms: N_26  and  C_30
REMARK                            x       y       z     vdW  Elec       q    Type
REMARK                         _______ _______ _______ _____ _____    ______ ____
ROOT
ATOM      1  N   UNL     1      32.773  -6.614 -23.146  0.00  0.00    +0.389 N 
ATOM      2  N   UNL     1      30.957  -4.856 -24.486  0.00  0.00    -0.286 N 
ATOM      3  C   UNL     1      31.888  -6.286 -22.022  0.00  0.00    -0.075 C 
ATOM      4  C   UNL     1      32.074  -7.076 -24.357  0.00  0.00    -0.055 C 
ATOM      5  C   UNL     1      31.444  -4.814 -22.060  0.00  0.00    -0.001 C 
ATOM      6  C   UNL     1      30.831  -6.287 -24.785  0.00  0.00    +0.070 C 
ATOM      7  C   UNL     1      30.446  -4.472 -23.166  0.00  0.00    +0.091 C 
ATOM      8  H   UNL     1      33.222  -5.731 -23.391  0.00  0.00    -0.080 HD
ATOM      9  N   UNL     1      32.655  -4.553 -26.099  0.00  0.00    -0.386 NA
ATOM     10  C   UNL     1      31.747  -4.008 -25.259  0.00  0.00    +0.183 C 
ATOM     11  C   UNL     1      31.546  -2.645 -25.113  0.00  0.00    +0.044 C 
ATOM     12  C   UNL     1      32.327  -1.786 -25.878  0.00  0.00    -0.015 C 
ATOM     13  C   UNL     1      33.396  -3.687 -26.827  0.00  0.00    +0.168 C 
ATOM     14  C   UNL     1      33.272  -2.309 -26.754  0.00  0.00    +0.090 C 
ENDROOT
BRANCH   1  16
ATOM     15  N   UNL     1      32.369  -9.798 -21.392  0.00  0.00    +0.388 N 
ATOM     16  C   UNL     1      33.782  -7.600 -22.755  0.00  0.00    -0.062 C 
ATOM     17  C   UNL     1      33.497  -8.949 -23.425  0.00  0.00    -0.044 C 
ATOM     18  C   UNL     1      33.792  -7.779 -21.233  0.00  0.00    -0.044 C 
ATOM     19  C   UNL     1      32.256  -9.637 -22.849  0.00  0.00    -0.079 C 
ATOM     20  C   UNL     1      32.542  -8.502 -20.721  0.00  0.00    -0.079 C 
ATOM     21  H   UNL     1      33.199 -10.360 -21.204  0.00  0.00    -0.080 HD
BRANCH  15  22
ATOM     22  C   UNL     1      31.199 -10.498 -20.862  0.00  0.00    -0.058 C 
ATOM     23  C   UNL     1      31.196 -11.937 -21.368  0.00  0.00    -0.023 C 
ATOM     24  C   UNL     1      31.203 -10.455 -19.337  0.00  0.00    -0.023 C 
ENDBRANCH  15  22
ENDBRANCH   1  16
BRANCH  13  27
ATOM     25  O   UNL     1      33.965  -4.902 -28.728  0.00  0.00    -0.267 OA
ATOM     26  N   UNL     1      35.713  -4.142 -27.359  0.00  0.00    -0.278 N 
ATOM     27  C   UNL     1      34.367  -4.288 -27.724  0.00  0.00    +0.275 C 
ATOM     28  H   UNL     1      35.879  -3.628 -26.536  0.00  0.00    +0.155 HD
BRANCH  26  30
ATOM     29  N   UNL     1      39.141  -5.608 -29.318  0.00  0.00    -0.242 NA
ATOM     30  C   UNL     1      36.865  -4.635 -28.017  0.00  0.00    +0.054 C 
ATOM     31  C   UNL     1      38.133  -4.253 -27.589  0.00  0.00    +0.035 C 
ATOM     32  C   UNL     1      36.735  -5.504 -29.096  0.00  0.00    +0.035 C 
ATOM     33  C   UNL     1      39.227  -4.763 -28.267  0.00  0.00    +0.100 C 
ATOM     34  C   UNL     1      37.894  -5.957 -29.707  0.00  0.00    +0.100 C 
ENDBRANCH  26  30
ENDBRANCH  13  27
TORSDOF 4
ENDMDL
MODEL 5
REMARK VINA RESULT:      -6.4      6.209     11.168
REMARK  Name = 56961879
REMARK  4 active torsions:
REMARK  status: ('A' for Active; 'I' for Inactive)
REMARK    1  A    between atoms: N_1  and  C_10
REMARK    2  A    between atoms: N_9  and  C_16
REMARK    3  A    between atoms: C_23  and  C_27
REMARK    4  A    between atoms: N_26  and  C_30
REMARK                            x       y       z     vdW  Elec       q    Type
REMARK                         _______ _______ _______ _____ _____    ______ ____
ROOT
ATOM      1  N   UNL     1      34.213 -17.492 -22.435  0.00  0.00    +0.389 N 
ATOM      2  N   UNL     1      34.820 -16.747 -25.130  0.00  0.00    -0.286 N 
ATOM      3  C   UNL     1      34.206 -18.822 -23.056  0.00  0.00    -0.075 C 
ATOM      4  C   UNL     1      35.419 -16.694 -22.715  0.00  0.00    -0.055 C 
ATOM      5  C   UNL     1      33.589 -18.787 -24.464  0.00  0.00    -0.001 C 
ATOM      6  C   UNL     1      35.922 -16.681 -24.164  0.00  0.00    +0.070 C 
ATOM      7  C   UNL     1      34.451 -18.109 -25.527  0.00  0.00    +0.091 C 
ATOM      8  H   UNL     1      33.433 -16.997 -22.870  0.00  0.00    -0.080 HD
ATOM      9  N   UNL     1      34.045 -14.589 -24.563  0.00  0.00    -0.386 NA
ATOM     10  C   UNL     1      34.018 -15.642 -25.410  0.00  0.00    +0.183 C 
ATOM     11  C   UNL     1      33.238 -15.698 -26.554  0.00  0.00    +0.044 C 
ATOM     12  C   UNL     1      32.432 -14.603 -26.847  0.00  0.00    -0.015 C 
ATOM     13  C   UNL     1      33.250 -13.542 -24.880  0.00  0.00    +0.168 C 
ATOM     14  C   UNL     1      32.433 -13.501 -25.999  0.00  0.00    +0.090 C 
ENDROOT
BRANCH   1  16
ATOM     15  N   UNL     1      34.964 -20.237 -20.138  0.00  0.00    +0.388 N 
ATOM     16  C   UNL     1      34.008 -17.582 -20.988  0.00  0.00    -0.062 C 
ATOM     17  C   UNL     1      35.348 -17.795 -20.273  0.00  0.00    -0.044 C 
ATOM     18  C   UNL     1      33.062 -18.740 -20.655  0.00  0.00    -0.044 C 
ATOM     19  C   UNL     1      35.925 -19.192 -20.520  0.00  0.00    -0.079 C 
ATOM     20  C   UNL     1      33.707 -20.110 -20.889  0.00  0.00    -0.079 C 
ATOM     21  H   UNL     1      34.750 -20.117 -19.148  0.00  0.00    -0.080 HD
BRANCH  15  22
ATOM     22  C   UNL     1      35.546 -21.565 -20.334  0.00  0.00    -0.058 C 
ATOM     23  C   UNL     1      36.988 -21.565 -19.838  0.00  0.00    -0.023 C 
ATOM     24  C   UNL     1      34.716 -22.619 -19.608  0.00  0.00    -0.023 C 
ENDBRANCH  15  22
ENDBRANCH   1  16
BRANCH  13  27
ATOM     25  O   UNL     1      33.056 -12.615 -22.756  0.00  0.00    -0.267 OA
ATOM     26  N   UNL     1      33.570 -11.168 -24.530  0.00  0.00    -0.278 N 
ATOM     27  C   UNL     1      33.289 -12.419 -23.961  0.00  0.00    +0.275 C 
ATOM     28  H   UNL     1      33.734 -11.169 -25.501  0.00  0.00    +0.155 HD
BRANCH  26  30
ATOM     29  N   UNL     1      33.806  -7.413 -22.638  0.00  0.00    -0.242 NA
ATOM     30  C   UNL     1      33.650  -9.906 -23.894  0.00  0.00    +0.054 C 
ATOM     31  C   UNL     1      32.632  -9.488 -23.042  0.00  0.00    +0.035 C 
ATOM     32  C   UNL     1      34.745  -9.079 -24.117  0.00  0.00    +0.035 C 
ATOM     33  C   UNL     1      32.757  -8.244 -22.445  0.00  0.00    +0.100 C 
ATOM     34  C   UNL     1      34.775  -7.853 -23.471  0.00  0.00    +0.100 C 
ENDBRANCH  26  30
ENDBRANCH  13  27
TORSDOF 4
ENDMDL
MODEL 6
REMARK VINA RESULT:      -6.4     10.782     14.453
REMARK  Name = 56961879
REMARK  4 active torsions:
REMARK  status: ('A' for Active; 'I' for Inactive)
REMARK    1  A    between atoms: N_1  and  C_10
REMARK    2  A    between atoms: N_9  and  C_16
REMARK    3  A    between atoms: C_23  and  C_27
REMARK    4  A    between atoms: N_26  and  C_30
REMARK                            x       y       z     vdW  Elec       q    Type
REMARK                         _______ _______ _______ _____ _____    ______ ____
ROOT
ATOM      1  N   UNL     1      31.541  -9.768 -21.251  0.00  0.00    +0.389 N 
ATOM      2  N   UNL     1      32.697  -8.094 -23.262  0.00  0.00    -0.286 N 
ATOM      3  C   UNL     1      31.781  -8.564 -20.447  0.00  0.00    -0.075 C 
ATOM      4  C   UNL     1      30.810  -9.529 -22.506  0.00  0.00    -0.055 C 
ATOM      5  C   UNL     1      33.105  -7.880 -20.831  0.00  0.00    -0.001 C 
ATOM      6  C   UNL     1      31.251  -8.325 -23.348  0.00  0.00    +0.070 C 
ATOM      7  C   UNL     1      33.096  -7.179 -22.188  0.00  0.00    +0.091 C 
ATOM      8  H   UNL     1      32.472 -10.094 -21.517  0.00  0.00    -0.080 HD
ATOM      9  N   UNL     1      33.199 -10.082 -24.435  0.00  0.00    -0.386 NA
ATOM     10  C   UNL     1      33.614  -8.893 -23.944  0.00  0.00    +0.183 C 
ATOM     11  C   UNL     1      34.905  -8.407 -24.073  0.00  0.00    +0.044 C 
ATOM     12  C   UNL     1      35.831  -9.193 -24.751  0.00  0.00    -0.015 C 
ATOM     13  C   UNL     1      34.126 -10.818 -25.088  0.00  0.00    +0.168 C 
ATOM     14  C   UNL     1      35.442 -10.423 -25.271  0.00  0.00    +0.090 C 
ENDROOT
BRANCH   1  16
ATOM     15  N   UNL     1      32.277 -13.337 -20.930  0.00  0.00    +0.388 N 
ATOM     16  C   UNL     1      30.853 -10.798 -20.469  0.00  0.00    -0.062 C 
ATOM     17  C   UNL     1      31.810 -11.414 -19.442  0.00  0.00    -0.044 C 
ATOM     18  C   UNL     1      30.316 -11.898 -21.390  0.00  0.00    -0.044 C 
ATOM     19  C   UNL     1      32.884 -12.289 -20.096  0.00  0.00    -0.079 C 
ATOM     20  C   UNL     1      31.434 -12.760 -21.987  0.00  0.00    -0.079 C 
ATOM     21  H   UNL     1      31.680 -13.905 -20.331  0.00  0.00    -0.080 HD
BRANCH  15  22
ATOM     22  C   UNL     1      33.311 -14.193 -21.510  0.00  0.00    -0.058 C 
ATOM     23  C   UNL     1      34.518 -14.235 -20.577  0.00  0.00    -0.023 C 
ATOM     24  C   UNL     1      32.761 -15.594 -21.757  0.00  0.00    -0.023 C 
ENDBRANCH  15  22
ENDBRANCH   1  16
BRANCH  13  27
ATOM     25  O   UNL     1      32.844 -12.104 -26.542  0.00  0.00    -0.267 OA
ATOM     26  N   UNL     1      34.183 -13.236 -24.983  0.00  0.00    -0.278 N 
ATOM     27  C   UNL     1      33.666 -12.092 -25.610  0.00  0.00    +0.275 C 
ATOM     28  H   UNL     1      34.827 -13.070 -24.257  0.00  0.00    +0.155 HD
BRANCH  26  30
ATOM     29  N   UNL     1      33.348 -17.283 -25.796  0.00  0.00    -0.242 NA
ATOM     30  C   UNL     1      33.902 -14.596 -25.256  0.00  0.00    +0.054 C 
ATOM     31  C   UNL     1      34.640 -15.600 -24.637  0.00  0.00    +0.035 C 
ATOM     32  C   UNL     1      32.887 -14.935 -26.145  0.00  0.00    +0.035 C 
ATOM     33  C   UNL     1      34.326 -16.915 -24.939  0.00  0.00    +0.100 C 
ATOM     34  C   UNL     1      32.652 -16.281 -26.379  0.00  0.00    +0.100 C 
ENDBRANCH  26  30
ENDBRANCH  13  27
TORSDOF 4
ENDMDL
MODEL 7
REMARK VINA RESULT:      -6.3      3.059      8.962
REMARK  Name = 56961879
REMARK  4 active torsions:
REMARK  status: ('A' for Active; 'I' for Inactive)
REMARK    1  A    between atoms: N_1  and  C_10
REMARK    2  A    between atoms: N_9  and  C_16
REMARK    3  A    between atoms: C_23  and  C_27
REMARK    4  A    between atoms: N_26  and  C_30
REMARK                            x       y       z     vdW  Elec       q    Type
REMARK                         _______ _______ _______ _____ _____    ______ ____
ROOT
ATOM      1  N   UNL     1      34.810 -20.073 -20.897  0.00  0.00    +0.389 N 
ATOM      2  N   UNL     1      36.814 -21.544 -19.482  0.00  0.00    -0.286 N 
ATOM      3  C   UNL     1      35.973 -19.224 -21.184  0.00  0.00    -0.075 C 
ATOM      4  C   UNL     1      35.008 -21.501 -21.194  0.00  0.00    -0.055 C 
ATOM      5  C   UNL     1      36.911 -19.120 -19.970  0.00  0.00    -0.001 C 
ATOM      6  C   UNL     1      36.332 -22.127 -20.739  0.00  0.00    +0.070 C 
ATOM      7  C   UNL     1      37.702 -20.390 -19.658  0.00  0.00    +0.091 C 
ATOM      8  H   UNL     1      34.679 -20.003 -19.887  0.00  0.00    -0.080 HD
ATOM      9  N   UNL     1      35.046 -22.489 -18.234  0.00  0.00    -0.386 NA
ATOM     10  C   UNL     1      36.249 -21.873 -18.252  0.00  0.00    +0.183 C 
ATOM     11  C   UNL     1      36.968 -21.544 -17.114  0.00  0.00    +0.044 C 
ATOM     12  C   UNL     1      36.417 -21.867 -15.879  0.00  0.00    -0.015 C 
ATOM     13  C   UNL     1      34.541 -22.788 -17.016  0.00  0.00    +0.168 C 
ATOM     14  C   UNL     1      35.181 -22.500 -15.820  0.00  0.00    +0.090 C 
ENDROOT
BRANCH   1  16
ATOM     15  N   UNL     1      34.033 -16.720 -22.136  0.00  0.00    +0.388 N 
ATOM     16  C   UNL     1      33.616 -19.587 -21.592  0.00  0.00    -0.062 C 
ATOM     17  C   UNL     1      33.990 -19.048 -22.978  0.00  0.00    -0.044 C 
ATOM     18  C   UNL     1      32.939 -18.479 -20.780  0.00  0.00    -0.044 C 
ATOM     19  C   UNL     1      34.773 -17.734 -22.901  0.00  0.00    -0.079 C 
ATOM     20  C   UNL     1      33.753 -17.180 -20.768  0.00  0.00    -0.079 C 
ATOM     21  H   UNL     1      33.139 -16.568 -22.603  0.00  0.00    -0.080 HD
BRANCH  15  22
ATOM     22  C   UNL     1      34.770 -15.457 -22.111  0.00  0.00    -0.058 C 
ATOM     23  C   UNL     1      34.315 -14.581 -23.274  0.00  0.00    -0.023 C 
ATOM     24  C   UNL     1      34.560 -14.748 -20.777  0.00  0.00    -0.023 C 
ENDBRANCH  15  22
ENDBRANCH   1  16
BRANCH  13  27
ATOM     25  O   UNL     1      32.927 -24.153 -17.985  0.00  0.00    -0.267 OA
ATOM     26  N   UNL     1      32.438 -23.208 -15.894  0.00  0.00    -0.278 N 
ATOM     27  C   UNL     1      33.248 -23.448 -17.013  0.00  0.00    +0.275 C 
ATOM     28  H   UNL     1      32.828 -22.627 -15.202  0.00  0.00    +0.155 HD
BRANCH  26  30
ATOM     29  N   UNL     1      28.558 -24.644 -15.104  0.00  0.00    -0.242 NA
ATOM     30  C   UNL     1      31.133 -23.690 -15.628  0.00  0.00    +0.054 C 
ATOM     31  C   UNL     1      30.957 -24.859 -14.894  0.00  0.00    +0.035 C 
ATOM     32  C   UNL     1      30.023 -22.998 -16.100  0.00  0.00    +0.035 C 
ATOM     33  C   UNL     1      29.660 -25.289 -14.663  0.00  0.00    +0.100 C 
ATOM     34  C   UNL     1      28.768 -23.513 -15.814  0.00  0.00    +0.100 C 
ENDBRANCH  26  30
ENDBRANCH  13  27
TORSDOF 4
ENDMDL
MODEL 8
REMARK VINA RESULT:      -6.1     12.449     16.113
REMARK  Name = 56961879
REMARK  4 active torsions:
REMARK  status: ('A' for Active; 'I' for Inactive)
REMARK    1  A    between atoms: N_1  and  C_10
REMARK    2  A    between atoms: N_9  and  C_16
REMARK    3  A    between atoms: C_23  and  C_27
REMARK    4  A    between atoms: N_26  and  C_30
REMARK                            x       y       z     vdW  Elec       q    Type
REMARK                         _______ _______ _______ _____ _____    ______ ____
ROOT
ATOM      1  N   UNL     1      32.077 -12.419 -22.180  0.00  0.00    +0.389 N 
ATOM      2  N   UNL     1      30.999 -10.546 -20.305  0.00  0.00    -0.286 N 
ATOM      3  C   UNL     1      32.210 -13.211 -20.951  0.00  0.00    -0.075 C 
ATOM      4  C   UNL     1      30.734 -11.859 -22.402  0.00  0.00    -0.055 C 
ATOM      5  C   UNL     1      32.617 -12.336 -19.753  0.00  0.00    -0.001 C 
ATOM      6  C   UNL     1      30.043 -11.212 -21.196  0.00  0.00    +0.070 C 
ATOM      7  C   UNL     1      31.521 -11.404 -19.237  0.00  0.00    +0.091 C 
ATOM      8  H   UNL     1      32.703 -11.624 -22.046  0.00  0.00    -0.080 HD
ATOM      9  N   UNL     1      31.493  -8.875 -21.899  0.00  0.00    -0.386 NA
ATOM     10  C   UNL     1      31.570  -9.316 -20.624  0.00  0.00    +0.183 C 
ATOM     11  C   UNL     1      32.187  -8.618 -19.597  0.00  0.00    +0.044 C 
ATOM     12  C   UNL     1      32.761  -7.388 -19.900  0.00  0.00    -0.015 C 
ATOM     13  C   UNL     1      32.062  -7.675 -22.156  0.00  0.00    +0.168 C 
ATOM     14  C   UNL     1      32.702  -6.901 -21.201  0.00  0.00    +0.090 C 
ENDROOT
BRANCH   1  16
ATOM     15  N   UNL     1      34.545 -11.613 -24.755  0.00  0.00    +0.388 N 
ATOM     16  C   UNL     1      32.489 -13.192 -23.353  0.00  0.00    -0.062 C 
ATOM     17  C   UNL     1      33.985 -13.518 -23.277  0.00  0.00    -0.044 C 
ATOM     18  C   UNL     1      32.203 -12.405 -24.637  0.00  0.00    -0.044 C 
ATOM     19  C   UNL     1      34.864 -12.281 -23.485  0.00  0.00    -0.079 C 
ATOM     20  C   UNL     1      33.135 -11.201 -24.806  0.00  0.00    -0.079 C 
ATOM     21  H   UNL     1      34.701 -12.283 -25.508  0.00  0.00    -0.080 HD
BRANCH  15  22
ATOM     22  C   UNL     1      35.423 -10.462 -24.963  0.00  0.00    -0.058 C 
ATOM     23  C   UNL     1      35.679 -10.281 -26.456  0.00  0.00    -0.023 C 
ATOM     24  C   UNL     1      34.802  -9.206 -24.358  0.00  0.00    -0.023 C 
ENDBRANCH  15  22
ENDBRANCH   1  16
BRANCH  13  27
ATOM     25  O   UNL     1      31.364  -7.911 -24.362  0.00  0.00    -0.267 OA
ATOM     26  N   UNL     1      32.616  -6.003 -23.816  0.00  0.00    -0.278 N 
ATOM     27  C   UNL     1      31.971  -7.216 -23.530  0.00  0.00    +0.275 C 
ATOM     28  H   UNL     1      33.056  -5.564 -23.053  0.00  0.00    +0.155 HD
BRANCH  26  30
ATOM     29  N   UNL     1      32.916  -3.994 -27.505  0.00  0.00    -0.242 NA
ATOM     30  C   UNL     1      32.716  -5.328 -25.057  0.00  0.00    +0.054 C 
ATOM     31  C   UNL     1      33.756  -5.625 -25.931  0.00  0.00    +0.035 C 
ATOM     32  C   UNL     1      31.776  -4.364 -25.405  0.00  0.00    +0.035 C 
ATOM     33  C   UNL     1      33.810  -4.935 -27.132  0.00  0.00    +0.100 C 
ATOM     34  C   UNL     1      31.919  -3.731 -26.630  0.00  0.00    +0.100 C 
ENDBRANCH  26  30
ENDBRANCH  13  27
TORSDOF 4
ENDMDL
MODEL 9
REMARK VINA RESULT:      -6.1     10.578     15.142
REMARK  Name = 56961879
REMARK  4 active torsions:
REMARK  status: ('A' for Active; 'I' for Inactive)
REMARK    1  A    between atoms: N_1  and  C_10
REMARK    2  A    between atoms: N_9  and  C_16
REMARK    3  A    between atoms: C_23  and  C_27
REMARK    4  A    between atoms: N_26  and  C_30
REMARK                            x       y       z     vdW  Elec       q    Type
REMARK                         _______ _______ _______ _____ _____    ______ ____
ROOT
ATOM      1  N   UNL     1      32.225 -12.283 -22.397  0.00  0.00    +0.389 N 
ATOM      2  N   UNL     1      31.088 -10.487 -20.483  0.00  0.00    -0.286 N 
ATOM      3  C   UNL     1      32.390 -13.093 -21.184  0.00  0.00    -0.075 C 
ATOM      4  C   UNL     1      30.862 -11.767 -22.605  0.00  0.00    -0.055 C 
ATOM      5  C   UNL     1      32.770 -12.228 -19.971  0.00  0.00    -0.001 C 
ATOM      6  C   UNL     1      30.152 -11.169 -21.384  0.00  0.00    +0.070 C 
ATOM      7  C   UNL     1      31.643 -11.346 -19.433  0.00  0.00    +0.091 C 
ATOM      8  H   UNL     1      32.822 -11.469 -22.249  0.00  0.00    -0.080 HD
ATOM      9  N   UNL     1      31.516  -8.768 -22.045  0.00  0.00    -0.386 NA
ATOM     10  C   UNL     1      31.613  -9.230 -20.779  0.00  0.00    +0.183 C 
ATOM     11  C   UNL     1      32.208  -8.531 -19.741  0.00  0.00    +0.044 C 
ATOM     12  C   UNL     1      32.737  -7.276 -20.021  0.00  0.00    -0.015 C 
ATOM     13  C   UNL     1      32.041  -7.544 -22.280  0.00  0.00    +0.168 C 
ATOM     14  C   UNL     1      32.656  -6.766 -21.312  0.00  0.00    +0.090 C 
ENDROOT
BRANCH   1  16
ATOM     15  N   UNL     1      34.282 -15.296 -22.658  0.00  0.00    +0.388 N 
ATOM     16  C   UNL     1      32.661 -13.017 -23.587  0.00  0.00    -0.062 C 
ATOM     17  C   UNL     1      32.131 -14.455 -23.548  0.00  0.00    -0.044 C 
ATOM     18  C   UNL     1      34.190 -13.039 -23.671  0.00  0.00    -0.044 C 
ATOM     19  C   UNL     1      32.823 -15.304 -22.478  0.00  0.00    -0.079 C 
ATOM     20  C   UNL     1      34.822 -13.931 -22.597  0.00  0.00    -0.079 C 
ATOM     21  H   UNL     1      34.484 -15.670 -23.586  0.00  0.00    -0.080 HD
BRANCH  15  22
ATOM     22  C   UNL     1      34.927 -16.148 -21.659  0.00  0.00    -0.058 C 
ATOM     23  C   UNL     1      34.581 -15.642 -20.262  0.00  0.00    -0.023 C 
ATOM     24  C   UNL     1      34.490 -17.598 -21.839  0.00  0.00    -0.023 C 
ENDBRANCH  15  22
ENDBRANCH   1  16
BRANCH  13  27
ATOM     25  O   UNL     1      31.332  -7.755 -24.486  0.00  0.00    -0.267 OA
ATOM     26  N   UNL     1      32.544  -5.829 -23.913  0.00  0.00    -0.278 N 
ATOM     27  C   UNL     1      31.929  -7.061 -23.645  0.00  0.00    +0.275 C 
ATOM     28  H   UNL     1      32.980  -5.394 -23.146  0.00  0.00    +0.155 HD
BRANCH  26  30
ATOM     29  N   UNL     1      32.770  -3.746 -27.566  0.00  0.00    -0.242 NA
ATOM     30  C   UNL     1      32.619  -5.129 -25.142  0.00  0.00    +0.054 C 
ATOM     31  C   UNL     1      33.603  -5.452 -26.071  0.00  0.00    +0.035 C 
ATOM     32  C   UNL     1      31.711  -4.115 -25.424  0.00  0.00    +0.035 C 
ATOM     33  C   UNL     1      33.635  -4.737 -27.256  0.00  0.00    +0.100 C 
ATOM     34  C   UNL     1      31.828  -3.459 -26.639  0.00  0.00    +0.100 C 
ENDBRANCH  26  30
ENDBRANCH  13  27
TORSDOF 4
ENDMDL
