MODEL 1
REMARK VINA RESULT:      -9.0      0.000      0.000
REMARK  Name = 10204
REMARK  1 active torsions:
REMARK  status: ('A' for Active; 'I' for Inactive)
REMARK    1  A    between atoms: C_9  and  O_21
REMARK                            x       y       z     vdW  Elec       q    Type
REMARK                         _______ _______ _______ _____ _____    ______ ____
ROOT
ATOM      1  O   UNL     1      39.735 -25.975 -14.710  0.00  0.00    -0.291 OA
ATOM      2  C   UNL     1      32.535 -23.643 -15.765  0.00  0.00    +0.002 C 
ATOM      3  C   UNL     1      31.553 -23.831 -14.592  0.00  0.00    +0.025 C 
ATOM      4  C   UNL     1      33.962 -23.332 -15.297  0.00  0.00    +0.001 C 
ATOM      5  C   UNL     1      34.475 -24.516 -14.418  0.00  0.00    +0.003 C 
ATOM      6  C   UNL     1      35.958 -24.313 -13.921  0.00  0.00    +0.016 C 
ATOM      7  C   UNL     1      32.025 -25.044 -13.778  0.00  0.00    +0.002 C 
ATOM      8  C   UNL     1      33.474 -24.869 -13.284  0.00  0.00    +0.000 C 
ATOM      9  C   UNL     1      30.227 -23.996 -15.363  0.00  0.00    +0.110 C 
ATOM     10  C   UNL     1      31.826 -22.640 -16.670  0.00  0.00    +0.003 C 
ATOM     11  C   UNL     1      34.906 -23.114 -16.487  0.00  0.00    +0.004 C 
ATOM     12  C   UNL     1      30.330 -22.976 -16.517  0.00  0.00    +0.029 C 
ATOM     13  C   UNL     1      36.848 -23.925 -15.109  0.00  0.00    -0.042 C 
ATOM     14  C   UNL     1      36.329 -22.838 -16.019  0.00  0.00    +0.022 C 
ATOM     15  C   UNL     1      31.423 -22.595 -13.664  0.00  0.00    +0.002 C 
ATOM     16  C   UNL     1      36.453 -25.652 -13.299  0.00  0.00    +0.012 C 
ATOM     17  C   UNL     1      36.063 -23.197 -12.856  0.00  0.00    +0.004 C 
ATOM     18  C   UNL     1      37.961 -25.721 -13.122  0.00  0.00    +0.069 C 
ATOM     19  C   UNL     1      38.047 -24.477 -15.360  0.00  0.00    +0.029 C 
ATOM     20  C   UNL     1      38.655 -25.457 -14.433  0.00  0.00    +0.173 C 
ENDROOT
BRANCH   9  21
ATOM     21  O   UNL     1      30.111 -25.306 -15.911  0.00  0.00    -0.384 OA
ATOM     22  H   UNL     1      30.888 -25.830 -15.664  0.00  0.00    +0.210 HD
ENDBRANCH   9  21
TORSDOF 1
ENDMDL
MODEL 2
REMARK VINA RESULT:      -8.8      3.496      6.317
REMARK  Name = 10204
REMARK  1 active torsions:
REMARK  status: ('A' for Active; 'I' for Inactive)
REMARK    1  A    between atoms: C_9  and  O_21
REMARK                            x       y       z     vdW  Elec       q    Type
REMARK                         _______ _______ _______ _____ _____    ______ ____
ROOT
ATOM      1  O   UNL     1      33.684 -18.776 -21.396  0.00  0.00    -0.291 OA
ATOM      2  C   UNL     1      36.119 -23.040 -15.540  0.00  0.00    +0.002 C 
ATOM      3  C   UNL     1      35.163 -24.128 -15.014  0.00  0.00    +0.025 C 
ATOM      4  C   UNL     1      36.002 -22.831 -17.055  0.00  0.00    +0.001 C 
ATOM      5  C   UNL     1      34.540 -22.401 -17.395  0.00  0.00    +0.003 C 
ATOM      6  C   UNL     1      34.325 -22.118 -18.931  0.00  0.00    +0.016 C 
ATOM      7  C   UNL     1      33.727 -23.659 -15.286  0.00  0.00    +0.002 C 
ATOM      8  C   UNL     1      33.495 -23.372 -16.782  0.00  0.00    +0.000 C 
ATOM      9  C   UNL     1      35.598 -24.188 -13.535  0.00  0.00    +0.110 C 
ATOM     10  C   UNL     1      37.472 -23.437 -14.959  0.00  0.00    +0.003 C 
ATOM     11  C   UNL     1      36.991 -21.769 -17.553  0.00  0.00    +0.004 C 
ATOM     12  C   UNL     1      37.134 -24.049 -13.585  0.00  0.00    +0.029 C 
ATOM     13  C   UNL     1      35.434 -21.187 -19.441  0.00  0.00    -0.042 C 
ATOM     14  C   UNL     1      36.849 -21.542 -19.052  0.00  0.00    +0.022 C 
ATOM     15  C   UNL     1      35.385 -25.529 -15.641  0.00  0.00    +0.002 C 
ATOM     16  C   UNL     1      32.935 -21.440 -19.114  0.00  0.00    +0.012 C 
ATOM     17  C   UNL     1      34.363 -23.416 -19.769  0.00  0.00    +0.004 C 
ATOM     18  C   UNL     1      32.753 -20.778 -20.470  0.00  0.00    +0.069 C 
ATOM     19  C   UNL     1      35.214 -20.111 -20.215  0.00  0.00    +0.029 C 
ATOM     20  C   UNL     1      33.862 -19.790 -20.724  0.00  0.00    +0.173 C 
ENDROOT
BRANCH   9  21
ATOM     21  O   UNL     1      35.057 -23.096 -12.796  0.00  0.00    -0.384 OA
ATOM     22  H   UNL     1      35.060 -22.299 -13.348  0.00  0.00    +0.210 HD
ENDBRANCH   9  21
TORSDOF 1
ENDMDL
MODEL 3
REMARK VINA RESULT:      -7.9     10.919     13.302
REMARK  Name = 10204
REMARK  1 active torsions:
REMARK  status: ('A' for Active; 'I' for Inactive)
REMARK    1  A    between atoms: C_9  and  O_21
REMARK                            x       y       z     vdW  Elec       q    Type
REMARK                         _______ _______ _______ _____ _____    ______ ____
ROOT
ATOM      1  O   UNL     1      34.419 -10.482 -25.997  0.00  0.00    -0.291 OA
ATOM      2  C   UNL     1      34.746 -17.529 -23.059  0.00  0.00    +0.002 C 
ATOM      3  C   UNL     1      34.547 -17.669 -21.537  0.00  0.00    +0.025 C 
ATOM      4  C   UNL     1      33.910 -16.394 -23.663  0.00  0.00    +0.001 C 
ATOM      5  C   UNL     1      34.325 -15.048 -22.991  0.00  0.00    +0.003 C 
ATOM      6  C   UNL     1      33.550 -13.805 -23.577  0.00  0.00    +0.016 C 
ATOM      7  C   UNL     1      35.029 -16.368 -20.881  0.00  0.00    +0.002 C 
ATOM      8  C   UNL     1      34.287 -15.139 -21.441  0.00  0.00    +0.000 C 
ATOM      9  C   UNL     1      35.391 -18.931 -21.261  0.00  0.00    +0.110 C 
ATOM     10  C   UNL     1      34.541 -18.948 -23.581  0.00  0.00    +0.003 C 
ATOM     11  C   UNL     1      34.102 -16.305 -25.183  0.00  0.00    +0.004 C 
ATOM     12  C   UNL     1      35.102 -19.851 -22.466  0.00  0.00    +0.029 C 
ATOM     13  C   UNL     1      33.614 -13.838 -25.110  0.00  0.00    -0.042 C 
ATOM     14  C   UNL     1      33.295 -15.156 -25.774  0.00  0.00    +0.022 C 
ATOM     15  C   UNL     1      33.085 -17.962 -21.110  0.00  0.00    +0.002 C 
ATOM     16  C   UNL     1      34.229 -12.510 -23.043  0.00  0.00    +0.012 C 
ATOM     17  C   UNL     1      32.063 -13.802 -23.157  0.00  0.00    +0.004 C 
ATOM     18  C   UNL     1      33.834 -11.256 -23.808  0.00  0.00    +0.069 C 
ATOM     19  C   UNL     1      33.910 -12.772 -25.872  0.00  0.00    +0.029 C 
ATOM     20  C   UNL     1      34.109 -11.431 -25.278  0.00  0.00    +0.173 C 
ENDROOT
BRANCH   9  21
ATOM     21  O   UNL     1      36.782 -18.623 -21.236  0.00  0.00    -0.384 OA
ATOM     22  H   UNL     1      37.065 -18.332 -22.116  0.00  0.00    +0.210 HD
ENDBRANCH   9  21
TORSDOF 1
ENDMDL
MODEL 4
REMARK VINA RESULT:      -7.8     19.862     22.016
REMARK  Name = 10204
REMARK  1 active torsions:
REMARK  status: ('A' for Active; 'I' for Inactive)
REMARK    1  A    between atoms: C_9  and  O_21
REMARK                            x       y       z     vdW  Elec       q    Type
REMARK                         _______ _______ _______ _____ _____    ______ ____
ROOT
ATOM      1  O   UNL     1      32.533  -7.454 -19.535  0.00  0.00    -0.291 OA
ATOM      2  C   UNL     1      32.981  -3.410 -26.004  0.00  0.00    +0.002 C 
ATOM      3  C   UNL     1      33.592  -4.111 -27.232  0.00  0.00    +0.025 C 
ATOM      4  C   UNL     1      32.192  -4.372 -25.106  0.00  0.00    +0.001 C 
ATOM      5  C   UNL     1      33.152  -5.494 -24.600  0.00  0.00    +0.003 C 
ATOM      6  C   UNL     1      32.444  -6.515 -23.629  0.00  0.00    +0.016 C 
ATOM      7  C   UNL     1      34.591  -5.161 -26.723  0.00  0.00    +0.002 C 
ATOM      8  C   UNL     1      33.921  -6.168 -25.770  0.00  0.00    +0.000 C 
ATOM      9  C   UNL     1      34.190  -2.898 -27.975  0.00  0.00    +0.110 C 
ATOM     10  C   UNL     1      32.259  -2.205 -26.598  0.00  0.00    +0.003 C 
ATOM     11  C   UNL     1      31.566  -3.638 -23.913  0.00  0.00    +0.004 C 
ATOM     12  C   UNL     1      33.136  -1.786 -27.794  0.00  0.00    +0.029 C 
ATOM     13  C   UNL     1      31.681  -5.745 -22.543  0.00  0.00    -0.042 C 
ATOM     14  C   UNL     1      30.811  -4.602 -23.008  0.00  0.00    +0.022 C 
ATOM     15  C   UNL     1      32.553  -4.786 -28.165  0.00  0.00    +0.002 C 
ATOM     16  C   UNL     1      33.539  -7.410 -22.977  0.00  0.00    +0.012 C 
ATOM     17  C   UNL     1      31.437  -7.419 -24.376  0.00  0.00    +0.004 C 
ATOM     18  C   UNL     1      33.054  -8.176 -21.757  0.00  0.00    +0.069 C 
ATOM     19  C   UNL     1      31.731  -6.045 -21.234  0.00  0.00    +0.029 C 
ATOM     20  C   UNL     1      32.471  -7.228 -20.741  0.00  0.00    +0.173 C 
ENDROOT
BRANCH   9  21
ATOM     21  O   UNL     1      35.413  -2.480 -27.376  0.00  0.00    -0.384 OA
ATOM     22  H   UNL     1      35.666  -1.612 -27.726  0.00  0.00    +0.210 HD
ENDBRANCH   9  21
TORSDOF 1
ENDMDL
MODEL 5
REMARK VINA RESULT:      -7.6      1.689      6.265
REMARK  Name = 10204
REMARK  1 active torsions:
REMARK  status: ('A' for Active; 'I' for Inactive)
REMARK    1  A    between atoms: C_9  and  O_21
REMARK                            x       y       z     vdW  Elec       q    Type
REMARK                         _______ _______ _______ _____ _____    ______ ____
ROOT
ATOM      1  O   UNL     1      28.332 -21.848 -15.873  0.00  0.00    -0.291 OA
ATOM      2  C   UNL     1      35.740 -23.404 -14.830  0.00  0.00    +0.002 C 
ATOM      3  C   UNL     1      36.120 -24.218 -13.578  0.00  0.00    +0.025 C 
ATOM      4  C   UNL     1      34.380 -23.812 -15.410  0.00  0.00    +0.001 C 
ATOM      5  C   UNL     1      33.279 -23.583 -14.327  0.00  0.00    +0.003 C 
ATOM      6  C   UNL     1      31.830 -23.933 -14.842  0.00  0.00    +0.016 C 
ATOM      7  C   UNL     1      35.072 -23.927 -12.495  0.00  0.00    +0.002 C 
ATOM      8  C   UNL     1      33.648 -24.258 -12.977  0.00  0.00    +0.000 C 
ATOM      9  C   UNL     1      37.544 -23.682 -13.319  0.00  0.00    +0.110 C 
ATOM     10  C   UNL     1      36.976 -23.510 -15.718  0.00  0.00    +0.003 C 
ATOM     11  C   UNL     1      34.048 -23.010 -16.675  0.00  0.00    +0.004 C 
ATOM     12  C   UNL     1      38.157 -23.539 -14.727  0.00  0.00    +0.029 C 
ATOM     13  C   UNL     1      31.590 -23.254 -16.196  0.00  0.00    -0.042 C 
ATOM     14  C   UNL     1      32.682 -23.395 -17.229  0.00  0.00    +0.022 C 
ATOM     15  C   UNL     1      36.216 -25.748 -13.816  0.00  0.00    +0.002 C 
ATOM     16  C   UNL     1      30.801 -23.414 -13.795  0.00  0.00    +0.012 C 
ATOM     17  C   UNL     1      31.634 -25.455 -15.024  0.00  0.00    +0.004 C 
ATOM     18  C   UNL     1      29.377 -23.343 -14.323  0.00  0.00    +0.069 C 
ATOM     19  C   UNL     1      30.473 -22.575 -16.508  0.00  0.00    +0.029 C 
ATOM     20  C   UNL     1      29.324 -22.511 -15.577  0.00  0.00    +0.173 C 
ENDROOT
BRANCH   9  21
ATOM     21  O   UNL     1      37.504 -22.400 -12.698  0.00  0.00    -0.384 OA
ATOM     22  H   UNL     1      36.683 -21.947 -12.944  0.00  0.00    +0.210 HD
ENDBRANCH   9  21
TORSDOF 1
ENDMDL
MODEL 6
REMARK VINA RESULT:      -7.6     19.206     21.308
REMARK  Name = 10204
REMARK  1 active torsions:
REMARK  status: ('A' for Active; 'I' for Inactive)
REMARK    1  A    between atoms: C_9  and  O_21
REMARK                            x       y       z     vdW  Elec       q    Type
REMARK                         _______ _______ _______ _____ _____    ______ ____
ROOT
ATOM      1  O   UNL     1      32.359 -11.167 -22.916  0.00  0.00    -0.291 OA
ATOM      2  C   UNL     1      33.075  -4.384 -26.361  0.00  0.00    +0.002 C 
ATOM      3  C   UNL     1      32.009  -3.317 -26.046  0.00  0.00    +0.025 C 
ATOM      4  C   UNL     1      33.381  -5.287 -25.160  0.00  0.00    +0.001 C 
ATOM      5  C   UNL     1      32.071  -6.019 -24.731  0.00  0.00    +0.003 C 
ATOM      6  C   UNL     1      32.289  -7.011 -23.524  0.00  0.00    +0.016 C 
ATOM      7  C   UNL     1      30.705  -4.047 -25.698  0.00  0.00    +0.002 C 
ATOM      8  C   UNL     1      30.895  -5.025 -24.523  0.00  0.00    +0.000 C 
ATOM      9  C   UNL     1      32.019  -2.516 -27.365  0.00  0.00    +0.110 C 
ATOM     10  C   UNL     1      34.214  -3.583 -26.984  0.00  0.00    +0.003 C 
ATOM     11  C   UNL     1      34.471  -6.314 -25.495  0.00  0.00    +0.004 C 
ATOM     12  C   UNL     1      33.508  -2.454 -27.761  0.00  0.00    +0.029 C 
ATOM     13  C   UNL     1      33.497  -7.912 -23.813  0.00  0.00    -0.042 C 
ATOM     14  C   UNL     1      34.749  -7.229 -24.309  0.00  0.00    +0.022 C 
ATOM     15  C   UNL     1      32.393  -2.353 -24.893  0.00  0.00    +0.002 C 
ATOM     16  C   UNL     1      31.005  -7.876 -23.364  0.00  0.00    +0.012 C 
ATOM     17  C   UNL     1      32.555  -6.260 -22.200  0.00  0.00    +0.004 C 
ATOM     18  C   UNL     1      31.206  -9.111 -22.500  0.00  0.00    +0.069 C 
ATOM     19  C   UNL     1      33.501  -9.243 -23.631  0.00  0.00    +0.029 C 
ATOM     20  C   UNL     1      32.342  -9.944 -23.032  0.00  0.00    +0.173 C 
ENDROOT
BRANCH   9  21
ATOM     21  O   UNL     1      31.296  -3.201 -28.385  0.00  0.00    -0.384 OA
ATOM     22  H   UNL     1      30.443  -2.762 -28.527  0.00  0.00    +0.210 HD
ENDBRANCH   9  21
TORSDOF 1
ENDMDL
MODEL 7
REMARK VINA RESULT:      -7.1     13.275     15.458
REMARK  Name = 10204
REMARK  1 active torsions:
REMARK  status: ('A' for Active; 'I' for Inactive)
REMARK    1  A    between atoms: C_9  and  O_21
REMARK                            x       y       z     vdW  Elec       q    Type
REMARK                         _______ _______ _______ _____ _____    ______ ____
ROOT
ATOM      1  O   UNL     1      34.244 -17.032 -21.244  0.00  0.00    -0.291 OA
ATOM      2  C   UNL     1      32.963  -9.562 -22.221  0.00  0.00    +0.002 C 
ATOM      3  C   UNL     1      33.279  -8.967 -23.607  0.00  0.00    +0.025 C 
ATOM      4  C   UNL     1      32.450 -11.005 -22.299  0.00  0.00    +0.001 C 
ATOM      5  C   UNL     1      33.542 -11.894 -22.973  0.00  0.00    +0.003 C 
ATOM      6  C   UNL     1      33.127 -13.413 -23.063  0.00  0.00    +0.016 C 
ATOM      7  C   UNL     1      34.406  -9.804 -24.228  0.00  0.00    +0.002 C 
ATOM      8  C   UNL     1      34.025 -11.293 -24.322  0.00  0.00    +0.000 C 
ATOM      9  C   UNL     1      33.636  -7.519 -23.213  0.00  0.00    +0.110 C 
ATOM     10  C   UNL     1      32.078  -8.505 -21.568  0.00  0.00    +0.003 C 
ATOM     11  C   UNL     1      32.110 -11.555 -20.908  0.00  0.00    +0.004 C 
ATOM     12  C   UNL     1      32.622  -7.166 -22.105  0.00  0.00    +0.029 C 
ATOM     13  C   UNL     1      32.627 -13.889 -21.692  0.00  0.00    -0.042 C 
ATOM     14  C   UNL     1      31.631 -12.999 -20.988  0.00  0.00    +0.022 C 
ATOM     15  C   UNL     1      32.067  -8.921 -24.573  0.00  0.00    +0.002 C 
ATOM     16  C   UNL     1      34.378 -14.237 -23.489  0.00  0.00    +0.012 C 
ATOM     17  C   UNL     1      32.000 -13.645 -24.094  0.00  0.00    +0.004 C 
ATOM     18  C   UNL     1      34.231 -15.732 -23.254  0.00  0.00    +0.069 C 
ATOM     19  C   UNL     1      33.005 -15.041 -21.114  0.00  0.00    +0.029 C 
ATOM     20  C   UNL     1      33.882 -16.006 -21.815  0.00  0.00    +0.173 C 
ENDROOT
BRANCH   9  21
ATOM     21  O   UNL     1      34.954  -7.442 -22.676  0.00  0.00    -0.384 OA
ATOM     22  H   UNL     1      34.955  -7.789 -21.771  0.00  0.00    +0.210 HD
ENDBRANCH   9  21
TORSDOF 1
ENDMDL
MODEL 8
REMARK VINA RESULT:      -6.6      1.049      6.492
REMARK  Name = 10204
REMARK  1 active torsions:
REMARK  status: ('A' for Active; 'I' for Inactive)
REMARK    1  A    between atoms: C_9  and  O_21
REMARK                            x       y       z     vdW  Elec       q    Type
REMARK                         _______ _______ _______ _____ _____    ______ ____
ROOT
ATOM      1  O   UNL     1      28.134 -24.312 -16.534  0.00  0.00    -0.291 OA
ATOM      2  C   UNL     1      35.334 -24.939 -14.051  0.00  0.00    +0.002 C 
ATOM      3  C   UNL     1      36.351 -23.903 -14.568  0.00  0.00    +0.025 C 
ATOM      4  C   UNL     1      33.929 -24.350 -13.874  0.00  0.00    +0.001 C 
ATOM      5  C   UNL     1      33.425 -23.819 -15.254  0.00  0.00    +0.003 C 
ATOM      6  C   UNL     1      31.964 -23.230 -15.188  0.00  0.00    +0.016 C 
ATOM      7  C   UNL     1      35.886 -23.445 -15.958  0.00  0.00    +0.002 C 
ATOM      8  C   UNL     1      34.458 -22.868 -15.919  0.00  0.00    +0.000 C 
ATOM      9  C   UNL     1      37.648 -24.739 -14.519  0.00  0.00    +0.110 C 
ATOM     10  C   UNL     1      36.028 -25.552 -12.839  0.00  0.00    +0.003 C 
ATOM     11  C   UNL     1      32.949 -25.394 -13.323  0.00  0.00    +0.004 C 
ATOM     12  C   UNL     1      37.523 -25.555 -13.216  0.00  0.00    +0.029 C 
ATOM     13  C   UNL     1      31.041 -24.227 -14.476  0.00  0.00    -0.042 C 
ATOM     14  C   UNL     1      31.548 -24.814 -13.180  0.00  0.00    +0.022 C 
ATOM     15  C   UNL     1      36.534 -22.672 -13.644  0.00  0.00    +0.002 C 
ATOM     16  C   UNL     1      31.468 -22.991 -16.644  0.00  0.00    +0.012 C 
ATOM     17  C   UNL     1      31.915 -21.892 -14.416  0.00  0.00    +0.004 C 
ATOM     18  C   UNL     1      29.965 -22.785 -16.750  0.00  0.00    +0.069 C 
ATOM     19  C   UNL     1      29.825 -24.578 -14.926  0.00  0.00    +0.029 C 
ATOM     20  C   UNL     1      29.231 -23.941 -16.123  0.00  0.00    +0.173 C 
ENDROOT
BRANCH   9  21
ATOM     21  O   UNL     1      37.722 -25.637 -15.623  0.00  0.00    -0.384 OA
ATOM     22  H   UNL     1      37.194 -25.290 -16.358  0.00  0.00    +0.210 HD
ENDBRANCH   9  21
TORSDOF 1
ENDMDL
MODEL 9
REMARK VINA RESULT:      -6.5      9.960     12.712
REMARK  Name = 10204
REMARK  1 active torsions:
REMARK  status: ('A' for Active; 'I' for Inactive)
REMARK    1  A    between atoms: C_9  and  O_21
REMARK                            x       y       z     vdW  Elec       q    Type
REMARK                         _______ _______ _______ _____ _____    ______ ____
ROOT
ATOM      1  O   UNL     1      30.783 -10.809 -22.281  0.00  0.00    -0.291 OA
ATOM      2  C   UNL     1      33.869 -17.796 -22.035  0.00  0.00    +0.002 C 
ATOM      3  C   UNL     1      35.138 -18.037 -22.875  0.00  0.00    +0.025 C 
ATOM      4  C   UNL     1      33.794 -16.371 -21.472  0.00  0.00    +0.001 C 
ATOM      5  C   UNL     1      33.791 -15.358 -22.659  0.00  0.00    +0.003 C 
ATOM      6  C   UNL     1      33.672 -13.858 -22.185  0.00  0.00    +0.016 C 
ATOM      7  C   UNL     1      35.087 -17.087 -24.081  0.00  0.00    +0.002 C 
ATOM      8  C   UNL     1      34.967 -15.616 -23.642  0.00  0.00    +0.000 C 
ATOM      9  C   UNL     1      34.988 -19.542 -23.180  0.00  0.00    +0.110 C 
ATOM     10  C   UNL     1      33.853 -18.970 -21.061  0.00  0.00    +0.003 C 
ATOM     11  C   UNL     1      32.539 -16.175 -20.610  0.00  0.00    +0.004 C 
ATOM     12  C   UNL     1      34.447 -20.143 -21.866  0.00  0.00    +0.029 C 
ATOM     13  C   UNL     1      32.513 -13.726 -21.189  0.00  0.00    -0.042 C 
ATOM     14  C   UNL     1      32.453 -14.750 -20.080  0.00  0.00    +0.022 C 
ATOM     15  C   UNL     1      36.465 -17.830 -22.101  0.00  0.00    +0.002 C 
ATOM     16  C   UNL     1      33.403 -12.971 -23.436  0.00  0.00    +0.012 C 
ATOM     17  C   UNL     1      34.963 -13.367 -21.491  0.00  0.00    +0.004 C 
ATOM     18  C   UNL     1      32.899 -11.577 -23.097  0.00  0.00    +0.069 C 
ATOM     19  C   UNL     1      31.585 -12.756 -21.241  0.00  0.00    +0.029 C 
ATOM     20  C   UNL     1      31.669 -11.660 -22.232  0.00  0.00    +0.173 C 
ENDROOT
BRANCH   9  21
ATOM     21  O   UNL     1      34.036 -19.764 -24.217  0.00  0.00    -0.384 OA
ATOM     22  H   UNL     1      34.351 -20.472 -24.799  0.00  0.00    +0.210 HD
ENDBRANCH   9  21
TORSDOF 1
ENDMDL
