MODEL 1
REMARK VINA RESULT:      -9.3      0.000      0.000
REMARK  Name = 42642654
REMARK  7 active torsions:
REMARK  status: ('A' for Active; 'I' for Inactive)
REMARK    1  A    between atoms: C_3  and  N_19
REMARK    2  A    between atoms: C_5  and  C_12
REMARK    3  A    between atoms: N_11  and  O_14
REMARK    4  A    between atoms: O_14  and  C_15
REMARK    5  A    between atoms: C_15  and  C_16
REMARK    6  A    between atoms: C_16  and  O_17
REMARK    7  A    between atoms: N_19  and  C_23
REMARK                            x       y       z     vdW  Elec       q    Type
REMARK                         _______ _______ _______ _____ _____    ______ ____
ROOT
ATOM      1  N   UNL     1      31.943 -23.114 -16.078  0.00  0.00    -0.235 N 
ATOM      2  N   UNL     1      29.804 -22.598 -16.519  0.00  0.00    -0.224 NA
ATOM      3  C   UNL     1      33.316 -23.440 -16.204  0.00  0.00    +0.114 C 
ATOM      4  C   UNL     1      31.289 -22.977 -14.859  0.00  0.00    +0.077 C 
ATOM      5  C   UNL     1      34.007 -23.623 -15.050  0.00  0.00    +0.083 C 
ATOM      6  C   UNL     1      32.031 -23.173 -13.671  0.00  0.00    +0.017 C 
ATOM      7  C   UNL     1      33.337 -23.482 -13.761  0.00  0.00    +0.008 C 
ATOM      8  C   UNL     1      30.983 -22.870 -17.038  0.00  0.00    +0.173 C 
ATOM      9  C   UNL     1      29.987 -22.662 -15.165  0.00  0.00    +0.116 C 
ENDROOT
BRANCH   5  12
ATOM     10  O   UNL     1      35.865 -24.891 -15.733  0.00  0.00    -0.268 OA
ATOM     11  N   UNL     1      36.173 -23.149 -14.231  0.00  0.00    -0.190 N 
ATOM     12  C   UNL     1      35.438 -23.964 -15.050  0.00  0.00    +0.270 C 
ATOM     13  H   UNL     1      35.758 -22.455 -13.669  0.00  0.00    +0.183 HD
BRANCH  11  14
ATOM     14  O   UNL     1      37.563 -23.373 -14.248  0.00  0.00    -0.263 OA
BRANCH  14  15
ATOM     15  C   UNL     1      37.912 -24.116 -13.089  0.00  0.00    +0.203 C 
BRANCH  15  16
ATOM     16  C   UNL     1      37.427 -23.373 -11.859  0.00  0.00    +0.172 C 
BRANCH  16  17
ATOM     17  O   UNL     1      37.989 -22.066 -11.856  0.00  0.00    -0.379 OA
ATOM     18  H   UNL     1      37.680 -21.580 -12.637  0.00  0.00    +0.211 HD
ENDBRANCH  16  17
ENDBRANCH  15  16
ENDBRANCH  14  15
ENDBRANCH  11  14
ENDBRANCH   5  12
BRANCH   3  19
ATOM     19  N   UNL     1      33.826 -23.542 -17.471  0.00  0.00    -0.299 N 
ATOM     20  H   UNL     1      33.974 -24.457 -17.802  0.00  0.00    +0.153 HD
BRANCH  19  23
ATOM     21  I   UNL     1      35.323 -18.922 -21.427  0.00  0.00    -0.042 I 
ATOM     22  F   UNL     1      36.421 -22.568 -17.622  0.00  0.00    -0.203 F 
ATOM     23  C   UNL     1      34.162 -22.512 -18.352  0.00  0.00    +0.077 C 
ATOM     24  C   UNL     1      35.473 -22.040 -18.409  0.00  0.00    +0.154 C 
ATOM     25  C   UNL     1      33.184 -21.955 -19.176  0.00  0.00    +0.017 C 
ATOM     26  C   UNL     1      35.806 -21.012 -19.291  0.00  0.00    +0.037 C 
ATOM     27  C   UNL     1      33.516 -20.926 -20.057  0.00  0.00    +0.007 C 
ATOM     28  C   UNL     1      34.827 -20.454 -20.114  0.00  0.00    +0.032 C 
ENDBRANCH  19  23
ENDBRANCH   3  19
TORSDOF 7
ENDMDL
MODEL 2
REMARK VINA RESULT:      -9.0      1.456      2.000
REMARK  Name = 42642654
REMARK  7 active torsions:
REMARK  status: ('A' for Active; 'I' for Inactive)
REMARK    1  A    between atoms: C_3  and  N_19
REMARK    2  A    between atoms: C_5  and  C_12
REMARK    3  A    between atoms: N_11  and  O_14
REMARK    4  A    between atoms: O_14  and  C_15
REMARK    5  A    between atoms: C_15  and  C_16
REMARK    6  A    between atoms: C_16  and  O_17
REMARK    7  A    between atoms: N_19  and  C_23
REMARK                            x       y       z     vdW  Elec       q    Type
REMARK                         _______ _______ _______ _____ _____    ______ ____
ROOT
ATOM      1  N   UNL     1      31.370 -22.926 -16.379  0.00  0.00    -0.235 N 
ATOM      2  N   UNL     1      29.181 -22.666 -16.799  0.00  0.00    -0.224 NA
ATOM      3  C   UNL     1      32.768 -23.109 -16.518  0.00  0.00    +0.114 C 
ATOM      4  C   UNL     1      30.724 -22.796 -15.155  0.00  0.00    +0.077 C 
ATOM      5  C   UNL     1      33.493 -23.155 -15.373  0.00  0.00    +0.083 C 
ATOM      6  C   UNL     1      31.503 -22.848 -13.975  0.00  0.00    +0.017 C 
ATOM      7  C   UNL     1      32.833 -23.019 -14.078  0.00  0.00    +0.008 C 
ATOM      8  C   UNL     1      30.373 -22.837 -17.329  0.00  0.00    +0.173 C 
ATOM      9  C   UNL     1      29.391 -22.639 -15.448  0.00  0.00    +0.116 C 
ENDROOT
BRANCH   5  12
ATOM     10  O   UNL     1      35.710 -22.381 -15.267  0.00  0.00    -0.268 OA
ATOM     11  N   UNL     1      35.315 -24.651 -15.541  0.00  0.00    -0.190 N 
ATOM     12  C   UNL     1      34.952 -23.340 -15.386  0.00  0.00    +0.270 C 
ATOM     13  H   UNL     1      34.654 -25.367 -15.684  0.00  0.00    +0.183 HD
BRANCH  11  14
ATOM     14  O   UNL     1      36.699 -24.904 -15.482  0.00  0.00    -0.263 OA
BRANCH  14  15
ATOM     15  C   UNL     1      36.958 -25.725 -14.352  0.00  0.00    +0.203 C 
BRANCH  15  16
ATOM     16  C   UNL     1      37.176 -27.152 -14.815  0.00  0.00    +0.172 C 
BRANCH  16  17
ATOM     17  O   UNL     1      36.829 -27.251 -16.191  0.00  0.00    -0.379 OA
ATOM     18  H   UNL     1      36.386 -28.099 -16.353  0.00  0.00    +0.211 HD
ENDBRANCH  16  17
ENDBRANCH  15  16
ENDBRANCH  14  15
ENDBRANCH  11  14
ENDBRANCH   5  12
BRANCH   3  19
ATOM     19  N   UNL     1      33.265 -23.222 -17.789  0.00  0.00    -0.299 N 
ATOM     20  H   UNL     1      33.353 -24.139 -18.136  0.00  0.00    +0.153 HD
BRANCH  19  23
ATOM     21  I   UNL     1      35.032 -18.641 -21.679  0.00  0.00    -0.042 I 
ATOM     22  F   UNL     1      35.949 -22.660 -18.219  0.00  0.00    -0.203 F 
ATOM     23  C   UNL     1      33.661 -22.201 -18.657  0.00  0.00    +0.077 C 
ATOM     24  C   UNL     1      35.016 -21.938 -18.855  0.00  0.00    +0.154 C 
ATOM     25  C   UNL     1      32.699 -21.443 -19.324  0.00  0.00    +0.017 C 
ATOM     26  C   UNL     1      35.409 -20.919 -19.721  0.00  0.00    +0.037 C 
ATOM     27  C   UNL     1      33.091 -20.423 -20.190  0.00  0.00    +0.007 C 
ATOM     28  C   UNL     1      34.446 -20.160 -20.389  0.00  0.00    +0.032 C 
ENDBRANCH  19  23
ENDBRANCH   3  19
TORSDOF 7
ENDMDL
MODEL 3
REMARK VINA RESULT:      -8.6      2.711      5.098
REMARK  Name = 42642654
REMARK  7 active torsions:
REMARK  status: ('A' for Active; 'I' for Inactive)
REMARK    1  A    between atoms: C_3  and  N_19
REMARK    2  A    between atoms: C_5  and  C_12
REMARK    3  A    between atoms: N_11  and  O_14
REMARK    4  A    between atoms: O_14  and  C_15
REMARK    5  A    between atoms: C_15  and  C_16
REMARK    6  A    between atoms: C_16  and  O_17
REMARK    7  A    between atoms: N_19  and  C_23
REMARK                            x       y       z     vdW  Elec       q    Type
REMARK                         _______ _______ _______ _____ _____    ______ ____
ROOT
ATOM      1  N   UNL     1      35.348 -23.255 -15.748  0.00  0.00    -0.235 N 
ATOM      2  N   UNL     1      37.511 -23.256 -15.151  0.00  0.00    -0.224 NA
ATOM      3  C   UNL     1      34.144 -23.258 -16.496  0.00  0.00    +0.114 C 
ATOM      4  C   UNL     1      35.396 -23.239 -14.359  0.00  0.00    +0.077 C 
ATOM      5  C   UNL     1      32.987 -23.245 -15.788  0.00  0.00    +0.083 C 
ATOM      6  C   UNL     1      34.175 -23.226 -13.643  0.00  0.00    +0.017 C 
ATOM      7  C   UNL     1      33.018 -23.230 -14.328  0.00  0.00    +0.008 C 
ATOM      8  C   UNL     1      36.665 -23.265 -16.159  0.00  0.00    +0.173 C 
ATOM      9  C   UNL     1      36.729 -23.240 -14.029  0.00  0.00    +0.116 C 
ENDROOT
BRANCH   5  12
ATOM     10  O   UNL     1      31.441 -22.495 -17.391  0.00  0.00    -0.268 OA
ATOM     11  N   UNL     1      30.808 -24.153 -15.898  0.00  0.00    -0.190 N 
ATOM     12  C   UNL     1      31.673 -23.248 -16.450  0.00  0.00    +0.270 C 
ATOM     13  H   UNL     1      31.042 -24.692 -15.107  0.00  0.00    +0.183 HD
BRANCH  11  14
ATOM     14  O   UNL     1      29.559 -24.261 -16.539  0.00  0.00    -0.263 OA
BRANCH  14  15
ATOM     15  C   UNL     1      28.542 -23.959 -15.594  0.00  0.00    +0.203 C 
BRANCH  15  16
ATOM     16  C   UNL     1      27.814 -22.703 -16.034  0.00  0.00    +0.172 C 
BRANCH  16  17
ATOM     17  O   UNL     1      28.584 -22.049 -17.036  0.00  0.00    -0.379 OA
ATOM     18  H   UNL     1      29.075 -22.709 -17.549  0.00  0.00    +0.211 HD
ENDBRANCH  16  17
ENDBRANCH  15  16
ENDBRANCH  14  15
ENDBRANCH  11  14
ENDBRANCH   5  12
BRANCH   3  19
ATOM     19  N   UNL     1      34.251 -23.274 -17.861  0.00  0.00    -0.299 N 
ATOM     20  H   UNL     1      34.242 -24.164 -18.282  0.00  0.00    +0.153 HD
BRANCH  19  23
ATOM     21  I   UNL     1      34.777 -18.403 -21.764  0.00  0.00    -0.042 I 
ATOM     22  F   UNL     1      36.736 -22.229 -18.525  0.00  0.00    -0.203 F 
ATOM     23  C   UNL     1      34.371 -22.188 -18.731  0.00  0.00    +0.077 C 
ATOM     24  C   UNL     1      35.631 -21.682 -19.049  0.00  0.00    +0.154 C 
ATOM     25  C   UNL     1      33.227 -21.610 -19.283  0.00  0.00    +0.017 C 
ATOM     26  C   UNL     1      35.747 -20.597 -19.918  0.00  0.00    +0.037 C 
ATOM     27  C   UNL     1      33.343 -20.525 -20.151  0.00  0.00    +0.007 C 
ATOM     28  C   UNL     1      34.603 -20.018 -20.469  0.00  0.00    +0.032 C 
ENDBRANCH  19  23
ENDBRANCH   3  19
TORSDOF 7
ENDMDL
MODEL 4
REMARK VINA RESULT:      -8.6      8.451     11.489
REMARK  Name = 42642654
REMARK  7 active torsions:
REMARK  status: ('A' for Active; 'I' for Inactive)
REMARK    1  A    between atoms: C_3  and  N_19
REMARK    2  A    between atoms: C_5  and  C_12
REMARK    3  A    between atoms: N_11  and  O_14
REMARK    4  A    between atoms: O_14  and  C_15
REMARK    5  A    between atoms: C_15  and  C_16
REMARK    6  A    between atoms: C_16  and  O_17
REMARK    7  A    between atoms: N_19  and  C_23
REMARK                            x       y       z     vdW  Elec       q    Type
REMARK                         _______ _______ _______ _____ _____    ______ ____
ROOT
ATOM      1  N   UNL     1      35.161 -18.057 -22.240  0.00  0.00    -0.235 N 
ATOM      2  N   UNL     1      35.568 -19.189 -20.345  0.00  0.00    -0.224 NA
ATOM      3  C   UNL     1      34.996 -17.027 -23.198  0.00  0.00    +0.114 C 
ATOM      4  C   UNL     1      34.966 -19.406 -22.512  0.00  0.00    +0.077 C 
ATOM      5  C   UNL     1      34.625 -17.410 -24.447  0.00  0.00    +0.083 C 
ATOM      6  C   UNL     1      34.581 -19.780 -23.821  0.00  0.00    +0.017 C 
ATOM      7  C   UNL     1      34.418 -18.823 -24.751  0.00  0.00    +0.008 C 
ATOM      8  C   UNL     1      35.524 -18.001 -20.910  0.00  0.00    +0.173 C 
ATOM      9  C   UNL     1      35.223 -20.068 -21.335  0.00  0.00    +0.116 C 
ENDROOT
BRANCH   5  12
ATOM     10  O   UNL     1      35.370 -15.813 -26.002  0.00  0.00    -0.268 OA
ATOM     11  N   UNL     1      33.110 -16.330 -25.903  0.00  0.00    -0.190 N 
ATOM     12  C   UNL     1      34.423 -16.435 -25.528  0.00  0.00    +0.270 C 
ATOM     13  H   UNL     1      32.391 -16.822 -25.444  0.00  0.00    +0.183 HD
BRANCH  11  14
ATOM     14  O   UNL     1      32.861 -15.471 -26.990  0.00  0.00    -0.263 OA
BRANCH  14  15
ATOM     15  C   UNL     1      32.413 -14.222 -26.481  0.00  0.00    +0.203 C 
BRANCH  15  16
ATOM     16  C   UNL     1      33.217 -13.109 -27.124  0.00  0.00    +0.172 C 
BRANCH  16  17
ATOM     17  O   UNL     1      34.228 -13.681 -27.944  0.00  0.00    -0.379 OA
ATOM     18  H   UNL     1      33.982 -14.590 -28.174  0.00  0.00    +0.211 HD
ENDBRANCH  16  17
ENDBRANCH  15  16
ENDBRANCH  14  15
ENDBRANCH  11  14
ENDBRANCH   5  12
BRANCH   3  19
ATOM     19  N   UNL     1      35.222 -15.741 -22.787  0.00  0.00    -0.299 N 
ATOM     20  H   UNL     1      36.167 -15.478 -22.697  0.00  0.00    +0.153 HD
BRANCH  19  23
ATOM     21  I   UNL     1      31.010 -11.313 -21.412  0.00  0.00    -0.042 I 
ATOM     22  F   UNL     1      33.922 -15.710 -20.334  0.00  0.00    -0.203 F 
ATOM     23  C   UNL     1      34.282 -14.754 -22.478  0.00  0.00    +0.077 C 
ATOM     24  C   UNL     1      33.643 -14.761 -21.239  0.00  0.00    +0.154 C 
ATOM     25  C   UNL     1      33.985 -13.762 -23.412  0.00  0.00    +0.017 C 
ATOM     26  C   UNL     1      32.706 -13.774 -20.933  0.00  0.00    +0.037 C 
ATOM     27  C   UNL     1      33.046 -12.776 -23.107  0.00  0.00    +0.007 C 
ATOM     28  C   UNL     1      32.407 -12.782 -21.868  0.00  0.00    +0.032 C 
ENDBRANCH  19  23
ENDBRANCH   3  19
TORSDOF 7
ENDMDL
MODEL 5
REMARK VINA RESULT:      -8.2      1.782      2.377
REMARK  Name = 42642654
REMARK  7 active torsions:
REMARK  status: ('A' for Active; 'I' for Inactive)
REMARK    1  A    between atoms: C_3  and  N_19
REMARK    2  A    between atoms: C_5  and  C_12
REMARK    3  A    between atoms: N_11  and  O_14
REMARK    4  A    between atoms: O_14  and  C_15
REMARK    5  A    between atoms: C_15  and  C_16
REMARK    6  A    between atoms: C_16  and  O_17
REMARK    7  A    between atoms: N_19  and  C_23
REMARK                            x       y       z     vdW  Elec       q    Type
REMARK                         _______ _______ _______ _____ _____    ______ ____
ROOT
ATOM      1  N   UNL     1      32.427 -23.098 -16.268  0.00  0.00    -0.235 N 
ATOM      2  N   UNL     1      30.204 -22.917 -16.514  0.00  0.00    -0.224 NA
ATOM      3  C   UNL     1      33.817 -23.220 -16.517  0.00  0.00    +0.114 C 
ATOM      4  C   UNL     1      31.873 -23.025 -14.995  0.00  0.00    +0.077 C 
ATOM      5  C   UNL     1      34.629 -23.265 -15.430  0.00  0.00    +0.083 C 
ATOM      6  C   UNL     1      32.740 -23.074 -13.879  0.00  0.00    +0.017 C 
ATOM      7  C   UNL     1      34.064 -23.189 -14.086  0.00  0.00    +0.008 C 
ATOM      8  C   UNL     1      31.358 -23.026 -17.137  0.00  0.00    +0.173 C 
ATOM      9  C   UNL     1      30.516 -22.916 -15.182  0.00  0.00    +0.116 C 
ENDROOT
BRANCH   5  12
ATOM     10  O   UNL     1      36.769 -22.449 -15.957  0.00  0.00    -0.268 OA
ATOM     11  N   UNL     1      36.545 -24.628 -15.193  0.00  0.00    -0.190 N 
ATOM     12  C   UNL     1      36.089 -23.390 -15.559  0.00  0.00    +0.270 C 
ATOM     13  H   UNL     1      35.937 -25.357 -14.931  0.00  0.00    +0.183 HD
BRANCH  11  14
ATOM     14  O   UNL     1      37.944 -24.785 -15.218  0.00  0.00    -0.263 OA
BRANCH  14  15
ATOM     15  C   UNL     1      38.257 -26.094 -14.763  0.00  0.00    +0.203 C 
BRANCH  15  16
ATOM     16  C   UNL     1      37.029 -26.974 -14.904  0.00  0.00    +0.172 C 
BRANCH  16  17
ATOM     17  O   UNL     1      36.827 -27.270 -16.280  0.00  0.00    -0.379 OA
ATOM     18  H   UNL     1      36.051 -26.788 -16.604  0.00  0.00    +0.211 HD
ENDBRANCH  16  17
ENDBRANCH  15  16
ENDBRANCH  14  15
ENDBRANCH  11  14
ENDBRANCH   5  12
BRANCH   3  19
ATOM     19  N   UNL     1      34.219 -23.281 -17.824  0.00  0.00    -0.299 N 
ATOM     20  H   UNL     1      34.265 -24.182 -18.218  0.00  0.00    +0.153 HD
BRANCH  19  23
ATOM     21  I   UNL     1      35.814 -18.554 -21.613  0.00  0.00    -0.042 I 
ATOM     22  F   UNL     1      32.290 -21.808 -19.171  0.00  0.00    -0.203 F 
ATOM     23  C   UNL     1      34.573 -22.226 -18.670  0.00  0.00    +0.077 C 
ATOM     24  C   UNL     1      33.584 -21.502 -19.335  0.00  0.00    +0.154 C 
ATOM     25  C   UNL     1      35.917 -21.899 -18.847  0.00  0.00    +0.017 C 
ATOM     26  C   UNL     1      33.940 -20.449 -20.178  0.00  0.00    +0.037 C 
ATOM     27  C   UNL     1      36.273 -20.847 -19.691  0.00  0.00    +0.007 C 
ATOM     28  C   UNL     1      35.285 -20.122 -20.357  0.00  0.00    +0.032 C 
ENDBRANCH  19  23
ENDBRANCH   3  19
TORSDOF 7
ENDMDL
MODEL 6
REMARK VINA RESULT:      -8.1      3.265      5.615
REMARK  Name = 42642654
REMARK  7 active torsions:
REMARK  status: ('A' for Active; 'I' for Inactive)
REMARK    1  A    between atoms: C_3  and  N_19
REMARK    2  A    between atoms: C_5  and  C_12
REMARK    3  A    between atoms: N_11  and  O_14
REMARK    4  A    between atoms: O_14  and  C_15
REMARK    5  A    between atoms: C_15  and  C_16
REMARK    6  A    between atoms: C_16  and  O_17
REMARK    7  A    between atoms: N_19  and  C_23
REMARK                            x       y       z     vdW  Elec       q    Type
REMARK                         _______ _______ _______ _____ _____    ______ ____
ROOT
ATOM      1  N   UNL     1      31.967 -23.470 -14.508  0.00  0.00    -0.235 N 
ATOM      2  N   UNL     1      31.014 -23.903 -12.523  0.00  0.00    -0.224 NA
ATOM      3  C   UNL     1      32.873 -23.075 -15.523  0.00  0.00    +0.114 C 
ATOM      4  C   UNL     1      30.701 -23.988 -14.759  0.00  0.00    +0.077 C 
ATOM      5  C   UNL     1      32.454 -23.222 -16.805  0.00  0.00    +0.083 C 
ATOM      6  C   UNL     1      30.288 -24.132 -16.104  0.00  0.00    +0.017 C 
ATOM      7  C   UNL     1      31.128 -23.766 -17.088  0.00  0.00    +0.008 C 
ATOM      8  C   UNL     1      32.087 -23.448 -13.133  0.00  0.00    +0.173 C 
ATOM      9  C   UNL     1      30.148 -24.241 -13.527  0.00  0.00    +0.116 C 
ENDROOT
BRANCH   5  12
ATOM     10  O   UNL     1      34.418 -23.343 -18.090  0.00  0.00    -0.268 OA
ATOM     11  N   UNL     1      32.707 -21.930 -18.768  0.00  0.00    -0.190 N 
ATOM     12  C   UNL     1      33.303 -22.848 -17.946  0.00  0.00    +0.270 C 
ATOM     13  H   UNL     1      31.828 -21.534 -18.564  0.00  0.00    +0.183 HD
BRANCH  11  14
ATOM     14  O   UNL     1      33.437 -21.591 -19.922  0.00  0.00    -0.263 OA
BRANCH  14  15
ATOM     15  C   UNL     1      33.073 -20.275 -20.313  0.00  0.00    +0.203 C 
BRANCH  15  16
ATOM     16  C   UNL     1      34.266 -19.604 -20.966  0.00  0.00    +0.172 C 
BRANCH  16  17
ATOM     17  O   UNL     1      35.436 -19.905 -20.214  0.00  0.00    -0.379 OA
ATOM     18  H   UNL     1      35.388 -20.820 -19.894  0.00  0.00    +0.211 HD
ENDBRANCH  16  17
ENDBRANCH  15  16
ENDBRANCH  14  15
ENDBRANCH  11  14
ENDBRANCH   5  12
BRANCH   3  19
ATOM     19  N   UNL     1      34.087 -22.581 -15.126  0.00  0.00    -0.299 N 
ATOM     20  H   UNL     1      34.113 -21.619 -14.920  0.00  0.00    +0.153 HD
BRANCH  19  23
ATOM     21  I   UNL     1      39.489 -25.678 -14.449  0.00  0.00    -0.042 I 
ATOM     22  F   UNL     1      36.456 -21.579 -16.171  0.00  0.00    -0.203 F 
ATOM     23  C   UNL     1      35.293 -23.270 -14.976  0.00  0.00    +0.077 C 
ATOM     24  C   UNL     1      36.469 -22.745 -15.511  0.00  0.00    +0.154 C 
ATOM     25  C   UNL     1      35.319 -24.485 -14.291  0.00  0.00    +0.017 C 
ATOM     26  C   UNL     1      37.672 -23.435 -15.359  0.00  0.00    +0.037 C 
ATOM     27  C   UNL     1      36.521 -25.175 -14.140  0.00  0.00    +0.007 C 
ATOM     28  C   UNL     1      37.698 -24.651 -14.674  0.00  0.00    +0.032 C 
ENDBRANCH  19  23
ENDBRANCH   3  19
TORSDOF 7
ENDMDL
MODEL 7
REMARK VINA RESULT:      -8.0      2.671      5.695
REMARK  Name = 42642654
REMARK  7 active torsions:
REMARK  status: ('A' for Active; 'I' for Inactive)
REMARK    1  A    between atoms: C_3  and  N_19
REMARK    2  A    between atoms: C_5  and  C_12
REMARK    3  A    between atoms: N_11  and  O_14
REMARK    4  A    between atoms: O_14  and  C_15
REMARK    5  A    between atoms: C_15  and  C_16
REMARK    6  A    between atoms: C_16  and  O_17
REMARK    7  A    between atoms: N_19  and  C_23
REMARK                            x       y       z     vdW  Elec       q    Type
REMARK                         _______ _______ _______ _____ _____    ______ ____
ROOT
ATOM      1  N   UNL     1      38.511 -24.604 -14.265  0.00  0.00    -0.235 N 
ATOM      2  N   UNL     1      40.526 -24.920 -15.201  0.00  0.00    -0.224 NA
ATOM      3  C   UNL     1      37.254 -24.065 -13.895  0.00  0.00    +0.114 C 
ATOM      4  C   UNL     1      39.008 -25.810 -13.784  0.00  0.00    +0.077 C 
ATOM      5  C   UNL     1      36.513 -24.791 -13.019  0.00  0.00    +0.083 C 
ATOM      6  C   UNL     1      38.217 -26.548 -12.873  0.00  0.00    +0.017 C 
ATOM      7  C   UNL     1      37.018 -26.061 -12.506  0.00  0.00    +0.008 C 
ATOM      8  C   UNL     1      39.483 -24.121 -15.117  0.00  0.00    +0.173 C 
ATOM      9  C   UNL     1      40.237 -25.971 -14.375  0.00  0.00    +0.116 C 
ENDROOT
BRANCH   5  12
ATOM     10  O   UNL     1      35.086 -23.541 -11.632  0.00  0.00    -0.268 OA
ATOM     11  N   UNL     1      34.166 -24.897 -13.274  0.00  0.00    -0.190 N 
ATOM     12  C   UNL     1      35.192 -24.338 -12.560  0.00  0.00    +0.270 C 
ATOM     13  H   UNL     1      34.320 -25.572 -13.975  0.00  0.00    +0.183 HD
BRANCH  11  14
ATOM     14  O   UNL     1      32.878 -24.442 -12.935  0.00  0.00    -0.263 OA
BRANCH  14  15
ATOM     15  C   UNL     1      31.977 -24.841 -13.958  0.00  0.00    +0.203 C 
BRANCH  15  16
ATOM     16  C   UNL     1      31.343 -23.607 -14.570  0.00  0.00    +0.172 C 
BRANCH  16  17
ATOM     17  O   UNL     1      32.034 -22.453 -14.105  0.00  0.00    -0.379 OA
ATOM     18  H   UNL     1      32.775 -22.259 -14.700  0.00  0.00    +0.211 HD
ENDBRANCH  16  17
ENDBRANCH  15  16
ENDBRANCH  14  15
ENDBRANCH  11  14
ENDBRANCH   5  12
BRANCH   3  19
ATOM     19  N   UNL     1      36.895 -22.865 -14.448  0.00  0.00    -0.299 N 
ATOM     20  H   UNL     1      37.115 -22.064 -13.919  0.00  0.00    +0.153 HD
BRANCH  19  23
ATOM     21  I   UNL     1      34.028 -21.830 -19.921  0.00  0.00    -0.042 I 
ATOM     22  F   UNL     1      38.122 -21.390 -16.455  0.00  0.00    -0.203 F 
ATOM     23  C   UNL     1      36.258 -22.633 -15.670  0.00  0.00    +0.077 C 
ATOM     24  C   UNL     1      36.896 -21.889 -16.662  0.00  0.00    +0.154 C 
ATOM     25  C   UNL     1      34.981 -23.147 -15.896  0.00  0.00    +0.017 C 
ATOM     26  C   UNL     1      36.257 -21.659 -17.880  0.00  0.00    +0.037 C 
ATOM     27  C   UNL     1      34.342 -22.917 -17.114  0.00  0.00    +0.007 C 
ATOM     28  C   UNL     1      34.979 -22.173 -18.106  0.00  0.00    +0.032 C 
ENDBRANCH  19  23
ENDBRANCH   3  19
TORSDOF 7
ENDMDL
MODEL 8
REMARK VINA RESULT:      -8.0     14.348     16.552
REMARK  Name = 42642654
REMARK  7 active torsions:
REMARK  status: ('A' for Active; 'I' for Inactive)
REMARK    1  A    between atoms: C_3  and  N_19
REMARK    2  A    between atoms: C_5  and  C_12
REMARK    3  A    between atoms: N_11  and  O_14
REMARK    4  A    between atoms: O_14  and  C_15
REMARK    5  A    between atoms: C_15  and  C_16
REMARK    6  A    between atoms: C_16  and  O_17
REMARK    7  A    between atoms: N_19  and  C_23
REMARK                            x       y       z     vdW  Elec       q    Type
REMARK                         _______ _______ _______ _____ _____    ______ ____
ROOT
ATOM      1  N   UNL     1      32.365  -5.977 -23.664  0.00  0.00    -0.235 N 
ATOM      2  N   UNL     1      32.165  -4.980 -25.665  0.00  0.00    -0.224 NA
ATOM      3  C   UNL     1      32.791  -6.799 -22.592  0.00  0.00    +0.114 C 
ATOM      4  C   UNL     1      31.315  -5.070 -23.574  0.00  0.00    +0.077 C 
ATOM      5  C   UNL     1      32.117  -6.672 -21.421  0.00  0.00    +0.083 C 
ATOM      6  C   UNL     1      30.628  -4.956 -22.342  0.00  0.00    +0.017 C 
ATOM      7  C   UNL     1      31.013  -5.724 -21.307  0.00  0.00    +0.008 C 
ATOM      8  C   UNL     1      32.831  -5.868 -24.958  0.00  0.00    +0.173 C 
ATOM      9  C   UNL     1      31.220  -4.480 -24.811  0.00  0.00    +0.116 C 
ENDROOT
BRANCH   5  12
ATOM     10  O   UNL     1      33.179  -7.006 -19.351  0.00  0.00    -0.268 OA
ATOM     11  N   UNL     1      31.915  -8.723 -20.264  0.00  0.00    -0.190 N 
ATOM     12  C   UNL     1      32.466  -7.470 -20.236  0.00  0.00    +0.270 C 
ATOM     13  H   UNL     1      31.393  -9.051 -21.033  0.00  0.00    +0.183 HD
BRANCH  11  14
ATOM     14  O   UNL     1      32.146  -9.509 -19.120  0.00  0.00    -0.263 OA
BRANCH  14  15
ATOM     15  C   UNL     1      31.229 -10.594 -19.127  0.00  0.00    +0.203 C 
BRANCH  15  16
ATOM     16  C   UNL     1      31.511 -11.473 -20.330  0.00  0.00    +0.172 C 
BRANCH  16  17
ATOM     17  O   UNL     1      30.389 -11.436 -21.204  0.00  0.00    -0.379 OA
ATOM     18  H   UNL     1      29.712 -12.055 -20.887  0.00  0.00    +0.211 HD
ENDBRANCH  16  17
ENDBRANCH  15  16
ENDBRANCH  14  15
ENDBRANCH  11  14
ENDBRANCH   5  12
BRANCH   3  19
ATOM     19  N   UNL     1      33.840  -7.647 -22.828  0.00  0.00    -0.299 N 
ATOM     20  H   UNL     1      34.696  -7.400 -22.408  0.00  0.00    +0.153 HD
BRANCH  19  23
ATOM     21  I   UNL     1      33.896 -12.899 -26.242  0.00  0.00    -0.042 I 
ATOM     22  F   UNL     1      31.611  -9.296 -22.961  0.00  0.00    -0.203 F 
ATOM     23  C   UNL     1      33.851  -8.819 -23.589  0.00  0.00    +0.077 C 
ATOM     24  C   UNL     1      32.717  -9.630 -23.639  0.00  0.00    +0.154 C 
ATOM     25  C   UNL     1      34.997  -9.177 -24.299  0.00  0.00    +0.017 C 
ATOM     26  C   UNL     1      32.730 -10.799 -24.400  0.00  0.00    +0.037 C 
ATOM     27  C   UNL     1      35.010 -10.346 -25.059  0.00  0.00    +0.007 C 
ATOM     28  C   UNL     1      33.877 -11.157 -25.109  0.00  0.00    +0.032 C 
ENDBRANCH  19  23
ENDBRANCH   3  19
TORSDOF 7
ENDMDL
MODEL 9
REMARK VINA RESULT:      -8.0      7.793     10.655
REMARK  Name = 42642654
REMARK  7 active torsions:
REMARK  status: ('A' for Active; 'I' for Inactive)
REMARK    1  A    between atoms: C_3  and  N_19
REMARK    2  A    between atoms: C_5  and  C_12
REMARK    3  A    between atoms: N_11  and  O_14
REMARK    4  A    between atoms: O_14  and  C_15
REMARK    5  A    between atoms: C_15  and  C_16
REMARK    6  A    between atoms: C_16  and  O_17
REMARK    7  A    between atoms: N_19  and  C_23
REMARK                            x       y       z     vdW  Elec       q    Type
REMARK                         _______ _______ _______ _____ _____    ______ ____
ROOT
ATOM      1  N   UNL     1      34.333 -16.421 -23.972  0.00  0.00    -0.235 N 
ATOM      2  N   UNL     1      34.723 -17.611 -25.835  0.00  0.00    -0.224 NA
ATOM      3  C   UNL     1      34.322 -15.957 -22.634  0.00  0.00    +0.114 C 
ATOM      4  C   UNL     1      33.658 -15.796 -25.014  0.00  0.00    +0.077 C 
ATOM      5  C   UNL     1      33.603 -14.834 -22.384  0.00  0.00    +0.083 C 
ATOM      6  C   UNL     1      32.915 -14.626 -24.728  0.00  0.00    +0.017 C 
ATOM      7  C   UNL     1      32.889 -14.162 -23.466  0.00  0.00    +0.008 C 
ATOM      8  C   UNL     1      34.955 -17.513 -24.544  0.00  0.00    +0.173 C 
ATOM      9  C   UNL     1      33.917 -16.547 -26.135  0.00  0.00    +0.116 C 
ENDROOT
BRANCH   5  12
ATOM     10  O   UNL     1      34.364 -14.506 -20.185  0.00  0.00    -0.268 OA
ATOM     11  N   UNL     1      32.422 -13.445 -20.881  0.00  0.00    -0.190 N 
ATOM     12  C   UNL     1      33.516 -14.254 -21.035  0.00  0.00    +0.270 C 
ATOM     13  H   UNL     1      31.750 -13.327 -21.591  0.00  0.00    +0.183 HD
BRANCH  11  14
ATOM     14  O   UNL     1      32.324 -12.796 -19.635  0.00  0.00    -0.263 OA
BRANCH  14  15
ATOM     15  C   UNL     1      31.565 -11.607 -19.807  0.00  0.00    +0.203 C 
BRANCH  15  16
ATOM     16  C   UNL     1      31.645 -11.174 -21.258  0.00  0.00    +0.172 C 
BRANCH  16  17
ATOM     17  O   UNL     1      30.438 -11.538 -21.917  0.00  0.00    -0.379 OA
ATOM     18  H   UNL     1      29.681 -11.312 -21.354  0.00  0.00    +0.211 HD
ENDBRANCH  16  17
ENDBRANCH  15  16
ENDBRANCH  14  15
ENDBRANCH  11  14
ENDBRANCH   5  12
BRANCH   3  19
ATOM     19  N   UNL     1      35.034 -16.677 -21.712  0.00  0.00    -0.299 N 
ATOM     20  H   UNL     1      35.840 -16.239 -21.354  0.00  0.00    +0.153 HD
BRANCH  19  23
ATOM     21  I   UNL     1      33.801 -22.399 -19.482  0.00  0.00    -0.042 I 
ATOM     22  F   UNL     1      37.065 -18.525 -21.300  0.00  0.00    -0.203 F 
ATOM     23  C   UNL     1      34.761 -17.954 -21.215  0.00  0.00    +0.077 C 
ATOM     24  C   UNL     1      35.800 -18.864 -21.017  0.00  0.00    +0.154 C 
ATOM     25  C   UNL     1      33.449 -18.317 -20.916  0.00  0.00    +0.017 C 
ATOM     26  C   UNL     1      35.524 -20.138 -20.520  0.00  0.00    +0.037 C 
ATOM     27  C   UNL     1      33.173 -19.592 -20.420  0.00  0.00    +0.007 C 
ATOM     28  C   UNL     1      34.210 -20.502 -20.222  0.00  0.00    +0.032 C 
ENDBRANCH  19  23
ENDBRANCH   3  19
TORSDOF 7
ENDMDL
