MODEL 1
REMARK VINA RESULT:     -10.4      0.000      0.000
REMARK  Name = 77846445
REMARK  5 active torsions:
REMARK  status: ('A' for Active; 'I' for Inactive)
REMARK    1  A    between atoms: N_2  and  N_20
REMARK    2  A    between atoms: C_3  and  C_9
REMARK    3  A    between atoms: N_7  and  O_14
REMARK    4  A    between atoms: O_14  and  S_15
REMARK    5  A    between atoms: C_21  and  C_24
REMARK                            x       y       z     vdW  Elec       q    Type
REMARK                         _______ _______ _______ _____ _____    ______ ____
ROOT
ATOM      1  O   UNL     1      33.820 -23.044 -14.686  0.00  0.00    -0.272 OA
ATOM      2  N   UNL     1      32.912 -24.965 -13.744  0.00  0.00    -0.233 N 
ATOM      3  C   UNL     1      33.908 -24.034 -13.964  0.00  0.00    +0.256 C 
ATOM      4  H   UNL     1      33.069 -25.732 -13.146  0.00  0.00    +0.173 HD
ENDROOT
BRANCH   3   9
ATOM      5  O   UNL     1      36.931 -26.470 -11.880  0.00  0.00    -0.250 OA
ATOM      6  N   UNL     1      35.751 -25.588 -13.793  0.00  0.00    -0.254 N 
ATOM      7  N   UNL     1      38.004 -25.632 -13.815  0.00  0.00    -0.126 N 
ATOM      8  C   UNL     1      37.552 -24.799 -14.920  0.00  0.00    +0.127 C 
ATOM      9  C   UNL     1      35.174 -24.370 -13.237  0.00  0.00    +0.155 C 
ATOM     10  C   UNL     1      36.216 -25.475 -15.175  0.00  0.00    +0.118 C 
ATOM     11  C   UNL     1      37.243 -23.345 -14.477  0.00  0.00    +0.026 C 
ATOM     12  C   UNL     1      36.220 -23.228 -13.308  0.00  0.00    +0.031 C 
ATOM     13  C   UNL     1      36.917 -26.037 -13.023  0.00  0.00    +0.332 C 
BRANCH   7  14
ATOM     14  O   UNL     1      39.271 -25.423 -13.292  0.00  0.00    -0.094 OA
BRANCH  14  15
ATOM     15  S   UNL     1      40.458 -25.714 -14.390  0.00  0.00    +0.258 S 
ATOM     16  O   UNL     1      41.433 -26.774 -13.625  0.00  0.00    -0.114 OA
ATOM     17  O   UNL     1      41.209 -24.487 -14.581  0.00  0.00    -0.020 OA
ATOM     18  O   UNL     1      39.866 -26.402 -15.522  0.00  0.00    -0.114 OA
ENDBRANCH  14  15
ENDBRANCH   7  14
ENDBRANCH   3   9
BRANCH   2  20
ATOM     19  O   UNL     1      30.815 -23.519 -12.649  0.00  0.00    -0.274 OA
ATOM     20  N   UNL     1      31.702 -24.805 -14.370  0.00  0.00    -0.234 N 
ATOM     21  C   UNL     1      30.717 -24.067 -13.745  0.00  0.00    +0.235 C 
ATOM     22  H   UNL     1      31.539 -25.210 -15.252  0.00  0.00    +0.173 HD
BRANCH  21  24
ATOM     23  N   UNL     1      28.053 -22.334 -15.792  0.00  0.00    +0.384 N 
ATOM     24  C   UNL     1      29.473 -23.961 -14.572  0.00  0.00    +0.057 C 
ATOM     25  C   UNL     1      29.613 -24.812 -15.835  0.00  0.00    +0.005 C 
ATOM     26  C   UNL     1      29.222 -22.492 -14.923  0.00  0.00    -0.072 C 
ATOM     27  C   UNL     1      28.430 -24.579 -16.771  0.00  0.00    -0.023 C 
ATOM     28  C   UNL     1      28.219 -23.089 -17.035  0.00  0.00    -0.082 C 
ATOM     29  H   UNL     1      27.934 -21.346 -16.014  0.00  0.00    -0.085 HD
ATOM     30  H   UNL     1      27.232 -22.690 -15.302  0.00  0.00    -0.085 HD
ENDBRANCH  21  24
ENDBRANCH   2  20
TORSDOF 5
ENDMDL
MODEL 2
REMARK VINA RESULT:      -9.3     10.494     11.849
REMARK  Name = 77846445
REMARK  5 active torsions:
REMARK  status: ('A' for Active; 'I' for Inactive)
REMARK    1  A    between atoms: N_2  and  N_20
REMARK    2  A    between atoms: C_3  and  C_9
REMARK    3  A    between atoms: N_7  and  O_14
REMARK    4  A    between atoms: O_14  and  S_15
REMARK    5  A    between atoms: C_21  and  C_24
REMARK                            x       y       z     vdW  Elec       q    Type
REMARK                         _______ _______ _______ _____ _____    ______ ____
ROOT
ATOM      1  O   UNL     1      34.763 -16.423 -24.471  0.00  0.00    -0.272 OA
ATOM      2  N   UNL     1      34.850 -15.469 -22.354  0.00  0.00    -0.233 N 
ATOM      3  C   UNL     1      35.057 -16.472 -23.280  0.00  0.00    +0.256 C 
ATOM      4  H   UNL     1      35.118 -15.593 -21.415  0.00  0.00    +0.173 HD
ENDROOT
BRANCH   3   9
ATOM      5  O   UNL     1      37.048 -19.015 -20.282  0.00  0.00    -0.250 OA
ATOM      6  N   UNL     1      35.193 -17.850 -21.299  0.00  0.00    -0.254 N 
ATOM      7  N   UNL     1      34.920 -19.986 -20.637  0.00  0.00    -0.126 N 
ATOM      8  C   UNL     1      33.786 -19.617 -21.471  0.00  0.00    +0.127 C 
ATOM      9  C   UNL     1      35.668 -17.696 -22.668  0.00  0.00    +0.155 C 
ATOM     10  C   UNL     1      33.763 -18.129 -21.169  0.00  0.00    +0.118 C 
ATOM     11  C   UNL     1      34.091 -19.765 -22.985  0.00  0.00    +0.026 C 
ATOM     12  C   UNL     1      35.349 -18.983 -23.470  0.00  0.00    +0.031 C 
ATOM     13  C   UNL     1      35.872 -18.954 -20.610  0.00  0.00    +0.332 C 
BRANCH   7  14
ATOM     14  O   UNL     1      35.268 -21.324 -20.531  0.00  0.00    -0.094 OA
BRANCH  14  15
ATOM     15  S   UNL     1      34.495 -22.077 -19.291  0.00  0.00    +0.258 S 
ATOM     16  O   UNL     1      34.230 -23.580 -19.865  0.00  0.00    -0.114 OA
ATOM     17  O   UNL     1      33.203 -21.442 -19.111  0.00  0.00    -0.020 OA
ATOM     18  O   UNL     1      35.425 -22.189 -18.182  0.00  0.00    -0.114 OA
ENDBRANCH  14  15
ENDBRANCH   7  14
ENDBRANCH   3   9
BRANCH   2  20
ATOM     19  O   UNL     1      32.189 -14.851 -21.883  0.00  0.00    -0.274 OA
ATOM     20  N   UNL     1      34.267 -14.297 -22.764  0.00  0.00    -0.234 N 
ATOM     21  C   UNL     1      32.934 -14.078 -22.482  0.00  0.00    +0.235 C 
ATOM     22  H   UNL     1      34.792 -13.621 -23.250  0.00  0.00    +0.173 HD
BRANCH  21  24
ATOM     23  N   UNL     1      31.432 -10.621 -22.195  0.00  0.00    +0.384 N 
ATOM     24  C   UNL     1      32.461 -12.743 -22.966  0.00  0.00    +0.057 C 
ATOM     25  C   UNL     1      33.625 -11.971 -23.590  0.00  0.00    +0.005 C 
ATOM     26  C   UNL     1      31.851 -11.967 -21.795  0.00  0.00    -0.072 C 
ATOM     27  C   UNL     1      33.202 -10.545 -23.929  0.00  0.00    -0.023 C 
ATOM     28  C   UNL     1      32.564  -9.856 -22.723  0.00  0.00    -0.082 C 
ATOM     29  H   UNL     1      31.050 -10.135 -21.384  0.00  0.00    -0.085 HD
ATOM     30  H   UNL     1      30.726 -10.703 -22.927  0.00  0.00    -0.085 HD
ENDBRANCH  21  24
ENDBRANCH   2  20
TORSDOF 5
ENDMDL
MODEL 3
REMARK VINA RESULT:      -9.2      5.314      6.582
REMARK  Name = 77846445
REMARK  5 active torsions:
REMARK  status: ('A' for Active; 'I' for Inactive)
REMARK    1  A    between atoms: N_2  and  N_20
REMARK    2  A    between atoms: C_3  and  C_9
REMARK    3  A    between atoms: N_7  and  O_14
REMARK    4  A    between atoms: O_14  and  S_15
REMARK    5  A    between atoms: C_21  and  C_24
REMARK                            x       y       z     vdW  Elec       q    Type
REMARK                         _______ _______ _______ _____ _____    ______ ____
ROOT
ATOM      1  O   UNL     1      32.375 -22.417 -18.056  0.00  0.00    -0.272 OA
ATOM      2  N   UNL     1      34.591 -22.760 -18.665  0.00  0.00    -0.233 N 
ATOM      3  C   UNL     1      33.460 -22.972 -17.903  0.00  0.00    +0.256 C 
ATOM      4  H   UNL     1      35.423 -23.252 -18.472  0.00  0.00    +0.173 HD
ENDROOT
BRANCH   3   9
ATOM      5  O   UNL     1      35.579 -25.900 -15.382  0.00  0.00    -0.250 OA
ATOM      6  N   UNL     1      34.977 -23.697 -16.167  0.00  0.00    -0.254 N 
ATOM      7  N   UNL     1      35.030 -24.098 -13.950  0.00  0.00    -0.126 N 
ATOM      8  C   UNL     1      34.362 -22.823 -14.169  0.00  0.00    +0.127 C 
ATOM      9  C   UNL     1      33.692 -23.961 -16.800  0.00  0.00    +0.155 C 
ATOM     10  C   UNL     1      35.065 -22.423 -15.455  0.00  0.00    +0.118 C 
ATOM     11  C   UNL     1      32.859 -22.992 -14.512  0.00  0.00    +0.026 C 
ATOM     12  C   UNL     1      32.574 -23.925 -15.727  0.00  0.00    +0.031 C 
ATOM     13  C   UNL     1      35.314 -24.725 -15.174  0.00  0.00    +0.332 C 
BRANCH   7  14
ATOM     14  O   UNL     1      34.751 -24.812 -12.795  0.00  0.00    -0.094 OA
BRANCH  14  15
ATOM     15  S   UNL     1      35.998 -24.783 -11.725  0.00  0.00    +0.258 S 
ATOM     16  O   UNL     1      35.269 -25.015 -10.285  0.00  0.00    -0.114 OA
ATOM     17  O   UNL     1      36.562 -23.446 -11.721  0.00  0.00    -0.020 OA
ATOM     18  O   UNL     1      36.838 -25.939 -11.981  0.00  0.00    -0.114 OA
ENDBRANCH  14  15
ENDBRANCH   7  14
ENDBRANCH   3   9
BRANCH   2  20
ATOM     19  O   UNL     1      36.538 -20.834 -19.094  0.00  0.00    -0.274 OA
ATOM     20  N   UNL     1      34.539 -21.856 -19.695  0.00  0.00    -0.234 N 
ATOM     21  C   UNL     1      35.557 -20.933 -19.828  0.00  0.00    +0.235 C 
ATOM     22  H   UNL     1      33.787 -21.865 -20.331  0.00  0.00    +0.173 HD
BRANCH  21  24
ATOM     23  N   UNL     1      33.770 -18.449 -22.047  0.00  0.00    +0.384 N 
ATOM     24  C   UNL     1      35.367 -20.043 -21.016  0.00  0.00    +0.057 C 
ATOM     25  C   UNL     1      36.474 -18.988 -21.061  0.00  0.00    +0.005 C 
ATOM     26  C   UNL     1      33.985 -19.387 -20.943  0.00  0.00    -0.072 C 
ATOM     27  C   UNL     1      36.198 -17.968 -22.162  0.00  0.00    -0.023 C 
ATOM     28  C   UNL     1      34.787 -17.395 -22.044  0.00  0.00    -0.082 C 
ATOM     29  H   UNL     1      32.848 -18.024 -21.949  0.00  0.00    -0.085 HD
ATOM     30  H   UNL     1      33.835 -18.961 -22.927  0.00  0.00    -0.085 HD
ENDBRANCH  21  24
ENDBRANCH   2  20
TORSDOF 5
ENDMDL
MODEL 4
REMARK VINA RESULT:      -9.2     16.155     18.640
REMARK  Name = 77846445
REMARK  5 active torsions:
REMARK  status: ('A' for Active; 'I' for Inactive)
REMARK    1  A    between atoms: N_2  and  N_20
REMARK    2  A    between atoms: C_3  and  C_9
REMARK    3  A    between atoms: N_7  and  O_14
REMARK    4  A    between atoms: O_14  and  S_15
REMARK    5  A    between atoms: C_21  and  C_24
REMARK                            x       y       z     vdW  Elec       q    Type
REMARK                         _______ _______ _______ _____ _____    ______ ____
ROOT
ATOM      1  O   UNL     1      31.993 -11.340 -22.143  0.00  0.00    -0.272 OA
ATOM      2  N   UNL     1      33.644 -11.755 -23.724  0.00  0.00    -0.233 N 
ATOM      3  C   UNL     1      32.685 -10.988 -23.095  0.00  0.00    +0.256 C 
ATOM      4  H   UNL     1      34.156 -11.392 -24.484  0.00  0.00    +0.173 HD
ENDROOT
BRANCH   3   9
ATOM      5  O   UNL     1      30.690  -7.417 -24.733  0.00  0.00    -0.250 OA
ATOM      6  N   UNL     1      31.533  -8.865 -22.995  0.00  0.00    -0.254 N 
ATOM      7  N   UNL     1      31.955  -6.655 -22.885  0.00  0.00    -0.126 N 
ATOM      8  C   UNL     1      32.804  -7.331 -21.916  0.00  0.00    +0.127 C 
ATOM      9  C   UNL     1      32.531  -9.637 -23.725  0.00  0.00    +0.155 C 
ATOM     10  C   UNL     1      31.905  -8.519 -21.623  0.00  0.00    +0.118 C 
ATOM     11  C   UNL     1      34.101  -7.895 -22.555  0.00  0.00    +0.026 C 
ATOM     12  C   UNL     1      33.863  -8.846 -23.766  0.00  0.00    +0.031 C 
ATOM     13  C   UNL     1      31.244  -7.587 -23.657  0.00  0.00    +0.332 C 
BRANCH   7  14
ATOM     14  O   UNL     1      32.355  -5.424 -23.385  0.00  0.00    -0.094 OA
BRANCH  14  15
ATOM     15  S   UNL     1      31.213  -4.262 -23.176  0.00  0.00    +0.258 S 
ATOM     16  O   UNL     1      30.433  -4.232 -24.607  0.00  0.00    -0.114 OA
ATOM     17  O   UNL     1      31.888  -2.987 -23.016  0.00  0.00    -0.020 OA
ATOM     18  O   UNL     1      30.272  -4.730 -22.175  0.00  0.00    -0.114 OA
ENDBRANCH  14  15
ENDBRANCH   7  14
ENDBRANCH   3   9
BRANCH   2  20
ATOM     19  O   UNL     1      32.723 -14.016 -25.036  0.00  0.00    -0.274 OA
ATOM     20  N   UNL     1      33.876 -13.031 -23.275  0.00  0.00    -0.234 N 
ATOM     21  C   UNL     1      33.375 -14.095 -23.998  0.00  0.00    +0.235 C 
ATOM     22  H   UNL     1      34.391 -13.185 -22.451  0.00  0.00    +0.173 HD
BRANCH  21  24
ATOM     23  N   UNL     1      35.144 -17.428 -23.764  0.00  0.00    +0.384 N 
ATOM     24  C   UNL     1      33.741 -15.416 -23.394  0.00  0.00    +0.057 C 
ATOM     25  C   UNL     1      34.380 -15.202 -22.021  0.00  0.00    +0.005 C 
ATOM     26  C   UNL     1      34.695 -16.156 -24.336  0.00  0.00    -0.072 C 
ATOM     27  C   UNL     1      34.917 -16.520 -21.470  0.00  0.00    -0.023 C 
ATOM     28  C   UNL     1      35.823 -17.216 -22.484  0.00  0.00    -0.082 C 
ATOM     29  H   UNL     1      35.789 -17.877 -24.414  0.00  0.00    -0.085 HD
ATOM     30  H   UNL     1      34.328 -18.020 -23.606  0.00  0.00    -0.085 HD
ENDBRANCH  21  24
ENDBRANCH   2  20
TORSDOF 5
ENDMDL
MODEL 5
REMARK VINA RESULT:      -9.1     17.117     19.613
REMARK  Name = 77846445
REMARK  5 active torsions:
REMARK  status: ('A' for Active; 'I' for Inactive)
REMARK    1  A    between atoms: N_2  and  N_20
REMARK    2  A    between atoms: C_3  and  C_9
REMARK    3  A    between atoms: N_7  and  O_14
REMARK    4  A    between atoms: O_14  and  S_15
REMARK    5  A    between atoms: C_21  and  C_24
REMARK                            x       y       z     vdW  Elec       q    Type
REMARK                         _______ _______ _______ _____ _____    ______ ____
ROOT
ATOM      1  O   UNL     1      34.451  -9.212 -23.575  0.00  0.00    -0.272 OA
ATOM      2  N   UNL     1      32.708 -10.717 -23.258  0.00  0.00    -0.233 N 
ATOM      3  C   UNL     1      33.309  -9.475 -23.206  0.00  0.00    +0.256 C 
ATOM      4  H   UNL     1      31.784 -10.838 -22.940  0.00  0.00    +0.173 HD
ENDROOT
BRANCH   3   9
ATOM      5  O   UNL     1      32.079  -6.054 -20.716  0.00  0.00    -0.250 OA
ATOM      6  N   UNL     1      33.086  -7.140 -22.623  0.00  0.00    -0.254 N 
ATOM      7  N   UNL     1      31.717  -5.382 -22.955  0.00  0.00    -0.126 N 
ATOM      8  C   UNL     1      31.945  -6.032 -24.237  0.00  0.00    +0.127 C 
ATOM      9  C   UNL     1      32.416  -8.434 -22.601  0.00  0.00    +0.155 C 
ATOM     10  C   UNL     1      33.328  -6.593 -23.957  0.00  0.00    +0.118 C 
ATOM     11  C   UNL     1      31.004  -7.245 -24.462  0.00  0.00    +0.026 C 
ATOM     12  C   UNL     1      31.056  -8.321 -23.336  0.00  0.00    +0.031 C 
ATOM     13  C   UNL     1      32.309  -6.115 -21.914  0.00  0.00    +0.332 C 
BRANCH   7  14
ATOM     14  O   UNL     1      30.560  -4.637 -22.776  0.00  0.00    -0.094 OA
BRANCH  14  15
ATOM     15  S   UNL     1      30.717  -3.096 -23.324  0.00  0.00    +0.258 S 
ATOM     16  O   UNL     1      29.687  -2.251 -22.384  0.00  0.00    -0.114 OA
ATOM     17  O   UNL     1      30.214  -3.044 -24.684  0.00  0.00    -0.020 OA
ATOM     18  O   UNL     1      32.061  -2.643 -23.016  0.00  0.00    -0.114 OA
ENDBRANCH  14  15
ENDBRANCH   7  14
ENDBRANCH   3   9
BRANCH   2  20
ATOM     19  O   UNL     1      32.389 -13.319 -22.356  0.00  0.00    -0.274 OA
ATOM     20  N   UNL     1      33.418 -11.778 -23.760  0.00  0.00    -0.234 N 
ATOM     21  C   UNL     1      33.189 -13.039 -23.246  0.00  0.00    +0.235 C 
ATOM     22  H   UNL     1      34.079 -11.644 -24.476  0.00  0.00    +0.173 HD
BRANCH  21  24
ATOM     23  N   UNL     1      35.300 -16.166 -23.485  0.00  0.00    +0.384 N 
ATOM     24  C   UNL     1      34.017 -14.088 -23.921  0.00  0.00    +0.057 C 
ATOM     25  C   UNL     1      33.185 -14.805 -24.985  0.00  0.00    +0.005 C 
ATOM     26  C   UNL     1      34.538 -15.075 -22.872  0.00  0.00    -0.072 C 
ATOM     27  C   UNL     1      33.956 -15.989 -25.560  0.00  0.00    -0.023 C 
ATOM     28  C   UNL     1      34.478 -16.900 -24.450  0.00  0.00    -0.082 C 
ATOM     29  H   UNL     1      35.611 -16.807 -22.755  0.00  0.00    -0.085 HD
ATOM     30  H   UNL     1      36.101 -15.768 -23.976  0.00  0.00    -0.085 HD
ENDBRANCH  21  24
ENDBRANCH   2  20
TORSDOF 5
ENDMDL
MODEL 6
REMARK VINA RESULT:      -9.1     13.050     14.760
REMARK  Name = 77846445
REMARK  5 active torsions:
REMARK  status: ('A' for Active; 'I' for Inactive)
REMARK    1  A    between atoms: N_2  and  N_20
REMARK    2  A    between atoms: C_3  and  C_9
REMARK    3  A    between atoms: N_7  and  O_14
REMARK    4  A    between atoms: O_14  and  S_15
REMARK    5  A    between atoms: C_21  and  C_24
REMARK                            x       y       z     vdW  Elec       q    Type
REMARK                         _______ _______ _______ _____ _____    ______ ____
ROOT
ATOM      1  O   UNL     1      34.240 -12.266 -24.418  0.00  0.00    -0.272 OA
ATOM      2  N   UNL     1      32.559 -12.000 -22.836  0.00  0.00    -0.233 N 
ATOM      3  C   UNL     1      33.417 -12.730 -23.634  0.00  0.00    +0.256 C 
ATOM      4  H   UNL     1      31.928 -12.456 -22.233  0.00  0.00    +0.173 HD
ENDROOT
BRANCH   3   9
ATOM      5  O   UNL     1      34.187 -17.048 -24.059  0.00  0.00    -0.250 OA
ATOM      6  N   UNL     1      34.493 -14.837 -23.139  0.00  0.00    -0.254 N 
ATOM      7  N   UNL     1      34.325 -16.596 -21.741  0.00  0.00    -0.126 N 
ATOM      8  C   UNL     1      34.200 -15.376 -20.958  0.00  0.00    +0.127 C 
ATOM      9  C   UNL     1      33.223 -14.208 -23.477  0.00  0.00    +0.155 C 
ATOM     10  C   UNL     1      35.039 -14.463 -21.834  0.00  0.00    +0.118 C 
ATOM     11  C   UNL     1      32.756 -14.810 -20.969  0.00  0.00    +0.026 C 
ATOM     12  C   UNL     1      32.172 -14.556 -22.392  0.00  0.00    +0.031 C 
ATOM     13  C   UNL     1      34.384 -16.301 -23.113  0.00  0.00    +0.332 C 
BRANCH   7  14
ATOM     14  O   UNL     1      33.762 -17.767 -21.255  0.00  0.00    -0.094 OA
BRANCH  14  15
ATOM     15  S   UNL     1      34.842 -19.004 -21.197  0.00  0.00    +0.258 S 
ATOM     16  O   UNL     1      34.135 -20.079 -20.196  0.00  0.00    -0.114 OA
ATOM     17  O   UNL     1      36.046 -18.524 -20.545  0.00  0.00    -0.020 OA
ATOM     18  O   UNL     1      34.906 -19.609 -22.514  0.00  0.00    -0.114 OA
ENDBRANCH  14  15
ENDBRANCH   7  14
ENDBRANCH   3   9
BRANCH   2  20
ATOM     19  O   UNL     1      31.462 -10.362 -20.887  0.00  0.00    -0.274 OA
ATOM     20  N   UNL     1      32.600 -10.630 -22.896  0.00  0.00    -0.234 N 
ATOM     21  C   UNL     1      32.025  -9.898 -21.876  0.00  0.00    +0.235 C 
ATOM     22  H   UNL     1      33.033 -10.175 -23.654  0.00  0.00    +0.173 HD
BRANCH  21  24
ATOM     23  N   UNL     1      31.205  -6.482 -23.270  0.00  0.00    +0.384 N 
ATOM     24  C   UNL     1      32.183  -8.423 -22.075  0.00  0.00    +0.057 C 
ATOM     25  C   UNL     1      32.032  -7.697 -20.737  0.00  0.00    +0.005 C 
ATOM     26  C   UNL     1      31.143  -7.934 -23.087  0.00  0.00    -0.072 C 
ATOM     27  C   UNL     1      32.016  -6.185 -20.947  0.00  0.00    -0.023 C 
ATOM     28  C   UNL     1      30.985  -5.784 -22.001  0.00  0.00    -0.082 C 
ATOM     29  H   UNL     1      30.486  -6.199 -23.936  0.00  0.00    -0.085 HD
ATOM     30  H   UNL     1      32.131  -6.236 -23.620  0.00  0.00    -0.085 HD
ENDBRANCH  21  24
ENDBRANCH   2  20
TORSDOF 5
ENDMDL
MODEL 7
REMARK VINA RESULT:      -8.7     17.321     19.824
REMARK  Name = 77846445
REMARK  5 active torsions:
REMARK  status: ('A' for Active; 'I' for Inactive)
REMARK    1  A    between atoms: N_2  and  N_20
REMARK    2  A    between atoms: C_3  and  C_9
REMARK    3  A    between atoms: N_7  and  O_14
REMARK    4  A    between atoms: O_14  and  S_15
REMARK    5  A    between atoms: C_21  and  C_24
REMARK                            x       y       z     vdW  Elec       q    Type
REMARK                         _______ _______ _______ _____ _____    ______ ____
ROOT
ATOM      1  O   UNL     1      31.836 -10.102 -22.453  0.00  0.00    -0.272 OA
ATOM      2  N   UNL     1      33.730 -10.561 -23.719  0.00  0.00    -0.233 N 
ATOM      3  C   UNL     1      32.830  -9.736 -23.074  0.00  0.00    +0.256 C 
ATOM      4  H   UNL     1      34.504 -10.181 -24.196  0.00  0.00    +0.173 HD
ENDROOT
BRANCH   3   9
ATOM      5  O   UNL     1      33.456  -5.852 -25.059  0.00  0.00    -0.250 OA
ATOM      6  N   UNL     1      32.166  -7.633 -24.062  0.00  0.00    -0.254 N 
ATOM      7  N   UNL     1      31.721  -5.499 -23.490  0.00  0.00    -0.126 N 
ATOM      8  C   UNL     1      31.036  -6.377 -22.552  0.00  0.00    +0.127 C 
ATOM      9  C   UNL     1      33.171  -8.285 -23.233  0.00  0.00    +0.155 C 
ATOM     10  C   UNL     1      30.829  -7.567 -23.473  0.00  0.00    +0.118 C 
ATOM     11  C   UNL     1      31.961  -6.853 -21.402  0.00  0.00    +0.026 C 
ATOM     12  C   UNL     1      33.274  -7.548 -21.874  0.00  0.00    +0.031 C 
ATOM     13  C   UNL     1      32.530  -6.243 -24.364  0.00  0.00    +0.332 C 
BRANCH   7  14
ATOM     14  O   UNL     1      32.043  -4.211 -23.091  0.00  0.00    -0.094 OA
BRANCH  14  15
ATOM     15  S   UNL     1      31.081  -3.078 -23.792  0.00  0.00    +0.258 S 
ATOM     16  O   UNL     1      30.111  -2.596 -22.574  0.00  0.00    -0.114 OA
ATOM     17  O   UNL     1      30.249  -3.739 -24.781  0.00  0.00    -0.020 OA
ATOM     18  O   UNL     1      31.912  -1.948 -24.163  0.00  0.00    -0.114 OA
ENDBRANCH  14  15
ENDBRANCH   7  14
ENDBRANCH   3   9
BRANCH   2  20
ATOM     19  O   UNL     1      33.651 -12.139 -25.997  0.00  0.00    -0.274 OA
ATOM     20  N   UNL     1      33.529 -11.917 -23.687  0.00  0.00    -0.234 N 
ATOM     21  C   UNL     1      33.505 -12.619 -24.875  0.00  0.00    +0.235 C 
ATOM     22  H   UNL     1      33.404 -12.384 -22.829  0.00  0.00    +0.173 HD
BRANCH  21  24
ATOM     23  N   UNL     1      33.342 -16.268 -25.850  0.00  0.00    +0.384 N 
ATOM     24  C   UNL     1      33.310 -14.089 -24.665  0.00  0.00    +0.057 C 
ATOM     25  C   UNL     1      34.323 -14.610 -23.645  0.00  0.00    +0.005 C 
ATOM     26  C   UNL     1      33.455 -14.815 -26.005  0.00  0.00    -0.072 C 
ATOM     27  C   UNL     1      34.254 -16.131 -23.550  0.00  0.00    -0.023 C 
ATOM     28  C   UNL     1      34.362 -16.777 -24.930  0.00  0.00    -0.082 C 
ATOM     29  H   UNL     1      33.463 -16.711 -26.761  0.00  0.00    -0.085 HD
ATOM     30  H   UNL     1      32.421 -16.484 -25.467  0.00  0.00    -0.085 HD
ENDBRANCH  21  24
ENDBRANCH   2  20
TORSDOF 5
ENDMDL
MODEL 8
REMARK VINA RESULT:      -8.5      8.215     10.089
REMARK  Name = 77846445
REMARK  5 active torsions:
REMARK  status: ('A' for Active; 'I' for Inactive)
REMARK    1  A    between atoms: N_2  and  N_20
REMARK    2  A    between atoms: C_3  and  C_9
REMARK    3  A    between atoms: N_7  and  O_14
REMARK    4  A    between atoms: O_14  and  S_15
REMARK    5  A    between atoms: C_21  and  C_24
REMARK                            x       y       z     vdW  Elec       q    Type
REMARK                         _______ _______ _______ _____ _____    ______ ____
ROOT
ATOM      1  O   UNL     1      36.439 -20.569 -19.104  0.00  0.00    -0.272 OA
ATOM      2  N   UNL     1      34.715 -21.772 -20.094  0.00  0.00    -0.233 N 
ATOM      3  C   UNL     1      35.700 -20.805 -20.056  0.00  0.00    +0.256 C 
ATOM      4  H   UNL     1      34.166 -21.894 -20.903  0.00  0.00    +0.173 HD
ENDROOT
BRANCH   3   9
ATOM      5  O   UNL     1      34.795 -19.564 -24.186  0.00  0.00    -0.250 OA
ATOM      6  N   UNL     1      34.422 -19.736 -21.807  0.00  0.00    -0.254 N 
ATOM      7  N   UNL     1      34.178 -17.736 -22.816  0.00  0.00    -0.126 N 
ATOM      8  C   UNL     1      34.198 -17.523 -21.377  0.00  0.00    +0.127 C 
ATOM      9  C   UNL     1      35.770 -20.011 -21.325  0.00  0.00    +0.155 C 
ATOM     10  C   UNL     1      33.626 -18.861 -20.946  0.00  0.00    +0.118 C 
ATOM     11  C   UNL     1      35.640 -17.445 -20.809  0.00  0.00    +0.026 C 
ATOM     12  C   UNL     1      36.534 -18.675 -21.147  0.00  0.00    +0.031 C 
ATOM     13  C   UNL     1      34.438 -19.082 -23.121  0.00  0.00    +0.332 C 
BRANCH   7  14
ATOM     14  O   UNL     1      34.553 -16.697 -23.654  0.00  0.00    -0.094 OA
BRANCH  14  15
ATOM     15  S   UNL     1      33.819 -15.280 -23.261  0.00  0.00    +0.258 S 
ATOM     16  O   UNL     1      33.267 -14.727 -24.692  0.00  0.00    -0.114 OA
ATOM     17  O   UNL     1      34.837 -14.356 -22.797  0.00  0.00    -0.020 OA
ATOM     18  O   UNL     1      32.665 -15.584 -22.435  0.00  0.00    -0.114 OA
ENDBRANCH  14  15
ENDBRANCH   7  14
ENDBRANCH   3   9
BRANCH   2  20
ATOM     19  O   UNL     1      32.350 -21.778 -18.647  0.00  0.00    -0.274 OA
ATOM     20  N   UNL     1      34.513 -22.559 -18.989  0.00  0.00    -0.234 N 
ATOM     21  C   UNL     1      33.300 -22.492 -18.333  0.00  0.00    +0.235 C 
ATOM     22  H   UNL     1      35.221 -23.162 -18.669  0.00  0.00    +0.173 HD
BRANCH  21  24
ATOM     23  N   UNL     1      34.417 -24.094 -15.097  0.00  0.00    +0.384 N 
ATOM     24  C   UNL     1      33.228 -23.434 -17.171  0.00  0.00    +0.057 C 
ATOM     25  C   UNL     1      31.945 -23.187 -16.377  0.00  0.00    +0.005 C 
ATOM     26  C   UNL     1      34.466 -23.245 -16.290  0.00  0.00    -0.072 C 
ATOM     27  C   UNL     1      31.941 -24.015 -15.095  0.00  0.00    -0.023 C 
ATOM     28  C   UNL     1      33.226 -23.804 -14.296  0.00  0.00    -0.082 C 
ATOM     29  H   UNL     1      35.249 -23.924 -14.532  0.00  0.00    -0.085 HD
ATOM     30  H   UNL     1      34.381 -25.070 -15.393  0.00  0.00    -0.085 HD
ENDBRANCH  21  24
ENDBRANCH   2  20
TORSDOF 5
ENDMDL
MODEL 9
REMARK VINA RESULT:      -8.5      8.293     10.575
REMARK  Name = 77846445
REMARK  5 active torsions:
REMARK  status: ('A' for Active; 'I' for Inactive)
REMARK    1  A    between atoms: N_2  and  N_20
REMARK    2  A    between atoms: C_3  and  C_9
REMARK    3  A    between atoms: N_7  and  O_14
REMARK    4  A    between atoms: O_14  and  S_15
REMARK    5  A    between atoms: C_21  and  C_24
REMARK                            x       y       z     vdW  Elec       q    Type
REMARK                         _______ _______ _______ _____ _____    ______ ____
ROOT
ATOM      1  O   UNL     1      33.965 -21.162 -19.636  0.00  0.00    -0.272 OA
ATOM      2  N   UNL     1      36.241 -21.345 -19.204  0.00  0.00    -0.233 N 
ATOM      3  C   UNL     1      35.138 -20.953 -19.935  0.00  0.00    +0.256 C 
ATOM      4  H   UNL     1      37.150 -21.134 -19.520  0.00  0.00    +0.173 HD
ENDROOT
BRANCH   3   9
ATOM      5  O   UNL     1      35.092 -19.856 -24.203  0.00  0.00    -0.250 OA
ATOM      6  N   UNL     1      34.310 -19.848 -21.919  0.00  0.00    -0.254 N 
ATOM      7  N   UNL     1      34.483 -17.895 -23.029  0.00  0.00    -0.126 N 
ATOM      8  C   UNL     1      34.288 -17.602 -21.616  0.00  0.00    +0.127 C 
ATOM      9  C   UNL     1      35.514 -20.246 -21.202  0.00  0.00    +0.155 C 
ATOM     10  C   UNL     1      33.493 -18.841 -21.241  0.00  0.00    +0.118 C 
ATOM     11  C   UNL     1      35.613 -17.656 -20.812  0.00  0.00    +0.026 C 
ATOM     12  C   UNL     1      36.395 -18.997 -20.945  0.00  0.00    +0.031 C 
ATOM     13  C   UNL     1      34.624 -19.277 -23.234  0.00  0.00    +0.332 C 
BRANCH   7  14
ATOM     14  O   UNL     1      35.115 -16.954 -23.828  0.00  0.00    -0.094 OA
BRANCH  14  15
ATOM     15  S   UNL     1      34.129 -16.367 -25.004  0.00  0.00    +0.258 S 
ATOM     16  O   UNL     1      35.166 -15.716 -26.081  0.00  0.00    -0.114 OA
ATOM     17  O   UNL     1      33.346 -15.284 -24.439  0.00  0.00    -0.020 OA
ATOM     18  O   UNL     1      33.478 -17.492 -25.649  0.00  0.00    -0.114 OA
ENDBRANCH  14  15
ENDBRANCH   7  14
ENDBRANCH   3   9
BRANCH   2  20
ATOM     19  O   UNL     1      37.562 -20.720 -16.848  0.00  0.00    -0.274 OA
ATOM     20  N   UNL     1      36.053 -22.032 -18.032  0.00  0.00    -0.234 N 
ATOM     21  C   UNL     1      36.757 -21.646 -16.909  0.00  0.00    +0.235 C 
ATOM     22  H   UNL     1      35.425 -22.789 -17.992  0.00  0.00    +0.173 HD
BRANCH  21  24
ATOM     23  N   UNL     1      34.759 -24.115 -14.858  0.00  0.00    +0.384 N 
ATOM     24  C   UNL     1      36.414 -22.474 -15.710  0.00  0.00    +0.057 C 
ATOM     25  C   UNL     1      37.557 -23.441 -15.398  0.00  0.00    +0.005 C 
ATOM     26  C   UNL     1      35.109 -23.232 -15.974  0.00  0.00    -0.072 C 
ATOM     27  C   UNL     1      37.153 -24.409 -14.290  0.00  0.00    -0.023 C 
ATOM     28  C   UNL     1      35.823 -25.090 -14.608  0.00  0.00    -0.082 C 
ATOM     29  H   UNL     1      33.897 -24.611 -15.083  0.00  0.00    -0.085 HD
ATOM     30  H   UNL     1      34.635 -23.546 -14.020  0.00  0.00    -0.085 HD
ENDBRANCH  21  24
ENDBRANCH   2  20
TORSDOF 5
ENDMDL
