MODEL 1
REMARK VINA RESULT:      -9.9      0.000      0.000
REMARK  Name = 4595
REMARK  2 active torsions:
REMARK  status: ('A' for Active; 'I' for Inactive)
REMARK    1  A    between atoms: C_3  and  C_16
REMARK    2  A    between atoms: C_16  and  N_17
REMARK                            x       y       z     vdW  Elec       q    Type
REMARK                         _______ _______ _______ _____ _____    ______ ____
ROOT
ATOM      1  O   UNL     1      32.107 -14.880 -21.611  0.00  0.00    -0.291 OA
ATOM      2  N   UNL     1      32.933 -10.644 -23.130  0.00  0.00    -0.329 N 
ATOM      3  C   UNL     1      33.186 -14.803 -23.767  0.00  0.00    +0.082 C 
ATOM      4  C   UNL     1      33.070 -13.881 -25.001  0.00  0.00    +0.016 C 
ATOM      5  C   UNL     1      33.596 -12.459 -24.757  0.00  0.00    +0.044 C 
ATOM      6  C   UNL     1      33.041 -11.961 -23.473  0.00  0.00    +0.040 A 
ATOM      7  C   UNL     1      32.556 -12.726 -22.435  0.00  0.00    +0.048 A 
ATOM      8  C   UNL     1      32.550 -14.177 -22.517  0.00  0.00    +0.175 C 
ATOM      9  C   UNL     1      32.124 -11.832 -21.413  0.00  0.00    +0.020 A 
ATOM     10  C   UNL     1      32.373 -10.534 -21.875  0.00  0.00    +0.060 A 
ATOM     11  C   UNL     1      33.339  -9.525 -23.956  0.00  0.00    +0.130 C 
ATOM     12  C   UNL     1      31.545 -11.990 -20.136  0.00  0.00    +0.002 C 
ATOM     13  C   UNL     1      32.071  -9.393 -21.124  0.00  0.00    +0.017 C 
ATOM     14  C   UNL     1      31.239 -10.856 -19.375  0.00  0.00    +0.000 C 
ATOM     15  C   UNL     1      31.499  -9.579 -19.862  0.00  0.00    +0.001 C 
ENDROOT
BRANCH   3  16
ATOM     16  C   UNL     1      34.633 -15.180 -23.461  0.00  0.00    +0.104 C 
BRANCH  16  17
ATOM     17  N   UNL     1      34.819 -16.622 -23.399  0.00  0.00    -0.273 N 
ATOM     18  N   UNL     1      35.115 -18.646 -22.561  0.00  0.00    -0.232 NA
ATOM     19  C   UNL     1      34.966 -17.372 -22.273  0.00  0.00    +0.113 C 
ATOM     20  C   UNL     1      34.876 -17.453 -24.474  0.00  0.00    +0.087 C 
ATOM     21  C   UNL     1      35.060 -18.704 -23.931  0.00  0.00    +0.116 C 
ATOM     22  C   UNL     1      34.954 -16.783 -20.918  0.00  0.00    +0.069 C 
ENDBRANCH  16  17
ENDBRANCH   3  16
TORSDOF 2
ENDMDL
MODEL 2
REMARK VINA RESULT:      -9.9      0.430      1.270
REMARK  Name = 4595
REMARK  2 active torsions:
REMARK  status: ('A' for Active; 'I' for Inactive)
REMARK    1  A    between atoms: C_3  and  C_16
REMARK    2  A    between atoms: C_16  and  N_17
REMARK                            x       y       z     vdW  Elec       q    Type
REMARK                         _______ _______ _______ _____ _____    ______ ____
ROOT
ATOM      1  O   UNL     1      32.167 -14.942 -21.430  0.00  0.00    -0.291 OA
ATOM      2  N   UNL     1      32.880 -10.751 -23.121  0.00  0.00    -0.329 N 
ATOM      3  C   UNL     1      33.219 -14.925 -23.600  0.00  0.00    +0.082 C 
ATOM      4  C   UNL     1      33.068 -14.054 -24.867  0.00  0.00    +0.016 C 
ATOM      5  C   UNL     1      33.565 -12.612 -24.685  0.00  0.00    +0.044 C 
ATOM      6  C   UNL     1      33.014 -12.077 -23.413  0.00  0.00    +0.040 A 
ATOM      7  C   UNL     1      32.558 -12.812 -22.341  0.00  0.00    +0.048 A 
ATOM      8  C   UNL     1      32.583 -14.266 -22.367  0.00  0.00    +0.175 C 
ATOM      9  C   UNL     1      32.117 -11.889 -21.349  0.00  0.00    +0.020 A 
ATOM     10  C   UNL     1      32.331 -10.605 -21.864  0.00  0.00    +0.060 A 
ATOM     11  C   UNL     1      33.251  -9.656 -23.993  0.00  0.00    +0.130 C 
ATOM     12  C   UNL     1      31.557 -12.010 -20.060  0.00  0.00    +0.002 C 
ATOM     13  C   UNL     1      32.012  -9.443 -21.153  0.00  0.00    +0.017 C 
ATOM     14  C   UNL     1      31.234 -10.855 -19.339  0.00  0.00    +0.000 C 
ATOM     15  C   UNL     1      31.459  -9.592 -19.879  0.00  0.00    +0.001 C 
ENDROOT
BRANCH   3  16
ATOM     16  C   UNL     1      34.678 -15.258 -23.297  0.00  0.00    +0.104 C 
BRANCH  16  17
ATOM     17  N   UNL     1      34.834 -16.613 -22.792  0.00  0.00    -0.273 N 
ATOM     18  N   UNL     1      34.998 -18.817 -22.769  0.00  0.00    -0.232 NA
ATOM     19  C   UNL     1      34.836 -17.756 -23.529  0.00  0.00    +0.113 C 
ATOM     20  C   UNL     1      35.002 -16.950 -21.485  0.00  0.00    +0.087 C 
ATOM     21  C   UNL     1      35.101 -18.322 -21.494  0.00  0.00    +0.116 C 
ATOM     22  C   UNL     1      34.674 -17.757 -24.997  0.00  0.00    +0.069 C 
ENDBRANCH  16  17
ENDBRANCH   3  16
TORSDOF 2
ENDMDL
MODEL 3
REMARK VINA RESULT:      -9.4     10.364     13.576
REMARK  Name = 4595
REMARK  2 active torsions:
REMARK  status: ('A' for Active; 'I' for Inactive)
REMARK    1  A    between atoms: C_3  and  C_16
REMARK    2  A    between atoms: C_16  and  N_17
REMARK                            x       y       z     vdW  Elec       q    Type
REMARK                         _______ _______ _______ _____ _____    ______ ____
ROOT
ATOM      1  O   UNL     1      37.568 -22.928 -14.536  0.00  0.00    -0.291 OA
ATOM      2  N   UNL     1      33.249 -23.399 -15.971  0.00  0.00    -0.329 N 
ATOM      3  C   UNL     1      36.092 -23.911 -12.901  0.00  0.00    +0.082 C 
ATOM      4  C   UNL     1      34.617 -23.682 -12.500  0.00  0.00    +0.016 C 
ATOM      5  C   UNL     1      33.613 -24.119 -13.578  0.00  0.00    +0.044 C 
ATOM      6  C   UNL     1      34.060 -23.584 -14.889  0.00  0.00    +0.040 A 
ATOM      7  C   UNL     1      35.338 -23.194 -15.226  0.00  0.00    +0.048 A 
ATOM      8  C   UNL     1      36.424 -23.285 -14.264  0.00  0.00    +0.175 C 
ATOM      9  C   UNL     1      35.303 -22.743 -16.577  0.00  0.00    +0.020 A 
ATOM     10  C   UNL     1      33.982 -22.883 -17.019  0.00  0.00    +0.060 A 
ATOM     11  C   UNL     1      31.831 -23.693 -16.019  0.00  0.00    +0.130 C 
ATOM     12  C   UNL     1      36.260 -22.229 -17.476  0.00  0.00    +0.002 C 
ATOM     13  C   UNL     1      33.577 -22.534 -18.312  0.00  0.00    +0.017 C 
ATOM     14  C   UNL     1      35.867 -21.877 -18.773  0.00  0.00    +0.000 C 
ATOM     15  C   UNL     1      34.546 -22.028 -19.182  0.00  0.00    +0.001 C 
ENDROOT
BRANCH   3  16
ATOM     16  C   UNL     1      36.461 -25.392 -12.924  0.00  0.00    +0.104 C 
BRANCH  16  17
ATOM     17  N   UNL     1      37.772 -25.617 -13.515  0.00  0.00    -0.273 N 
ATOM     18  N   UNL     1      39.325 -26.310 -14.927  0.00  0.00    -0.232 NA
ATOM     19  C   UNL     1      38.035 -26.282 -14.672  0.00  0.00    +0.113 C 
ATOM     20  C   UNL     1      38.953 -25.191 -12.992  0.00  0.00    +0.087 C 
ATOM     21  C   UNL     1      39.903 -25.631 -13.884  0.00  0.00    +0.116 C 
ATOM     22  C   UNL     1      36.973 -26.882 -15.504  0.00  0.00    +0.069 C 
ENDBRANCH  16  17
ENDBRANCH   3  16
TORSDOF 2
ENDMDL
MODEL 4
REMARK VINA RESULT:      -9.2      3.012      5.597
REMARK  Name = 4595
REMARK  2 active torsions:
REMARK  status: ('A' for Active; 'I' for Inactive)
REMARK    1  A    between atoms: C_3  and  C_16
REMARK    2  A    between atoms: C_16  and  N_17
REMARK                            x       y       z     vdW  Elec       q    Type
REMARK                         _______ _______ _______ _____ _____    ______ ____
ROOT
ATOM      1  O   UNL     1      35.298 -18.707 -24.498  0.00  0.00    -0.291 OA
ATOM      2  N   UNL     1      33.735 -14.996 -22.326  0.00  0.00    -0.329 N 
ATOM      3  C   UNL     1      35.554 -18.792 -22.101  0.00  0.00    +0.082 C 
ATOM      4  C   UNL     1      35.901 -17.750 -21.014  0.00  0.00    +0.016 C 
ATOM      5  C   UNL     1      34.802 -16.699 -20.796  0.00  0.00    +0.044 C 
ATOM      6  C   UNL     1      34.362 -16.191 -22.121  0.00  0.00    +0.040 A 
ATOM      7  C   UNL     1      34.507 -16.824 -23.335  0.00  0.00    +0.048 A 
ATOM      8  C   UNL     1      35.142 -18.130 -23.425  0.00  0.00    +0.175 C 
ATOM      9  C   UNL     1      33.950 -15.971 -24.330  0.00  0.00    +0.020 A 
ATOM     10  C   UNL     1      33.473 -14.833 -23.670  0.00  0.00    +0.060 A 
ATOM     11  C   UNL     1      33.398 -14.035 -21.295  0.00  0.00    +0.130 C 
ATOM     12  C   UNL     1      33.798 -16.047 -25.731  0.00  0.00    +0.002 C 
ATOM     13  C   UNL     1      32.855 -13.772 -24.342  0.00  0.00    +0.017 C 
ATOM     14  C   UNL     1      33.181 -14.993 -26.414  0.00  0.00    +0.000 C 
ATOM     15  C   UNL     1      32.717 -13.874 -25.728  0.00  0.00    +0.001 C 
ENDROOT
BRANCH   3  16
ATOM     16  C   UNL     1      34.453 -19.750 -21.653  0.00  0.00    +0.104 C 
BRANCH  16  17
ATOM     17  N   UNL     1      34.885 -20.601 -20.555  0.00  0.00    -0.273 N 
ATOM     18  N   UNL     1      34.792 -21.874 -18.750  0.00  0.00    -0.232 NA
ATOM     19  C   UNL     1      34.091 -21.158 -19.602  0.00  0.00    +0.113 C 
ATOM     20  C   UNL     1      36.170 -20.973 -20.308  0.00  0.00    +0.087 C 
ATOM     21  C   UNL     1      36.089 -21.762 -19.184  0.00  0.00    +0.116 C 
ATOM     22  C   UNL     1      32.627 -20.958 -19.569  0.00  0.00    +0.069 C 
ENDBRANCH  16  17
ENDBRANCH   3  16
TORSDOF 2
ENDMDL
MODEL 5
REMARK VINA RESULT:      -9.2      9.098     12.731
REMARK  Name = 4595
REMARK  2 active torsions:
REMARK  status: ('A' for Active; 'I' for Inactive)
REMARK    1  A    between atoms: C_3  and  C_16
REMARK    2  A    between atoms: C_16  and  N_17
REMARK                            x       y       z     vdW  Elec       q    Type
REMARK                         _______ _______ _______ _____ _____    ______ ____
ROOT
ATOM      1  O   UNL     1      37.907 -22.430 -16.404  0.00  0.00    -0.291 OA
ATOM      2  N   UNL     1      33.443 -22.799 -17.334  0.00  0.00    -0.329 N 
ATOM      3  C   UNL     1      36.663 -23.687 -14.764  0.00  0.00    +0.082 C 
ATOM      4  C   UNL     1      35.251 -23.562 -14.149  0.00  0.00    +0.016 C 
ATOM      5  C   UNL     1      34.119 -23.859 -15.144  0.00  0.00    +0.044 C 
ATOM      6  C   UNL     1      34.388 -23.121 -16.405  0.00  0.00    +0.040 A 
ATOM      7  C   UNL     1      35.608 -22.651 -16.838  0.00  0.00    +0.048 A 
ATOM      8  C   UNL     1      36.811 -22.854 -16.046  0.00  0.00    +0.175 C 
ATOM      9  C   UNL     1      35.395 -22.003 -18.089  0.00  0.00    +0.020 A 
ATOM     10  C   UNL     1      34.030 -22.111 -18.376  0.00  0.00    +0.060 A 
ATOM     11  C   UNL     1      32.033 -23.121 -17.247  0.00  0.00    +0.130 C 
ATOM     12  C   UNL     1      36.224 -21.333 -19.013  0.00  0.00    +0.002 C 
ATOM     13  C   UNL     1      33.457 -21.584 -19.539  0.00  0.00    +0.017 C 
ATOM     14  C   UNL     1      35.664 -20.801 -20.180  0.00  0.00    +0.000 C 
ATOM     15  C   UNL     1      34.301 -20.926 -20.437  0.00  0.00    +0.001 C 
ENDROOT
BRANCH   3  16
ATOM     16  C   UNL     1      37.038 -25.137 -15.059  0.00  0.00    +0.104 C 
BRANCH  16  17
ATOM     17  N   UNL     1      38.382 -25.456 -14.602  0.00  0.00    -0.273 N 
ATOM     18  N   UNL     1      40.033 -26.066 -13.264  0.00  0.00    -0.232 NA
ATOM     19  C   UNL     1      38.737 -25.860 -13.352  0.00  0.00    +0.113 C 
ATOM     20  C   UNL     1      39.507 -25.396 -15.364  0.00  0.00    +0.087 C 
ATOM     21  C   UNL     1      40.519 -25.778 -14.515  0.00  0.00    +0.116 C 
ATOM     22  C   UNL     1      37.755 -26.031 -12.262  0.00  0.00    +0.069 C 
ENDBRANCH  16  17
ENDBRANCH   3  16
TORSDOF 2
ENDMDL
MODEL 6
REMARK VINA RESULT:      -9.0      1.465      6.764
REMARK  Name = 4595
REMARK  2 active torsions:
REMARK  status: ('A' for Active; 'I' for Inactive)
REMARK    1  A    between atoms: C_3  and  C_16
REMARK    2  A    between atoms: C_16  and  N_17
REMARK                            x       y       z     vdW  Elec       q    Type
REMARK                         _______ _______ _______ _____ _____    ______ ____
ROOT
ATOM      1  O   UNL     1      34.537 -14.217 -20.723  0.00  0.00    -0.291 OA
ATOM      2  N   UNL     1      34.134 -16.893 -24.412  0.00  0.00    -0.329 N 
ATOM      3  C   UNL     1      33.641 -13.091 -22.660  0.00  0.00    +0.082 C 
ATOM      4  C   UNL     1      33.920 -13.165 -24.177  0.00  0.00    +0.016 C 
ATOM      5  C   UNL     1      33.477 -14.489 -24.820  0.00  0.00    +0.044 C 
ATOM      6  C   UNL     1      33.962 -15.611 -23.976  0.00  0.00    +0.040 A 
ATOM      7  C   UNL     1      34.308 -15.550 -22.644  0.00  0.00    +0.048 A 
ATOM      8  C   UNL     1      34.218 -14.300 -21.907  0.00  0.00    +0.175 C 
ATOM      9  C   UNL     1      34.719 -16.855 -22.251  0.00  0.00    +0.020 A 
ATOM     10  C   UNL     1      34.600 -17.677 -23.378  0.00  0.00    +0.060 A 
ATOM     11  C   UNL     1      33.875 -17.366 -25.757  0.00  0.00    +0.130 C 
ATOM     12  C   UNL     1      35.182 -17.430 -21.048  0.00  0.00    +0.002 C 
ATOM     13  C   UNL     1      34.920 -19.039 -23.358  0.00  0.00    +0.017 C 
ATOM     14  C   UNL     1      35.505 -18.791 -21.015  0.00  0.00    +0.000 C 
ATOM     15  C   UNL     1      35.376 -19.582 -22.153  0.00  0.00    +0.001 C 
ENDROOT
BRANCH   3  16
ATOM     16  C   UNL     1      32.151 -12.970 -22.350  0.00  0.00    +0.104 C 
BRANCH  16  17
ATOM     17  N   UNL     1      31.880 -11.919 -21.380  0.00  0.00    -0.273 N 
ATOM     18  N   UNL     1      31.529  -9.905 -20.543  0.00  0.00    -0.232 NA
ATOM     19  C   UNL     1      31.780 -10.587 -21.638  0.00  0.00    +0.113 C 
ATOM     20  C   UNL     1      31.685 -12.111 -20.048  0.00  0.00    +0.087 C 
ATOM     21  C   UNL     1      31.469 -10.848 -19.548  0.00  0.00    +0.116 C 
ATOM     22  C   UNL     1      31.941 -10.024 -22.994  0.00  0.00    +0.069 C 
ENDBRANCH  16  17
ENDBRANCH   3  16
TORSDOF 2
ENDMDL
MODEL 7
REMARK VINA RESULT:      -9.0      1.765      7.070
REMARK  Name = 4595
REMARK  2 active torsions:
REMARK  status: ('A' for Active; 'I' for Inactive)
REMARK    1  A    between atoms: C_3  and  C_16
REMARK    2  A    between atoms: C_16  and  N_17
REMARK                            x       y       z     vdW  Elec       q    Type
REMARK                         _______ _______ _______ _____ _____    ______ ____
ROOT
ATOM      1  O   UNL     1      32.586 -13.971 -25.358  0.00  0.00    -0.291 OA
ATOM      2  N   UNL     1      34.368 -16.054 -21.695  0.00  0.00    -0.329 N 
ATOM      3  C   UNL     1      32.418 -12.690 -23.321  0.00  0.00    +0.082 C 
ATOM      4  C   UNL     1      32.152 -13.043 -21.841  0.00  0.00    +0.016 C 
ATOM      5  C   UNL     1      33.298 -13.825 -21.181  0.00  0.00    +0.044 C 
ATOM      6  C   UNL     1      33.705 -14.928 -22.088  0.00  0.00    +0.040 A 
ATOM      7  C   UNL     1      33.490 -14.997 -23.447  0.00  0.00    +0.048 A 
ATOM      8  C   UNL     1      32.804 -13.924 -24.150  0.00  0.00    +0.175 C 
ATOM      9  C   UNL     1      34.041 -16.229 -23.904  0.00  0.00    +0.020 A 
ATOM     10  C   UNL     1      34.585 -16.871 -22.785  0.00  0.00    +0.060 A 
ATOM     11  C   UNL     1      34.780 -16.357 -20.339  0.00  0.00    +0.130 C 
ATOM     12  C   UNL     1      34.137 -16.869 -25.157  0.00  0.00    +0.002 C 
ATOM     13  C   UNL     1      35.217 -18.117 -22.861  0.00  0.00    +0.017 C 
ATOM     14  C   UNL     1      34.767 -18.116 -25.246  0.00  0.00    +0.000 C 
ATOM     15  C   UNL     1      35.298 -18.728 -24.115  0.00  0.00    +0.001 C 
ENDROOT
BRANCH   3  16
ATOM     16  C   UNL     1      33.498 -11.622 -23.476  0.00  0.00    +0.104 C 
BRANCH  16  17
ATOM     17  N   UNL     1      32.960 -10.278 -23.331  0.00  0.00    -0.273 N 
ATOM     18  N   UNL     1      32.822  -8.074 -23.417  0.00  0.00    -0.232 NA
ATOM     19  C   UNL     1      33.578  -9.117 -23.679  0.00  0.00    +0.113 C 
ATOM     20  C   UNL     1      31.740  -9.972 -22.815  0.00  0.00    +0.087 C 
ATOM     21  C   UNL     1      31.674  -8.599 -22.878  0.00  0.00    +0.116 C 
ATOM     22  C   UNL     1      34.930  -9.082 -24.273  0.00  0.00    +0.069 C 
ENDBRANCH  16  17
ENDBRANCH   3  16
TORSDOF 2
ENDMDL
MODEL 8
REMARK VINA RESULT:      -8.9      3.394      8.308
REMARK  Name = 4595
REMARK  2 active torsions:
REMARK  status: ('A' for Active; 'I' for Inactive)
REMARK    1  A    between atoms: C_3  and  C_16
REMARK    2  A    between atoms: C_16  and  N_17
REMARK                            x       y       z     vdW  Elec       q    Type
REMARK                         _______ _______ _______ _____ _____    ______ ____
ROOT
ATOM      1  O   UNL     1      31.365  -9.582 -21.100  0.00  0.00    -0.291 OA
ATOM      2  N   UNL     1      34.198 -10.719 -24.508  0.00  0.00    -0.329 N 
ATOM      3  C   UNL     1      32.327  -7.692 -22.249  0.00  0.00    +0.082 C 
ATOM      4  C   UNL     1      33.711  -7.393 -22.867  0.00  0.00    +0.016 C 
ATOM      5  C   UNL     1      34.021  -8.231 -24.117  0.00  0.00    +0.044 C 
ATOM      6  C   UNL     1      33.687  -9.649 -23.832  0.00  0.00    +0.040 A 
ATOM      7  C   UNL     1      32.826 -10.113 -22.862  0.00  0.00    +0.048 A 
ATOM      8  C   UNL     1      32.125  -9.191 -21.983  0.00  0.00    +0.175 C 
ATOM      9  C   UNL     1      32.816 -11.535 -22.945  0.00  0.00    +0.020 A 
ATOM     10  C   UNL     1      33.684 -11.888 -23.986  0.00  0.00    +0.060 A 
ATOM     11  C   UNL     1      35.140 -10.648 -25.606  0.00  0.00    +0.130 C 
ATOM     12  C   UNL     1      32.157 -12.566 -22.244  0.00  0.00    +0.002 C 
ATOM     13  C   UNL     1      33.922 -13.217 -24.355  0.00  0.00    +0.017 C 
ATOM     14  C   UNL     1      32.387 -13.900 -22.603  0.00  0.00    +0.000 C 
ATOM     15  C   UNL     1      33.256 -14.217 -23.643  0.00  0.00    +0.001 C 
ENDROOT
BRANCH   3  16
ATOM     16  C   UNL     1      31.182  -7.177 -23.118  0.00  0.00    +0.104 C 
BRANCH  16  17
ATOM     17  N   UNL     1      30.981  -5.744 -22.961  0.00  0.00    -0.273 N 
ATOM     18  N   UNL     1      30.999  -3.581 -23.413  0.00  0.00    -0.232 NA
ATOM     19  C   UNL     1      31.312  -4.777 -23.859  0.00  0.00    +0.113 C 
ATOM     20  C   UNL     1      30.425  -5.144 -21.875  0.00  0.00    +0.087 C 
ATOM     21  C   UNL     1      30.446  -3.802 -22.177  0.00  0.00    +0.116 C 
ATOM     22  C   UNL     1      31.943  -5.081 -25.160  0.00  0.00    +0.069 C 
ENDBRANCH  16  17
ENDBRANCH   3  16
TORSDOF 2
ENDMDL
MODEL 9
REMARK VINA RESULT:      -8.5      4.036      7.230
REMARK  Name = 4595
REMARK  2 active torsions:
REMARK  status: ('A' for Active; 'I' for Inactive)
REMARK    1  A    between atoms: C_3  and  C_16
REMARK    2  A    between atoms: C_16  and  N_17
REMARK                            x       y       z     vdW  Elec       q    Type
REMARK                         _______ _______ _______ _____ _____    ______ ____
ROOT
ATOM      1  O   UNL     1      33.850  -8.528 -24.020  0.00  0.00    -0.291 OA
ATOM      2  N   UNL     1      31.548  -4.643 -23.281  0.00  0.00    -0.329 N 
ATOM      3  C   UNL     1      32.679  -8.466 -21.912  0.00  0.00    +0.082 C 
ATOM      4  C   UNL     1      32.402  -7.367 -20.862  0.00  0.00    +0.016 C 
ATOM      5  C   UNL     1      31.441  -6.274 -21.356  0.00  0.00    +0.044 C 
ATOM      6  C   UNL     1      31.872  -5.839 -22.709  0.00  0.00    +0.040 A 
ATOM      7  C   UNL     1      32.649  -6.553 -23.594  0.00  0.00    +0.048 A 
ATOM      8  C   UNL     1      33.141  -7.879 -23.254  0.00  0.00    +0.175 C 
ATOM      9  C   UNL     1      32.815  -5.751 -24.759  0.00  0.00    +0.020 A 
ATOM     10  C   UNL     1      32.114  -4.559 -24.536  0.00  0.00    +0.060 A 
ATOM     11  C   UNL     1      30.739  -3.610 -22.668  0.00  0.00    +0.130 C 
ATOM     12  C   UNL     1      33.489  -5.912 -25.987  0.00  0.00    +0.002 C 
ATOM     13  C   UNL     1      32.057  -3.528 -25.479  0.00  0.00    +0.017 C 
ATOM     14  C   UNL     1      33.440  -4.887 -26.939  0.00  0.00    +0.000 C 
ATOM     15  C   UNL     1      32.734  -3.714 -26.687  0.00  0.00    +0.001 C 
ENDROOT
BRANCH   3  16
ATOM     16  C   UNL     1      31.466  -9.363 -22.145  0.00  0.00    +0.104 C 
BRANCH  16  17
ATOM     17  N   UNL     1      31.732 -10.745 -21.776  0.00  0.00    -0.273 N 
ATOM     18  N   UNL     1      31.894 -12.574 -20.546  0.00  0.00    -0.232 NA
ATOM     19  C   UNL     1      31.561 -11.302 -20.547  0.00  0.00    +0.113 C 
ATOM     20  C   UNL     1      32.202 -11.706 -22.616  0.00  0.00    +0.087 C 
ATOM     21  C   UNL     1      32.295 -12.832 -21.833  0.00  0.00    +0.116 C 
ATOM     22  C   UNL     1      31.061 -10.535 -19.388  0.00  0.00    +0.069 C 
ENDBRANCH  16  17
ENDBRANCH   3  16
TORSDOF 2
ENDMDL
