MODEL 1
REMARK VINA RESULT:     -10.6      0.000      0.000
REMARK  Name = 41781
REMARK  5 active torsions:
REMARK  status: ('A' for Active; 'I' for Inactive)
REMARK    1  A    between atoms: C_2  and  S_7
REMARK    2  A    between atoms: C_3  and  N_19
REMARK    3  A    between atoms: S_7  and  N_12
REMARK    4  A    between atoms: N_11  and  C_16
REMARK    5  A    between atoms: N_19  and  C_21
REMARK                            x       y       z     vdW  Elec       q    Type
REMARK                         _______ _______ _______ _____ _____    ______ ____
ROOT
ATOM      1  N   UNL     1      34.776 -17.161 -25.383  0.00  0.00    -0.241 NA
ATOM      2  C   UNL     1      34.327 -16.747 -23.063  0.00  0.00    +0.158 C 
ATOM      3  C   UNL     1      34.285 -18.099 -22.795  0.00  0.00    +0.071 C 
ATOM      4  C   UNL     1      34.571 -16.318 -24.346  0.00  0.00    +0.120 C 
ATOM      5  C   UNL     1      34.491 -18.998 -23.836  0.00  0.00    +0.037 C 
ATOM      6  C   UNL     1      34.731 -18.483 -25.100  0.00  0.00    +0.100 C 
ENDROOT
BRANCH   2   7
ATOM      7  S   UNL     1      34.074 -15.544 -21.792  0.00  0.00    +0.079 S 
ATOM      8  O   UNL     1      34.994 -15.833 -20.709  0.00  0.00    -0.150 OA
ATOM      9  O   UNL     1      32.646 -15.484 -21.548  0.00  0.00    -0.150 OA
BRANCH   7  12
ATOM     10  O   UNL     1      32.517 -13.459 -23.489  0.00  0.00    -0.251 OA
ATOM     11  N   UNL     1      34.397 -12.171 -23.879  0.00  0.00    -0.289 N 
ATOM     12  N   UNL     1      34.571 -14.116 -22.591  0.00  0.00    -0.169 N 
ATOM     13  C   UNL     1      33.718 -13.250 -23.346  0.00  0.00    +0.319 C 
ATOM     14  H   UNL     1      35.363 -12.092 -23.707  0.00  0.00    +0.151 HD
ATOM     15  H   UNL     1      35.522 -13.870 -22.526  0.00  0.00    +0.178 HD
BRANCH  11  16
ATOM     16  C   UNL     1      33.752 -11.153 -24.676  0.00  0.00    +0.073 C 
ATOM     17  C   UNL     1      34.763 -10.493 -25.609  0.00  0.00    +0.021 C 
ATOM     18  C   UNL     1      33.103 -10.124 -23.756  0.00  0.00    +0.021 C 
ENDBRANCH  11  16
ENDBRANCH   7  12
ENDBRANCH   2   7
BRANCH   3  19
ATOM     19  N   UNL     1      34.039 -18.596 -21.498  0.00  0.00    -0.311 N 
ATOM     20  H   UNL     1      33.329 -18.112 -21.017  0.00  0.00    +0.152 HD
BRANCH  19  21
ATOM     21  C   UNL     1      34.608 -19.649 -20.755  0.00  0.00    +0.048 C 
ATOM     22  C   UNL     1      33.786 -20.576 -20.112  0.00  0.00    +0.010 C 
ATOM     23  C   UNL     1      34.351 -21.620 -19.378  0.00  0.00    -0.021 C 
ATOM     24  C   UNL     1      35.996 -19.767 -20.661  0.00  0.00    +0.015 C 
ATOM     25  C   UNL     1      35.737 -21.736 -19.285  0.00  0.00    -0.004 C 
ATOM     26  C   UNL     1      36.560 -20.811 -19.927  0.00  0.00    +0.001 C 
ATOM     27  C   UNL     1      33.472 -22.609 -18.692  0.00  0.00    +0.031 C 
ENDBRANCH  19  21
ENDBRANCH   3  19
TORSDOF 5
ENDMDL
MODEL 2
REMARK VINA RESULT:     -10.4      1.797      2.294
REMARK  Name = 41781
REMARK  5 active torsions:
REMARK  status: ('A' for Active; 'I' for Inactive)
REMARK    1  A    between atoms: C_2  and  S_7
REMARK    2  A    between atoms: C_3  and  N_19
REMARK    3  A    between atoms: S_7  and  N_12
REMARK    4  A    between atoms: N_11  and  C_16
REMARK    5  A    between atoms: N_19  and  C_21
REMARK                            x       y       z     vdW  Elec       q    Type
REMARK                         _______ _______ _______ _____ _____    ______ ____
ROOT
ATOM      1  N   UNL     1      33.911 -15.828 -25.649  0.00  0.00    -0.241 NA
ATOM      2  C   UNL     1      33.880 -15.684 -23.255  0.00  0.00    +0.158 C 
ATOM      3  C   UNL     1      34.597 -16.857 -23.142  0.00  0.00    +0.071 C 
ATOM      4  C   UNL     1      33.558 -15.205 -24.502  0.00  0.00    +0.120 C 
ATOM      5  C   UNL     1      34.978 -17.527 -24.299  0.00  0.00    +0.037 C 
ATOM      6  C   UNL     1      34.614 -16.976 -25.518  0.00  0.00    +0.100 C 
ENDROOT
BRANCH   2   7
ATOM      7  S   UNL     1      33.360 -14.777 -21.830  0.00  0.00    +0.079 S 
ATOM      8  O   UNL     1      34.471 -14.724 -20.899  0.00  0.00    -0.150 OA
ATOM      9  O   UNL     1      32.085 -15.332 -21.420  0.00  0.00    -0.150 OA
BRANCH   7  12
ATOM     10  O   UNL     1      31.705 -12.331 -20.867  0.00  0.00    -0.251 OA
ATOM     11  N   UNL     1      32.287 -11.044 -22.697  0.00  0.00    -0.289 N 
ATOM     12  N   UNL     1      33.111 -13.226 -22.503  0.00  0.00    -0.169 N 
ATOM     13  C   UNL     1      32.304 -12.193 -21.929  0.00  0.00    +0.319 C 
ATOM     14  H   UNL     1      32.802 -11.032 -23.536  0.00  0.00    +0.151 HD
ATOM     15  H   UNL     1      33.558 -13.027 -23.358  0.00  0.00    +0.178 HD
BRANCH  11  16
ATOM     16  C   UNL     1      31.549  -9.861 -22.324  0.00  0.00    +0.073 C 
ATOM     17  C   UNL     1      31.449  -8.903 -23.508  0.00  0.00    +0.021 C 
ATOM     18  C   UNL     1      32.230  -9.191 -21.134  0.00  0.00    +0.021 C 
ENDBRANCH  11  16
ENDBRANCH   7  12
ENDBRANCH   2   7
BRANCH   3  19
ATOM     19  N   UNL     1      34.955 -17.396 -21.888  0.00  0.00    -0.311 N 
ATOM     20  H   UNL     1      35.551 -16.813 -21.363  0.00  0.00    +0.152 HD
BRANCH  19  21
ATOM     21  C   UNL     1      34.626 -18.601 -21.239  0.00  0.00    +0.048 C 
ATOM     22  C   UNL     1      35.637 -19.440 -20.766  0.00  0.00    +0.010 C 
ATOM     23  C   UNL     1      35.310 -20.633 -20.121  0.00  0.00    -0.021 C 
ATOM     24  C   UNL     1      33.288 -18.961 -21.067  0.00  0.00    +0.015 C 
ATOM     25  C   UNL     1      33.973 -20.990 -19.950  0.00  0.00    -0.004 C 
ATOM     26  C   UNL     1      32.962 -20.154 -20.422  0.00  0.00    +0.001 C 
ATOM     27  C   UNL     1      36.392 -21.528 -19.617  0.00  0.00    +0.031 C 
ENDBRANCH  19  21
ENDBRANCH   3  19
TORSDOF 5
ENDMDL
MODEL 3
REMARK VINA RESULT:     -10.0      8.946     12.074
REMARK  Name = 41781
REMARK  5 active torsions:
REMARK  status: ('A' for Active; 'I' for Inactive)
REMARK    1  A    between atoms: C_2  and  S_7
REMARK    2  A    between atoms: C_3  and  N_19
REMARK    3  A    between atoms: S_7  and  N_12
REMARK    4  A    between atoms: N_11  and  C_16
REMARK    5  A    between atoms: N_19  and  C_21
REMARK                            x       y       z     vdW  Elec       q    Type
REMARK                         _______ _______ _______ _____ _____    ______ ____
ROOT
ATOM      1  N   UNL     1      39.048 -26.179 -13.750  0.00  0.00    -0.241 NA
ATOM      2  C   UNL     1      37.133 -24.774 -13.414  0.00  0.00    +0.158 C 
ATOM      3  C   UNL     1      37.400 -24.077 -14.573  0.00  0.00    +0.071 C 
ATOM      4  C   UNL     1      37.963 -25.803 -13.037  0.00  0.00    +0.120 C 
ATOM      5  C   UNL     1      38.509 -24.433 -15.333  0.00  0.00    +0.037 C 
ATOM      6  C   UNL     1      39.294 -25.482 -14.882  0.00  0.00    +0.100 C 
ENDROOT
BRANCH   2   7
ATOM      7  S   UNL     1      35.743 -24.379 -12.396  0.00  0.00    +0.079 S 
ATOM      8  O   UNL     1      35.722 -22.942 -12.199  0.00  0.00    -0.150 OA
ATOM      9  O   UNL     1      35.787 -25.276 -11.258  0.00  0.00    -0.150 OA
BRANCH   7  12
ATOM     10  O   UNL     1      32.852 -23.284 -12.702  0.00  0.00    -0.251 OA
ATOM     11  N   UNL     1      32.312 -24.791 -14.370  0.00  0.00    -0.289 N 
ATOM     12  N   UNL     1      34.450 -24.829 -13.420  0.00  0.00    -0.169 N 
ATOM     13  C   UNL     1      33.156 -24.218 -13.438  0.00  0.00    +0.319 C 
ATOM     14  H   UNL     1      32.651 -25.538 -14.915  0.00  0.00    +0.151 HD
ATOM     15  H   UNL     1      34.608 -25.571 -14.047  0.00  0.00    +0.178 HD
BRANCH  11  16
ATOM     16  C   UNL     1      30.955 -24.343 -14.581  0.00  0.00    +0.073 C 
ATOM     17  C   UNL     1      30.049 -25.530 -14.898  0.00  0.00    +0.021 C 
ATOM     18  C   UNL     1      30.929 -23.318 -15.710  0.00  0.00    +0.021 C 
ENDBRANCH  11  16
ENDBRANCH   7  12
ENDBRANCH   2   7
BRANCH   3  19
ATOM     19  N   UNL     1      36.583 -23.012 -15.009  0.00  0.00    -0.311 N 
ATOM     20  H   UNL     1      36.422 -22.329 -14.318  0.00  0.00    +0.152 HD
BRANCH  19  21
ATOM     21  C   UNL     1      35.953 -22.733 -16.237  0.00  0.00    +0.048 C 
ATOM     22  C   UNL     1      36.640 -22.037 -17.234  0.00  0.00    +0.010 C 
ATOM     23  C   UNL     1      36.016 -21.762 -18.451  0.00  0.00    -0.021 C 
ATOM     24  C   UNL     1      34.641 -23.153 -16.462  0.00  0.00    +0.015 C 
ATOM     25  C   UNL     1      34.705 -22.183 -18.673  0.00  0.00    -0.004 C 
ATOM     26  C   UNL     1      34.018 -22.879 -17.679  0.00  0.00    +0.001 C 
ATOM     27  C   UNL     1      36.750 -21.018 -19.514  0.00  0.00    +0.031 C 
ENDBRANCH  19  21
ENDBRANCH   3  19
TORSDOF 5
ENDMDL
MODEL 4
REMARK VINA RESULT:      -9.9      4.512      7.757
REMARK  Name = 41781
REMARK  5 active torsions:
REMARK  status: ('A' for Active; 'I' for Inactive)
REMARK    1  A    between atoms: C_2  and  S_7
REMARK    2  A    between atoms: C_3  and  N_19
REMARK    3  A    between atoms: S_7  and  N_12
REMARK    4  A    between atoms: N_11  and  C_16
REMARK    5  A    between atoms: N_19  and  C_21
REMARK                            x       y       z     vdW  Elec       q    Type
REMARK                         _______ _______ _______ _____ _____    ______ ____
ROOT
ATOM      1  N   UNL     1      37.227 -21.718 -16.769  0.00  0.00    -0.241 NA
ATOM      2  C   UNL     1      35.138 -22.385 -17.742  0.00  0.00    +0.158 C 
ATOM      3  C   UNL     1      34.783 -23.064 -16.596  0.00  0.00    +0.071 C 
ATOM      4  C   UNL     1      36.347 -21.732 -17.795  0.00  0.00    +0.120 C 
ATOM      5  C   UNL     1      35.662 -23.073 -15.518  0.00  0.00    +0.037 C 
ATOM      6  C   UNL     1      36.861 -22.390 -15.654  0.00  0.00    +0.100 C 
ENDROOT
BRANCH   2   7
ATOM      7  S   UNL     1      34.074 -22.330 -19.152  0.00  0.00    +0.079 S 
ATOM      8  O   UNL     1      32.781 -21.832 -18.722  0.00  0.00    -0.150 OA
ATOM      9  O   UNL     1      34.183 -23.617 -19.811  0.00  0.00    -0.150 OA
BRANCH   7  12
ATOM     10  O   UNL     1      32.974 -19.955 -20.826  0.00  0.00    -0.251 OA
ATOM     11  N   UNL     1      35.078 -19.283 -21.507  0.00  0.00    -0.289 N 
ATOM     12  N   UNL     1      34.851 -21.141 -20.102  0.00  0.00    -0.169 N 
ATOM     13  C   UNL     1      34.192 -20.097 -20.826  0.00  0.00    +0.319 C 
ATOM     14  H   UNL     1      36.041 -19.480 -21.444  0.00  0.00    +0.151 HD
ATOM     15  H   UNL     1      35.834 -21.178 -20.157  0.00  0.00    +0.178 HD
BRANCH  11  16
ATOM     16  C   UNL     1      34.654 -18.156 -22.304  0.00  0.00    +0.073 C 
ATOM     17  C   UNL     1      35.313 -18.204 -23.680  0.00  0.00    +0.021 C 
ATOM     18  C   UNL     1      35.000 -16.860 -21.577  0.00  0.00    +0.021 C 
ENDBRANCH  11  16
ENDBRANCH   7  12
ENDBRANCH   2   7
BRANCH   3  19
ATOM     19  N   UNL     1      33.556 -23.752 -16.485  0.00  0.00    -0.311 N 
ATOM     20  H   UNL     1      33.495 -24.548 -17.061  0.00  0.00    +0.152 HD
BRANCH  19  21
ATOM     21  C   UNL     1      32.401 -23.523 -15.712  0.00  0.00    +0.048 C 
ATOM     22  C   UNL     1      31.195 -23.199 -16.335  0.00  0.00    +0.010 C 
ATOM     23  C   UNL     1      30.050 -22.975 -15.569  0.00  0.00    -0.021 C 
ATOM     24  C   UNL     1      32.460 -23.621 -14.321  0.00  0.00    +0.015 C 
ATOM     25  C   UNL     1      30.111 -23.073 -14.179  0.00  0.00    -0.004 C 
ATOM     26  C   UNL     1      31.316 -23.397 -13.555  0.00  0.00    +0.001 C 
ATOM     27  C   UNL     1      28.763 -22.628 -16.236  0.00  0.00    +0.031 C 
ENDBRANCH  19  21
ENDBRANCH   3  19
TORSDOF 5
ENDMDL
MODEL 5
REMARK VINA RESULT:      -9.8      1.826      8.623
REMARK  Name = 41781
REMARK  5 active torsions:
REMARK  status: ('A' for Active; 'I' for Inactive)
REMARK    1  A    between atoms: C_2  and  S_7
REMARK    2  A    between atoms: C_3  and  N_19
REMARK    3  A    between atoms: S_7  and  N_12
REMARK    4  A    between atoms: N_11  and  C_16
REMARK    5  A    between atoms: N_19  and  C_21
REMARK                            x       y       z     vdW  Elec       q    Type
REMARK                         _______ _______ _______ _____ _____    ______ ____
ROOT
ATOM      1  N   UNL     1      33.271 -14.897 -26.705  0.00  0.00    -0.241 NA
ATOM      2  C   UNL     1      33.600 -14.298 -24.406  0.00  0.00    +0.158 C 
ATOM      3  C   UNL     1      33.735 -12.966 -24.738  0.00  0.00    +0.071 C 
ATOM      4  C   UNL     1      33.372 -15.223 -25.397  0.00  0.00    +0.120 C 
ATOM      5  C   UNL     1      33.638 -12.592 -26.073  0.00  0.00    +0.037 C 
ATOM      6  C   UNL     1      33.407 -13.586 -27.010  0.00  0.00    +0.100 C 
ENDROOT
BRANCH   2   7
ATOM      7  S   UNL     1      33.712 -14.849 -22.730  0.00  0.00    +0.079 S 
ATOM      8  O   UNL     1      32.388 -14.774 -22.141  0.00  0.00    -0.150 OA
ATOM      9  O   UNL     1      34.825 -14.143 -22.128  0.00  0.00    -0.150 OA
BRANCH   7  12
ATOM     10  O   UNL     1      34.628 -17.052 -20.741  0.00  0.00    -0.251 OA
ATOM     11  N   UNL     1      34.833 -18.653 -22.396  0.00  0.00    -0.289 N 
ATOM     12  N   UNL     1      34.139 -16.489 -22.954  0.00  0.00    -0.169 N 
ATOM     13  C   UNL     1      34.549 -17.388 -21.918  0.00  0.00    +0.319 C 
ATOM     14  H   UNL     1      34.738 -18.824 -23.361  0.00  0.00    +0.151 HD
ATOM     15  H   UNL     1      34.101 -16.845 -23.872  0.00  0.00    +0.178 HD
BRANCH  11  16
ATOM     16  C   UNL     1      35.261 -19.737 -21.543  0.00  0.00    +0.073 C 
ATOM     17  C   UNL     1      34.154 -20.104 -20.559  0.00  0.00    +0.021 C 
ATOM     18  C   UNL     1      36.535 -19.332 -20.807  0.00  0.00    +0.021 C 
ENDBRANCH  11  16
ENDBRANCH   7  12
ENDBRANCH   2   7
BRANCH   3  19
ATOM     19  N   UNL     1      33.969 -11.973 -23.762  0.00  0.00    -0.311 N 
ATOM     20  H   UNL     1      34.597 -12.253 -23.056  0.00  0.00    +0.152 HD
BRANCH  19  21
ATOM     21  C   UNL     1      33.484 -10.662 -23.600  0.00  0.00    +0.048 C 
ATOM     22  C   UNL     1      34.270  -9.572 -23.977  0.00  0.00    +0.010 C 
ATOM     23  C   UNL     1      33.788  -8.273 -23.818  0.00  0.00    -0.021 C 
ATOM     24  C   UNL     1      32.214 -10.448 -23.061  0.00  0.00    +0.015 C 
ATOM     25  C   UNL     1      32.519  -8.062 -23.279  0.00  0.00    -0.004 C 
ATOM     26  C   UNL     1      31.731  -9.149 -22.901  0.00  0.00    +0.001 C 
ATOM     27  C   UNL     1      34.630  -7.111 -24.221  0.00  0.00    +0.031 C 
ENDBRANCH  19  21
ENDBRANCH   3  19
TORSDOF 5
ENDMDL
MODEL 6
REMARK VINA RESULT:      -9.0      1.546      7.914
REMARK  Name = 41781
REMARK  5 active torsions:
REMARK  status: ('A' for Active; 'I' for Inactive)
REMARK    1  A    between atoms: C_2  and  S_7
REMARK    2  A    between atoms: C_3  and  N_19
REMARK    3  A    between atoms: S_7  and  N_12
REMARK    4  A    between atoms: N_11  and  C_16
REMARK    5  A    between atoms: N_19  and  C_21
REMARK                            x       y       z     vdW  Elec       q    Type
REMARK                         _______ _______ _______ _____ _____    ______ ____
ROOT
ATOM      1  N   UNL     1      34.652 -16.979 -25.107  0.00  0.00    -0.241 NA
ATOM      2  C   UNL     1      34.012 -15.760 -23.143  0.00  0.00    +0.158 C 
ATOM      3  C   UNL     1      33.345 -14.821 -23.902  0.00  0.00    +0.071 C 
ATOM      4  C   UNL     1      34.644 -16.809 -23.766  0.00  0.00    +0.120 C 
ATOM      5  C   UNL     1      33.332 -14.961 -25.286  0.00  0.00    +0.037 C 
ATOM      6  C   UNL     1      33.994 -16.048 -25.834  0.00  0.00    +0.100 C 
ENDROOT
BRANCH   2   7
ATOM      7  S   UNL     1      34.073 -15.648 -21.380  0.00  0.00    +0.079 S 
ATOM      8  O   UNL     1      32.733 -15.859 -20.868  0.00  0.00    -0.150 OA
ATOM      9  O   UNL     1      34.800 -14.435 -21.060  0.00  0.00    -0.150 OA
BRANCH   7  12
ATOM     10  O   UNL     1      33.433 -18.683 -21.197  0.00  0.00    -0.251 OA
ATOM     11  N   UNL     1      35.600 -19.244 -20.620  0.00  0.00    -0.289 N 
ATOM     12  N   UNL     1      35.044 -17.003 -21.001  0.00  0.00    -0.169 N 
ATOM     13  C   UNL     1      34.592 -18.360 -20.956  0.00  0.00    +0.319 C 
ATOM     14  H   UNL     1      36.501 -18.886 -20.444  0.00  0.00    +0.151 HD
ATOM     15  H   UNL     1      35.993 -16.836 -20.796  0.00  0.00    +0.178 HD
BRANCH  11  16
ATOM     16  C   UNL     1      35.393 -20.670 -20.516  0.00  0.00    +0.073 C 
ATOM     17  C   UNL     1      34.067 -20.961 -19.817  0.00  0.00    +0.021 C 
ATOM     18  C   UNL     1      36.559 -21.300 -19.762  0.00  0.00    +0.021 C 
ENDBRANCH  11  16
ENDBRANCH   7  12
ENDBRANCH   2   7
BRANCH   3  19
ATOM     19  N   UNL     1      32.679 -13.724 -23.317  0.00  0.00    -0.311 N 
ATOM     20  H   UNL     1      31.896 -13.979 -22.777  0.00  0.00    +0.152 HD
BRANCH  19  21
ATOM     21  C   UNL     1      32.914 -12.336 -23.352  0.00  0.00    +0.048 C 
ATOM     22  C   UNL     1      32.208 -11.484 -22.500  0.00  0.00    +0.010 C 
ATOM     23  C   UNL     1      32.443 -10.109 -22.534  0.00  0.00    -0.021 C 
ATOM     24  C   UNL     1      33.853 -11.808 -24.240  0.00  0.00    +0.015 C 
ATOM     25  C   UNL     1      33.381  -9.584 -23.421  0.00  0.00    -0.004 C 
ATOM     26  C   UNL     1      34.087 -10.433 -24.274  0.00  0.00    +0.001 C 
ATOM     27  C   UNL     1      31.688  -9.202 -21.623  0.00  0.00    +0.031 C 
ENDBRANCH  19  21
ENDBRANCH   3  19
TORSDOF 5
ENDMDL
MODEL 7
REMARK VINA RESULT:      -9.0      4.580      7.391
REMARK  Name = 41781
REMARK  5 active torsions:
REMARK  status: ('A' for Active; 'I' for Inactive)
REMARK    1  A    between atoms: C_2  and  S_7
REMARK    2  A    between atoms: C_3  and  N_19
REMARK    3  A    between atoms: S_7  and  N_12
REMARK    4  A    between atoms: N_11  and  C_16
REMARK    5  A    between atoms: N_19  and  C_21
REMARK                            x       y       z     vdW  Elec       q    Type
REMARK                         _______ _______ _______ _____ _____    ______ ____
ROOT
ATOM      1  N   UNL     1      32.731 -22.659 -18.401  0.00  0.00    -0.241 NA
ATOM      2  C   UNL     1      35.033 -21.985 -18.370  0.00  0.00    +0.158 C 
ATOM      3  C   UNL     1      35.232 -22.603 -17.154  0.00  0.00    +0.071 C 
ATOM      4  C   UNL     1      33.790 -22.031 -18.957  0.00  0.00    +0.120 C 
ATOM      5  C   UNL     1      34.166 -23.260 -16.549  0.00  0.00    +0.037 C 
ATOM      6  C   UNL     1      32.946 -23.259 -17.208  0.00  0.00    +0.100 C 
ENDROOT
BRANCH   2   7
ATOM      7  S   UNL     1      36.339 -21.130 -19.199  0.00  0.00    +0.079 S 
ATOM      8  O   UNL     1      37.009 -22.072 -20.075  0.00  0.00    -0.150 OA
ATOM      9  O   UNL     1      37.085 -20.415 -18.182  0.00  0.00    -0.150 OA
BRANCH   7  12
ATOM     10  O   UNL     1      37.226 -18.970 -21.248  0.00  0.00    -0.251 OA
ATOM     11  N   UNL     1      35.058 -18.289 -21.673  0.00  0.00    -0.289 N 
ATOM     12  N   UNL     1      35.453 -20.012 -20.140  0.00  0.00    -0.169 N 
ATOM     13  C   UNL     1      36.018 -19.064 -21.051  0.00  0.00    +0.319 C 
ATOM     14  H   UNL     1      34.112 -18.441 -21.447  0.00  0.00    +0.151 HD
ATOM     15  H   UNL     1      34.473 -20.019 -20.046  0.00  0.00    +0.178 HD
BRANCH  11  16
ATOM     16  C   UNL     1      35.380 -17.266 -22.640  0.00  0.00    +0.073 C 
ATOM     17  C   UNL     1      34.663 -15.964 -22.293  0.00  0.00    +0.021 C 
ATOM     18  C   UNL     1      34.996 -17.747 -24.036  0.00  0.00    +0.021 C 
ENDBRANCH  11  16
ENDBRANCH   7  12
ENDBRANCH   2   7
BRANCH   3  19
ATOM     19  N   UNL     1      36.485 -22.588 -16.505  0.00  0.00    -0.311 N 
ATOM     20  H   UNL     1      37.158 -22.030 -16.958  0.00  0.00    +0.152 HD
BRANCH  19  21
ATOM     21  C   UNL     1      36.962 -23.212 -15.337  0.00  0.00    +0.048 C 
ATOM     22  C   UNL     1      38.046 -24.089 -15.404  0.00  0.00    +0.010 C 
ATOM     23  C   UNL     1      38.520 -24.706 -14.246  0.00  0.00    -0.021 C 
ATOM     24  C   UNL     1      36.352 -22.956 -14.108  0.00  0.00    +0.015 C 
ATOM     25  C   UNL     1      37.909 -24.449 -13.019  0.00  0.00    -0.004 C 
ATOM     26  C   UNL     1      36.825 -23.574 -12.949  0.00  0.00    +0.001 C 
ATOM     27  C   UNL     1      39.678 -25.643 -14.320  0.00  0.00    +0.031 C 
ENDBRANCH  19  21
ENDBRANCH   3  19
TORSDOF 5
ENDMDL
MODEL 8
REMARK VINA RESULT:      -8.9      2.696      9.508
REMARK  Name = 41781
REMARK  5 active torsions:
REMARK  status: ('A' for Active; 'I' for Inactive)
REMARK    1  A    between atoms: C_2  and  S_7
REMARK    2  A    between atoms: C_3  and  N_19
REMARK    3  A    between atoms: S_7  and  N_12
REMARK    4  A    between atoms: N_11  and  C_16
REMARK    5  A    between atoms: N_19  and  C_21
REMARK                            x       y       z     vdW  Elec       q    Type
REMARK                         _______ _______ _______ _____ _____    ______ ____
ROOT
ATOM      1  N   UNL     1      31.804 -12.543 -19.714  0.00  0.00    -0.241 NA
ATOM      2  C   UNL     1      32.477 -12.473 -22.016  0.00  0.00    +0.158 C 
ATOM      3  C   UNL     1      32.071 -11.160 -22.128  0.00  0.00    +0.071 C 
ATOM      4  C   UNL     1      32.332 -13.125 -20.814  0.00  0.00    +0.120 C 
ATOM      5  C   UNL     1      31.522 -10.527 -21.018  0.00  0.00    +0.037 C 
ATOM      6  C   UNL     1      31.412 -11.256 -19.845  0.00  0.00    +0.100 C 
ENDROOT
BRANCH   2   7
ATOM      7  S   UNL     1      33.182 -13.343 -23.382  0.00  0.00    +0.079 S 
ATOM      8  O   UNL     1      34.278 -12.551 -23.905  0.00  0.00    -0.150 OA
ATOM      9  O   UNL     1      32.083 -13.735 -24.243  0.00  0.00    -0.150 OA
BRANCH   7  12
ATOM     10  O   UNL     1      34.708 -15.828 -24.453  0.00  0.00    -0.251 OA
ATOM     11  N   UNL     1      34.886 -16.791 -22.358  0.00  0.00    -0.289 N 
ATOM     12  N   UNL     1      33.807 -14.729 -22.600  0.00  0.00    -0.169 N 
ATOM     13  C   UNL     1      34.495 -15.805 -23.245  0.00  0.00    +0.319 C 
ATOM     14  H   UNL     1      34.668 -16.679 -21.405  0.00  0.00    +0.151 HD
ATOM     15  H   UNL     1      33.683 -14.791 -21.625  0.00  0.00    +0.178 HD
BRANCH  11  16
ATOM     16  C   UNL     1      35.603 -17.976 -22.768  0.00  0.00    +0.073 C 
ATOM     17  C   UNL     1      34.646 -18.976 -23.411  0.00  0.00    +0.021 C 
ATOM     18  C   UNL     1      36.305 -18.589 -21.561  0.00  0.00    +0.021 C 
ENDBRANCH  11  16
ENDBRANCH   7  12
ENDBRANCH   2   7
BRANCH   3  19
ATOM     19  N   UNL     1      32.195 -10.441 -23.336  0.00  0.00    -0.311 N 
ATOM     20  H   UNL     1      31.895 -10.944 -24.128  0.00  0.00    +0.152 HD
BRANCH  19  21
ATOM     21  C   UNL     1      32.662  -9.146 -23.632  0.00  0.00    +0.048 C 
ATOM     22  C   UNL     1      31.755  -8.110 -23.860  0.00  0.00    +0.010 C 
ATOM     23  C   UNL     1      32.218  -6.826 -24.152  0.00  0.00    -0.021 C 
ATOM     24  C   UNL     1      34.033  -8.895 -23.698  0.00  0.00    +0.015 C 
ATOM     25  C   UNL     1      33.588  -6.578 -24.217  0.00  0.00    -0.004 C 
ATOM     26  C   UNL     1      34.497  -7.611 -23.990  0.00  0.00    +0.001 C 
ATOM     27  C   UNL     1      31.247  -5.721 -24.395  0.00  0.00    +0.031 C 
ENDBRANCH  19  21
ENDBRANCH   3  19
TORSDOF 5
ENDMDL
MODEL 9
REMARK VINA RESULT:      -8.8      5.314      8.528
REMARK  Name = 41781
REMARK  5 active torsions:
REMARK  status: ('A' for Active; 'I' for Inactive)
REMARK    1  A    between atoms: C_2  and  S_7
REMARK    2  A    between atoms: C_3  and  N_19
REMARK    3  A    between atoms: S_7  and  N_12
REMARK    4  A    between atoms: N_11  and  C_16
REMARK    5  A    between atoms: N_19  and  C_21
REMARK                            x       y       z     vdW  Elec       q    Type
REMARK                         _______ _______ _______ _____ _____    ______ ____
ROOT
ATOM      1  N   UNL     1      31.129 -22.859 -16.345  0.00  0.00    -0.241 NA
ATOM      2  C   UNL     1      33.344 -22.927 -17.265  0.00  0.00    +0.158 C 
ATOM      3  C   UNL     1      33.883 -23.222 -16.031  0.00  0.00    +0.071 C 
ATOM      4  C   UNL     1      31.985 -22.755 -17.387  0.00  0.00    +0.120 C 
ATOM      5  C   UNL     1      33.035 -23.336 -14.935  0.00  0.00    +0.037 C 
ATOM      6  C   UNL     1      31.678 -23.147 -15.143  0.00  0.00    +0.100 C 
ENDROOT
BRANCH   2   7
ATOM      7  S   UNL     1      34.359 -22.765 -18.703  0.00  0.00    +0.079 S 
ATOM      8  O   UNL     1      34.100 -23.901 -19.567  0.00  0.00    -0.150 OA
ATOM      9  O   UNL     1      35.704 -22.486 -18.239  0.00  0.00    -0.150 OA
BRANCH   7  12
ATOM     10  O   UNL     1      35.534 -20.696 -20.700  0.00  0.00    -0.251 OA
ATOM     11  N   UNL     1      33.602 -19.425 -20.731  0.00  0.00    -0.289 N 
ATOM     12  N   UNL     1      33.702 -21.354 -19.410  0.00  0.00    -0.169 N 
ATOM     13  C   UNL     1      34.383 -20.491 -20.325  0.00  0.00    +0.319 C 
ATOM     14  H   UNL     1      32.688 -19.349 -20.373  0.00  0.00    +0.151 HD
ATOM     15  H   UNL     1      32.778 -21.115 -19.166  0.00  0.00    +0.178 HD
BRANCH  11  16
ATOM     16  C   UNL     1      34.066 -18.420 -21.658  0.00  0.00    +0.073 C 
ATOM     17  C   UNL     1      34.574 -19.076 -22.939  0.00  0.00    +0.021 C 
ATOM     18  C   UNL     1      35.160 -17.587 -20.999  0.00  0.00    +0.021 C 
ENDBRANCH  11  16
ENDBRANCH   7  12
ENDBRANCH   2   7
BRANCH   3  19
ATOM     19  N   UNL     1      35.270 -23.409 -15.847  0.00  0.00    -0.311 N 
ATOM     20  H   UNL     1      35.826 -22.833 -16.421  0.00  0.00    +0.152 HD
BRANCH  19  21
ATOM     21  C   UNL     1      36.015 -24.256 -15.004  0.00  0.00    +0.048 C 
ATOM     22  C   UNL     1      36.711 -23.725 -13.917  0.00  0.00    +0.010 C 
ATOM     23  C   UNL     1      37.448 -24.565 -13.081  0.00  0.00    -0.021 C 
ATOM     24  C   UNL     1      36.059 -25.628 -15.254  0.00  0.00    +0.015 C 
ATOM     25  C   UNL     1      37.490 -25.936 -13.332  0.00  0.00    -0.004 C 
ATOM     26  C   UNL     1      36.795 -26.468 -14.418  0.00  0.00    +0.001 C 
ATOM     27  C   UNL     1      38.191 -23.996 -11.920  0.00  0.00    +0.031 C 
ENDBRANCH  19  21
ENDBRANCH   3  19
TORSDOF 5
ENDMDL
