MODEL 1
REMARK VINA RESULT:     -11.4      0.000      0.000
REMARK  Name = 135565884
REMARK  6 active torsions:
REMARK  status: ('A' for Active; 'I' for Inactive)
REMARK    1  A    between atoms: C_4  and  C_13
REMARK    2  A    between atoms: C_8  and  C_36
REMARK    3  A    between atoms: C_9  and  C_21
REMARK    4  A    between atoms: C_18  and  C_19
REMARK    5  A    between atoms: C_26  and  O_27
REMARK    6  A    between atoms: O_27  and  C_28
REMARK                            x       y       z     vdW  Elec       q    Type
REMARK                         _______ _______ _______ _____ _____    ______ ____
ROOT
ATOM      1  N   UNL     1      34.654 -23.885 -15.027  0.00  0.00    -0.240 N 
ATOM      2  N   UNL     1      36.693 -23.850 -13.828  0.00  0.00    -0.318 N 
ATOM      3  N   UNL     1      34.082 -23.496 -16.181  0.00  0.00    -0.168 NA
ATOM      4  C   UNL     1      33.938 -24.698 -14.049  0.00  0.00    +0.108 C 
ATOM      5  C   UNL     1      34.660 -24.619 -12.691  0.00  0.00    +0.046 C 
ATOM      6  C   UNL     1      36.169 -24.805 -12.864  0.00  0.00    +0.090 C 
ATOM      7  C   UNL     1      35.964 -23.499 -14.906  0.00  0.00    +0.131 A 
ATOM      8  C   UNL     1      36.244 -22.758 -16.028  0.00  0.00    +0.103 A 
ATOM      9  C   UNL     1      35.051 -22.794 -16.778  0.00  0.00    +0.108 A 
ATOM     10  H   UNL     1      37.586 -23.458 -13.692  0.00  0.00    +0.148 HD
ENDROOT
BRANCH   4  13
ATOM     11  O   UNL     1      28.933 -21.704 -16.229  0.00  0.00    -0.270 OA
ATOM     12  N   UNL     1      29.932 -23.395 -14.984  0.00  0.00    -0.276 N 
ATOM     13  C   UNL     1      32.474 -24.298 -13.892  0.00  0.00    +0.026 C 
ATOM     14  C   UNL     1      32.253 -22.846 -14.337  0.00  0.00    +0.023 C 
ATOM     15  C   UNL     1      31.561 -25.236 -14.692  0.00  0.00    +0.023 C 
ATOM     16  C   UNL     1      30.779 -22.462 -14.237  0.00  0.00    +0.094 C 
ATOM     17  C   UNL     1      30.095 -24.807 -14.606  0.00  0.00    +0.094 C 
ATOM     18  C   UNL     1      29.046 -22.895 -15.935  0.00  0.00    +0.249 C 
BRANCH  18  19
ATOM     19  C   UNL     1      28.175 -23.857 -16.638  0.00  0.00    +0.058 C 
ATOM     20  C   UNL     1      27.440 -23.428 -17.667  0.00  0.00    +0.005 C 
ENDBRANCH  18  19
ENDBRANCH   4  13
BRANCH   9  21
ATOM     21  C   UNL     1      34.811 -22.178 -18.059  0.00  0.00    +0.020 C 
ATOM     22  C   UNL     1      35.884 -21.727 -18.829  0.00  0.00    +0.005 C 
ATOM     23  C   UNL     1      33.506 -22.030 -18.527  0.00  0.00    +0.005 C 
ATOM     24  C   UNL     1      35.651 -21.129 -20.067  0.00  0.00    +0.038 C 
ATOM     25  C   UNL     1      33.273 -21.432 -19.765  0.00  0.00    +0.038 C 
ATOM     26  C   UNL     1      34.345 -20.981 -20.535  0.00  0.00    +0.145 C 
BRANCH  26  27
ATOM     27  O   UNL     1      34.116 -20.398 -21.743  0.00  0.00    -0.453 OA
BRANCH  27  28
ATOM     28  C   UNL     1      34.400 -19.050 -21.872  0.00  0.00    +0.145 C 
ATOM     29  C   UNL     1      33.809 -18.127 -21.009  0.00  0.00    +0.037 C 
ATOM     30  C   UNL     1      35.278 -18.612 -22.865  0.00  0.00    +0.037 C 
ATOM     31  C   UNL     1      34.094 -16.768 -21.138  0.00  0.00    +0.003 C 
ATOM     32  C   UNL     1      35.563 -17.253 -22.994  0.00  0.00    +0.003 C 
ATOM     33  C   UNL     1      34.971 -16.330 -22.131  0.00  0.00    +0.000 C 
ENDBRANCH  27  28
ENDBRANCH  26  27
ENDBRANCH   9  21
BRANCH   8  36
ATOM     34  O   UNL     1      38.587 -22.725 -16.263  0.00  0.00    -0.270 OA
ATOM     35  N   UNL     1      37.476 -20.769 -16.707  0.00  0.00    -0.325 N 
ATOM     36  C   UNL     1      37.492 -22.117 -16.323  0.00  0.00    +0.247 C 
ATOM     37  H   UNL     1      38.321 -20.306 -16.914  0.00  0.00    +0.145 HD
ATOM     38  H   UNL     1      36.622 -20.285 -16.770  0.00  0.00    +0.145 HD
ENDBRANCH   8  36
TORSDOF 6
ENDMDL
MODEL 2
REMARK VINA RESULT:     -11.2     11.216     17.369
REMARK  Name = 135565884
REMARK  6 active torsions:
REMARK  status: ('A' for Active; 'I' for Inactive)
REMARK    1  A    between atoms: C_4  and  C_13
REMARK    2  A    between atoms: C_8  and  C_36
REMARK    3  A    between atoms: C_9  and  C_21
REMARK    4  A    between atoms: C_18  and  C_19
REMARK    5  A    between atoms: C_26  and  O_27
REMARK    6  A    between atoms: O_27  and  C_28
REMARK                            x       y       z     vdW  Elec       q    Type
REMARK                         _______ _______ _______ _____ _____    ______ ____
ROOT
ATOM      1  N   UNL     1      31.542  -6.615 -23.486  0.00  0.00    -0.240 N 
ATOM      2  N   UNL     1      31.336  -5.601 -21.360  0.00  0.00    -0.318 N 
ATOM      3  N   UNL     1      31.848  -7.775 -24.096  0.00  0.00    -0.168 NA
ATOM      4  C   UNL     1      31.077  -5.452 -24.235  0.00  0.00    +0.108 C 
ATOM      5  C   UNL     1      31.223  -4.190 -23.363  0.00  0.00    +0.046 C 
ATOM      6  C   UNL     1      30.690  -4.439 -21.951  0.00  0.00    +0.090 C 
ATOM      7  C   UNL     1      31.651  -6.667 -22.121  0.00  0.00    +0.131 A 
ATOM      8  C   UNL     1      32.117  -7.926 -21.827  0.00  0.00    +0.103 A 
ATOM      9  C   UNL     1      32.214  -8.564 -23.081  0.00  0.00    +0.108 A 
ATOM     10  H   UNL     1      31.542  -5.608 -20.397  0.00  0.00    +0.148 HD
ENDROOT
BRANCH   4  13
ATOM     11  O   UNL     1      34.463  -1.857 -28.028  0.00  0.00    -0.270 OA
ATOM     12  N   UNL     1      33.784  -3.935 -27.234  0.00  0.00    -0.276 N 
ATOM     13  C   UNL     1      31.805  -5.261 -25.563  0.00  0.00    +0.026 C 
ATOM     14  C   UNL     1      31.587  -3.843 -26.108  0.00  0.00    +0.023 C 
ATOM     15  C   UNL     1      33.306  -5.538 -25.411  0.00  0.00    +0.023 C 
ATOM     16  C   UNL     1      32.361  -3.631 -27.405  0.00  0.00    +0.094 C 
ATOM     17  C   UNL     1      34.064  -5.282 -26.714  0.00  0.00    +0.094 C 
ATOM     18  C   UNL     1      34.730  -2.979 -27.594  0.00  0.00    +0.249 C 
BRANCH  18  19
ATOM     19  C   UNL     1      36.157  -3.334 -27.451  0.00  0.00    +0.058 C 
ATOM     20  C   UNL     1      36.848  -3.670 -28.542  0.00  0.00    +0.005 C 
ENDBRANCH  18  19
ENDBRANCH   4  13
BRANCH   9  21
ATOM     21  C   UNL     1      32.646  -9.915 -23.336  0.00  0.00    +0.020 C 
ATOM     22  C   UNL     1      31.908 -10.989 -22.838  0.00  0.00    +0.005 C 
ATOM     23  C   UNL     1      33.803 -10.148 -24.079  0.00  0.00    +0.005 C 
ATOM     24  C   UNL     1      32.328 -12.297 -23.084  0.00  0.00    +0.038 C 
ATOM     25  C   UNL     1      34.222 -11.455 -24.325  0.00  0.00    +0.038 C 
ATOM     26  C   UNL     1      33.486 -12.529 -23.827  0.00  0.00    +0.145 C 
BRANCH  26  27
ATOM     27  O   UNL     1      33.896 -13.805 -24.068  0.00  0.00    -0.453 OA
BRANCH  27  28
ATOM     28  C   UNL     1      34.192 -14.603 -22.976  0.00  0.00    +0.145 C 
ATOM     29  C   UNL     1      34.047 -14.099 -21.684  0.00  0.00    +0.037 C 
ATOM     30  C   UNL     1      34.637 -15.911 -23.169  0.00  0.00    +0.037 C 
ATOM     31  C   UNL     1      34.346 -14.903 -20.584  0.00  0.00    +0.003 C 
ATOM     32  C   UNL     1      34.937 -16.715 -22.068  0.00  0.00    +0.003 C 
ATOM     33  C   UNL     1      34.791 -16.211 -20.776  0.00  0.00    +0.000 C 
ENDBRANCH  27  28
ENDBRANCH  26  27
ENDBRANCH   9  21
BRANCH   8  36
ATOM     34  O   UNL     1      31.976  -9.528 -20.107  0.00  0.00    -0.270 OA
ATOM     35  N   UNL     1      33.242  -7.665 -19.683  0.00  0.00    -0.325 N 
ATOM     36  C   UNL     1      32.415  -8.428 -20.518  0.00  0.00    +0.247 C 
ATOM     37  H   UNL     1      33.462  -7.988 -18.779  0.00  0.00    +0.145 HD
ATOM     38  H   UNL     1      33.603  -6.806 -20.000  0.00  0.00    +0.145 HD
ENDBRANCH   8  36
TORSDOF 6
ENDMDL
MODEL 3
REMARK VINA RESULT:     -10.2     11.459     17.526
REMARK  Name = 135565884
REMARK  6 active torsions:
REMARK  status: ('A' for Active; 'I' for Inactive)
REMARK    1  A    between atoms: C_4  and  C_13
REMARK    2  A    between atoms: C_8  and  C_36
REMARK    3  A    between atoms: C_9  and  C_21
REMARK    4  A    between atoms: C_18  and  C_19
REMARK    5  A    between atoms: C_26  and  O_27
REMARK    6  A    between atoms: O_27  and  C_28
REMARK                            x       y       z     vdW  Elec       q    Type
REMARK                         _______ _______ _______ _____ _____    ______ ____
ROOT
ATOM      1  N   UNL     1      31.715  -6.362 -23.580  0.00  0.00    -0.240 N 
ATOM      2  N   UNL     1      31.443  -5.003 -21.663  0.00  0.00    -0.318 N 
ATOM      3  N   UNL     1      31.939  -7.629 -23.973  0.00  0.00    -0.168 NA
ATOM      4  C   UNL     1      31.451  -5.294 -24.539  0.00  0.00    +0.108 C 
ATOM      5  C   UNL     1      31.664  -3.929 -23.857  0.00  0.00    +0.046 C 
ATOM      6  C   UNL     1      30.987  -3.894 -22.486  0.00  0.00    +0.090 C 
ATOM      7  C   UNL     1      31.700  -6.204 -22.218  0.00  0.00    +0.131 A 
ATOM      8  C   UNL     1      31.992  -7.439 -21.692  0.00  0.00    +0.103 A 
ATOM      9  C   UNL     1      32.125  -8.277 -22.818  0.00  0.00    +0.108 A 
ATOM     10  H   UNL     1      31.564  -4.875 -20.694  0.00  0.00    +0.148 HD
ENDROOT
BRANCH   4  13
ATOM     11  O   UNL     1      35.331  -2.620 -28.610  0.00  0.00    -0.270 OA
ATOM     12  N   UNL     1      34.490  -4.479 -27.493  0.00  0.00    -0.276 N 
ATOM     13  C   UNL     1      32.307  -5.393 -25.799  0.00  0.00    +0.026 C 
ATOM     14  C   UNL     1      32.204  -4.108 -26.632  0.00  0.00    +0.023 C 
ATOM     15  C   UNL     1      33.774  -5.670 -25.445  0.00  0.00    +0.023 C 
ATOM     16  C   UNL     1      33.104  -4.180 -27.862  0.00  0.00    +0.094 C 
ATOM     17  C   UNL     1      34.661  -5.700 -26.691  0.00  0.00    +0.094 C 
ATOM     18  C   UNL     1      35.507  -3.637 -27.938  0.00  0.00    +0.249 C 
BRANCH  18  19
ATOM     19  C   UNL     1      36.897  -3.991 -27.585  0.00  0.00    +0.058 C 
ATOM     20  C   UNL     1      37.668  -4.569 -28.509  0.00  0.00    +0.005 C 
ENDBRANCH  18  19
ENDBRANCH   4  13
BRANCH   9  21
ATOM     21  C   UNL     1      32.420  -9.687 -22.821  0.00  0.00    +0.020 C 
ATOM     22  C   UNL     1      33.545 -10.164 -23.494  0.00  0.00    +0.005 C 
ATOM     23  C   UNL     1      31.580 -10.576 -22.151  0.00  0.00    +0.005 C 
ATOM     24  C   UNL     1      33.830 -11.530 -23.498  0.00  0.00    +0.038 C 
ATOM     25  C   UNL     1      31.864 -11.941 -22.155  0.00  0.00    +0.038 C 
ATOM     26  C   UNL     1      32.988 -12.418 -22.828  0.00  0.00    +0.145 C 
BRANCH  26  27
ATOM     27  O   UNL     1      33.265 -13.751 -22.830  0.00  0.00    -0.453 OA
BRANCH  27  28
ATOM     28  C   UNL     1      33.270 -14.405 -24.050  0.00  0.00    +0.145 C 
ATOM     29  C   UNL     1      32.650 -13.825 -25.156  0.00  0.00    +0.037 C 
ATOM     30  C   UNL     1      33.896 -15.646 -24.174  0.00  0.00    +0.037 C 
ATOM     31  C   UNL     1      32.655 -14.484 -26.386  0.00  0.00    +0.003 C 
ATOM     32  C   UNL     1      33.901 -16.306 -25.403  0.00  0.00    +0.003 C 
ATOM     33  C   UNL     1      33.280 -15.725 -26.509  0.00  0.00    +0.000 C 
ENDBRANCH  27  28
ENDBRANCH  26  27
ENDBRANCH   9  21
BRANCH   8  36
ATOM     34  O   UNL     1      31.333  -8.535 -19.714  0.00  0.00    -0.270 OA
ATOM     35  N   UNL     1      33.169  -7.168 -19.576  0.00  0.00    -0.325 N 
ATOM     36  C   UNL     1      32.118  -7.750 -20.298  0.00  0.00    +0.247 C 
ATOM     37  H   UNL     1      33.277  -7.366 -18.618  0.00  0.00    +0.145 HD
ATOM     38  H   UNL     1      33.799  -6.561 -20.027  0.00  0.00    +0.145 HD
ENDBRANCH   8  36
TORSDOF 6
ENDMDL
MODEL 4
REMARK VINA RESULT:      -9.9     12.693     18.983
REMARK  Name = 135565884
REMARK  6 active torsions:
REMARK  status: ('A' for Active; 'I' for Inactive)
REMARK    1  A    between atoms: C_4  and  C_13
REMARK    2  A    between atoms: C_8  and  C_36
REMARK    3  A    between atoms: C_9  and  C_21
REMARK    4  A    between atoms: C_18  and  C_19
REMARK    5  A    between atoms: C_26  and  O_27
REMARK    6  A    between atoms: O_27  and  C_28
REMARK                            x       y       z     vdW  Elec       q    Type
REMARK                         _______ _______ _______ _____ _____    ______ ____
ROOT
ATOM      1  N   UNL     1      31.644  -4.619 -24.557  0.00  0.00    -0.240 N 
ATOM      2  N   UNL     1      30.947  -3.375 -22.670  0.00  0.00    -0.318 N 
ATOM      3  N   UNL     1      32.092  -5.829 -24.938  0.00  0.00    -0.168 NA
ATOM      4  C   UNL     1      31.351  -3.568 -25.526  0.00  0.00    +0.108 C 
ATOM      5  C   UNL     1      31.281  -2.210 -24.803  0.00  0.00    +0.046 C 
ATOM      6  C   UNL     1      30.442  -2.314 -23.528  0.00  0.00    +0.090 C 
ATOM      7  C   UNL     1      31.439  -4.509 -23.206  0.00  0.00    +0.131 A 
ATOM      8  C   UNL     1      31.837  -5.708 -22.665  0.00  0.00    +0.103 A 
ATOM      9  C   UNL     1      32.225  -6.482 -23.779  0.00  0.00    +0.108 A 
ATOM     10  H   UNL     1      30.928  -3.263 -21.692  0.00  0.00    +0.148 HD
ENDROOT
BRANCH   4  13
ATOM     11  O   UNL     1      36.983  -1.940 -27.623  0.00  0.00    -0.270 OA
ATOM     12  N   UNL     1      35.081  -3.277 -27.676  0.00  0.00    -0.276 N 
ATOM     13  C   UNL     1      32.360  -3.505 -26.669  0.00  0.00    +0.026 C 
ATOM     14  C   UNL     1      33.122  -2.172 -26.654  0.00  0.00    +0.023 C 
ATOM     15  C   UNL     1      33.350  -4.674 -26.591  0.00  0.00    +0.023 C 
ATOM     16  C   UNL     1      34.173  -2.131 -27.759  0.00  0.00    +0.094 C 
ATOM     17  C   UNL     1      34.415  -4.589 -27.685  0.00  0.00    +0.094 C 
ATOM     18  C   UNL     1      36.455  -3.052 -27.629  0.00  0.00    +0.249 C 
BRANCH  18  19
ATOM     19  C   UNL     1      37.345  -4.231 -27.590  0.00  0.00    +0.058 C 
ATOM     20  C   UNL     1      38.614  -4.066 -27.213  0.00  0.00    +0.005 C 
ENDBRANCH  18  19
ENDBRANCH   4  13
BRANCH   9  21
ATOM     21  C   UNL     1      32.717  -7.836 -23.765  0.00  0.00    +0.020 C 
ATOM     22  C   UNL     1      34.062  -8.094 -24.031  0.00  0.00    +0.005 C 
ATOM     23  C   UNL     1      31.846  -8.891 -23.487  0.00  0.00    +0.005 C 
ATOM     24  C   UNL     1      34.536  -9.406 -24.019  0.00  0.00    +0.038 C 
ATOM     25  C   UNL     1      32.321 -10.202 -23.475  0.00  0.00    +0.038 C 
ATOM     26  C   UNL     1      33.665 -10.459 -23.742  0.00  0.00    +0.145 C 
BRANCH  26  27
ATOM     27  O   UNL     1      34.127 -11.740 -23.729  0.00  0.00    -0.453 OA
BRANCH  27  28
ATOM     28  C   UNL     1      33.744 -12.573 -24.766  0.00  0.00    +0.145 C 
ATOM     29  C   UNL     1      33.353 -13.884 -24.500  0.00  0.00    +0.037 C 
ATOM     30  C   UNL     1      33.751 -12.101 -26.079  0.00  0.00    +0.037 C 
ATOM     31  C   UNL     1      32.968 -14.724 -25.545  0.00  0.00    +0.003 C 
ATOM     32  C   UNL     1      33.366 -12.940 -27.125  0.00  0.00    +0.003 C 
ATOM     33  C   UNL     1      32.974 -14.252 -26.858  0.00  0.00    +0.000 C 
ENDBRANCH  27  28
ENDBRANCH  26  27
ENDBRANCH   9  21
BRANCH   8  36
ATOM     34  O   UNL     1      30.896  -5.715 -20.507  0.00  0.00    -0.270 OA
ATOM     35  N   UNL     1      32.909  -6.782 -20.760  0.00  0.00    -0.325 N 
ATOM     36  C   UNL     1      31.833  -6.044 -21.272  0.00  0.00    +0.247 C 
ATOM     37  H   UNL     1      32.930  -7.026 -19.806  0.00  0.00    +0.145 HD
ATOM     38  H   UNL     1      33.644  -7.057 -21.354  0.00  0.00    +0.145 HD
ENDBRANCH   8  36
TORSDOF 6
ENDMDL
MODEL 5
REMARK VINA RESULT:      -9.4      4.963     10.369
REMARK  Name = 135565884
REMARK  6 active torsions:
REMARK  status: ('A' for Active; 'I' for Inactive)
REMARK    1  A    between atoms: C_4  and  C_13
REMARK    2  A    between atoms: C_8  and  C_36
REMARK    3  A    between atoms: C_9  and  C_21
REMARK    4  A    between atoms: C_18  and  C_19
REMARK    5  A    between atoms: C_26  and  O_27
REMARK    6  A    between atoms: O_27  and  C_28
REMARK                            x       y       z     vdW  Elec       q    Type
REMARK                         _______ _______ _______ _____ _____    ______ ____
ROOT
ATOM      1  N   UNL     1      34.097 -16.223 -23.170  0.00  0.00    -0.240 N 
ATOM      2  N   UNL     1      34.560 -16.480 -25.475  0.00  0.00    -0.318 N 
ATOM      3  N   UNL     1      34.005 -16.903 -22.013  0.00  0.00    -0.168 NA
ATOM      4  C   UNL     1      33.959 -14.771 -23.223  0.00  0.00    +0.108 C 
ATOM      5  C   UNL     1      33.680 -14.336 -24.674  0.00  0.00    +0.046 C 
ATOM      6  C   UNL     1      34.631 -15.037 -25.646  0.00  0.00    +0.090 C 
ATOM      7  C   UNL     1      34.389 -17.015 -24.250  0.00  0.00    +0.131 A 
ATOM      8  C   UNL     1      34.431 -18.303 -23.773  0.00  0.00    +0.103 A 
ATOM      9  C   UNL     1      34.192 -18.171 -22.390  0.00  0.00    +0.108 A 
ATOM     10  H   UNL     1      34.639 -17.069 -26.260  0.00  0.00    +0.148 HD
ENDROOT
BRANCH   4  13
ATOM     11  O   UNL     1      32.278 -11.062 -18.512  0.00  0.00    -0.270 OA
ATOM     12  N   UNL     1      31.819 -12.227 -20.472  0.00  0.00    -0.276 N 
ATOM     13  C   UNL     1      32.872 -14.237 -22.294  0.00  0.00    +0.026 C 
ATOM     14  C   UNL     1      33.404 -14.081 -20.862  0.00  0.00    +0.023 C 
ATOM     15  C   UNL     1      32.331 -12.893 -22.800  0.00  0.00    +0.023 C 
ATOM     16  C   UNL     1      32.338 -13.491 -19.945  0.00  0.00    +0.094 C 
ATOM     17  C   UNL     1      31.293 -12.305 -21.844  0.00  0.00    +0.094 C 
ATOM     18  C   UNL     1      31.830 -11.096 -19.659  0.00  0.00    +0.249 C 
BRANCH  18  19
ATOM     19  C   UNL     1      31.259  -9.849 -20.205  0.00  0.00    +0.058 C 
ATOM     20  C   UNL     1      32.063  -8.799 -20.390  0.00  0.00    +0.005 C 
ENDBRANCH  18  19
ENDBRANCH   4  13
BRANCH   9  21
ATOM     21  C   UNL     1      34.142 -19.230 -21.413  0.00  0.00    +0.020 C 
ATOM     22  C   UNL     1      35.315 -19.878 -21.025  0.00  0.00    +0.005 C 
ATOM     23  C   UNL     1      32.920 -19.609 -20.859  0.00  0.00    +0.005 C 
ATOM     24  C   UNL     1      35.265 -20.904 -20.081  0.00  0.00    +0.038 C 
ATOM     25  C   UNL     1      32.870 -20.634 -19.915  0.00  0.00    +0.038 C 
ATOM     26  C   UNL     1      34.042 -21.282 -19.527  0.00  0.00    +0.145 C 
BRANCH  26  27
ATOM     27  O   UNL     1      33.992 -22.283 -18.605  0.00  0.00    -0.453 OA
BRANCH  27  28
ATOM     28  C   UNL     1      35.007 -22.343 -17.665  0.00  0.00    +0.145 C 
ATOM     29  C   UNL     1      36.255 -21.790 -17.949  0.00  0.00    +0.037 C 
ATOM     30  C   UNL     1      34.781 -22.959 -16.434  0.00  0.00    +0.037 C 
ATOM     31  C   UNL     1      37.278 -21.851 -17.003  0.00  0.00    +0.003 C 
ATOM     32  C   UNL     1      35.804 -23.020 -15.487  0.00  0.00    +0.003 C 
ATOM     33  C   UNL     1      37.052 -22.467 -15.771  0.00  0.00    +0.000 C 
ENDBRANCH  27  28
ENDBRANCH  26  27
ENDBRANCH   9  21
BRANCH   8  36
ATOM     34  O   UNL     1      35.662 -20.226 -24.351  0.00  0.00    -0.270 OA
ATOM     35  N   UNL     1      33.759 -19.813 -25.562  0.00  0.00    -0.325 N 
ATOM     36  C   UNL     1      34.673 -19.481 -24.553  0.00  0.00    +0.247 C 
ATOM     37  H   UNL     1      33.903 -20.618 -26.112  0.00  0.00    +0.145 HD
ATOM     38  H   UNL     1      32.973 -19.243 -25.721  0.00  0.00    +0.145 HD
ENDBRANCH   8  36
TORSDOF 6
ENDMDL
MODEL 6
REMARK VINA RESULT:      -9.1      6.840     12.851
REMARK  Name = 135565884
REMARK  6 active torsions:
REMARK  status: ('A' for Active; 'I' for Inactive)
REMARK    1  A    between atoms: C_4  and  C_13
REMARK    2  A    between atoms: C_8  and  C_36
REMARK    3  A    between atoms: C_9  and  C_21
REMARK    4  A    between atoms: C_18  and  C_19
REMARK    5  A    between atoms: C_26  and  O_27
REMARK    6  A    between atoms: O_27  and  C_28
REMARK                            x       y       z     vdW  Elec       q    Type
REMARK                         _______ _______ _______ _____ _____    ______ ____
ROOT
ATOM      1  N   UNL     1      33.999 -13.685 -25.222  0.00  0.00    -0.240 N 
ATOM      2  N   UNL     1      32.783 -14.279 -27.161  0.00  0.00    -0.318 N 
ATOM      3  N   UNL     1      34.605 -14.201 -24.136  0.00  0.00    -0.168 NA
ATOM      4  C   UNL     1      34.060 -12.261 -25.532  0.00  0.00    +0.108 C 
ATOM      5  C   UNL     1      32.953 -11.911 -26.545  0.00  0.00    +0.046 C 
ATOM      6  C   UNL     1      32.918 -12.929 -27.687  0.00  0.00    +0.090 C 
ATOM      7  C   UNL     1      33.394 -14.628 -26.012  0.00  0.00    +0.131 A 
ATOM      8  C   UNL     1      33.566 -15.829 -25.366  0.00  0.00    +0.103 A 
ATOM      9  C   UNL     1      34.322 -15.504 -24.221  0.00  0.00    +0.108 A 
ATOM     10  H   UNL     1      32.242 -14.941 -27.649  0.00  0.00    +0.148 HD
ENDROOT
BRANCH   4  13
ATOM     11  O   UNL     1      33.311  -6.597 -23.056  0.00  0.00    -0.270 OA
ATOM     12  N   UNL     1      33.115  -8.913 -22.979  0.00  0.00    -0.276 N 
ATOM     13  C   UNL     1      33.945 -11.371 -24.298  0.00  0.00    +0.026 C 
ATOM     14  C   UNL     1      34.691 -10.046 -24.508  0.00  0.00    +0.023 C 
ATOM     15  C   UNL     1      32.475 -11.095 -23.956  0.00  0.00    +0.023 C 
ATOM     16  C   UNL     1      34.528  -9.130 -23.298  0.00  0.00    +0.094 C 
ATOM     17  C   UNL     1      32.339 -10.145 -22.766  0.00  0.00    +0.094 C 
ATOM     18  C   UNL     1      32.635  -7.610 -22.872  0.00  0.00    +0.249 C 
BRANCH  18  19
ATOM     19  C   UNL     1      31.217  -7.426 -22.504  0.00  0.00    +0.058 C 
ATOM     20  C   UNL     1      30.718  -6.189 -22.461  0.00  0.00    +0.005 C 
ENDBRANCH  18  19
ENDBRANCH   4  13
BRANCH   9  21
ATOM     21  C   UNL     1      34.787 -16.412 -23.203  0.00  0.00    +0.020 C 
ATOM     22  C   UNL     1      35.720 -17.399 -23.520  0.00  0.00    +0.005 C 
ATOM     23  C   UNL     1      34.302 -16.305 -21.899  0.00  0.00    +0.005 C 
ATOM     24  C   UNL     1      36.168 -18.279 -22.535  0.00  0.00    +0.038 C 
ATOM     25  C   UNL     1      34.750 -17.184 -20.914  0.00  0.00    +0.038 C 
ATOM     26  C   UNL     1      35.682 -18.171 -21.231  0.00  0.00    +0.145 C 
BRANCH  26  27
ATOM     27  O   UNL     1      36.119 -19.028 -20.268  0.00  0.00    -0.453 OA
BRANCH  27  28
ATOM     28  C   UNL     1      35.328 -20.125 -19.976  0.00  0.00    +0.145 C 
ATOM     29  C   UNL     1      33.983 -20.133 -20.343  0.00  0.00    +0.037 C 
ATOM     30  C   UNL     1      35.876 -21.224 -19.313  0.00  0.00    +0.037 C 
ATOM     31  C   UNL     1      33.184 -21.238 -20.048  0.00  0.00    +0.003 C 
ATOM     32  C   UNL     1      35.078 -22.329 -19.017  0.00  0.00    +0.003 C 
ATOM     33  C   UNL     1      33.732 -22.337 -19.385  0.00  0.00    +0.000 C 
ENDBRANCH  27  28
ENDBRANCH  26  27
ENDBRANCH   9  21
BRANCH   8  36
ATOM     34  O   UNL     1      32.088 -17.201 -26.582  0.00  0.00    -0.270 OA
ATOM     35  N   UNL     1      33.719 -18.260 -25.366  0.00  0.00    -0.325 N 
ATOM     36  C   UNL     1      33.069 -17.099 -25.807  0.00  0.00    +0.247 C 
ATOM     37  H   UNL     1      33.396 -19.144 -25.655  0.00  0.00    +0.145 HD
ATOM     38  H   UNL     1      34.497 -18.191 -24.768  0.00  0.00    +0.145 HD
ENDBRANCH   8  36
TORSDOF 6
ENDMDL
MODEL 7
REMARK VINA RESULT:      -9.0     11.398     17.404
REMARK  Name = 135565884
REMARK  6 active torsions:
REMARK  status: ('A' for Active; 'I' for Inactive)
REMARK    1  A    between atoms: C_4  and  C_13
REMARK    2  A    between atoms: C_8  and  C_36
REMARK    3  A    between atoms: C_9  and  C_21
REMARK    4  A    between atoms: C_18  and  C_19
REMARK    5  A    between atoms: C_26  and  O_27
REMARK    6  A    between atoms: O_27  and  C_28
REMARK                            x       y       z     vdW  Elec       q    Type
REMARK                         _______ _______ _______ _____ _____    ______ ____
ROOT
ATOM      1  N   UNL     1      31.638  -6.354 -23.210  0.00  0.00    -0.240 N 
ATOM      2  N   UNL     1      30.979  -5.688 -21.038  0.00  0.00    -0.318 N 
ATOM      3  N   UNL     1      32.090  -7.405 -23.918  0.00  0.00    -0.168 NA
ATOM      4  C   UNL     1      31.304  -5.084 -23.846  0.00  0.00    +0.108 C 
ATOM      5  C   UNL     1      31.238  -3.977 -22.777  0.00  0.00    +0.046 C 
ATOM      6  C   UNL     1      30.436  -4.443 -21.560  0.00  0.00    +0.090 C 
ATOM      7  C   UNL     1      31.469  -6.622 -21.876  0.00  0.00    +0.131 A 
ATOM      8  C   UNL     1      31.898  -7.915 -21.694  0.00  0.00    +0.103 A 
ATOM      9  C   UNL     1      32.264  -8.347 -22.986  0.00  0.00    +0.108 A 
ATOM     10  H   UNL     1      30.986  -5.848 -20.067  0.00  0.00    +0.148 HD
ENDROOT
BRANCH   4  13
ATOM     11  O   UNL     1      32.758  -4.894 -29.898  0.00  0.00    -0.270 OA
ATOM     12  N   UNL     1      32.891  -4.068 -27.728  0.00  0.00    -0.276 N 
ATOM     13  C   UNL     1      32.280  -4.690 -24.952  0.00  0.00    +0.026 C 
ATOM     14  C   UNL     1      32.351  -5.780 -26.031  0.00  0.00    +0.023 C 
ATOM     15  C   UNL     1      31.879  -3.352 -25.586  0.00  0.00    +0.023 C 
ATOM     16  C   UNL     1      33.281  -5.363 -27.167  0.00  0.00    +0.094 C 
ATOM     17  C   UNL     1      32.802  -2.976 -26.746  0.00  0.00    +0.094 C 
ATOM     18  C   UNL     1      32.675  -3.960 -29.100  0.00  0.00    +0.249 C 
BRANCH  18  19
ATOM     19  C   UNL     1      32.327  -2.630 -29.639  0.00  0.00    +0.058 C 
ATOM     20  C   UNL     1      31.064  -2.392 -30.000  0.00  0.00    +0.005 C 
ENDBRANCH  18  19
ENDBRANCH   4  13
BRANCH   9  21
ATOM     21  C   UNL     1      32.772  -9.643 -23.356  0.00  0.00    +0.020 C 
ATOM     22  C   UNL     1      33.880  -9.745 -24.197  0.00  0.00    +0.005 C 
ATOM     23  C   UNL     1      32.155 -10.797 -22.873  0.00  0.00    +0.005 C 
ATOM     24  C   UNL     1      34.371 -11.001 -24.557  0.00  0.00    +0.038 C 
ATOM     25  C   UNL     1      32.646 -12.052 -23.231  0.00  0.00    +0.038 C 
ATOM     26  C   UNL     1      33.753 -12.154 -24.073  0.00  0.00    +0.145 C 
BRANCH  26  27
ATOM     27  O   UNL     1      34.231 -13.380 -24.422  0.00  0.00    -0.453 OA
BRANCH  27  28
ATOM     28  C   UNL     1      34.323 -14.341 -23.431  0.00  0.00    +0.145 C 
ATOM     29  C   UNL     1      34.218 -13.973 -22.090  0.00  0.00    +0.037 C 
ATOM     30  C   UNL     1      34.523 -15.679 -23.773  0.00  0.00    +0.037 C 
ATOM     31  C   UNL     1      34.311 -14.942 -21.090  0.00  0.00    +0.003 C 
ATOM     32  C   UNL     1      34.616 -16.648 -22.773  0.00  0.00    +0.003 C 
ATOM     33  C   UNL     1      34.511 -16.279 -21.432  0.00  0.00    +0.000 C 
ENDBRANCH  27  28
ENDBRANCH  26  27
ENDBRANCH   9  21
BRANCH   8  36
ATOM     34  O   UNL     1      32.486  -8.141 -19.425  0.00  0.00    -0.270 OA
ATOM     35  N   UNL     1      31.324  -9.878 -20.370  0.00  0.00    -0.325 N 
ATOM     36  C   UNL     1      31.938  -8.620 -20.447  0.00  0.00    +0.247 C 
ATOM     37  H   UNL     1      31.338 -10.381 -19.524  0.00  0.00    +0.145 HD
ATOM     38  H   UNL     1      30.879 -10.257 -21.162  0.00  0.00    +0.145 HD
ENDBRANCH   8  36
TORSDOF 6
ENDMDL
MODEL 8
REMARK VINA RESULT:      -8.9      5.547     11.254
REMARK  Name = 135565884
REMARK  6 active torsions:
REMARK  status: ('A' for Active; 'I' for Inactive)
REMARK    1  A    between atoms: C_4  and  C_13
REMARK    2  A    between atoms: C_8  and  C_36
REMARK    3  A    between atoms: C_9  and  C_21
REMARK    4  A    between atoms: C_18  and  C_19
REMARK    5  A    between atoms: C_26  and  O_27
REMARK    6  A    between atoms: O_27  and  C_28
REMARK                            x       y       z     vdW  Elec       q    Type
REMARK                         _______ _______ _______ _____ _____    ______ ____
ROOT
ATOM      1  N   UNL     1      34.275 -15.325 -24.636  0.00  0.00    -0.240 N 
ATOM      2  N   UNL     1      33.096 -16.052 -26.553  0.00  0.00    -0.318 N 
ATOM      3  N   UNL     1      34.942 -15.769 -23.554  0.00  0.00    -0.168 NA
ATOM      4  C   UNL     1      34.195 -13.904 -24.960  0.00  0.00    +0.108 C 
ATOM      5  C   UNL     1      33.047 -13.672 -25.961  0.00  0.00    +0.046 C 
ATOM      6  C   UNL     1      33.095 -14.701 -27.092  0.00  0.00    +0.090 C 
ATOM      7  C   UNL     1      33.753 -16.329 -25.409  0.00  0.00    +0.131 A 
ATOM      8  C   UNL     1      34.047 -17.501 -24.755  0.00  0.00    +0.103 A 
ATOM      9  C   UNL     1      34.783 -17.094 -23.623  0.00  0.00    +0.108 A 
ATOM     10  H   UNL     1      32.616 -16.768 -27.028  0.00  0.00    +0.148 HD
ENDROOT
BRANCH   4  13
ATOM     11  O   UNL     1      31.170  -9.279 -22.092  0.00  0.00    -0.270 OA
ATOM     12  N   UNL     1      32.411 -11.246 -22.067  0.00  0.00    -0.276 N 
ATOM     13  C   UNL     1      34.011 -13.017 -23.732  0.00  0.00    +0.026 C 
ATOM     14  C   UNL     1      33.709 -11.569 -24.144  0.00  0.00    +0.023 C 
ATOM     15  C   UNL     1      32.887 -13.550 -22.834  0.00  0.00    +0.023 C 
ATOM     16  C   UNL     1      33.466 -10.692 -22.919  0.00  0.00    +0.094 C 
ATOM     17  C   UNL     1      32.637 -12.634 -21.636  0.00  0.00    +0.094 C 
ATOM     18  C   UNL     1      31.331 -10.440 -21.714  0.00  0.00    +0.249 C 
BRANCH  18  19
ATOM     19  C   UNL     1      30.308 -11.014 -20.817  0.00  0.00    +0.058 C 
ATOM     20  C   UNL     1      30.415 -10.807 -19.503  0.00  0.00    +0.005 C 
ENDBRANCH  18  19
ENDBRANCH   4  13
BRANCH   9  21
ATOM     21  C   UNL     1      35.346 -17.943 -22.603  0.00  0.00    +0.020 C 
ATOM     22  C   UNL     1      36.720 -18.184 -22.575  0.00  0.00    +0.005 C 
ATOM     23  C   UNL     1      34.516 -18.525 -21.645  0.00  0.00    +0.005 C 
ATOM     24  C   UNL     1      37.263 -19.008 -21.589  0.00  0.00    +0.038 C 
ATOM     25  C   UNL     1      35.059 -19.347 -20.659  0.00  0.00    +0.038 C 
ATOM     26  C   UNL     1      36.432 -19.589 -20.631  0.00  0.00    +0.145 C 
BRANCH  26  27
ATOM     27  O   UNL     1      36.962 -20.392 -19.668  0.00  0.00    -0.453 OA
BRANCH  27  28
ATOM     28  C   UNL     1      36.103 -21.246 -18.998  0.00  0.00    +0.145 C 
ATOM     29  C   UNL     1      34.931 -21.682 -19.615  0.00  0.00    +0.037 C 
ATOM     30  C   UNL     1      36.409 -21.671 -17.705  0.00  0.00    +0.037 C 
ATOM     31  C   UNL     1      34.064 -22.542 -18.939  0.00  0.00    +0.003 C 
ATOM     32  C   UNL     1      35.543 -22.532 -17.029  0.00  0.00    +0.003 C 
ATOM     33  C   UNL     1      34.371 -22.967 -17.646  0.00  0.00    +0.000 C 
ENDBRANCH  27  28
ENDBRANCH  26  27
ENDBRANCH   9  21
BRANCH   8  36
ATOM     34  O   UNL     1      32.565 -19.053 -25.725  0.00  0.00    -0.270 OA
ATOM     35  N   UNL     1      34.576 -19.868 -24.985  0.00  0.00    -0.325 N 
ATOM     36  C   UNL     1      33.668 -18.817 -25.177  0.00  0.00    +0.247 C 
ATOM     37  H   UNL     1      34.339 -20.781 -25.267  0.00  0.00    +0.145 HD
ATOM     38  H   UNL     1      35.450 -19.692 -24.568  0.00  0.00    +0.145 HD
ENDBRANCH   8  36
TORSDOF 6
ENDMDL
MODEL 9
REMARK VINA RESULT:      -8.8     10.734     15.634
REMARK  Name = 135565884
REMARK  6 active torsions:
REMARK  status: ('A' for Active; 'I' for Inactive)
REMARK    1  A    between atoms: C_4  and  C_13
REMARK    2  A    between atoms: C_8  and  C_36
REMARK    3  A    between atoms: C_9  and  C_21
REMARK    4  A    between atoms: C_18  and  C_19
REMARK    5  A    between atoms: C_26  and  O_27
REMARK    6  A    between atoms: O_27  and  C_28
REMARK                            x       y       z     vdW  Elec       q    Type
REMARK                         _______ _______ _______ _____ _____    ______ ____
ROOT
ATOM      1  N   UNL     1      32.532  -9.794 -21.864  0.00  0.00    -0.240 N 
ATOM      2  N   UNL     1      31.449  -9.150 -19.862  0.00  0.00    -0.318 N 
ATOM      3  N   UNL     1      33.054  -9.308 -23.005  0.00  0.00    -0.168 NA
ATOM      4  C   UNL     1      32.631 -11.207 -21.514  0.00  0.00    +0.108 C 
ATOM      5  C   UNL     1      31.603 -11.535 -20.415  0.00  0.00    +0.046 C 
ATOM      6  C   UNL     1      31.636 -10.481 -19.306  0.00  0.00    +0.090 C 
ATOM      7  C   UNL     1      31.974  -8.832 -21.062  0.00  0.00    +0.131 A 
ATOM      8  C   UNL     1      32.086  -7.651 -21.756  0.00  0.00    +0.103 A 
ATOM      9  C   UNL     1      32.763  -8.005 -22.941  0.00  0.00    +0.108 A 
ATOM     10  H   UNL     1      30.937  -8.477 -19.358  0.00  0.00    +0.148 HD
ENDROOT
BRANCH   4  13
ATOM     11  O   UNL     1      35.057 -15.103 -25.721  0.00  0.00    -0.270 OA
ATOM     12  N   UNL     1      33.298 -14.338 -24.407  0.00  0.00    -0.276 N 
ATOM     13  C   UNL     1      32.439 -12.137 -22.709  0.00  0.00    +0.026 C 
ATOM     14  C   UNL     1      33.593 -11.987 -23.710  0.00  0.00    +0.023 C 
ATOM     15  C   UNL     1      32.327 -13.598 -22.254  0.00  0.00    +0.023 C 
ATOM     16  C   UNL     1      33.434 -12.958 -24.876  0.00  0.00    +0.094 C 
ATOM     17  C   UNL     1      32.208 -14.553 -23.443  0.00  0.00    +0.094 C 
ATOM     18  C   UNL     1      34.153 -15.315 -24.912  0.00  0.00    +0.249 C 
BRANCH  18  19
ATOM     19  C   UNL     1      33.959 -16.705 -24.453  0.00  0.00    +0.058 C 
ATOM     20  C   UNL     1      34.536 -17.695 -25.137  0.00  0.00    +0.005 C 
ENDBRANCH  18  19
ENDBRANCH   4  13
BRANCH   9  21
ATOM     21  C   UNL     1      33.145  -7.125 -24.017  0.00  0.00    +0.020 C 
ATOM     22  C   UNL     1      34.466  -7.101 -24.464  0.00  0.00    +0.005 C 
ATOM     23  C   UNL     1      32.192  -6.297 -24.611  0.00  0.00    +0.005 C 
ATOM     24  C   UNL     1      34.835  -6.248 -25.504  0.00  0.00    +0.038 C 
ATOM     25  C   UNL     1      32.561  -5.445 -25.651  0.00  0.00    +0.038 C 
ATOM     26  C   UNL     1      33.882  -5.420 -26.097  0.00  0.00    +0.145 C 
BRANCH  26  27
ATOM     27  O   UNL     1      34.241  -4.588 -27.113  0.00  0.00    -0.453 OA
BRANCH  27  28
ATOM     28  C   UNL     1      33.229  -4.023 -27.871  0.00  0.00    +0.145 C 
ATOM     29  C   UNL     1      32.916  -4.553 -29.122  0.00  0.00    +0.037 C 
ATOM     30  C   UNL     1      32.524  -2.923 -27.383  0.00  0.00    +0.037 C 
ATOM     31  C   UNL     1      31.897  -3.983 -29.886  0.00  0.00    +0.003 C 
ATOM     32  C   UNL     1      31.505  -2.353 -28.147  0.00  0.00    +0.003 C 
ATOM     33  C   UNL     1      31.191  -2.883 -29.398  0.00  0.00    +0.000 C 
ENDBRANCH  27  28
ENDBRANCH  26  27
ENDBRANCH   9  21
BRANCH   8  36
ATOM     34  O   UNL     1      30.572  -5.847 -21.797  0.00  0.00    -0.270 OA
ATOM     35  N   UNL     1      32.315  -5.701 -20.314  0.00  0.00    -0.325 N 
ATOM     36  C   UNL     1      31.607  -6.372 -21.320  0.00  0.00    +0.247 C 
ATOM     37  H   UNL     1      32.006  -4.821 -19.998  0.00  0.00    +0.145 HD
ATOM     38  H   UNL     1      33.121  -6.109 -19.923  0.00  0.00    +0.145 HD
ENDBRANCH   8  36
TORSDOF 6
ENDMDL
