MODEL 1
REMARK VINA RESULT:      -5.6      0.000      0.000
REMARK  Name = 7814
REMARK  2 active torsions:
REMARK  status: ('A' for Active; 'I' for Inactive)
REMARK    1  A    between atoms: C_1  and  N_7
REMARK    2  A    between atoms: C_2  and  N_10
REMARK                            x       y       z     vdW  Elec       q    Type
REMARK                         _______ _______ _______ _____ _____    ______ ____
ROOT
ATOM      1  C   UNL     1      33.638 -21.356 -19.557  0.00  0.00    +0.042 C 
ATOM      2  C   UNL     1      35.262 -19.575 -20.963  0.00  0.00    +0.042 C 
ATOM      3  C   UNL     1      35.025 -21.495 -19.515  0.00  0.00    +0.015 C 
ATOM      4  C   UNL     1      35.838 -20.604 -20.218  0.00  0.00    +0.015 C 
ATOM      5  C   UNL     1      33.062 -20.326 -20.302  0.00  0.00    +0.015 C 
ATOM      6  C   UNL     1      33.875 -19.436 -21.005  0.00  0.00    +0.015 C 
ENDROOT
BRANCH   1   7
ATOM      7  N   UNL     1      32.817 -22.256 -18.847  0.00  0.00    -0.357 N 
ATOM      8  H   UNL     1      33.093 -22.576 -17.958  0.00  0.00    +0.142 HD
ATOM      9  H   UNL     1      31.968 -22.563 -19.241  0.00  0.00    +0.142 HD
ENDBRANCH   1   7
BRANCH   2  10
ATOM     10  N   UNL     1      36.083 -18.675 -21.673  0.00  0.00    -0.357 N 
ATOM     11  H   UNL     1      37.063 -18.739 -21.598  0.00  0.00    +0.142 HD
ATOM     12  H   UNL     1      35.676 -17.983 -22.243  0.00  0.00    +0.142 HD
ENDBRANCH   2  10
TORSDOF 2
ENDMDL
MODEL 2
REMARK VINA RESULT:      -5.6      0.032      3.702
REMARK  Name = 7814
REMARK  2 active torsions:
REMARK  status: ('A' for Active; 'I' for Inactive)
REMARK    1  A    between atoms: C_1  and  N_7
REMARK    2  A    between atoms: C_2  and  N_10
REMARK                            x       y       z     vdW  Elec       q    Type
REMARK                         _______ _______ _______ _____ _____    ______ ____
ROOT
ATOM      1  C   UNL     1      35.232 -19.568 -20.985  0.00  0.00    +0.042 C 
ATOM      2  C   UNL     1      33.625 -21.354 -19.565  0.00  0.00    +0.042 C 
ATOM      3  C   UNL     1      33.844 -19.427 -21.006  0.00  0.00    +0.015 C 
ATOM      4  C   UNL     1      33.041 -20.320 -20.296  0.00  0.00    +0.015 C 
ATOM      5  C   UNL     1      35.816 -20.602 -20.254  0.00  0.00    +0.015 C 
ATOM      6  C   UNL     1      35.013 -21.495 -19.544  0.00  0.00    +0.015 C 
ENDROOT
BRANCH   1   7
ATOM      7  N   UNL     1      36.044 -18.666 -21.702  0.00  0.00    -0.357 N 
ATOM      8  H   UNL     1      36.976 -18.515 -21.423  0.00  0.00    +0.142 HD
ATOM      9  H   UNL     1      35.678 -18.188 -22.481  0.00  0.00    +0.142 HD
ENDBRANCH   1   7
BRANCH   2  10
ATOM     10  N   UNL     1      32.813 -22.256 -18.848  0.00  0.00    -0.357 N 
ATOM     11  H   UNL     1      33.187 -22.756 -18.086  0.00  0.00    +0.142 HD
ATOM     12  H   UNL     1      31.872 -22.386 -19.109  0.00  0.00    +0.142 HD
ENDBRANCH   2  10
TORSDOF 2
ENDMDL
MODEL 3
REMARK VINA RESULT:      -5.0      4.050      5.860
REMARK  Name = 7814
REMARK  2 active torsions:
REMARK  status: ('A' for Active; 'I' for Inactive)
REMARK    1  A    between atoms: C_1  and  N_7
REMARK    2  A    between atoms: C_2  and  N_10
REMARK                            x       y       z     vdW  Elec       q    Type
REMARK                         _______ _______ _______ _____ _____    ______ ____
ROOT
ATOM      1  C   UNL     1      34.472 -14.696 -22.671  0.00  0.00    +0.042 C 
ATOM      2  C   UNL     1      35.107 -17.101 -21.407  0.00  0.00    +0.042 C 
ATOM      3  C   UNL     1      34.893 -15.792 -23.425  0.00  0.00    +0.015 C 
ATOM      4  C   UNL     1      35.211 -16.994 -22.793  0.00  0.00    +0.015 C 
ATOM      5  C   UNL     1      34.368 -14.804 -21.284  0.00  0.00    +0.015 C 
ATOM      6  C   UNL     1      34.685 -16.006 -20.652  0.00  0.00    +0.015 C 
ENDROOT
BRANCH   1   7
ATOM      7  N   UNL     1      34.151 -13.481 -23.310  0.00  0.00    -0.357 N 
ATOM      8  H   UNL     1      34.814 -12.755 -23.347  0.00  0.00    +0.142 HD
ATOM      9  H   UNL     1      33.263 -13.360 -23.718  0.00  0.00    +0.142 HD
ENDBRANCH   1   7
BRANCH   2  10
ATOM     10  N   UNL     1      35.428 -18.316 -20.768  0.00  0.00    -0.357 N 
ATOM     11  H   UNL     1      35.198 -18.449 -19.819  0.00  0.00    +0.142 HD
ATOM     12  H   UNL     1      35.882 -19.031 -21.270  0.00  0.00    +0.142 HD
ENDBRANCH   2  10
TORSDOF 2
ENDMDL
MODEL 4
REMARK VINA RESULT:      -5.0      9.178      9.685
REMARK  Name = 7814
REMARK  2 active torsions:
REMARK  status: ('A' for Active; 'I' for Inactive)
REMARK    1  A    between atoms: C_1  and  N_7
REMARK    2  A    between atoms: C_2  and  N_10
REMARK                            x       y       z     vdW  Elec       q    Type
REMARK                         _______ _______ _______ _____ _____    ______ ____
ROOT
ATOM      1  C   UNL     1      41.039 -14.701 -15.778  0.00  0.00    +0.042 C 
ATOM      2  C   UNL     1      42.037 -15.942 -18.069  0.00  0.00    +0.042 C 
ATOM      3  C   UNL     1      41.195 -13.970 -16.956  0.00  0.00    +0.015 C 
ATOM      4  C   UNL     1      41.694 -14.591 -18.101  0.00  0.00    +0.015 C 
ATOM      5  C   UNL     1      41.382 -16.053 -15.745  0.00  0.00    +0.015 C 
ATOM      6  C   UNL     1      41.881 -16.673 -16.891  0.00  0.00    +0.015 C 
ENDROOT
BRANCH   1   7
ATOM      7  N   UNL     1      40.535 -14.074 -14.620  0.00  0.00    -0.357 N 
ATOM      8  H   UNL     1      41.154 -13.763 -13.920  0.00  0.00    +0.142 HD
ATOM      9  H   UNL     1      39.564 -13.948 -14.511  0.00  0.00    +0.142 HD
ENDBRANCH   1   7
BRANCH   2  10
ATOM     10  N   UNL     1      42.541 -16.570 -19.227  0.00  0.00    -0.357 N 
ATOM     11  H   UNL     1      43.437 -16.338 -19.561  0.00  0.00    +0.142 HD
ATOM     12  H   UNL     1      41.996 -17.239 -19.700  0.00  0.00    +0.142 HD
ENDBRANCH   2  10
TORSDOF 2
ENDMDL
MODEL 5
REMARK VINA RESULT:      -5.0      9.186      9.855
REMARK  Name = 7814
REMARK  2 active torsions:
REMARK  status: ('A' for Active; 'I' for Inactive)
REMARK    1  A    between atoms: C_1  and  N_7
REMARK    2  A    between atoms: C_2  and  N_10
REMARK                            x       y       z     vdW  Elec       q    Type
REMARK                         _______ _______ _______ _____ _____    ______ ____
ROOT
ATOM      1  C   UNL     1      42.065 -15.963 -18.117  0.00  0.00    +0.042 C 
ATOM      2  C   UNL     1      41.050 -14.769 -15.809  0.00  0.00    +0.042 C 
ATOM      3  C   UNL     1      41.698 -14.617 -18.131  0.00  0.00    +0.015 C 
ATOM      4  C   UNL     1      41.191 -14.020 -16.977  0.00  0.00    +0.015 C 
ATOM      5  C   UNL     1      41.925 -16.712 -16.949  0.00  0.00    +0.015 C 
ATOM      6  C   UNL     1      41.418 -16.115 -15.795  0.00  0.00    +0.015 C 
ENDROOT
BRANCH   1   7
ATOM      7  N   UNL     1      42.578 -16.566 -19.284  0.00  0.00    -0.357 N 
ATOM      8  H   UNL     1      42.055 -16.549 -20.117  0.00  0.00    +0.142 HD
ATOM      9  H   UNL     1      43.460 -17.004 -19.264  0.00  0.00    +0.142 HD
ENDBRANCH   1   7
BRANCH   2  10
ATOM     10  N   UNL     1      40.538 -14.166 -14.642  0.00  0.00    -0.357 N 
ATOM     11  H   UNL     1      40.158 -14.724 -13.926  0.00  0.00    +0.142 HD
ATOM     12  H   UNL     1      40.560 -13.186 -14.544  0.00  0.00    +0.142 HD
ENDBRANCH   2  10
TORSDOF 2
ENDMDL
MODEL 6
REMARK VINA RESULT:      -5.0      4.063      5.247
REMARK  Name = 7814
REMARK  2 active torsions:
REMARK  status: ('A' for Active; 'I' for Inactive)
REMARK    1  A    between atoms: C_1  and  N_7
REMARK    2  A    between atoms: C_2  and  N_10
REMARK                            x       y       z     vdW  Elec       q    Type
REMARK                         _______ _______ _______ _____ _____    ______ ____
ROOT
ATOM      1  C   UNL     1      35.094 -17.095 -21.435  0.00  0.00    +0.042 C 
ATOM      2  C   UNL     1      34.468 -14.688 -22.700  0.00  0.00    +0.042 C 
ATOM      3  C   UNL     1      35.200 -16.987 -22.822  0.00  0.00    +0.015 C 
ATOM      4  C   UNL     1      34.887 -15.784 -23.454  0.00  0.00    +0.015 C 
ATOM      5  C   UNL     1      34.675 -15.999 -20.680  0.00  0.00    +0.015 C 
ATOM      6  C   UNL     1      34.363 -14.796 -21.313  0.00  0.00    +0.015 C 
ENDROOT
BRANCH   1   7
ATOM      7  N   UNL     1      35.410 -18.311 -20.796  0.00  0.00    -0.357 N 
ATOM      8  H   UNL     1      35.445 -18.356 -19.813  0.00  0.00    +0.142 HD
ATOM      9  H   UNL     1      35.596 -19.116 -21.333  0.00  0.00    +0.142 HD
ENDBRANCH   1   7
BRANCH   2  10
ATOM     10  N   UNL     1      34.152 -13.472 -23.339  0.00  0.00    -0.357 N 
ATOM     11  H   UNL     1      34.872 -12.860 -23.616  0.00  0.00    +0.142 HD
ATOM     12  H   UNL     1      33.212 -13.235 -23.509  0.00  0.00    +0.142 HD
ENDBRANCH   2  10
TORSDOF 2
ENDMDL
MODEL 7
REMARK VINA RESULT:      -4.9      9.989     11.170
REMARK  Name = 7814
REMARK  2 active torsions:
REMARK  status: ('A' for Active; 'I' for Inactive)
REMARK    1  A    between atoms: C_1  and  N_7
REMARK    2  A    between atoms: C_2  and  N_10
REMARK                            x       y       z     vdW  Elec       q    Type
REMARK                         _______ _______ _______ _____ _____    ______ ____
ROOT
ATOM      1  C   UNL     1      31.551 -10.982 -21.467  0.00  0.00    +0.042 C 
ATOM      2  C   UNL     1      32.386  -8.633 -20.215  0.00  0.00    +0.042 C 
ATOM      3  C   UNL     1      32.016  -9.912 -22.231  0.00  0.00    +0.015 C 
ATOM      4  C   UNL     1      32.434  -8.737 -21.604  0.00  0.00    +0.015 C 
ATOM      5  C   UNL     1      31.502 -10.878 -20.077  0.00  0.00    +0.015 C 
ATOM      6  C   UNL     1      31.920  -9.703 -19.451  0.00  0.00    +0.015 C 
ENDROOT
BRANCH   1   7
ATOM      7  N   UNL     1      31.128 -12.169 -22.099  0.00  0.00    -0.357 N 
ATOM      8  H   UNL     1      30.913 -12.165 -23.060  0.00  0.00    +0.142 HD
ATOM      9  H   UNL     1      31.050 -13.002 -21.580  0.00  0.00    +0.142 HD
ENDBRANCH   1   7
BRANCH   2  10
ATOM     10  N   UNL     1      32.808  -7.446 -19.582  0.00  0.00    -0.357 N 
ATOM     11  H   UNL     1      32.473  -7.221 -18.683  0.00  0.00    +0.142 HD
ATOM     12  H   UNL     1      33.437  -6.841 -20.039  0.00  0.00    +0.142 HD
ENDBRANCH   2  10
TORSDOF 2
ENDMDL
MODEL 8
REMARK VINA RESULT:      -4.9     10.008     11.382
REMARK  Name = 7814
REMARK  2 active torsions:
REMARK  status: ('A' for Active; 'I' for Inactive)
REMARK    1  A    between atoms: C_1  and  N_7
REMARK    2  A    between atoms: C_2  and  N_10
REMARK                            x       y       z     vdW  Elec       q    Type
REMARK                         _______ _______ _______ _____ _____    ______ ____
ROOT
ATOM      1  C   UNL     1      32.388  -8.617 -20.210  0.00  0.00    +0.042 C 
ATOM      2  C   UNL     1      31.537 -10.960 -21.463  0.00  0.00    +0.042 C 
ATOM      3  C   UNL     1      31.925  -9.688 -19.446  0.00  0.00    +0.015 C 
ATOM      4  C   UNL     1      31.499 -10.860 -20.073  0.00  0.00    +0.015 C 
ATOM      5  C   UNL     1      32.426  -8.717 -21.601  0.00  0.00    +0.015 C 
ATOM      6  C   UNL     1      32.000  -9.888 -22.227  0.00  0.00    +0.015 C 
ENDROOT
BRANCH   1   7
ATOM      7  N   UNL     1      32.818  -7.432 -19.577  0.00  0.00    -0.357 N 
ATOM      8  H   UNL     1      32.349  -7.105 -18.776  0.00  0.00    +0.142 HD
ATOM      9  H   UNL     1      33.587  -6.934 -19.937  0.00  0.00    +0.142 HD
ENDBRANCH   1   7
BRANCH   2  10
ATOM     10  N   UNL     1      31.107 -12.144 -22.097  0.00  0.00    -0.357 N 
ATOM     11  H   UNL     1      30.236 -12.168 -22.555  0.00  0.00    +0.142 HD
ATOM     12  H   UNL     1      31.678 -12.946 -22.080  0.00  0.00    +0.142 HD
ENDBRANCH   2  10
TORSDOF 2
ENDMDL
MODEL 9
REMARK VINA RESULT:      -4.8      1.096      3.286
REMARK  Name = 7814
REMARK  2 active torsions:
REMARK  status: ('A' for Active; 'I' for Inactive)
REMARK    1  A    between atoms: C_1  and  N_7
REMARK    2  A    between atoms: C_2  and  N_10
REMARK                            x       y       z     vdW  Elec       q    Type
REMARK                         _______ _______ _______ _____ _____    ______ ____
ROOT
ATOM      1  C   UNL     1      34.922 -18.685 -21.377  0.00  0.00    +0.042 C 
ATOM      2  C   UNL     1      34.794 -21.039 -19.886  0.00  0.00    +0.042 C 
ATOM      3  C   UNL     1      36.096 -19.304 -20.948  0.00  0.00    +0.015 C 
ATOM      4  C   UNL     1      36.032 -20.481 -20.202  0.00  0.00    +0.015 C 
ATOM      5  C   UNL     1      33.684 -19.242 -21.060  0.00  0.00    +0.015 C 
ATOM      6  C   UNL     1      33.620 -20.419 -20.315  0.00  0.00    +0.015 C 
ENDROOT
BRANCH   1   7
ATOM      7  N   UNL     1      34.987 -17.495 -22.131  0.00  0.00    -0.357 N 
ATOM      8  H   UNL     1      35.850 -17.036 -22.254  0.00  0.00    +0.142 HD
ATOM      9  H   UNL     1      34.169 -17.123 -22.535  0.00  0.00    +0.142 HD
ENDBRANCH   1   7
BRANCH   2  10
ATOM     10  N   UNL     1      34.729 -22.228 -19.132  0.00  0.00    -0.357 N 
ATOM     11  H   UNL     1      33.857 -22.647 -18.947  0.00  0.00    +0.142 HD
ATOM     12  H   UNL     1      35.556 -22.640 -18.790  0.00  0.00    +0.142 HD
ENDBRANCH   2  10
TORSDOF 2
ENDMDL
