MODEL 1
REMARK VINA RESULT:      -8.7      0.000      0.000
REMARK  Name = 6381821
REMARK  4 active torsions:
REMARK  status: ('A' for Active; 'I' for Inactive)
REMARK    1  A    between atoms: N_2  and  C_19
REMARK    2  A    between atoms: N_3  and  C_10
REMARK    3  A    between atoms: N_3  and  N_13
REMARK    4  A    between atoms: C_5  and  O_22
REMARK                            x       y       z     vdW  Elec       q    Type
REMARK                         _______ _______ _______ _____ _____    ______ ____
ROOT
ATOM      1  O   UNL     1      32.668 -13.566 -21.102  0.00  0.00    -0.289 OA
ATOM      2  N   UNL     1      34.657 -17.770 -22.348  0.00  0.00    -0.310 N 
ATOM      3  C   UNL     1      35.350 -18.208 -23.559  0.00  0.00    +0.124 C 
ATOM      4  C   UNL     1      34.903 -17.187 -24.621  0.00  0.00    +0.153 C 
ATOM      5  C   UNL     1      34.159 -16.487 -22.457  0.00  0.00    +0.031 C 
ATOM      6  C   UNL     1      34.327 -16.045 -23.829  0.00  0.00    +0.017 C 
ATOM      7  C   UNL     1      33.615 -15.696 -21.524  0.00  0.00    +0.111 C 
ATOM      8  C   UNL     1      34.030 -14.821 -24.274  0.00  0.00    +0.020 C 
ATOM      9  C   UNL     1      33.447 -13.861 -23.312  0.00  0.00    +0.122 C 
ATOM     10  C   UNL     1      33.197 -14.327 -21.898  0.00  0.00    +0.195 C 
ENDROOT
BRANCH   2  11
ATOM     11  C   UNL     1      34.795 -18.543 -21.133  0.00  0.00    +0.073 C 
ATOM     12  C   UNL     1      36.228 -19.044 -21.017  0.00  0.00    +0.021 C 
ATOM     13  C   UNL     1      33.803 -19.699 -21.148  0.00  0.00    +0.021 C 
ENDBRANCH   2  11
BRANCH   4  14
ATOM     14  O   UNL     1      33.895 -17.762 -25.447  0.00  0.00    -0.378 OA
ATOM     15  H   UNL     1      34.309 -18.190 -26.212  0.00  0.00    +0.211 HD
ENDBRANCH   4  14
BRANCH   9  16
ATOM     16  N   UNL     1      33.133 -12.643 -23.603  0.00  0.00    -0.144 NA
BRANCH  16  18
ATOM     17  O   UNL     1      33.198  -9.893 -23.530  0.00  0.00    -0.251 OA
ATOM     18  N   UNL     1      34.164 -11.925 -24.099  0.00  0.00    -0.200 N 
ATOM     19  N   UNL     1      35.244  -9.955 -24.572  0.00  0.00    -0.312 N 
ATOM     20  C   UNL     1      34.119 -10.543 -24.023  0.00  0.00    +0.315 C 
ATOM     21  H   UNL     1      34.937 -12.377 -24.509  0.00  0.00    +0.176 HD
ATOM     22  H   UNL     1      35.333  -8.975 -24.581  0.00  0.00    +0.147 HD
ATOM     23  H   UNL     1      35.955 -10.517 -24.956  0.00  0.00    +0.147 HD
ENDBRANCH  16  18
ENDBRANCH   9  16
TORSDOF 4
ENDMDL
MODEL 2
REMARK VINA RESULT:      -8.4      2.619      6.515
REMARK  Name = 6381821
REMARK  4 active torsions:
REMARK  status: ('A' for Active; 'I' for Inactive)
REMARK    1  A    between atoms: N_2  and  C_19
REMARK    2  A    between atoms: N_3  and  C_10
REMARK    3  A    between atoms: N_3  and  N_13
REMARK    4  A    between atoms: C_5  and  O_22
REMARK                            x       y       z     vdW  Elec       q    Type
REMARK                         _______ _______ _______ _____ _____    ______ ____
ROOT
ATOM      1  O   UNL     1      35.407 -16.970 -20.148  0.00  0.00    -0.289 OA
ATOM      2  N   UNL     1      33.850 -14.370 -23.890  0.00  0.00    -0.310 N 
ATOM      3  C   UNL     1      33.313 -14.752 -25.195  0.00  0.00    +0.124 C 
ATOM      4  C   UNL     1      33.790 -16.205 -25.372  0.00  0.00    +0.153 C 
ATOM      5  C   UNL     1      34.265 -15.458 -23.149  0.00  0.00    +0.031 C 
ATOM      6  C   UNL     1      34.203 -16.638 -23.992  0.00  0.00    +0.017 C 
ATOM      7  C   UNL     1      34.657 -15.527 -21.871  0.00  0.00    +0.111 C 
ATOM      8  C   UNL     1      34.457 -17.882 -23.577  0.00  0.00    +0.020 C 
ATOM      9  C   UNL     1      34.873 -18.067 -22.170  0.00  0.00    +0.122 C 
ATOM     10  C   UNL     1      35.014 -16.844 -21.298  0.00  0.00    +0.195 C 
ENDROOT
BRANCH   2  11
ATOM     11  C   UNL     1      33.645 -13.022 -23.405  0.00  0.00    +0.073 C 
ATOM     12  C   UNL     1      32.261 -12.917 -22.782  0.00  0.00    +0.021 C 
ATOM     13  C   UNL     1      33.812 -12.037 -24.556  0.00  0.00    +0.021 C 
ENDBRANCH   2  11
BRANCH   4  14
ATOM     14  O   UNL     1      34.913 -16.239 -26.248  0.00  0.00    -0.378 OA
ATOM     15  H   UNL     1      34.850 -17.016 -26.825  0.00  0.00    +0.211 HD
ENDBRANCH   4  14
BRANCH   9  16
ATOM     16  N   UNL     1      35.128 -19.214 -21.634  0.00  0.00    -0.144 NA
BRANCH  16  18
ATOM     17  O   UNL     1      35.257 -20.892 -19.457  0.00  0.00    -0.251 OA
ATOM     18  N   UNL     1      34.038 -19.821 -21.117  0.00  0.00    -0.200 N 
ATOM     19  N   UNL     1      32.986 -21.197 -19.610  0.00  0.00    -0.312 N 
ATOM     20  C   UNL     1      34.189 -20.652 -20.019  0.00  0.00    +0.315 C 
ATOM     21  H   UNL     1      33.149 -19.677 -21.515  0.00  0.00    +0.176 HD
ATOM     22  H   UNL     1      32.958 -21.806 -18.837  0.00  0.00    +0.147 HD
ATOM     23  H   UNL     1      32.156 -20.975 -20.091  0.00  0.00    +0.147 HD
ENDBRANCH  16  18
ENDBRANCH   9  16
TORSDOF 4
ENDMDL
MODEL 3
REMARK VINA RESULT:      -8.4     10.089     11.630
REMARK  Name = 6381821
REMARK  4 active torsions:
REMARK  status: ('A' for Active; 'I' for Inactive)
REMARK    1  A    between atoms: N_2  and  C_19
REMARK    2  A    between atoms: N_3  and  C_10
REMARK    3  A    between atoms: N_3  and  N_13
REMARK    4  A    between atoms: C_5  and  O_22
REMARK                            x       y       z     vdW  Elec       q    Type
REMARK                         _______ _______ _______ _____ _____    ______ ____
ROOT
ATOM      1  O   UNL     1      31.531 -24.365 -13.318  0.00  0.00    -0.289 OA
ATOM      2  N   UNL     1      35.089 -23.005 -16.263  0.00  0.00    -0.310 N 
ATOM      3  C   UNL     1      35.085 -22.431 -17.608  0.00  0.00    +0.124 C 
ATOM      4  C   UNL     1      33.689 -22.787 -18.150  0.00  0.00    +0.153 C 
ATOM      5  C   UNL     1      33.822 -23.334 -15.824  0.00  0.00    +0.031 C 
ATOM      6  C   UNL     1      32.897 -23.172 -16.930  0.00  0.00    +0.017 C 
ATOM      7  C   UNL     1      33.410 -23.726 -14.613  0.00  0.00    +0.111 C 
ATOM      8  C   UNL     1      31.573 -23.326 -16.841  0.00  0.00    +0.020 C 
ATOM      9  C   UNL     1      31.014 -23.732 -15.534  0.00  0.00    +0.122 C 
ATOM     10  C   UNL     1      31.968 -23.977 -14.391  0.00  0.00    +0.195 C 
ENDROOT
BRANCH   2  11
ATOM     11  C   UNL     1      36.287 -22.913 -15.457  0.00  0.00    +0.073 C 
ATOM     12  C   UNL     1      37.317 -22.059 -16.182  0.00  0.00    +0.021 C 
ATOM     13  C   UNL     1      36.822 -24.313 -15.181  0.00  0.00    +0.021 C 
ENDBRANCH   2  11
BRANCH   4  14
ATOM     14  O   UNL     1      33.786 -23.899 -19.035  0.00  0.00    -0.378 OA
ATOM     15  H   UNL     1      33.521 -24.708 -18.570  0.00  0.00    +0.211 HD
ENDBRANCH   4  14
BRANCH   9  16
ATOM     16  N   UNL     1      29.754 -23.897 -15.303  0.00  0.00    -0.144 NA
BRANCH  16  18
ATOM     17  O   UNL     1      27.889 -24.368 -17.271  0.00  0.00    -0.251 OA
ATOM     18  N   UNL     1      28.979 -22.919 -15.823  0.00  0.00    -0.200 N 
ATOM     19  N   UNL     1      27.351 -22.135 -17.239  0.00  0.00    -0.312 N 
ATOM     20  C   UNL     1      28.065 -23.240 -16.812  0.00  0.00    +0.315 C 
ATOM     21  H   UNL     1      29.065 -21.991 -15.505  0.00  0.00    +0.176 HD
ATOM     22  H   UNL     1      26.668 -22.231 -17.941  0.00  0.00    +0.147 HD
ATOM     23  H   UNL     1      27.527 -21.252 -16.842  0.00  0.00    +0.147 HD
ENDBRANCH  16  18
ENDBRANCH   9  16
TORSDOF 4
ENDMDL
MODEL 4
REMARK VINA RESULT:      -8.4     10.178     12.004
REMARK  Name = 6381821
REMARK  4 active torsions:
REMARK  status: ('A' for Active; 'I' for Inactive)
REMARK    1  A    between atoms: N_2  and  C_19
REMARK    2  A    between atoms: N_3  and  C_10
REMARK    3  A    between atoms: N_3  and  N_13
REMARK    4  A    between atoms: C_5  and  O_22
REMARK                            x       y       z     vdW  Elec       q    Type
REMARK                         _______ _______ _______ _____ _____    ______ ____
ROOT
ATOM      1  O   UNL     1      32.654 -22.332 -18.587  0.00  0.00    -0.289 OA
ATOM      2  N   UNL     1      35.295 -24.022 -14.933  0.00  0.00    -0.310 N 
ATOM      3  C   UNL     1      34.929 -24.682 -13.681  0.00  0.00    +0.124 C 
ATOM      4  C   UNL     1      33.448 -24.307 -13.492  0.00  0.00    +0.153 C 
ATOM      5  C   UNL     1      34.193 -23.615 -15.659  0.00  0.00    +0.031 C 
ATOM      6  C   UNL     1      33.009 -23.813 -14.843  0.00  0.00    +0.017 C 
ATOM      7  C   UNL     1      34.118 -23.128 -16.903  0.00  0.00    +0.111 C 
ATOM      8  C   UNL     1      31.757 -23.601 -15.258  0.00  0.00    +0.020 C 
ATOM      9  C   UNL     1      31.565 -23.087 -16.632  0.00  0.00    +0.122 C 
ATOM     10  C   UNL     1      32.789 -22.806 -17.469  0.00  0.00    +0.195 C 
ENDROOT
BRANCH   2  11
ATOM     11  C   UNL     1      36.659 -24.108 -15.409  0.00  0.00    +0.073 C 
ATOM     12  C   UNL     1      37.418 -25.132 -14.576  0.00  0.00    +0.021 C 
ATOM     13  C   UNL     1      37.313 -22.734 -15.329  0.00  0.00    +0.021 C 
ENDBRANCH   2  11
BRANCH   4  14
ATOM     14  O   UNL     1      33.336 -23.260 -12.532  0.00  0.00    -0.378 OA
ATOM     15  H   UNL     1      32.416 -23.194 -12.231  0.00  0.00    +0.211 HD
ENDBRANCH   4  14
BRANCH   9  16
ATOM     16  N   UNL     1      30.412 -22.859 -17.166  0.00  0.00    -0.144 NA
BRANCH  16  18
ATOM     17  O   UNL     1      27.740 -23.382 -17.563  0.00  0.00    -0.251 OA
ATOM     18  N   UNL     1      29.461 -22.518 -16.269  0.00  0.00    -0.200 N 
ATOM     19  N   UNL     1      27.289 -22.407 -15.534  0.00  0.00    -0.312 N 
ATOM     20  C   UNL     1      28.138 -22.817 -16.545  0.00  0.00    +0.315 C 
ATOM     21  H   UNL     1      29.705 -22.063 -15.430  0.00  0.00    +0.176 HD
ATOM     22  H   UNL     1      26.321 -22.562 -15.610  0.00  0.00    +0.147 HD
ATOM     23  H   UNL     1      27.654 -21.958 -14.737  0.00  0.00    +0.147 HD
ENDBRANCH  16  18
ENDBRANCH   9  16
TORSDOF 4
ENDMDL
MODEL 5
REMARK VINA RESULT:      -8.2     10.497     12.573
REMARK  Name = 6381821
REMARK  4 active torsions:
REMARK  status: ('A' for Active; 'I' for Inactive)
REMARK    1  A    between atoms: N_2  and  C_19
REMARK    2  A    between atoms: N_3  and  C_10
REMARK    3  A    between atoms: N_3  and  N_13
REMARK    4  A    between atoms: C_5  and  O_22
REMARK                            x       y       z     vdW  Elec       q    Type
REMARK                         _______ _______ _______ _____ _____    ______ ____
ROOT
ATOM      1  O   UNL     1      34.490 -22.937 -18.331  0.00  0.00    -0.289 OA
ATOM      2  N   UNL     1      30.654 -23.461 -15.468  0.00  0.00    -0.310 N 
ATOM      3  C   UNL     1      30.516 -23.525 -14.013  0.00  0.00    +0.124 C 
ATOM      4  C   UNL     1      31.932 -23.888 -13.530  0.00  0.00    +0.153 C 
ATOM      5  C   UNL     1      31.972 -23.397 -15.872  0.00  0.00    +0.031 C 
ATOM      6  C   UNL     1      32.819 -23.603 -14.711  0.00  0.00    +0.017 C 
ATOM      7  C   UNL     1      32.487 -23.173 -17.087  0.00  0.00    +0.111 C 
ATOM      8  C   UNL     1      34.152 -23.525 -14.720  0.00  0.00    +0.020 C 
ATOM      9  C   UNL     1      34.817 -23.252 -16.014  0.00  0.00    +0.122 C 
ATOM     10  C   UNL     1      33.957 -23.109 -17.245  0.00  0.00    +0.195 C 
ENDROOT
BRANCH   2  11
ATOM     11  C   UNL     1      29.487 -23.194 -16.280  0.00  0.00    +0.073 C 
ATOM     12  C   UNL     1      28.578 -22.216 -15.548  0.00  0.00    +0.021 C 
ATOM     13  C   UNL     1      28.766 -24.503 -16.581  0.00  0.00    +0.021 C 
ENDBRANCH   2  11
BRANCH   4  14
ATOM     14  O   UNL     1      31.988 -25.274 -13.206  0.00  0.00    -0.378 OA
ATOM     15  H   UNL     1      31.097 -25.655 -13.255  0.00  0.00    +0.211 HD
ENDBRANCH   4  14
BRANCH   9  16
ATOM     16  N   UNL     1      36.094 -23.132 -16.161  0.00  0.00    -0.144 NA
BRANCH  16  18
ATOM     17  O   UNL     1      37.829 -22.932 -14.034  0.00  0.00    -0.251 OA
ATOM     18  N   UNL     1      36.793 -24.188 -15.688  0.00  0.00    -0.200 N 
ATOM     19  N   UNL     1      38.286 -25.173 -14.250  0.00  0.00    -0.312 N 
ATOM     20  C   UNL     1      37.646 -24.003 -14.614  0.00  0.00    +0.315 C 
ATOM     21  H   UNL     1      36.698 -25.076 -16.103  0.00  0.00    +0.176 HD
ATOM     22  H   UNL     1      38.920 -25.174 -13.497  0.00  0.00    +0.147 HD
ATOM     23  H   UNL     1      38.107 -26.005 -14.744  0.00  0.00    +0.147 HD
ENDBRANCH  16  18
ENDBRANCH   9  16
TORSDOF 4
ENDMDL
MODEL 6
REMARK VINA RESULT:      -8.2      2.432      6.889
REMARK  Name = 6381821
REMARK  4 active torsions:
REMARK  status: ('A' for Active; 'I' for Inactive)
REMARK    1  A    between atoms: N_2  and  C_19
REMARK    2  A    between atoms: N_3  and  C_10
REMARK    3  A    between atoms: N_3  and  N_13
REMARK    4  A    between atoms: C_5  and  O_22
REMARK                            x       y       z     vdW  Elec       q    Type
REMARK                         _______ _______ _______ _____ _____    ______ ____
ROOT
ATOM      1  O   UNL     1      31.946 -14.405 -22.145  0.00  0.00    -0.289 OA
ATOM      2  N   UNL     1      32.631  -9.659 -22.586  0.00  0.00    -0.310 N 
ATOM      3  C   UNL     1      33.242  -8.850 -23.639  0.00  0.00    +0.124 C 
ATOM      4  C   UNL     1      34.103  -9.859 -24.420  0.00  0.00    +0.153 C 
ATOM      5  C   UNL     1      32.733 -11.014 -22.833  0.00  0.00    +0.031 C 
ATOM      6  C   UNL     1      33.590 -11.206 -23.989  0.00  0.00    +0.017 C 
ATOM      7  C   UNL     1      32.169 -12.046 -22.196  0.00  0.00    +0.111 C 
ATOM      8  C   UNL     1      33.842 -12.387 -24.559  0.00  0.00    +0.020 C 
ATOM      9  C   UNL     1      33.241 -13.591 -23.943  0.00  0.00    +0.122 C 
ATOM     10  C   UNL     1      32.407 -13.418 -22.698  0.00  0.00    +0.195 C 
ENDROOT
BRANCH   2  11
ATOM     11  C   UNL     1      31.783  -9.021 -21.603  0.00  0.00    +0.073 C 
ATOM     12  C   UNL     1      31.646  -7.543 -21.941  0.00  0.00    +0.021 C 
ATOM     13  C   UNL     1      32.377  -9.220 -20.213  0.00  0.00    +0.021 C 
ENDBRANCH   2  11
BRANCH   4  14
ATOM     14  O   UNL     1      35.470  -9.718 -24.043  0.00  0.00    -0.378 OA
ATOM     15  H   UNL     1      35.556  -9.840 -23.085  0.00  0.00    +0.211 HD
ENDBRANCH   4  14
BRANCH   9  16
ATOM     16  N   UNL     1      33.386 -14.789 -24.402  0.00  0.00    -0.144 NA
BRANCH  16  18
ATOM     17  O   UNL     1      34.742 -16.926 -25.483  0.00  0.00    -0.251 OA
ATOM     18  N   UNL     1      34.256 -15.537 -23.688  0.00  0.00    -0.200 N 
ATOM     19  N   UNL     1      35.752 -17.262 -23.448  0.00  0.00    -0.312 N 
ATOM     20  C   UNL     1      34.898 -16.596 -24.308  0.00  0.00    +0.315 C 
ATOM     21  H   UNL     1      34.431 -15.333 -22.741  0.00  0.00    +0.176 HD
ATOM     22  H   UNL     1      36.269 -18.036 -23.768  0.00  0.00    +0.147 HD
ATOM     23  H   UNL     1      35.844 -16.961 -22.515  0.00  0.00    +0.147 HD
ENDBRANCH  16  18
ENDBRANCH   9  16
TORSDOF 4
ENDMDL
MODEL 7
REMARK VINA RESULT:      -8.1     11.558     13.981
REMARK  Name = 6381821
REMARK  4 active torsions:
REMARK  status: ('A' for Active; 'I' for Inactive)
REMARK    1  A    between atoms: N_2  and  C_19
REMARK    2  A    between atoms: N_3  and  C_10
REMARK    3  A    between atoms: N_3  and  N_13
REMARK    4  A    between atoms: C_5  and  O_22
REMARK                            x       y       z     vdW  Elec       q    Type
REMARK                         _______ _______ _______ _____ _____    ______ ____
ROOT
ATOM      1  O   UNL     1      36.769 -24.219 -10.851  0.00  0.00    -0.289 OA
ATOM      2  N   UNL     1      33.568 -23.627 -14.399  0.00  0.00    -0.310 N 
ATOM      3  C   UNL     1      33.683 -23.737 -15.853  0.00  0.00    +0.124 C 
ATOM      4  C   UNL     1      35.195 -23.607 -16.109  0.00  0.00    +0.153 C 
ATOM      5  C   UNL     1      34.780 -23.791 -13.759  0.00  0.00    +0.031 C 
ATOM      6  C   UNL     1      35.827 -23.839 -14.763  0.00  0.00    +0.017 C 
ATOM      7  C   UNL     1      35.051 -23.914 -12.454  0.00  0.00    +0.111 C 
ATOM      8  C   UNL     1      37.117 -24.070 -14.505  0.00  0.00    +0.020 C 
ATOM      9  C   UNL     1      37.515 -24.248 -13.092  0.00  0.00    +0.122 C 
ATOM     10  C   UNL     1      36.451 -24.129 -12.028  0.00  0.00    +0.195 C 
ENDROOT
BRANCH   2  11
ATOM     11  C   UNL     1      32.257 -23.647 -13.787  0.00  0.00    +0.073 C 
ATOM     12  C   UNL     1      31.743 -25.079 -13.751  0.00  0.00    +0.021 C 
ATOM     13  C   UNL     1      31.316 -22.739 -14.569  0.00  0.00    +0.021 C 
ENDBRANCH   2  11
BRANCH   4  14
ATOM     14  O   UNL     1      35.494 -22.291 -16.565  0.00  0.00    -0.378 OA
ATOM     15  H   UNL     1      34.694 -21.887 -16.935  0.00  0.00    +0.211 HD
ENDBRANCH   4  14
BRANCH   9  16
ATOM     16  N   UNL     1      38.721 -24.497 -12.704  0.00  0.00    -0.144 NA
BRANCH  16  18
ATOM     17  O   UNL     1      40.935 -24.576 -14.336  0.00  0.00    -0.251 OA
ATOM     18  N   UNL     1      39.219 -25.650 -13.202  0.00  0.00    -0.200 N 
ATOM     19  N   UNL     1      40.724 -26.860 -14.444  0.00  0.00    -0.312 N 
ATOM     20  C   UNL     1      40.337 -25.603 -14.016  0.00  0.00    +0.315 C 
ATOM     21  H   UNL     1      38.793 -26.512 -12.989  0.00  0.00    +0.176 HD
ATOM     22  H   UNL     1      41.507 -26.962 -15.031  0.00  0.00    +0.147 HD
ATOM     23  H   UNL     1      40.214 -27.654 -14.162  0.00  0.00    +0.147 HD
ENDBRANCH  16  18
ENDBRANCH   9  16
TORSDOF 4
ENDMDL
MODEL 8
REMARK VINA RESULT:      -8.1      2.486      6.800
REMARK  Name = 6381821
REMARK  4 active torsions:
REMARK  status: ('A' for Active; 'I' for Inactive)
REMARK    1  A    between atoms: N_2  and  C_19
REMARK    2  A    between atoms: N_3  and  C_10
REMARK    3  A    between atoms: N_3  and  N_13
REMARK    4  A    between atoms: C_5  and  O_22
REMARK                            x       y       z     vdW  Elec       q    Type
REMARK                         _______ _______ _______ _____ _____    ______ ____
ROOT
ATOM      1  O   UNL     1      35.755 -18.789 -23.538  0.00  0.00    -0.289 OA
ATOM      2  N   UNL     1      33.660 -14.545 -24.426  0.00  0.00    -0.310 N 
ATOM      3  C   UNL     1      33.327 -13.415 -23.560  0.00  0.00    +0.124 C 
ATOM      4  C   UNL     1      33.330 -14.026 -22.147  0.00  0.00    +0.153 C 
ATOM      5  C   UNL     1      34.178 -15.615 -23.724  0.00  0.00    +0.031 C 
ATOM      6  C   UNL     1      34.053 -15.337 -22.305  0.00  0.00    +0.017 C 
ATOM      7  C   UNL     1      34.737 -16.746 -24.172  0.00  0.00    +0.111 C 
ATOM      8  C   UNL     1      34.525 -16.121 -21.332  0.00  0.00    +0.020 C 
ATOM      9  C   UNL     1      35.186 -17.384 -21.727  0.00  0.00    +0.122 C 
ATOM     10  C   UNL     1      35.261 -17.726 -23.195  0.00  0.00    +0.195 C 
ENDROOT
BRANCH   2  11
ATOM     11  C   UNL     1      33.692 -14.355 -25.859  0.00  0.00    +0.073 C 
ATOM     12  C   UNL     1      33.484 -12.881 -26.176  0.00  0.00    +0.021 C 
ATOM     13  C   UNL     1      32.620 -15.219 -26.511  0.00  0.00    +0.021 C 
ENDBRANCH   2  11
BRANCH   4  14
ATOM     14  O   UNL     1      31.991 -14.259 -21.721  0.00  0.00    -0.378 OA
ATOM     15  H   UNL     1      31.881 -15.196 -21.495  0.00  0.00    +0.211 HD
ENDBRANCH   4  14
BRANCH   9  16
ATOM     16  N   UNL     1      35.704 -18.223 -20.893  0.00  0.00    -0.144 NA
BRANCH  16  18
ATOM     17  O   UNL     1      36.647 -20.471 -19.618  0.00  0.00    -0.251 OA
ATOM     18  N   UNL     1      34.940 -19.318 -20.685  0.00  0.00    -0.200 N 
ATOM     19  N   UNL     1      34.587 -21.446 -19.900  0.00  0.00    -0.312 N 
ATOM     20  C   UNL     1      35.491 -20.409 -20.035  0.00  0.00    +0.315 C 
ATOM     21  H   UNL     1      34.005 -19.340 -20.993  0.00  0.00    +0.176 HD
ATOM     22  H   UNL     1      34.857 -22.280 -19.454  0.00  0.00    +0.147 HD
ATOM     23  H   UNL     1      33.672 -21.349 -20.251  0.00  0.00    +0.147 HD
ENDBRANCH  16  18
ENDBRANCH   9  16
TORSDOF 4
ENDMDL
MODEL 9
REMARK VINA RESULT:      -8.0      1.420      1.797
REMARK  Name = 6381821
REMARK  4 active torsions:
REMARK  status: ('A' for Active; 'I' for Inactive)
REMARK    1  A    between atoms: N_2  and  C_19
REMARK    2  A    between atoms: N_3  and  C_10
REMARK    3  A    between atoms: N_3  and  N_13
REMARK    4  A    between atoms: C_5  and  O_22
REMARK                            x       y       z     vdW  Elec       q    Type
REMARK                         _______ _______ _______ _____ _____    ______ ____
ROOT
ATOM      1  O   UNL     1      33.054 -13.997 -20.540  0.00  0.00    -0.289 OA
ATOM      2  N   UNL     1      35.079 -18.084 -22.083  0.00  0.00    -0.310 N 
ATOM      3  C   UNL     1      35.637 -18.475 -23.376  0.00  0.00    +0.124 C 
ATOM      4  C   UNL     1      35.012 -17.470 -24.361  0.00  0.00    +0.153 C 
ATOM      5  C   UNL     1      34.508 -16.827 -22.111  0.00  0.00    +0.031 C 
ATOM      6  C   UNL     1      34.483 -16.365 -23.487  0.00  0.00    +0.017 C 
ATOM      7  C   UNL     1      34.046 -16.072 -21.107  0.00  0.00    +0.111 C 
ATOM      8  C   UNL     1      34.072 -15.155 -23.874  0.00  0.00    +0.020 C 
ATOM      9  C   UNL     1      33.567 -14.233 -22.833  0.00  0.00    +0.122 C 
ATOM     10  C   UNL     1      33.517 -14.723 -21.406  0.00  0.00    +0.195 C 
ENDROOT
BRANCH   2  11
ATOM     11  C   UNL     1      35.406 -18.858 -20.906  0.00  0.00    +0.073 C 
ATOM     12  C   UNL     1      36.865 -19.285 -20.974  0.00  0.00    +0.021 C 
ATOM     13  C   UNL     1      34.478 -20.064 -20.816  0.00  0.00    +0.021 C 
ENDBRANCH   2  11
BRANCH   4  14
ATOM     14  O   UNL     1      33.939 -18.089 -25.063  0.00  0.00    -0.378 OA
ATOM     15  H   UNL     1      33.156 -18.127 -24.491  0.00  0.00    +0.211 HD
ENDBRANCH   4  14
BRANCH   9  16
ATOM     16  N   UNL     1      33.158 -13.031 -23.065  0.00  0.00    -0.144 NA
BRANCH  16  18
ATOM     17  O   UNL     1      32.362 -10.502 -22.327  0.00  0.00    -0.251 OA
ATOM     18  N   UNL     1      31.933 -12.771 -22.559  0.00  0.00    -0.200 N 
ATOM     19  N   UNL     1      30.326 -11.367 -21.711  0.00  0.00    -0.312 N 
ATOM     20  C   UNL     1      31.611 -11.470 -22.212  0.00  0.00    +0.315 C 
ATOM     21  H   UNL     1      31.278 -13.496 -22.438  0.00  0.00    +0.176 HD
ATOM     22  H   UNL     1      29.977 -10.493 -21.427  0.00  0.00    +0.147 HD
ATOM     23  H   UNL     1      29.762 -12.170 -21.637  0.00  0.00    +0.147 HD
ENDBRANCH  16  18
ENDBRANCH   9  16
TORSDOF 4
ENDMDL
