MODEL 1
REMARK VINA RESULT:      -9.0      0.000      0.000
REMARK  Name = 5493470
REMARK  5 active torsions:
REMARK  status: ('A' for Active; 'I' for Inactive)
REMARK    1  A    between atoms: C_3  and  C_16
REMARK    2  A    between atoms: C_8  and  O_14
REMARK    3  A    between atoms: C_10  and  O_12
REMARK    4  A    between atoms: C_16  and  C_19
REMARK    5  A    between atoms: C_19  and  O_20
REMARK                            x       y       z     vdW  Elec       q    Type
REMARK                         _______ _______ _______ _____ _____    ______ ____
ROOT
ATOM      1  O   UNL     1      35.171 -18.003 -20.600  0.00  0.00    -0.425 OA
ATOM      2  O   UNL     1      34.971 -15.803 -20.148  0.00  0.00    -0.244 OA
ATOM      3  C   UNL     1      35.135 -19.074 -21.523  0.00  0.00    +0.136 C 
ATOM      4  C   UNL     1      34.596 -17.548 -23.299  0.00  0.00    +0.015 C 
ATOM      5  C   UNL     1      34.627 -16.476 -22.401  0.00  0.00    +0.110 C 
ATOM      6  C   UNL     1      34.863 -18.894 -22.821  0.00  0.00    +0.034 C 
ATOM      7  C   UNL     1      34.307 -17.310 -24.647  0.00  0.00    +0.037 C 
ATOM      8  C   UNL     1      34.371 -15.175 -22.849  0.00  0.00    +0.143 C 
ATOM      9  C   UNL     1      34.931 -16.709 -20.970  0.00  0.00    +0.348 C 
ATOM     10  C   UNL     1      34.051 -16.012 -25.093  0.00  0.00    +0.142 C 
ATOM     11  C   UNL     1      34.084 -14.947 -24.195  0.00  0.00    +0.074 C 
ENDROOT
BRANCH  10  12
ATOM     12  O   UNL     1      33.771 -15.788 -26.406  0.00  0.00    -0.471 OA
ATOM     13  C   UNL     1      33.047 -14.598 -26.720  0.00  0.00    +0.252 C 
ENDBRANCH  10  12
BRANCH   8  14
ATOM     14  O   UNL     1      34.386 -14.093 -22.020  0.00  0.00    -0.505 OA
ATOM     15  H   UNL     1      33.828 -13.361 -22.196  0.00  0.00    +0.292 HD
ENDBRANCH   8  14
BRANCH   3  16
ATOM     16  C   UNL     1      35.425 -20.408 -20.916  0.00  0.00    +0.156 C 
ATOM     17  C   UNL     1      36.709 -20.371 -20.095  0.00  0.00    +0.020 C 
BRANCH  16  19
ATOM     18  O   UNL     1      34.245 -21.678 -19.208  0.00  0.00    -0.250 OA
ATOM     19  C   UNL     1      34.239 -20.791 -20.051  0.00  0.00    +0.321 C 
BRANCH  19  20
ATOM     20  O   UNL     1      33.133 -20.053 -20.335  0.00  0.00    -0.480 OA
ATOM     21  H   UNL     1      32.815 -19.428 -19.714  0.00  0.00    +0.295 HD
ENDBRANCH  19  20
ENDBRANCH  16  19
ENDBRANCH   3  16
TORSDOF 5
ENDMDL
MODEL 2
REMARK VINA RESULT:      -8.9      2.011      6.972
REMARK  Name = 5493470
REMARK  5 active torsions:
REMARK  status: ('A' for Active; 'I' for Inactive)
REMARK    1  A    between atoms: C_3  and  C_16
REMARK    2  A    between atoms: C_8  and  O_14
REMARK    3  A    between atoms: C_10  and  O_12
REMARK    4  A    between atoms: C_16  and  C_19
REMARK    5  A    between atoms: C_19  and  O_20
REMARK                            x       y       z     vdW  Elec       q    Type
REMARK                         _______ _______ _______ _____ _____    ______ ____
ROOT
ATOM      1  O   UNL     1      33.851 -19.408 -21.826  0.00  0.00    -0.425 OA
ATOM      2  O   UNL     1      32.194 -20.574 -20.838  0.00  0.00    -0.244 OA
ATOM      3  C   UNL     1      35.217 -19.051 -21.913  0.00  0.00    +0.136 C 
ATOM      4  C   UNL     1      35.728 -20.484 -20.054  0.00  0.00    +0.015 C 
ATOM      5  C   UNL     1      34.382 -20.849 -19.952  0.00  0.00    +0.110 C 
ATOM      6  C   UNL     1      36.142 -19.545 -21.083  0.00  0.00    +0.034 C 
ATOM      7  C   UNL     1      36.659 -21.028 -19.162  0.00  0.00    +0.037 C 
ATOM      8  C   UNL     1      33.970 -21.752 -18.965  0.00  0.00    +0.143 C 
ATOM      9  C   UNL     1      33.382 -20.284 -20.887  0.00  0.00    +0.348 C 
ATOM     10  C   UNL     1      36.247 -21.928 -18.178  0.00  0.00    +0.142 C 
ATOM     11  C   UNL     1      34.905 -22.290 -18.081  0.00  0.00    +0.074 C 
ENDROOT
BRANCH  10  12
ATOM     12  O   UNL     1      37.158 -22.454 -17.315  0.00  0.00    -0.471 OA
ATOM     13  C   UNL     1      36.802 -22.480 -15.932  0.00  0.00    +0.252 C 
ENDBRANCH  10  12
BRANCH   8  14
ATOM     14  O   UNL     1      32.673 -22.143 -18.819  0.00  0.00    -0.505 OA
ATOM     15  H   UNL     1      32.167 -22.379 -19.572  0.00  0.00    +0.292 HD
ENDBRANCH   8  14
BRANCH   3  16
ATOM     16  C   UNL     1      35.522 -18.080 -23.007  0.00  0.00    +0.156 C 
ATOM     17  C   UNL     1      34.821 -18.473 -24.303  0.00  0.00    +0.020 C 
BRANCH  16  19
ATOM     18  O   UNL     1      35.295 -15.660 -23.142  0.00  0.00    -0.250 OA
ATOM     19  C   UNL     1      35.075 -16.706 -22.544  0.00  0.00    +0.321 C 
BRANCH  19  20
ATOM     20  O   UNL     1      34.417 -16.749 -21.356  0.00  0.00    -0.480 OA
ATOM     21  H   UNL     1      33.813 -17.445 -21.180  0.00  0.00    +0.295 HD
ENDBRANCH  19  20
ENDBRANCH  16  19
ENDBRANCH   3  16
TORSDOF 5
ENDMDL
MODEL 3
REMARK VINA RESULT:      -8.7      2.047      6.431
REMARK  Name = 5493470
REMARK  5 active torsions:
REMARK  status: ('A' for Active; 'I' for Inactive)
REMARK    1  A    between atoms: C_3  and  C_16
REMARK    2  A    between atoms: C_8  and  O_14
REMARK    3  A    between atoms: C_10  and  O_12
REMARK    4  A    between atoms: C_16  and  C_19
REMARK    5  A    between atoms: C_19  and  O_20
REMARK                            x       y       z     vdW  Elec       q    Type
REMARK                         _______ _______ _______ _____ _____    ______ ____
ROOT
ATOM      1  O   UNL     1      35.961 -18.212 -22.150  0.00  0.00    -0.425 OA
ATOM      2  O   UNL     1      37.646 -19.269 -21.089  0.00  0.00    -0.244 OA
ATOM      3  C   UNL     1      34.578 -18.047 -22.396  0.00  0.00    +0.136 C 
ATOM      4  C   UNL     1      34.075 -19.822 -20.858  0.00  0.00    +0.015 C 
ATOM      5  C   UNL     1      35.438 -20.000 -20.601  0.00  0.00    +0.110 C 
ATOM      6  C   UNL     1      33.647 -18.798 -21.797  0.00  0.00    +0.034 C 
ATOM      7  C   UNL     1      33.138 -20.633 -20.206  0.00  0.00    +0.037 C 
ATOM      8  C   UNL     1      35.861 -20.983 -19.699  0.00  0.00    +0.143 C 
ATOM      9  C   UNL     1      36.443 -19.152 -21.282  0.00  0.00    +0.348 C 
ATOM     10  C   UNL     1      33.562 -21.612 -19.307  0.00  0.00    +0.142 C 
ATOM     11  C   UNL     1      34.922 -21.787 -19.054  0.00  0.00    +0.074 C 
ENDROOT
BRANCH  10  12
ATOM     12  O   UNL     1      32.647 -22.398 -18.677  0.00  0.00    -0.471 OA
ATOM     13  C   UNL     1      33.094 -23.125 -17.532  0.00  0.00    +0.252 C 
ENDBRANCH  10  12
BRANCH   8  14
ATOM     14  O   UNL     1      37.175 -21.202 -19.411  0.00  0.00    -0.505 OA
ATOM     15  H   UNL     1      37.524 -20.937 -18.582  0.00  0.00    +0.292 HD
ENDBRANCH   8  14
BRANCH   3  16
ATOM     16  C   UNL     1      34.261 -16.966 -23.379  0.00  0.00    +0.156 C 
ATOM     17  C   UNL     1      34.971 -15.667 -23.015  0.00  0.00    +0.020 C 
BRANCH  16  19
ATOM     18  O   UNL     1      34.870 -16.728 -25.723  0.00  0.00    -0.250 OA
ATOM     19  C   UNL     1      34.686 -17.451 -24.753  0.00  0.00    +0.321 C 
BRANCH  19  20
ATOM     20  O   UNL     1      34.813 -18.802 -24.807  0.00  0.00    -0.480 OA
ATOM     21  H   UNL     1      34.519 -19.330 -24.089  0.00  0.00    +0.295 HD
ENDBRANCH  19  20
ENDBRANCH  16  19
ENDBRANCH   3  16
TORSDOF 5
ENDMDL
MODEL 4
REMARK VINA RESULT:      -8.7      2.050      3.597
REMARK  Name = 5493470
REMARK  5 active torsions:
REMARK  status: ('A' for Active; 'I' for Inactive)
REMARK    1  A    between atoms: C_3  and  C_16
REMARK    2  A    between atoms: C_8  and  O_14
REMARK    3  A    between atoms: C_10  and  O_12
REMARK    4  A    between atoms: C_16  and  C_19
REMARK    5  A    between atoms: C_19  and  O_20
REMARK                            x       y       z     vdW  Elec       q    Type
REMARK                         _______ _______ _______ _____ _____    ______ ____
ROOT
ATOM      1  O   UNL     1      34.516 -17.943 -23.497  0.00  0.00    -0.425 OA
ATOM      2  O   UNL     1      34.190 -17.637 -25.706  0.00  0.00    -0.244 OA
ATOM      3  C   UNL     1      34.567 -17.426 -22.181  0.00  0.00    +0.136 C 
ATOM      4  C   UNL     1      34.024 -15.235 -23.002  0.00  0.00    +0.015 C 
ATOM      5  C   UNL     1      33.968 -15.727 -24.310  0.00  0.00    +0.110 C 
ATOM      6  C   UNL     1      34.338 -16.137 -21.906  0.00  0.00    +0.034 C 
ATOM      7  C   UNL     1      33.776 -13.878 -22.764  0.00  0.00    +0.037 C 
ATOM      8  C   UNL     1      33.667 -14.868 -25.372  0.00  0.00    +0.143 C 
ATOM      9  C   UNL     1      34.228 -17.160 -24.580  0.00  0.00    +0.348 C 
ATOM     10  C   UNL     1      33.476 -13.023 -23.825  0.00  0.00    +0.142 C 
ATOM     11  C   UNL     1      33.421 -13.517 -25.127  0.00  0.00    +0.074 C 
ENDROOT
BRANCH  10  12
ATOM     12  O   UNL     1      33.236 -11.704 -23.588  0.00  0.00    -0.471 OA
ATOM     13  C   UNL     1      33.905 -10.761 -24.425  0.00  0.00    +0.252 C 
ENDBRANCH  10  12
BRANCH   8  14
ATOM     14  O   UNL     1      33.600 -15.292 -26.666  0.00  0.00    -0.505 OA
ATOM     15  H   UNL     1      33.070 -16.032 -26.890  0.00  0.00    +0.292 HD
ENDBRANCH   8  14
BRANCH   3  16
ATOM     16  C   UNL     1      34.900 -18.447 -21.141  0.00  0.00    +0.156 C 
ATOM     17  C   UNL     1      34.062 -19.708 -21.320  0.00  0.00    +0.020 C 
BRANCH  16  19
ATOM     18  O   UNL     1      37.031 -19.379 -20.424  0.00  0.00    -0.250 OA
ATOM     19  C   UNL     1      36.380 -18.758 -21.254  0.00  0.00    +0.321 C 
BRANCH  19  20
ATOM     20  O   UNL     1      36.932 -18.240 -22.383  0.00  0.00    -0.480 OA
ATOM     21  H   UNL     1      36.885 -18.716 -23.189  0.00  0.00    +0.295 HD
ENDBRANCH  19  20
ENDBRANCH  16  19
ENDBRANCH   3  16
TORSDOF 5
ENDMDL
MODEL 5
REMARK VINA RESULT:      -8.6      2.265      6.741
REMARK  Name = 5493470
REMARK  5 active torsions:
REMARK  status: ('A' for Active; 'I' for Inactive)
REMARK    1  A    between atoms: C_3  and  C_16
REMARK    2  A    between atoms: C_8  and  O_14
REMARK    3  A    between atoms: C_10  and  O_12
REMARK    4  A    between atoms: C_16  and  C_19
REMARK    5  A    between atoms: C_19  and  O_20
REMARK                            x       y       z     vdW  Elec       q    Type
REMARK                         _______ _______ _______ _____ _____    ______ ____
ROOT
ATOM      1  O   UNL     1      33.029 -14.096 -24.741  0.00  0.00    -0.425 OA
ATOM      2  O   UNL     1      33.573 -15.681 -26.248  0.00  0.00    -0.244 OA
ATOM      3  C   UNL     1      33.021 -13.620 -23.409  0.00  0.00    +0.136 C 
ATOM      4  C   UNL     1      34.162 -15.604 -22.676  0.00  0.00    +0.015 C 
ATOM      5  C   UNL     1      34.179 -16.091 -23.987  0.00  0.00    +0.110 C 
ATOM      6  C   UNL     1      33.553 -14.314 -22.396  0.00  0.00    +0.034 C 
ATOM      7  C   UNL     1      34.731 -16.366 -21.649  0.00  0.00    +0.037 C 
ATOM      8  C   UNL     1      34.762 -17.331 -24.269  0.00  0.00    +0.143 C 
ATOM      9  C   UNL     1      33.581 -15.298 -25.086  0.00  0.00    +0.348 C 
ATOM     10  C   UNL     1      35.312 -17.603 -21.932  0.00  0.00    +0.142 C 
ATOM     11  C   UNL     1      35.327 -18.084 -23.240  0.00  0.00    +0.074 C 
ENDROOT
BRANCH  10  12
ATOM     12  O   UNL     1      35.864 -18.339 -20.930  0.00  0.00    -0.471 OA
ATOM     13  C   UNL     1      35.528 -19.726 -20.881  0.00  0.00    +0.252 C 
ENDBRANCH  10  12
BRANCH   8  14
ATOM     14  O   UNL     1      34.807 -17.856 -25.526  0.00  0.00    -0.505 OA
ATOM     15  H   UNL     1      34.015 -17.968 -26.015  0.00  0.00    +0.292 HD
ENDBRANCH   8  14
BRANCH   3  16
ATOM     16  C   UNL     1      32.369 -12.286 -23.245  0.00  0.00    +0.156 C 
ATOM     17  C   UNL     1      31.886 -12.083 -21.813  0.00  0.00    +0.020 C 
BRANCH  16  19
ATOM     18  O   UNL     1      33.299 -10.039 -23.339  0.00  0.00    -0.250 OA
ATOM     19  C   UNL     1      33.381 -11.225 -23.632  0.00  0.00    +0.321 C 
BRANCH  19  20
ATOM     20  O   UNL     1      34.397 -11.729 -24.380  0.00  0.00    -0.480 OA
ATOM     21  H   UNL     1      35.105 -12.183 -23.965  0.00  0.00    +0.295 HD
ENDBRANCH  19  20
ENDBRANCH  16  19
ENDBRANCH   3  16
TORSDOF 5
ENDMDL
MODEL 6
REMARK VINA RESULT:      -8.6      8.794     10.135
REMARK  Name = 5493470
REMARK  5 active torsions:
REMARK  status: ('A' for Active; 'I' for Inactive)
REMARK    1  A    between atoms: C_3  and  C_16
REMARK    2  A    between atoms: C_8  and  O_14
REMARK    3  A    between atoms: C_10  and  O_12
REMARK    4  A    between atoms: C_16  and  C_19
REMARK    5  A    between atoms: C_19  and  O_20
REMARK                            x       y       z     vdW  Elec       q    Type
REMARK                         _______ _______ _______ _____ _____    ______ ____
ROOT
ATOM      1  O   UNL     1      34.883 -23.899 -14.397  0.00  0.00    -0.425 OA
ATOM      2  O   UNL     1      33.492 -24.479 -12.721  0.00  0.00    -0.244 OA
ATOM      3  C   UNL     1      35.087 -23.402 -15.705  0.00  0.00    +0.136 C 
ATOM      4  C   UNL     1      32.715 -23.169 -16.006  0.00  0.00    +0.015 C 
ATOM      5  C   UNL     1      32.493 -23.659 -14.715  0.00  0.00    +0.110 C 
ATOM      6  C   UNL     1      34.075 -23.043 -16.503  0.00  0.00    +0.034 C 
ATOM      7  C   UNL     1      31.624 -22.807 -16.803  0.00  0.00    +0.037 C 
ATOM      8  C   UNL     1      31.188 -23.785 -14.225  0.00  0.00    +0.143 C 
ATOM      9  C   UNL     1      33.636 -24.048 -13.857  0.00  0.00    +0.348 C 
ATOM     10  C   UNL     1      30.323 -22.933 -16.313  0.00  0.00    +0.142 C 
ATOM     11  C   UNL     1      30.106 -23.421 -15.026  0.00  0.00    +0.074 C 
ENDROOT
BRANCH  10  12
ATOM     12  O   UNL     1      29.266 -22.578 -17.094  0.00  0.00    -0.471 OA
ATOM     13  C   UNL     1      27.963 -22.902 -16.608  0.00  0.00    +0.252 C 
ENDBRANCH  10  12
BRANCH   8  14
ATOM     14  O   UNL     1      30.912 -24.256 -12.976  0.00  0.00    -0.505 OA
ATOM     15  H   UNL     1      30.167 -23.934 -12.508  0.00  0.00    +0.292 HD
ENDBRANCH   8  14
BRANCH   3  16
ATOM     16  C   UNL     1      36.525 -23.319 -16.105  0.00  0.00    +0.156 C 
ATOM     17  C   UNL     1      37.020 -21.877 -16.078  0.00  0.00    +0.020 C 
BRANCH  16  19
ATOM     18  O   UNL     1      38.048 -23.759 -14.259  0.00  0.00    -0.250 OA
ATOM     19  C   UNL     1      37.323 -24.185 -15.148  0.00  0.00    +0.321 C 
BRANCH  19  20
ATOM     20  O   UNL     1      37.172 -25.510 -15.404  0.00  0.00    -0.480 OA
ATOM     21  H   UNL     1      37.926 -26.048 -15.550  0.00  0.00    +0.295 HD
ENDBRANCH  19  20
ENDBRANCH  16  19
ENDBRANCH   3  16
TORSDOF 5
ENDMDL
MODEL 7
REMARK VINA RESULT:      -8.6      6.546     10.167
REMARK  Name = 5493470
REMARK  5 active torsions:
REMARK  status: ('A' for Active; 'I' for Inactive)
REMARK    1  A    between atoms: C_3  and  C_16
REMARK    2  A    between atoms: C_8  and  O_14
REMARK    3  A    between atoms: C_10  and  O_12
REMARK    4  A    between atoms: C_16  and  C_19
REMARK    5  A    between atoms: C_19  and  O_20
REMARK                            x       y       z     vdW  Elec       q    Type
REMARK                         _______ _______ _______ _____ _____    ______ ____
ROOT
ATOM      1  O   UNL     1      33.882 -24.403 -12.948  0.00  0.00    -0.425 OA
ATOM      2  O   UNL     1      31.665 -23.994 -12.897  0.00  0.00    -0.244 OA
ATOM      3  C   UNL     1      35.110 -24.425 -13.649  0.00  0.00    +0.136 C 
ATOM      4  C   UNL     1      34.013 -23.618 -15.629  0.00  0.00    +0.015 C 
ATOM      5  C   UNL     1      32.789 -23.590 -14.952  0.00  0.00    +0.110 C 
ATOM      6  C   UNL     1      35.210 -24.057 -14.931  0.00  0.00    +0.034 C 
ATOM      7  C   UNL     1      34.068 -23.224 -16.970  0.00  0.00    +0.037 C 
ATOM      8  C   UNL     1      31.630 -23.169 -15.612  0.00  0.00    +0.143 C 
ATOM      9  C   UNL     1      32.712 -24.004 -13.532  0.00  0.00    +0.348 C 
ATOM     10  C   UNL     1      32.911 -22.805 -17.628  0.00  0.00    +0.142 C 
ATOM     11  C   UNL     1      31.694 -22.778 -16.949  0.00  0.00    +0.074 C 
ENDROOT
BRANCH  10  12
ATOM     12  O   UNL     1      32.972 -22.423 -18.933  0.00  0.00    -0.471 OA
ATOM     13  C   UNL     1      34.232 -21.956 -19.414  0.00  0.00    +0.252 C 
ENDBRANCH  10  12
BRANCH   8  14
ATOM     14  O   UNL     1      30.411 -23.122 -15.004  0.00  0.00    -0.505 OA
ATOM     15  H   UNL     1      30.016 -22.294 -14.810  0.00  0.00    +0.292 HD
ENDBRANCH   8  14
BRANCH   3  16
ATOM     16  C   UNL     1      36.268 -24.894 -12.830  0.00  0.00    +0.156 C 
ATOM     17  C   UNL     1      37.591 -24.459 -13.449  0.00  0.00    +0.020 C 
BRANCH  16  19
ATOM     18  O   UNL     1      36.692 -23.334 -11.011  0.00  0.00    -0.250 OA
ATOM     19  C   UNL     1      36.109 -24.324 -11.433  0.00  0.00    +0.321 C 
BRANCH  19  20
ATOM     20  O   UNL     1      35.257 -25.057 -10.670  0.00  0.00    -0.480 OA
ATOM     21  H   UNL     1      34.843 -25.818 -11.029  0.00  0.00    +0.295 HD
ENDBRANCH  19  20
ENDBRANCH  16  19
ENDBRANCH   3  16
TORSDOF 5
ENDMDL
MODEL 8
REMARK VINA RESULT:      -8.6      8.781     10.810
REMARK  Name = 5493470
REMARK  5 active torsions:
REMARK  status: ('A' for Active; 'I' for Inactive)
REMARK    1  A    between atoms: C_3  and  C_16
REMARK    2  A    between atoms: C_8  and  O_14
REMARK    3  A    between atoms: C_10  and  O_12
REMARK    4  A    between atoms: C_16  and  C_19
REMARK    5  A    between atoms: C_19  and  O_20
REMARK                            x       y       z     vdW  Elec       q    Type
REMARK                         _______ _______ _______ _____ _____    ______ ____
ROOT
ATOM      1  O   UNL     1      30.007 -23.936 -14.778  0.00  0.00    -0.425 OA
ATOM      2  O   UNL     1      31.015 -24.736 -12.927  0.00  0.00    -0.244 OA
ATOM      3  C   UNL     1      30.088 -23.370 -16.072  0.00  0.00    +0.136 C 
ATOM      4  C   UNL     1      32.488 -23.396 -15.951  0.00  0.00    +0.015 C 
ATOM      5  C   UNL     1      32.428 -23.956 -14.671  0.00  0.00    +0.110 C 
ATOM      6  C   UNL     1      31.256 -23.098 -16.664  0.00  0.00    +0.034 C 
ATOM      7  C   UNL     1      33.734 -23.129 -16.530  0.00  0.00    +0.037 C 
ATOM      8  C   UNL     1      33.607 -24.247 -13.975  0.00  0.00    +0.143 C 
ATOM      9  C   UNL     1      31.119 -24.245 -14.043  0.00  0.00    +0.348 C 
ATOM     10  C   UNL     1      34.908 -23.420 -15.834  0.00  0.00    +0.142 C 
ATOM     11  C   UNL     1      34.844 -23.978 -14.559  0.00  0.00    +0.074 C 
ENDROOT
BRANCH  10  12
ATOM     12  O   UNL     1      36.117 -23.158 -16.403  0.00  0.00    -0.471 OA
ATOM     13  C   UNL     1      37.175 -22.770 -15.528  0.00  0.00    +0.252 C 
ENDBRANCH  10  12
BRANCH   8  14
ATOM     14  O   UNL     1      33.609 -24.792 -12.726  0.00  0.00    -0.505 OA
ATOM     15  H   UNL     1      32.799 -24.945 -12.280  0.00  0.00    +0.292 HD
ENDBRANCH   8  14
BRANCH   3  16
ATOM     16  C   UNL     1      28.760 -23.108 -16.703  0.00  0.00    +0.156 C 
ATOM     17  C   UNL     1      28.098 -24.406 -17.151  0.00  0.00    +0.020 C 
BRANCH  16  19
ATOM     18  O   UNL     1      26.678 -22.445 -15.631  0.00  0.00    -0.250 OA
ATOM     19  C   UNL     1      27.899 -22.382 -15.687  0.00  0.00    +0.321 C 
BRANCH  19  20
ATOM     20  O   UNL     1      28.635 -21.612 -14.843  0.00  0.00    -0.480 OA
ATOM     21  H   UNL     1      28.841 -21.925 -13.983  0.00  0.00    +0.295 HD
ENDBRANCH  19  20
ENDBRANCH  16  19
ENDBRANCH   3  16
TORSDOF 5
ENDMDL
MODEL 9
REMARK VINA RESULT:      -8.5      8.201     10.734
REMARK  Name = 5493470
REMARK  5 active torsions:
REMARK  status: ('A' for Active; 'I' for Inactive)
REMARK    1  A    between atoms: C_3  and  C_16
REMARK    2  A    between atoms: C_8  and  O_14
REMARK    3  A    between atoms: C_10  and  O_12
REMARK    4  A    between atoms: C_16  and  C_19
REMARK    5  A    between atoms: C_19  and  O_20
REMARK                            x       y       z     vdW  Elec       q    Type
REMARK                         _______ _______ _______ _____ _____    ______ ____
ROOT
ATOM      1  O   UNL     1      30.675 -22.908 -16.883  0.00  0.00    -0.425 OA
ATOM      2  O   UNL     1      32.451 -22.469 -18.200  0.00  0.00    -0.244 OA
ATOM      3  C   UNL     1      30.141 -23.367 -15.656  0.00  0.00    +0.136 C 
ATOM      4  C   UNL     1      32.357 -23.795 -14.832  0.00  0.00    +0.015 C 
ATOM      5  C   UNL     1      32.904 -23.344 -16.037  0.00  0.00    +0.110 C 
ATOM      6  C   UNL     1      30.914 -23.799 -14.653  0.00  0.00    +0.034 C 
ATOM      7  C   UNL     1      33.207 -24.236 -13.811  0.00  0.00    +0.037 C 
ATOM      8  C   UNL     1      34.291 -23.336 -16.221  0.00  0.00    +0.143 C 
ATOM      9  C   UNL     1      32.020 -22.873 -17.128  0.00  0.00    +0.348 C 
ATOM     10  C   UNL     1      34.590 -24.228 -13.997  0.00  0.00    +0.142 C 
ATOM     11  C   UNL     1      35.131 -23.778 -15.200  0.00  0.00    +0.074 C 
ENDROOT
BRANCH  10  12
ATOM     12  O   UNL     1      35.411 -24.658 -13.000  0.00  0.00    -0.471 OA
ATOM     13  C   UNL     1      35.792 -23.700 -12.013  0.00  0.00    +0.252 C 
ENDBRANCH  10  12
BRANCH   8  14
ATOM     14  O   UNL     1      34.879 -22.909 -17.375  0.00  0.00    -0.505 OA
ATOM     15  H   UNL     1      35.667 -22.403 -17.339  0.00  0.00    +0.292 HD
ENDBRANCH   8  14
BRANCH   3  16
ATOM     16  C   UNL     1      28.649 -23.325 -15.590  0.00  0.00    +0.156 C 
ATOM     17  C   UNL     1      28.163 -22.031 -14.948  0.00  0.00    +0.020 C 
BRANCH  16  19
ATOM     18  O   UNL     1      27.822 -24.520 -17.542  0.00  0.00    -0.250 OA
ATOM     19  C   UNL     1      28.119 -23.461 -17.005  0.00  0.00    +0.321 C 
BRANCH  19  20
ATOM     20  O   UNL     1      28.035 -22.264 -17.642  0.00  0.00    -0.480 OA
ATOM     21  H   UNL     1      27.635 -22.211 -18.489  0.00  0.00    +0.295 HD
ENDBRANCH  19  20
ENDBRANCH  16  19
ENDBRANCH   3  16
TORSDOF 5
ENDMDL
