MODEL 1
REMARK VINA RESULT:     -10.2      0.000      0.000
REMARK  Name = 25113123
REMARK  4 active torsions:
REMARK  status: ('A' for Active; 'I' for Inactive)
REMARK    1  A    between atoms: C_13  and  C_18
REMARK    2  A    between atoms: C_15  and  C_28
REMARK    3  A    between atoms: C_21  and  S_26
REMARK    4  A    between atoms: C_28  and  N_29
REMARK                            x       y       z     vdW  Elec       q    Type
REMARK                         _______ _______ _______ _____ _____    ______ ____
ROOT
ATOM      1  O   UNL     1      37.127 -19.380 -21.603  0.00  0.00    -0.475 OA
ATOM      2  O   UNL     1      33.210 -15.007 -25.508  0.00  0.00    -0.269 OA
ATOM      3  N   UNL     1      34.500 -15.641 -23.662  0.00  0.00    -0.276 N 
ATOM      4  C   UNL     1      35.229 -17.889 -21.963  0.00  0.00    +0.065 C 
ATOM      5  C   UNL     1      34.736 -18.082 -23.416  0.00  0.00    +0.029 C 
ATOM      6  C   UNL     1      34.705 -16.559 -21.394  0.00  0.00    +0.029 C 
ATOM      7  C   UNL     1      36.771 -17.999 -21.854  0.00  0.00    +0.209 C 
ATOM      8  C   UNL     1      34.885 -19.086 -21.134  0.00  0.00    +0.014 C 
ATOM      9  C   UNL     1      35.005 -16.859 -24.295  0.00  0.00    +0.094 C 
ATOM     10  C   UNL     1      35.026 -15.385 -22.316  0.00  0.00    +0.094 C 
ATOM     11  C   UNL     1      36.008 -19.893 -20.997  0.00  0.00    +0.135 C 
ATOM     12  C   UNL     1      33.675 -19.475 -20.584  0.00  0.00    -0.008 C 
ATOM     13  C   UNL     1      33.621 -14.812 -24.364  0.00  0.00    +0.255 C 
ATOM     14  C   UNL     1      35.970 -21.102 -20.330  0.00  0.00    +0.036 C 
ATOM     15  C   UNL     1      33.615 -20.688 -19.892  0.00  0.00    -0.044 C 
ATOM     16  C   UNL     1      34.756 -21.497 -19.767  0.00  0.00    -0.003 C 
ENDROOT
BRANCH  13  18
ATOM     17  S   UNL     1      31.972 -13.798 -22.425  0.00  0.00    -0.076 S 
ATOM     18  C   UNL     1      33.123 -13.606 -23.693  0.00  0.00    +0.083 A 
ATOM     19  C   UNL     1      33.416 -12.280 -23.897  0.00  0.00    +0.011 A 
ATOM     20  C   UNL     1      32.693 -11.412 -23.007  0.00  0.00    +0.012 A 
ATOM     21  C   UNL     1      31.870 -12.102 -22.152  0.00  0.00    +0.055 A 
ATOM     22  C   UNL     1      34.319 -11.843 -24.866  0.00  0.00    +0.001 C 
ATOM     23  C   UNL     1      32.803 -10.021 -22.999  0.00  0.00    +0.001 C 
ATOM     24  C   UNL     1      34.436 -10.436 -24.865  0.00  0.00    +0.000 C 
ATOM     25  C   UNL     1      33.715  -9.570 -23.978  0.00  0.00    +0.000 C 
BRANCH  21  26
ATOM     26  S   UNL     1      30.802 -11.482 -20.896  0.00  0.00    -0.106 S 
ATOM     27  C   UNL     1      31.978 -10.960 -19.609  0.00  0.00    +0.075 C 
ENDBRANCH  21  26
ENDBRANCH  13  18
BRANCH  15  28
ATOM     28  C   UNL     1      32.326 -21.132 -19.287  0.00  0.00    -0.059 C 
BRANCH  28  29
ATOM     29  N   UNL     1      32.495 -22.284 -18.399  0.00  0.00    +0.383 N 
ATOM     30  H   UNL     1      31.833 -23.015 -18.661  0.00  0.00    -0.089 HD
ATOM     31  H   UNL     1      32.321 -21.998 -17.436  0.00  0.00    -0.089 HD
ATOM     32  H   UNL     1      33.447 -22.641 -18.483  0.00  0.00    -0.089 HD
ENDBRANCH  28  29
ENDBRANCH  15  28
TORSDOF 4
ENDMDL
MODEL 2
REMARK VINA RESULT:      -9.5      1.498      2.583
REMARK  Name = 25113123
REMARK  4 active torsions:
REMARK  status: ('A' for Active; 'I' for Inactive)
REMARK    1  A    between atoms: C_13  and  C_18
REMARK    2  A    between atoms: C_15  and  C_28
REMARK    3  A    between atoms: C_21  and  S_26
REMARK    4  A    between atoms: C_28  and  N_29
REMARK                            x       y       z     vdW  Elec       q    Type
REMARK                         _______ _______ _______ _____ _____    ______ ____
ROOT
ATOM      1  O   UNL     1      37.165 -20.386 -21.002  0.00  0.00    -0.475 OA
ATOM      2  O   UNL     1      33.662 -16.175 -25.441  0.00  0.00    -0.269 OA
ATOM      3  N   UNL     1      34.849 -16.708 -23.497  0.00  0.00    -0.276 N 
ATOM      4  C   UNL     1      35.378 -18.825 -21.571  0.00  0.00    +0.065 C 
ATOM      5  C   UNL     1      34.922 -19.124 -23.017  0.00  0.00    +0.029 C 
ATOM      6  C   UNL     1      34.921 -17.417 -21.147  0.00  0.00    +0.029 C 
ATOM      7  C   UNL     1      36.906 -19.016 -21.393  0.00  0.00    +0.209 C 
ATOM      8  C   UNL     1      34.933 -19.915 -20.649  0.00  0.00    +0.014 C 
ATOM      9  C   UNL     1      35.296 -18.008 -23.994  0.00  0.00    +0.094 C 
ATOM     10  C   UNL     1      35.346 -16.358 -22.161  0.00  0.00    +0.094 C 
ATOM     11  C   UNL     1      35.997 -20.771 -20.394  0.00  0.00    +0.135 C 
ATOM     12  C   UNL     1      33.682 -20.177 -20.112  0.00  0.00    -0.008 C 
ATOM     13  C   UNL     1      34.048 -15.898 -24.306  0.00  0.00    +0.255 C 
ATOM     14  C   UNL     1      35.861 -21.907 -19.621  0.00  0.00    +0.036 C 
ATOM     15  C   UNL     1      33.524 -21.313 -19.314  0.00  0.00    -0.044 C 
ATOM     16  C   UNL     1      34.607 -22.174 -19.071  0.00  0.00    -0.003 C 
ENDROOT
BRANCH  13  18
ATOM     17  S   UNL     1      33.840 -13.201 -24.738  0.00  0.00    -0.076 S 
ATOM     18  C   UNL     1      33.605 -14.606 -23.769  0.00  0.00    +0.083 A 
ATOM     19  C   UNL     1      33.006 -14.288 -22.575  0.00  0.00    +0.011 A 
ATOM     20  C   UNL     1      32.735 -12.881 -22.451  0.00  0.00    +0.012 A 
ATOM     21  C   UNL     1      33.137 -12.168 -23.554  0.00  0.00    +0.055 A 
ATOM     22  C   UNL     1      32.700 -15.239 -21.603  0.00  0.00    +0.001 C 
ATOM     23  C   UNL     1      32.133 -12.288 -21.341  0.00  0.00    +0.001 C 
ATOM     24  C   UNL     1      32.090 -14.648 -20.475  0.00  0.00    +0.000 C 
ATOM     25  C   UNL     1      31.821 -13.245 -20.351  0.00  0.00    +0.000 C 
BRANCH  21  26
ATOM     26  S   UNL     1      33.017 -10.438 -23.863  0.00  0.00    -0.106 S 
ATOM     27  C   UNL     1      34.717 -10.012 -24.351  0.00  0.00    +0.075 C 
ENDBRANCH  21  26
ENDBRANCH  13  18
BRANCH  15  28
ATOM     28  C   UNL     1      32.190 -21.620 -18.720  0.00  0.00    -0.059 C 
BRANCH  28  29
ATOM     29  N   UNL     1      32.246 -22.730 -17.767  0.00  0.00    +0.383 N 
ATOM     30  H   UNL     1      31.763 -23.539 -18.158  0.00  0.00    -0.089 HD
ATOM     31  H   UNL     1      31.794 -22.453 -16.897  0.00  0.00    -0.089 HD
ATOM     32  H   UNL     1      33.220 -22.971 -17.584  0.00  0.00    -0.089 HD
ENDBRANCH  28  29
ENDBRANCH  15  28
TORSDOF 4
ENDMDL
MODEL 3
REMARK VINA RESULT:      -9.1      4.315      9.932
REMARK  Name = 25113123
REMARK  4 active torsions:
REMARK  status: ('A' for Active; 'I' for Inactive)
REMARK    1  A    between atoms: C_13  and  C_18
REMARK    2  A    between atoms: C_15  and  C_28
REMARK    3  A    between atoms: C_21  and  S_26
REMARK    4  A    between atoms: C_28  and  N_29
REMARK                            x       y       z     vdW  Elec       q    Type
REMARK                         _______ _______ _______ _____ _____    ______ ____
ROOT
ATOM      1  O   UNL     1      35.227 -19.025 -23.636  0.00  0.00    -0.475 OA
ATOM      2  O   UNL     1      37.053 -22.040 -17.529  0.00  0.00    -0.269 OA
ATOM      3  N   UNL     1      35.626 -21.525 -19.310  0.00  0.00    -0.276 N 
ATOM      4  C   UNL     1      34.938 -19.471 -21.254  0.00  0.00    +0.065 C 
ATOM      5  C   UNL     1      36.340 -19.555 -20.608  0.00  0.00    +0.029 C 
ATOM      6  C   UNL     1      33.888 -20.128 -20.339  0.00  0.00    +0.029 C 
ATOM      7  C   UNL     1      34.919 -20.071 -22.682  0.00  0.00    +0.209 C 
ATOM      8  C   UNL     1      34.622 -18.058 -21.629  0.00  0.00    +0.014 C 
ATOM      9  C   UNL     1      36.690 -20.971 -20.146  0.00  0.00    +0.094 C 
ATOM     10  C   UNL     1      34.298 -21.542 -19.936  0.00  0.00    +0.094 C 
ATOM     11  C   UNL     1      34.833 -17.881 -22.990  0.00  0.00    +0.135 C 
ATOM     12  C   UNL     1      34.231 -16.989 -20.838  0.00  0.00    -0.008 C 
ATOM     13  C   UNL     1      35.933 -22.019 -18.040  0.00  0.00    +0.255 C 
ATOM     14  C   UNL     1      34.681 -16.654 -23.607  0.00  0.00    +0.036 C 
ATOM     15  C   UNL     1      34.056 -15.741 -21.442  0.00  0.00    -0.044 C 
ATOM     16  C   UNL     1      34.281 -15.575 -22.818  0.00  0.00    -0.003 C 
ENDROOT
BRANCH  13  18
ATOM     17  S   UNL     1      33.276 -22.676 -17.935  0.00  0.00    -0.076 S 
ATOM     18  C   UNL     1      34.839 -22.554 -17.221  0.00  0.00    +0.083 A 
ATOM     19  C   UNL     1      34.825 -23.000 -15.922  0.00  0.00    +0.011 A 
ATOM     20  C   UNL     1      33.522 -23.447 -15.507  0.00  0.00    +0.012 A 
ATOM     21  C   UNL     1      32.583 -23.327 -16.501  0.00  0.00    +0.055 A 
ATOM     22  C   UNL     1      35.959 -23.011 -15.112  0.00  0.00    +0.001 C 
ATOM     23  C   UNL     1      33.228 -23.948 -14.238  0.00  0.00    +0.001 C 
ATOM     24  C   UNL     1      35.670 -23.517 -13.826  0.00  0.00    +0.000 C 
ATOM     25  C   UNL     1      34.371 -23.962 -13.411  0.00  0.00    +0.000 C 
BRANCH  21  26
ATOM     26  S   UNL     1      30.871 -23.741 -16.467  0.00  0.00    -0.106 S 
ATOM     27  C   UNL     1      30.243 -22.686 -15.123  0.00  0.00    +0.075 C 
ENDBRANCH  21  26
ENDBRANCH  13  18
BRANCH  15  28
ATOM     28  C   UNL     1      33.634 -14.572 -20.617  0.00  0.00    -0.059 C 
BRANCH  28  29
ATOM     29  N   UNL     1      32.637 -13.742 -21.295  0.00  0.00    +0.383 N 
ATOM     30  H   UNL     1      33.062 -12.855 -21.568  0.00  0.00    -0.089 HD
ATOM     31  H   UNL     1      31.857 -13.564 -20.664  0.00  0.00    -0.089 HD
ATOM     32  H   UNL     1      32.300 -14.227 -22.126  0.00  0.00    -0.089 HD
ENDBRANCH  28  29
ENDBRANCH  15  28
TORSDOF 4
ENDMDL
MODEL 4
REMARK VINA RESULT:      -8.9      1.123      1.330
REMARK  Name = 25113123
REMARK  4 active torsions:
REMARK  status: ('A' for Active; 'I' for Inactive)
REMARK    1  A    between atoms: C_13  and  C_18
REMARK    2  A    between atoms: C_15  and  C_28
REMARK    3  A    between atoms: C_21  and  S_26
REMARK    4  A    between atoms: C_28  and  N_29
REMARK                            x       y       z     vdW  Elec       q    Type
REMARK                         _______ _______ _______ _____ _____    ______ ____
ROOT
ATOM      1  O   UNL     1      36.835 -20.643 -20.795  0.00  0.00    -0.475 OA
ATOM      2  O   UNL     1      33.491 -16.166 -25.094  0.00  0.00    -0.269 OA
ATOM      3  N   UNL     1      34.647 -16.806 -23.164  0.00  0.00    -0.276 N 
ATOM      4  C   UNL     1      35.099 -19.009 -21.315  0.00  0.00    +0.065 C 
ATOM      5  C   UNL     1      34.644 -19.240 -22.775  0.00  0.00    +0.029 C 
ATOM      6  C   UNL     1      34.681 -17.605 -20.842  0.00  0.00    +0.029 C 
ATOM      7  C   UNL     1      36.619 -19.252 -21.135  0.00  0.00    +0.209 C 
ATOM      8  C   UNL     1      34.615 -20.119 -20.438  0.00  0.00    +0.014 C 
ATOM      9  C   UNL     1      35.059 -18.100 -23.707  0.00  0.00    +0.094 C 
ATOM     10  C   UNL     1      35.144 -16.522 -21.812  0.00  0.00    +0.094 C 
ATOM     11  C   UNL     1      35.651 -21.015 -20.209  0.00  0.00    +0.135 C 
ATOM     12  C   UNL     1      33.353 -20.364 -19.919  0.00  0.00    -0.008 C 
ATOM     13  C   UNL     1      33.876 -15.943 -23.946  0.00  0.00    +0.255 C 
ATOM     14  C   UNL     1      35.476 -22.176 -19.480  0.00  0.00    +0.036 C 
ATOM     15  C   UNL     1      33.155 -21.524 -19.165  0.00  0.00    -0.044 C 
ATOM     16  C   UNL     1      34.210 -22.425 -18.948  0.00  0.00    -0.003 C 
ENDROOT
BRANCH  13  18
ATOM     17  S   UNL     1      32.860 -14.655 -21.752  0.00  0.00    -0.076 S 
ATOM     18  C   UNL     1      33.468 -14.659 -23.364  0.00  0.00    +0.083 A 
ATOM     19  C   UNL     1      33.479 -13.391 -23.891  0.00  0.00    +0.011 A 
ATOM     20  C   UNL     1      32.987 -12.405 -22.966  0.00  0.00    +0.012 A 
ATOM     21  C   UNL     1      32.614 -12.952 -21.763  0.00  0.00    +0.055 A 
ATOM     22  C   UNL     1      33.925 -13.110 -25.181  0.00  0.00    +0.001 C 
ATOM     23  C   UNL     1      32.891 -11.042 -23.244  0.00  0.00    +0.001 C 
ATOM     24  C   UNL     1      33.832 -11.731 -25.471  0.00  0.00    +0.000 C 
ATOM     25  C   UNL     1      33.340 -10.748 -24.550  0.00  0.00    +0.000 C 
BRANCH  21  26
ATOM     26  S   UNL     1      31.960 -12.154 -20.335  0.00  0.00    -0.106 S 
ATOM     27  C   UNL     1      30.456 -11.364 -20.987  0.00  0.00    +0.075 C 
ENDBRANCH  21  26
ENDBRANCH  13  18
BRANCH  15  28
ATOM     28  C   UNL     1      31.809 -21.813 -18.592  0.00  0.00    -0.059 C 
BRANCH  28  29
ATOM     29  N   UNL     1      31.854 -22.849 -17.559  0.00  0.00    +0.383 N 
ATOM     30  H   UNL     1      30.962 -23.344 -17.535  0.00  0.00    -0.089 HD
ATOM     31  H   UNL     1      32.027 -22.416 -16.652  0.00  0.00    -0.089 HD
ATOM     32  H   UNL     1      32.603 -23.508 -17.771  0.00  0.00    -0.089 HD
ENDBRANCH  28  29
ENDBRANCH  15  28
TORSDOF 4
ENDMDL
MODEL 5
REMARK VINA RESULT:      -8.4      1.308      2.234
REMARK  Name = 25113123
REMARK  4 active torsions:
REMARK  status: ('A' for Active; 'I' for Inactive)
REMARK    1  A    between atoms: C_13  and  C_18
REMARK    2  A    between atoms: C_15  and  C_28
REMARK    3  A    between atoms: C_21  and  S_26
REMARK    4  A    between atoms: C_28  and  N_29
REMARK                            x       y       z     vdW  Elec       q    Type
REMARK                         _______ _______ _______ _____ _____    ______ ____
ROOT
ATOM      1  O   UNL     1      37.023 -19.580 -22.101  0.00  0.00    -0.475 OA
ATOM      2  O   UNL     1      33.031 -14.974 -25.645  0.00  0.00    -0.269 OA
ATOM      3  N   UNL     1      34.476 -15.677 -23.946  0.00  0.00    -0.276 N 
ATOM      4  C   UNL     1      35.220 -17.945 -22.279  0.00  0.00    +0.065 C 
ATOM      5  C   UNL     1      34.545 -18.124 -23.659  0.00  0.00    +0.029 C 
ATOM      6  C   UNL     1      34.874 -16.565 -21.691  0.00  0.00    +0.029 C 
ATOM      7  C   UNL     1      36.750 -18.179 -22.348  0.00  0.00    +0.209 C 
ATOM      8  C   UNL     1      34.883 -19.093 -21.382  0.00  0.00    +0.014 C 
ATOM      9  C   UNL     1      34.804 -16.944 -24.597  0.00  0.00    +0.094 C 
ATOM     10  C   UNL     1      35.176 -15.439 -22.677  0.00  0.00    +0.094 C 
ATOM     11  C   UNL     1      35.947 -19.987 -21.354  0.00  0.00    +0.135 C 
ATOM     12  C   UNL     1      33.719 -19.371 -20.684  0.00  0.00    -0.008 C 
ATOM     13  C   UNL     1      33.589 -14.792 -24.563  0.00  0.00    +0.255 C 
ATOM     14  C   UNL     1      35.892 -21.176 -20.653  0.00  0.00    +0.036 C 
ATOM     15  C   UNL     1      33.646 -20.562 -19.956  0.00  0.00    -0.044 C 
ATOM     16  C   UNL     1      34.726 -21.459 -19.942  0.00  0.00    -0.003 C 
ENDROOT
BRANCH  13  18
ATOM     17  S   UNL     1      33.602 -12.056 -24.690  0.00  0.00    -0.076 S 
ATOM     18  C   UNL     1      33.271 -13.536 -23.874  0.00  0.00    +0.083 A 
ATOM     19  C   UNL     1      32.729 -13.306 -22.633  0.00  0.00    +0.011 A 
ATOM     20  C   UNL     1      32.583 -11.904 -22.346  0.00  0.00    +0.012 A 
ATOM     21  C   UNL     1      33.018 -11.108 -23.377  0.00  0.00    +0.055 A 
ATOM     22  C   UNL     1      32.366 -14.332 -21.762  0.00  0.00    +0.001 C 
ATOM     23  C   UNL     1      32.059 -11.392 -21.159  0.00  0.00    +0.001 C 
ATOM     24  C   UNL     1      31.835 -13.823 -20.556  0.00  0.00    +0.000 C 
ATOM     25  C   UNL     1      31.690 -12.425 -20.270  0.00  0.00    +0.000 C 
BRANCH  21  26
ATOM     26  S   UNL     1      33.038  -9.350 -23.490  0.00  0.00    -0.106 S 
ATOM     27  C   UNL     1      31.265  -8.943 -23.520  0.00  0.00    +0.075 C 
ENDBRANCH  21  26
ENDBRANCH  13  18
BRANCH  15  28
ATOM     28  C   UNL     1      32.406 -20.887 -19.192  0.00  0.00    -0.059 C 
BRANCH  28  29
ATOM     29  N   UNL     1      32.496 -22.178 -18.508  0.00  0.00    +0.383 N 
ATOM     30  H   UNL     1      33.046 -22.073 -17.655  0.00  0.00    -0.089 HD
ATOM     31  H   UNL     1      32.946 -22.856 -19.121  0.00  0.00    -0.089 HD
ATOM     32  H   UNL     1      31.559 -22.502 -18.270  0.00  0.00    -0.089 HD
ENDBRANCH  28  29
ENDBRANCH  15  28
TORSDOF 4
ENDMDL
