MODEL 1
REMARK VINA RESULT:      -8.7      0.000      0.000
REMARK  Name = 14190
REMARK  11 active torsions:
REMARK  status: ('A' for Active; 'I' for Inactive)
REMARK    1  A    between atoms: S_1  and  S_2
REMARK    2  A    between atoms: S_1  and  C_16
REMARK    3  A    between atoms: S_2  and  C_3
REMARK    4  A    between atoms: C_3  and  C_5
REMARK    5  A    between atoms: C_6  and  C_13
REMARK    6  A    between atoms: C_7  and  O_11
REMARK    7  A    between atoms: C_13  and  O_14
REMARK    8  A    between atoms: C_16  and  C_18
REMARK    9  A    between atoms: C_19  and  C_26
REMARK   10  A    between atoms: C_20  and  O_24
REMARK   11  A    between atoms: C_26  and  O_27
REMARK                            x       y       z     vdW  Elec       q    Type
REMARK                         _______ _______ _______ _____ _____    ______ ____
ROOT
ATOM      1  S   UNL     1      34.092 -19.391 -21.325  0.00  0.00    -0.077 S 
ENDROOT
BRANCH   1   2
ATOM      2  S   UNL     1      35.081 -18.928 -23.065  0.00  0.00    -0.077 S 
BRANCH   2   3
ATOM      3  C   UNL     1      35.444 -17.171 -22.827  0.00  0.00    +0.096 C 
BRANCH   3   5
ATOM      4  N   UNL     1      33.904 -16.003 -26.054  0.00  0.00    -0.245 NA
ATOM      5  C   UNL     1      34.704 -16.301 -23.804  0.00  0.00    +0.010 C 
ATOM      6  C   UNL     1      34.168 -15.083 -23.427  0.00  0.00    +0.040 C 
ATOM      7  C   UNL     1      33.494 -14.317 -24.372  0.00  0.00    +0.145 C 
ATOM      8  C   UNL     1      33.390 -14.817 -25.659  0.00  0.00    +0.093 C 
ATOM      9  C   UNL     1      34.553 -16.720 -25.109  0.00  0.00    +0.095 C 
ATOM     10  C   UNL     1      32.674 -14.034 -26.711  0.00  0.00    +0.055 C 
BRANCH   7  11
ATOM     11  O   UNL     1      32.952 -13.116 -24.039  0.00  0.00    -0.505 OA
ATOM     12  H   UNL     1      33.497 -12.357 -23.973  0.00  0.00    +0.292 HD
ENDBRANCH   7  11
BRANCH   6  13
ATOM     13  C   UNL     1      34.307 -14.588 -22.023  0.00  0.00    +0.166 C 
BRANCH  13  14
ATOM     14  O   UNL     1      33.020 -14.498 -21.428  0.00  0.00    -0.377 OA
ATOM     15  H   UNL     1      32.535 -15.325 -21.581  0.00  0.00    +0.211 HD
ENDBRANCH  13  14
ENDBRANCH   6  13
ENDBRANCH   3   5
ENDBRANCH   2   3
ENDBRANCH   1   2
BRANCH   1  16
ATOM     16  C   UNL     1      35.270 -20.527 -20.532  0.00  0.00    +0.096 C 
BRANCH  16  18
ATOM     17  N   UNL     1      32.621 -22.340 -18.571  0.00  0.00    -0.245 NA
ATOM     18  C   UNL     1      34.639 -21.353 -19.464  0.00  0.00    +0.010 C 
ATOM     19  C   UNL     1      35.376 -21.893 -18.417  0.00  0.00    +0.040 C 
ATOM     20  C   UNL     1      34.737 -22.656 -17.445  0.00  0.00    +0.145 C 
ATOM     21  C   UNL     1      33.371 -22.849 -17.567  0.00  0.00    +0.093 C 
ATOM     22  C   UNL     1      33.277 -21.603 -19.496  0.00  0.00    +0.095 C 
ATOM     23  C   UNL     1      32.636 -23.661 -16.552  0.00  0.00    +0.055 C 
BRANCH  20  24
ATOM     24  O   UNL     1      35.434 -23.197 -16.411  0.00  0.00    -0.505 OA
ATOM     25  H   UNL     1      35.270 -22.909 -15.535  0.00  0.00    +0.292 HD
ENDBRANCH  20  24
BRANCH  19  26
ATOM     26  C   UNL     1      36.850 -21.655 -18.330  0.00  0.00    +0.166 C 
BRANCH  26  27
ATOM     27  O   UNL     1      37.127 -20.834 -17.203  0.00  0.00    -0.377 OA
ATOM     28  H   UNL     1      38.040 -20.511 -17.256  0.00  0.00    +0.211 HD
ENDBRANCH  26  27
ENDBRANCH  19  26
ENDBRANCH  16  18
ENDBRANCH   1  16
TORSDOF 11
ENDMDL
MODEL 2
REMARK VINA RESULT:      -8.7      0.075      9.335
REMARK  Name = 14190
REMARK  11 active torsions:
REMARK  status: ('A' for Active; 'I' for Inactive)
REMARK    1  A    between atoms: S_1  and  S_2
REMARK    2  A    between atoms: S_1  and  C_16
REMARK    3  A    between atoms: S_2  and  C_3
REMARK    4  A    between atoms: C_3  and  C_5
REMARK    5  A    between atoms: C_6  and  C_13
REMARK    6  A    between atoms: C_7  and  O_11
REMARK    7  A    between atoms: C_13  and  O_14
REMARK    8  A    between atoms: C_16  and  C_18
REMARK    9  A    between atoms: C_19  and  C_26
REMARK   10  A    between atoms: C_20  and  O_24
REMARK   11  A    between atoms: C_26  and  O_27
REMARK                            x       y       z     vdW  Elec       q    Type
REMARK                         _______ _______ _______ _____ _____    ______ ____
ROOT
ATOM      1  S   UNL     1      34.972 -19.030 -23.126  0.00  0.00    -0.077 S 
ENDROOT
BRANCH   1   2
ATOM      2  S   UNL     1      34.039 -19.432 -21.340  0.00  0.00    -0.077 S 
BRANCH   2   3
ATOM      3  C   UNL     1      35.241 -20.516 -20.532  0.00  0.00    +0.096 C 
BRANCH   3   5
ATOM      4  N   UNL     1      32.612 -22.343 -18.559  0.00  0.00    -0.245 NA
ATOM      5  C   UNL     1      34.615 -21.354 -19.453  0.00  0.00    +0.010 C 
ATOM      6  C   UNL     1      35.366 -21.886 -18.421  0.00  0.00    +0.040 C 
ATOM      7  C   UNL     1      34.736 -22.653 -17.448  0.00  0.00    +0.145 C 
ATOM      8  C   UNL     1      33.370 -22.851 -17.561  0.00  0.00    +0.093 C 
ATOM      9  C   UNL     1      33.259 -21.602 -19.486  0.00  0.00    +0.095 C 
ATOM     10  C   UNL     1      32.645 -23.669 -16.544  0.00  0.00    +0.055 C 
BRANCH   7  11
ATOM     11  O   UNL     1      35.441 -23.194 -16.419  0.00  0.00    -0.505 OA
ATOM     12  H   UNL     1      35.014 -23.752 -15.800  0.00  0.00    +0.292 HD
ENDBRANCH   7  11
BRANCH   6  13
ATOM     13  C   UNL     1      36.839 -21.642 -18.344  0.00  0.00    +0.166 C 
BRANCH  13  14
ATOM     14  O   UNL     1      37.127 -20.876 -17.182  0.00  0.00    -0.377 OA
ATOM     15  H   UNL     1      37.502 -21.454 -16.499  0.00  0.00    +0.211 HD
ENDBRANCH  13  14
ENDBRANCH   6  13
ENDBRANCH   3   5
ENDBRANCH   2   3
ENDBRANCH   1   2
BRANCH   1  16
ATOM     16  C   UNL     1      35.420 -17.280 -22.914  0.00  0.00    +0.096 C 
BRANCH  16  18
ATOM     17  N   UNL     1      33.859 -16.021 -26.096  0.00  0.00    -0.245 NA
ATOM     18  C   UNL     1      34.692 -16.385 -23.856  0.00  0.00    +0.010 C 
ATOM     19  C   UNL     1      34.182 -15.154 -23.458  0.00  0.00    +0.040 C 
ATOM     20  C   UNL     1      33.511 -14.356 -24.378  0.00  0.00    +0.145 C 
ATOM     21  C   UNL     1      33.377 -14.830 -25.673  0.00  0.00    +0.093 C 
ATOM     22  C   UNL     1      34.506 -16.769 -25.174  0.00  0.00    +0.095 C 
ATOM     23  C   UNL     1      32.664 -14.014 -26.700  0.00  0.00    +0.055 C 
BRANCH  20  24
ATOM     24  O   UNL     1      33.001 -13.149 -24.017  0.00  0.00    -0.505 OA
ATOM     25  H   UNL     1      32.152 -12.891 -24.315  0.00  0.00    +0.292 HD
ENDBRANCH  20  24
BRANCH  19  26
ATOM     26  C   UNL     1      34.353 -14.687 -22.049  0.00  0.00    +0.166 C 
BRANCH  26  27
ATOM     27  O   UNL     1      33.084 -14.656 -21.408  0.00  0.00    -0.377 OA
ATOM     28  H   UNL     1      32.539 -15.389 -21.736  0.00  0.00    +0.211 HD
ENDBRANCH  26  27
ENDBRANCH  19  26
ENDBRANCH  16  18
ENDBRANCH   1  16
TORSDOF 11
ENDMDL
MODEL 3
REMARK VINA RESULT:      -8.5      5.774      8.680
REMARK  Name = 14190
REMARK  11 active torsions:
REMARK  status: ('A' for Active; 'I' for Inactive)
REMARK    1  A    between atoms: S_1  and  S_2
REMARK    2  A    between atoms: S_1  and  C_16
REMARK    3  A    between atoms: S_2  and  C_3
REMARK    4  A    between atoms: C_3  and  C_5
REMARK    5  A    between atoms: C_6  and  C_13
REMARK    6  A    between atoms: C_7  and  O_11
REMARK    7  A    between atoms: C_13  and  O_14
REMARK    8  A    between atoms: C_16  and  C_18
REMARK    9  A    between atoms: C_19  and  C_26
REMARK   10  A    between atoms: C_20  and  O_24
REMARK   11  A    between atoms: C_26  and  O_27
REMARK                            x       y       z     vdW  Elec       q    Type
REMARK                         _______ _______ _______ _____ _____    ______ ____
ROOT
ATOM      1  S   UNL     1      32.251 -13.086 -21.642  0.00  0.00    -0.077 S 
ENDROOT
BRANCH   1   2
ATOM      2  S   UNL     1      30.976 -11.499 -21.913  0.00  0.00    -0.077 S 
BRANCH   2   3
ATOM      3  C   UNL     1      31.894 -10.151 -21.129  0.00  0.00    +0.096 C 
BRANCH   3   5
ATOM      4  N   UNL     1      31.586  -7.853 -24.091  0.00  0.00    -0.245 NA
ATOM      5  C   UNL     1      31.827  -8.879 -21.928  0.00  0.00    +0.010 C 
ATOM      6  C   UNL     1      31.934  -7.639 -21.325  0.00  0.00    +0.040 C 
ATOM      7  C   UNL     1      31.866  -6.494 -22.111  0.00  0.00    +0.145 C 
ATOM      8  C   UNL     1      31.693  -6.653 -23.476  0.00  0.00    +0.093 C 
ATOM      9  C   UNL     1      31.657  -8.943 -23.294  0.00  0.00    +0.095 C 
ATOM     10  C   UNL     1      31.613  -5.456 -24.365  0.00  0.00    +0.055 C 
BRANCH   7  11
ATOM     11  O   UNL     1      31.965  -5.258 -21.555  0.00  0.00    -0.505 OA
ATOM     12  H   UNL     1      32.357  -5.154 -20.711  0.00  0.00    +0.292 HD
ENDBRANCH   7  11
BRANCH   6  13
ATOM     13  C   UNL     1      32.120  -7.522 -19.846  0.00  0.00    +0.166 C 
BRANCH  13  14
ATOM     14  O   UNL     1      33.453  -7.109 -19.574  0.00  0.00    -0.377 OA
ATOM     15  H   UNL     1      33.460  -6.163 -19.361  0.00  0.00    +0.211 HD
ENDBRANCH  13  14
ENDBRANCH   6  13
ENDBRANCH   3   5
ENDBRANCH   2   3
ENDBRANCH   1   2
BRANCH   1  16
ATOM     16  C   UNL     1      32.683 -13.500 -23.360  0.00  0.00    +0.096 C 
BRANCH  16  18
ATOM     17  N   UNL     1      34.556 -16.596 -22.333  0.00  0.00    -0.245 NA
ATOM     18  C   UNL     1      33.425 -14.787 -23.470  0.00  0.00    +0.010 C 
ATOM     19  C   UNL     1      33.686 -15.385 -24.697  0.00  0.00    +0.040 C 
ATOM     20  C   UNL     1      34.383 -16.588 -24.744  0.00  0.00    +0.145 C 
ATOM     21  C   UNL     1      34.793 -17.148 -23.545  0.00  0.00    +0.093 C 
ATOM     22  C   UNL     1      33.877 -15.427 -22.327  0.00  0.00    +0.095 C 
ATOM     23  C   UNL     1      35.543 -18.438 -23.538  0.00  0.00    +0.055 C 
BRANCH  20  24
ATOM     24  O   UNL     1      34.652 -17.195 -25.930  0.00  0.00    -0.505 OA
ATOM     25  H   UNL     1      34.015 -17.185 -26.616  0.00  0.00    +0.292 HD
ENDBRANCH  20  24
BRANCH  19  26
ATOM     26  C   UNL     1      33.223 -14.741 -25.964  0.00  0.00    +0.166 C 
BRANCH  26  27
ATOM     27  O   UNL     1      32.421 -15.662 -26.692  0.00  0.00    -0.377 OA
ATOM     28  H   UNL     1      32.994 -16.304 -27.141  0.00  0.00    +0.211 HD
ENDBRANCH  26  27
ENDBRANCH  19  26
ENDBRANCH  16  18
ENDBRANCH   1  16
TORSDOF 11
ENDMDL
MODEL 4
REMARK VINA RESULT:      -8.5      5.754     11.164
REMARK  Name = 14190
REMARK  11 active torsions:
REMARK  status: ('A' for Active; 'I' for Inactive)
REMARK    1  A    between atoms: S_1  and  S_2
REMARK    2  A    between atoms: S_1  and  C_16
REMARK    3  A    between atoms: S_2  and  C_3
REMARK    4  A    between atoms: C_3  and  C_5
REMARK    5  A    between atoms: C_6  and  C_13
REMARK    6  A    between atoms: C_7  and  O_11
REMARK    7  A    between atoms: C_13  and  O_14
REMARK    8  A    between atoms: C_16  and  C_18
REMARK    9  A    between atoms: C_19  and  C_26
REMARK   10  A    between atoms: C_20  and  O_24
REMARK   11  A    between atoms: C_26  and  O_27
REMARK                            x       y       z     vdW  Elec       q    Type
REMARK                         _______ _______ _______ _____ _____    ______ ____
ROOT
ATOM      1  S   UNL     1      30.939 -11.512 -21.813  0.00  0.00    -0.077 S 
ENDROOT
BRANCH   1   2
ATOM      2  S   UNL     1      32.226 -13.097 -21.584  0.00  0.00    -0.077 S 
BRANCH   2   3
ATOM      3  C   UNL     1      32.648 -13.479 -23.301  0.00  0.00    +0.096 C 
BRANCH   3   5
ATOM      4  N   UNL     1      34.530 -16.580 -22.305  0.00  0.00    -0.245 NA
ATOM      5  C   UNL     1      33.401 -14.775 -23.426  0.00  0.00    +0.010 C 
ATOM      6  C   UNL     1      33.662 -15.345 -24.658  0.00  0.00    +0.040 C 
ATOM      7  C   UNL     1      34.363 -16.544 -24.717  0.00  0.00    +0.145 C 
ATOM      8  C   UNL     1      34.771 -17.116 -23.523  0.00  0.00    +0.093 C 
ATOM      9  C   UNL     1      33.846 -15.414 -22.288  0.00  0.00    +0.095 C 
ATOM     10  C   UNL     1      35.526 -18.405 -23.530  0.00  0.00    +0.055 C 
BRANCH   7  11
ATOM     11  O   UNL     1      34.637 -17.136 -25.909  0.00  0.00    -0.505 OA
ATOM     12  H   UNL     1      33.969 -17.615 -26.359  0.00  0.00    +0.292 HD
ENDBRANCH   7  11
BRANCH   6  13
ATOM     13  C   UNL     1      33.199 -14.687 -25.918  0.00  0.00    +0.166 C 
BRANCH  13  14
ATOM     14  O   UNL     1      32.446 -15.618 -26.684  0.00  0.00    -0.377 OA
ATOM     15  H   UNL     1      31.503 -15.515 -26.480  0.00  0.00    +0.211 HD
ENDBRANCH  13  14
ENDBRANCH   6  13
ENDBRANCH   3   5
ENDBRANCH   2   3
ENDBRANCH   1   2
BRANCH   1  16
ATOM     16  C   UNL     1      31.903 -10.155 -21.081  0.00  0.00    +0.096 C 
BRANCH  16  18
ATOM     17  N   UNL     1      31.635  -7.907 -24.085  0.00  0.00    -0.245 NA
ATOM     18  C   UNL     1      31.847  -8.908 -21.895  0.00  0.00    +0.010 C 
ATOM     19  C   UNL     1      31.941  -7.647 -21.319  0.00  0.00    +0.040 C 
ATOM     20  C   UNL     1      31.883  -6.515 -22.125  0.00  0.00    +0.145 C 
ATOM     21  C   UNL     1      31.730  -6.697 -23.490  0.00  0.00    +0.093 C 
ATOM     22  C   UNL     1      31.696  -8.984 -23.270  0.00  0.00    +0.095 C 
ATOM     23  C   UNL     1      31.661  -5.516 -24.400  0.00  0.00    +0.055 C 
BRANCH  20  24
ATOM     24  O   UNL     1      31.971  -5.269 -21.589  0.00  0.00    -0.505 OA
ATOM     25  H   UNL     1      31.527  -4.551 -21.994  0.00  0.00    +0.292 HD
ENDBRANCH  20  24
BRANCH  19  26
ATOM     26  C   UNL     1      32.105  -7.503 -19.840  0.00  0.00    +0.166 C 
BRANCH  26  27
ATOM     27  O   UNL     1      33.453  -7.158 -19.549  0.00  0.00    -0.377 OA
ATOM     28  H   UNL     1      33.563  -6.196 -19.617  0.00  0.00    +0.211 HD
ENDBRANCH  26  27
ENDBRANCH  19  26
ENDBRANCH  16  18
ENDBRANCH   1  16
TORSDOF 11
ENDMDL
MODEL 5
REMARK VINA RESULT:      -8.4      5.868      7.968
REMARK  Name = 14190
REMARK  11 active torsions:
REMARK  status: ('A' for Active; 'I' for Inactive)
REMARK    1  A    between atoms: S_1  and  S_2
REMARK    2  A    between atoms: S_1  and  C_16
REMARK    3  A    between atoms: S_2  and  C_3
REMARK    4  A    between atoms: C_3  and  C_5
REMARK    5  A    between atoms: C_6  and  C_13
REMARK    6  A    between atoms: C_7  and  O_11
REMARK    7  A    between atoms: C_13  and  O_14
REMARK    8  A    between atoms: C_16  and  C_18
REMARK    9  A    between atoms: C_19  and  C_26
REMARK   10  A    between atoms: C_20  and  O_24
REMARK   11  A    between atoms: C_26  and  O_27
REMARK                            x       y       z     vdW  Elec       q    Type
REMARK                         _______ _______ _______ _____ _____    ______ ____
ROOT
ATOM      1  S   UNL     1      32.664 -13.197 -22.560  0.00  0.00    -0.077 S 
ENDROOT
BRANCH   1   2
ATOM      2  S   UNL     1      32.878 -11.278 -23.260  0.00  0.00    -0.077 S 
BRANCH   2   3
ATOM      3  C   UNL     1      31.947 -10.331 -22.030  0.00  0.00    +0.096 C 
BRANCH   3   5
ATOM      4  N   UNL     1      31.467  -7.253 -24.138  0.00  0.00    -0.245 NA
ATOM      5  C   UNL     1      31.829  -8.879 -22.402  0.00  0.00    +0.010 C 
ATOM      6  C   UNL     1      31.958  -7.877 -21.458  0.00  0.00    +0.040 C 
ATOM      7  C   UNL     1      31.841  -6.550 -21.856  0.00  0.00    +0.145 C 
ATOM      8  C   UNL     1      31.597  -6.293 -23.195  0.00  0.00    +0.093 C 
ATOM      9  C   UNL     1      31.587  -8.531 -23.714  0.00  0.00    +0.095 C 
ATOM     10  C   UNL     1      31.461  -4.885 -23.674  0.00  0.00    +0.055 C 
BRANCH   7  11
ATOM     11  O   UNL     1      31.960  -5.538 -20.957  0.00  0.00    -0.505 OA
ATOM     12  H   UNL     1      32.272  -5.714 -20.092  0.00  0.00    +0.292 HD
ENDBRANCH   7  11
BRANCH   6  13
ATOM     13  C   UNL     1      32.221  -8.208 -20.024  0.00  0.00    +0.166 C 
BRANCH  13  14
ATOM     14  O   UNL     1      33.309  -7.423 -19.554  0.00  0.00    -0.377 OA
ATOM     15  H   UNL     1      33.083  -7.041 -18.692  0.00  0.00    +0.211 HD
ENDBRANCH  13  14
ENDBRANCH   6  13
ENDBRANCH   3   5
ENDBRANCH   2   3
ENDBRANCH   1   2
BRANCH   1  16
ATOM     16  C   UNL     1      33.843 -14.099 -23.611  0.00  0.00    +0.096 C 
BRANCH  16  18
ATOM     17  N   UNL     1      34.905 -16.510 -20.927  0.00  0.00    -0.245 NA
ATOM     18  C   UNL     1      34.343 -15.347 -22.970  0.00  0.00    +0.010 C 
ATOM     19  C   UNL     1      34.702 -16.465 -23.714  0.00  0.00    +0.040 C 
ATOM     20  C   UNL     1      35.164 -17.606 -23.066  0.00  0.00    +0.145 C 
ATOM     21  C   UNL     1      35.246 -17.578 -21.683  0.00  0.00    +0.093 C 
ATOM     22  C   UNL     1      34.462 -15.420 -21.592  0.00  0.00    +0.095 C 
ATOM     23  C   UNL     1      35.733 -18.776 -20.938  0.00  0.00    +0.055 C 
BRANCH  20  24
ATOM     24  O   UNL     1      35.521 -18.713 -23.769  0.00  0.00    -0.505 OA
ATOM     25  H   UNL     1      35.528 -18.692 -24.705  0.00  0.00    +0.292 HD
ENDBRANCH  20  24
BRANCH  19  26
ATOM     26  C   UNL     1      34.596 -16.445 -25.205  0.00  0.00    +0.166 C 
BRANCH  26  27
ATOM     27  O   UNL     1      33.836 -17.567 -25.636  0.00  0.00    -0.377 OA
ATOM     28  H   UNL     1      34.429 -18.223 -26.037  0.00  0.00    +0.211 HD
ENDBRANCH  26  27
ENDBRANCH  19  26
ENDBRANCH  16  18
ENDBRANCH   1  16
TORSDOF 11
ENDMDL
MODEL 6
REMARK VINA RESULT:      -8.3      1.519      2.140
REMARK  Name = 14190
REMARK  11 active torsions:
REMARK  status: ('A' for Active; 'I' for Inactive)
REMARK    1  A    between atoms: S_1  and  S_2
REMARK    2  A    between atoms: S_1  and  C_16
REMARK    3  A    between atoms: S_2  and  C_3
REMARK    4  A    between atoms: C_3  and  C_5
REMARK    5  A    between atoms: C_6  and  C_13
REMARK    6  A    between atoms: C_7  and  O_11
REMARK    7  A    between atoms: C_13  and  O_14
REMARK    8  A    between atoms: C_16  and  C_18
REMARK    9  A    between atoms: C_19  and  C_26
REMARK   10  A    between atoms: C_20  and  O_24
REMARK   11  A    between atoms: C_26  and  O_27
REMARK                            x       y       z     vdW  Elec       q    Type
REMARK                         _______ _______ _______ _____ _____    ______ ____
ROOT
ATOM      1  S   UNL     1      34.096 -19.405 -21.310  0.00  0.00    -0.077 S 
ENDROOT
BRANCH   1   2
ATOM      2  S   UNL     1      34.921 -19.119 -23.169  0.00  0.00    -0.077 S 
BRANCH   2   3
ATOM      3  C   UNL     1      35.814 -17.561 -22.940  0.00  0.00    +0.096 C 
BRANCH   3   5
ATOM      4  N   UNL     1      33.762 -14.772 -21.474  0.00  0.00    -0.245 NA
ATOM      5  C   UNL     1      34.886 -16.381 -22.864  0.00  0.00    +0.010 C 
ATOM      6  C   UNL     1      34.323 -15.828 -24.000  0.00  0.00    +0.040 C 
ATOM      7  C   UNL     1      33.471 -14.737 -23.873  0.00  0.00    +0.145 C 
ATOM      8  C   UNL     1      33.224 -14.250 -22.600  0.00  0.00    +0.093 C 
ATOM      9  C   UNL     1      34.584 -15.831 -21.636  0.00  0.00    +0.095 C 
ATOM     10  C   UNL     1      32.318 -13.079 -22.409  0.00  0.00    +0.055 C 
BRANCH   7  11
ATOM     11  O   UNL     1      32.900 -14.166 -24.966  0.00  0.00    -0.505 OA
ATOM     12  H   UNL     1      32.316 -13.441 -24.865  0.00  0.00    +0.292 HD
ENDBRANCH   7  11
BRANCH   6  13
ATOM     13  C   UNL     1      34.622 -16.392 -25.352  0.00  0.00    +0.166 C 
BRANCH  13  14
ATOM     14  O   UNL     1      33.449 -17.002 -25.874  0.00  0.00    -0.377 OA
ATOM     15  H   UNL     1      33.536 -17.966 -25.823  0.00  0.00    +0.211 HD
ENDBRANCH  13  14
ENDBRANCH   6  13
ENDBRANCH   3   5
ENDBRANCH   2   3
ENDBRANCH   1   2
BRANCH   1  16
ATOM     16  C   UNL     1      35.292 -20.549 -20.556  0.00  0.00    +0.096 C 
BRANCH  16  18
ATOM     17  N   UNL     1      32.694 -22.408 -18.570  0.00  0.00    -0.245 NA
ATOM     18  C   UNL     1      34.686 -21.387 -19.484  0.00  0.00    +0.010 C 
ATOM     19  C   UNL     1      35.443 -21.919 -18.447  0.00  0.00    +0.040 C 
ATOM     20  C   UNL     1      34.828 -22.695 -17.471  0.00  0.00    +0.145 C 
ATOM     21  C   UNL     1      33.462 -22.908 -17.577  0.00  0.00    +0.093 C 
ATOM     22  C   UNL     1      33.328 -21.658 -19.500  0.00  0.00    +0.095 C 
ATOM     23  C   UNL     1      32.752 -23.735 -16.556  0.00  0.00    +0.055 C 
BRANCH  20  24
ATOM     24  O   UNL     1      35.544 -23.229 -16.446  0.00  0.00    -0.505 OA
ATOM     25  H   UNL     1      35.102 -23.588 -15.703  0.00  0.00    +0.292 HD
ENDBRANCH  20  24
BRANCH  19  26
ATOM     26  C   UNL     1      36.914 -21.661 -18.377  0.00  0.00    +0.166 C 
BRANCH  26  27
ATOM     27  O   UNL     1      37.194 -20.850 -17.243  0.00  0.00    -0.377 OA
ATOM     28  H   UNL     1      36.458 -20.235 -17.096  0.00  0.00    +0.211 HD
ENDBRANCH  26  27
ENDBRANCH  19  26
ENDBRANCH  16  18
ENDBRANCH   1  16
TORSDOF 11
ENDMDL
MODEL 7
REMARK VINA RESULT:      -8.2      4.234      6.973
REMARK  Name = 14190
REMARK  11 active torsions:
REMARK  status: ('A' for Active; 'I' for Inactive)
REMARK    1  A    between atoms: S_1  and  S_2
REMARK    2  A    between atoms: S_1  and  C_16
REMARK    3  A    between atoms: S_2  and  C_3
REMARK    4  A    between atoms: C_3  and  C_5
REMARK    5  A    between atoms: C_6  and  C_13
REMARK    6  A    between atoms: C_7  and  O_11
REMARK    7  A    between atoms: C_13  and  O_14
REMARK    8  A    between atoms: C_16  and  C_18
REMARK    9  A    between atoms: C_19  and  C_26
REMARK   10  A    between atoms: C_20  and  O_24
REMARK   11  A    between atoms: C_26  and  O_27
REMARK                            x       y       z     vdW  Elec       q    Type
REMARK                         _______ _______ _______ _____ _____    ______ ____
ROOT
ATOM      1  S   UNL     1      33.638 -23.855 -15.542  0.00  0.00    -0.077 S 
ENDROOT
BRANCH   1   2
ATOM      2  S   UNL     1      32.784 -22.809 -17.089  0.00  0.00    -0.077 S 
BRANCH   2   3
ATOM      3  C   UNL     1      33.976 -23.081 -18.422  0.00  0.00    +0.096 C 
BRANCH   3   5
ATOM      4  N   UNL     1      33.134 -20.260 -20.763  0.00  0.00    -0.245 NA
ATOM      5  C   UNL     1      34.152 -21.863 -19.285  0.00  0.00    +0.010 C 
ATOM      6  C   UNL     1      35.379 -21.239 -19.416  0.00  0.00    +0.040 C 
ATOM      7  C   UNL     1      35.487 -20.115 -20.227  0.00  0.00    +0.145 C 
ATOM      8  C   UNL     1      34.345 -19.669 -20.873  0.00  0.00    +0.093 C 
ATOM      9  C   UNL     1      33.068 -21.350 -19.966  0.00  0.00    +0.095 C 
ATOM     10  C   UNL     1      34.406 -18.466 -21.755  0.00  0.00    +0.055 C 
BRANCH   7  11
ATOM     11  O   UNL     1      36.675 -19.474 -20.379  0.00  0.00    -0.505 OA
ATOM     12  H   UNL     1      37.260 -19.391 -19.653  0.00  0.00    +0.292 HD
ENDBRANCH   7  11
BRANCH   6  13
ATOM     13  C   UNL     1      36.582 -21.761 -18.697  0.00  0.00    +0.166 C 
BRANCH  13  14
ATOM     14  O   UNL     1      36.995 -20.810 -17.725  0.00  0.00    -0.377 OA
ATOM     15  H   UNL     1      36.766 -19.917 -18.028  0.00  0.00    +0.211 HD
ENDBRANCH  13  14
ENDBRANCH   6  13
ENDBRANCH   3   5
ENDBRANCH   2   3
ENDBRANCH   1   2
BRANCH   1  16
ATOM     16  C   UNL     1      34.955 -22.715 -15.018  0.00  0.00    +0.096 C 
BRANCH  16  18
ATOM     17  N   UNL     1      38.388 -24.240 -15.204  0.00  0.00    -0.245 NA
ATOM     18  C   UNL     1      36.194 -23.426 -14.597  0.00  0.00    +0.010 C 
ATOM     19  C   UNL     1      36.357 -23.924 -13.310  0.00  0.00    +0.040 C 
ATOM     20  C   UNL     1      37.534 -24.581 -12.968  0.00  0.00    +0.145 C 
ATOM     21  C   UNL     1      38.511 -24.712 -13.943  0.00  0.00    +0.093 C 
ATOM     22  C   UNL     1      37.230 -23.608 -15.499  0.00  0.00    +0.095 C 
ATOM     23  C   UNL     1      39.794 -25.407 -13.629  0.00  0.00    +0.055 C 
BRANCH  20  24
ATOM     24  O   UNL     1      37.721 -25.078 -11.717  0.00  0.00    -0.505 OA
ATOM     25  H   UNL     1      37.183 -24.781 -11.010  0.00  0.00    +0.292 HD
ENDBRANCH  20  24
BRANCH  19  26
ATOM     26  C   UNL     1      35.273 -23.758 -12.294  0.00  0.00    +0.166 C 
BRANCH  26  27
ATOM     27  O   UNL     1      34.716 -25.030 -11.990  0.00  0.00    -0.377 OA
ATOM     28  H   UNL     1      34.192 -25.342 -12.745  0.00  0.00    +0.211 HD
ENDBRANCH  26  27
ENDBRANCH  19  26
ENDBRANCH  16  18
ENDBRANCH   1  16
TORSDOF 11
ENDMDL
MODEL 8
REMARK VINA RESULT:      -8.2      1.806      2.546
REMARK  Name = 14190
REMARK  11 active torsions:
REMARK  status: ('A' for Active; 'I' for Inactive)
REMARK    1  A    between atoms: S_1  and  S_2
REMARK    2  A    between atoms: S_1  and  C_16
REMARK    3  A    between atoms: S_2  and  C_3
REMARK    4  A    between atoms: C_3  and  C_5
REMARK    5  A    between atoms: C_6  and  C_13
REMARK    6  A    between atoms: C_7  and  O_11
REMARK    7  A    between atoms: C_13  and  O_14
REMARK    8  A    between atoms: C_16  and  C_18
REMARK    9  A    between atoms: C_19  and  C_26
REMARK   10  A    between atoms: C_20  and  O_24
REMARK   11  A    between atoms: C_26  and  O_27
REMARK                            x       y       z     vdW  Elec       q    Type
REMARK                         _______ _______ _______ _____ _____    ______ ____
ROOT
ATOM      1  S   UNL     1      35.973 -20.440 -20.371  0.00  0.00    -0.077 S 
ENDROOT
BRANCH   1   2
ATOM      2  S   UNL     1      34.672 -19.428 -21.596  0.00  0.00    -0.077 S 
BRANCH   2   3
ATOM      3  C   UNL     1      35.755 -18.182 -22.336  0.00  0.00    +0.096 C 
BRANCH   3   5
ATOM      4  N   UNL     1      34.263 -17.010 -25.583  0.00  0.00    -0.245 NA
ATOM      5  C   UNL     1      35.028 -17.311 -23.322  0.00  0.00    +0.010 C 
ATOM      6  C   UNL     1      34.482 -16.096 -22.951  0.00  0.00    +0.040 C 
ATOM      7  C   UNL     1      33.820 -15.329 -23.903  0.00  0.00    +0.145 C 
ATOM      8  C   UNL     1      33.738 -15.826 -25.194  0.00  0.00    +0.093 C 
ATOM      9  C   UNL     1      34.899 -17.727 -24.630  0.00  0.00    +0.095 C 
ATOM     10  C   UNL     1      33.037 -15.043 -26.254  0.00  0.00    +0.055 C 
BRANCH   7  11
ATOM     11  O   UNL     1      33.269 -14.131 -23.576  0.00  0.00    -0.505 OA
ATOM     12  H   UNL     1      33.705 -13.336 -23.809  0.00  0.00    +0.292 HD
ENDBRANCH   7  11
BRANCH   6  13
ATOM     13  C   UNL     1      34.598 -15.605 -21.543  0.00  0.00    +0.166 C 
BRANCH  13  14
ATOM     14  O   UNL     1      33.318 -15.645 -20.926  0.00  0.00    -0.377 OA
ATOM     15  H   UNL     1      33.216 -14.877 -20.343  0.00  0.00    +0.211 HD
ENDBRANCH  13  14
ENDBRANCH   6  13
ENDBRANCH   3   5
ENDBRANCH   2   3
ENDBRANCH   1   2
BRANCH   1  16
ATOM     16  C   UNL     1      34.850 -21.594 -19.525  0.00  0.00    +0.096 C 
BRANCH  16  18
ATOM     17  N   UNL     1      37.216 -22.045 -16.635  0.00  0.00    -0.245 NA
ATOM     18  C   UNL     1      35.380 -22.046 -18.207  0.00  0.00    +0.010 C 
ATOM     19  C   UNL     1      34.629 -22.834 -17.342  0.00  0.00    +0.040 C 
ATOM     20  C   UNL     1      35.171 -23.229 -16.124  0.00  0.00    +0.145 C 
ATOM     21  C   UNL     1      36.457 -22.812 -15.820  0.00  0.00    +0.093 C 
ATOM     22  C   UNL     1      36.656 -21.681 -17.811  0.00  0.00    +0.095 C 
ATOM     23  C   UNL     1      37.086 -23.206 -14.525  0.00  0.00    +0.055 C 
BRANCH  20  24
ATOM     24  O   UNL     1      34.460 -23.999 -15.258  0.00  0.00    -0.505 OA
ATOM     25  H   UNL     1      33.524 -23.988 -15.282  0.00  0.00    +0.292 HD
ENDBRANCH  20  24
BRANCH  19  26
ATOM     26  C   UNL     1      33.246 -23.259 -17.717  0.00  0.00    +0.166 C 
BRANCH  26  27
ATOM     27  O   UNL     1      32.363 -22.983 -16.637  0.00  0.00    -0.377 OA
ATOM     28  H   UNL     1      32.791 -22.370 -16.018  0.00  0.00    +0.211 HD
ENDBRANCH  26  27
ENDBRANCH  19  26
ENDBRANCH  16  18
ENDBRANCH   1  16
TORSDOF 11
ENDMDL
MODEL 9
REMARK VINA RESULT:      -8.1      4.009      6.381
REMARK  Name = 14190
REMARK  11 active torsions:
REMARK  status: ('A' for Active; 'I' for Inactive)
REMARK    1  A    between atoms: S_1  and  S_2
REMARK    2  A    between atoms: S_1  and  C_16
REMARK    3  A    between atoms: S_2  and  C_3
REMARK    4  A    between atoms: C_3  and  C_5
REMARK    5  A    between atoms: C_6  and  C_13
REMARK    6  A    between atoms: C_7  and  O_11
REMARK    7  A    between atoms: C_13  and  O_14
REMARK    8  A    between atoms: C_16  and  C_18
REMARK    9  A    between atoms: C_19  and  C_26
REMARK   10  A    between atoms: C_20  and  O_24
REMARK   11  A    between atoms: C_26  and  O_27
REMARK                            x       y       z     vdW  Elec       q    Type
REMARK                         _______ _______ _______ _____ _____    ______ ____
ROOT
ATOM      1  S   UNL     1      32.597 -23.547 -16.036  0.00  0.00    -0.077 S 
ENDROOT
BRANCH   1   2
ATOM      2  S   UNL     1      32.265 -22.452 -17.742  0.00  0.00    -0.077 S 
BRANCH   2   3
ATOM      3  C   UNL     1      33.845 -22.627 -18.606  0.00  0.00    +0.096 C 
BRANCH   3   5
ATOM      4  N   UNL     1      33.239 -19.841 -21.058  0.00  0.00    -0.245 NA
ATOM      5  C   UNL     1      34.123 -21.468 -19.523  0.00  0.00    +0.010 C 
ATOM      6  C   UNL     1      35.401 -20.969 -19.693  0.00  0.00    +0.040 C 
ATOM      7  C   UNL     1      35.603 -19.897 -20.554  0.00  0.00    +0.145 C 
ATOM      8  C   UNL     1      34.499 -19.373 -21.207  0.00  0.00    +0.093 C 
ATOM      9  C   UNL     1      33.083 -20.884 -20.214  0.00  0.00    +0.095 C 
ATOM     10  C   UNL     1      34.660 -18.219 -22.141  0.00  0.00    +0.055 C 
BRANCH   7  11
ATOM     11  O   UNL     1      36.844 -19.378 -20.746  0.00  0.00    -0.505 OA
ATOM     12  H   UNL     1      37.360 -19.113 -20.011  0.00  0.00    +0.292 HD
ENDBRANCH   7  11
BRANCH   6  13
ATOM     13  C   UNL     1      36.560 -21.572 -18.964  0.00  0.00    +0.166 C 
BRANCH  13  14
ATOM     14  O   UNL     1      37.040 -20.644 -18.000  0.00  0.00    -0.377 OA
ATOM     15  H   UNL     1      37.926 -20.909 -17.710  0.00  0.00    +0.211 HD
ENDBRANCH  13  14
ENDBRANCH   6  13
ENDBRANCH   3   5
ENDBRANCH   2   3
ENDBRANCH   1   2
BRANCH   1  16
ATOM     16  C   UNL     1      34.415 -23.584 -15.978  0.00  0.00    +0.096 C 
BRANCH  16  18
ATOM     17  N   UNL     1      34.532 -24.264 -12.280  0.00  0.00    -0.245 NA
ATOM     18  C   UNL     1      34.941 -23.666 -14.587  0.00  0.00    +0.010 C 
ATOM     19  C   UNL     1      36.233 -23.267 -14.262  0.00  0.00    +0.040 C 
ATOM     20  C   UNL     1      36.675 -23.365 -12.947  0.00  0.00    +0.145 C 
ATOM     21  C   UNL     1      35.794 -23.866 -12.002  0.00  0.00    +0.093 C 
ATOM     22  C   UNL     1      34.138 -24.153 -13.569  0.00  0.00    +0.095 C 
ATOM     23  C   UNL     1      36.219 -23.993 -10.576  0.00  0.00    +0.055 C 
BRANCH  20  24
ATOM     24  O   UNL     1      37.933 -22.983 -12.602  0.00  0.00    -0.505 OA
ATOM     25  H   UNL     1      38.659 -23.548 -12.778  0.00  0.00    +0.292 HD
ENDBRANCH  20  24
BRANCH  19  26
ATOM     26  C   UNL     1      37.145 -22.733 -15.319  0.00  0.00    +0.166 C 
BRANCH  26  27
ATOM     27  O   UNL     1      38.208 -23.654 -15.529  0.00  0.00    -0.377 OA
ATOM     28  H   UNL     1      37.863 -24.560 -15.491  0.00  0.00    +0.211 HD
ENDBRANCH  26  27
ENDBRANCH  19  26
ENDBRANCH  16  18
ENDBRANCH   1  16
TORSDOF 11
ENDMDL
