MODEL 1
REMARK VINA RESULT:      -8.0      0.000      0.000
REMARK  Name = 72138
REMARK  1 active torsions:
REMARK  status: ('A' for Active; 'I' for Inactive)
REMARK    1  A    between atoms: N_2  and  C_10
REMARK                            x       y       z     vdW  Elec       q    Type
REMARK                         _______ _______ _______ _____ _____    ______ ____
ROOT
ATOM      1  N   UNL     1      34.637 -16.004 -22.960  0.00  0.00    -0.284 N 
ATOM      2  N   UNL     1      34.573 -18.205 -22.210  0.00  0.00    -0.285 N 
ATOM      3  N   UNL     1      34.366 -16.336 -20.731  0.00  0.00    -0.214 NA
ATOM      4  C   UNL     1      34.566 -14.653 -22.495  0.00  0.00    +0.085 C 
ATOM      5  C   UNL     1      34.378 -14.865 -20.988  0.00  0.00    +0.117 C 
ATOM      6  C   UNL     1      34.519 -16.875 -21.917  0.00  0.00    +0.190 C 
ATOM      7  H   UNL     1      34.756 -16.269 -23.901  0.00  0.00    +0.155 HD
ATOM      8  H   UNL     1      34.692 -18.441 -23.159  0.00  0.00    +0.155 HD
ENDROOT
BRANCH   2  10
ATOM      9 CL   UNL     1      37.198 -19.264 -21.090  0.00  0.00    -0.081 Cl
ATOM     10  C   UNL     1      34.478 -19.271 -21.311  0.00  0.00    +0.061 C 
ATOM     11  C   UNL     1      35.614 -19.849 -20.726  0.00  0.00    +0.071 C 
ATOM     12  C   UNL     1      33.212 -19.781 -20.984  0.00  0.00    +0.015 C 
ATOM     13  C   UNL     1      34.222 -21.411 -19.516  0.00  0.00    -0.021 C 
ATOM     14  C   UNL     1      35.487 -20.913 -19.833  0.00  0.00    +0.008 C 
ATOM     15  C   UNL     1      33.086 -20.845 -20.092  0.00  0.00    -0.003 C 
ATOM     16  C   UNL     1      34.087 -22.549 -18.562  0.00  0.00    +0.031 C 
ENDBRANCH   2  10
TORSDOF 1
ENDMDL
MODEL 2
REMARK VINA RESULT:      -8.0      1.540      2.113
REMARK  Name = 72138
REMARK  1 active torsions:
REMARK  status: ('A' for Active; 'I' for Inactive)
REMARK    1  A    between atoms: N_2  and  C_10
REMARK                            x       y       z     vdW  Elec       q    Type
REMARK                         _______ _______ _______ _____ _____    ______ ____
ROOT
ATOM      1  N   UNL     1      34.686 -16.696 -23.612  0.00  0.00    -0.284 N 
ATOM      2  N   UNL     1      34.507 -18.054 -21.732  0.00  0.00    -0.285 N 
ATOM      3  N   UNL     1      34.485 -18.930 -23.958  0.00  0.00    -0.214 NA
ATOM      4  C   UNL     1      34.716 -16.749 -25.042  0.00  0.00    +0.085 C 
ATOM      5  C   UNL     1      34.586 -18.257 -25.288  0.00  0.00    +0.117 C 
ATOM      6  C   UNL     1      34.554 -17.949 -23.090  0.00  0.00    +0.190 C 
ATOM      7  H   UNL     1      34.749 -15.871 -23.079  0.00  0.00    +0.155 HD
ATOM      8  H   UNL     1      34.572 -17.212 -21.224  0.00  0.00    +0.155 HD
ENDROOT
BRANCH   2  10
ATOM      9 CL   UNL     1      37.094 -19.404 -20.867  0.00  0.00    -0.081 Cl
ATOM     10  C   UNL     1      34.374 -19.226 -20.981  0.00  0.00    +0.061 C 
ATOM     11  C   UNL     1      35.489 -19.941 -20.523  0.00  0.00    +0.071 C 
ATOM     12  C   UNL     1      33.090 -19.701 -20.676  0.00  0.00    +0.015 C 
ATOM     13  C   UNL     1      34.041 -21.571 -19.480  0.00  0.00    -0.021 C 
ATOM     14  C   UNL     1      35.324 -21.107 -19.775  0.00  0.00    +0.008 C 
ATOM     15  C   UNL     1      32.925 -20.868 -19.930  0.00  0.00    -0.003 C 
ATOM     16  C   UNL     1      33.865 -22.818 -18.681  0.00  0.00    +0.031 C 
ENDBRANCH   2  10
TORSDOF 1
ENDMDL
MODEL 3
REMARK VINA RESULT:      -7.9      2.291      5.660
REMARK  Name = 72138
REMARK  1 active torsions:
REMARK  status: ('A' for Active; 'I' for Inactive)
REMARK    1  A    between atoms: N_2  and  C_10
REMARK                            x       y       z     vdW  Elec       q    Type
REMARK                         _______ _______ _______ _____ _____    ______ ____
ROOT
ATOM      1  N   UNL     1      35.847 -19.980 -20.427  0.00  0.00    -0.284 N 
ATOM      2  N   UNL     1      35.662 -18.275 -21.998  0.00  0.00    -0.285 N 
ATOM      3  N   UNL     1      33.773 -19.522 -21.226  0.00  0.00    -0.214 NA
ATOM      4  C   UNL     1      35.066 -20.942 -19.711  0.00  0.00    +0.085 C 
ATOM      5  C   UNL     1      33.659 -20.638 -20.240  0.00  0.00    +0.117 C 
ATOM      6  C   UNL     1      35.052 -19.235 -21.246  0.00  0.00    +0.190 C 
ATOM      7  H   UNL     1      36.822 -19.872 -20.342  0.00  0.00    +0.155 HD
ATOM      8  H   UNL     1      36.638 -18.189 -21.892  0.00  0.00    +0.155 HD
ENDROOT
BRANCH   2  10
ATOM      9 CL   UNL     1      34.661 -15.636 -20.857  0.00  0.00    -0.081 Cl
ATOM     10  C   UNL     1      35.055 -17.399 -22.903  0.00  0.00    +0.061 C 
ATOM     11  C   UNL     1      34.552 -16.153 -22.502  0.00  0.00    +0.071 C 
ATOM     12  C   UNL     1      34.944 -17.775 -24.249  0.00  0.00    +0.015 C 
ATOM     13  C   UNL     1      33.846 -15.687 -24.766  0.00  0.00    -0.021 C 
ATOM     14  C   UNL     1      33.951 -15.301 -23.429  0.00  0.00    +0.008 C 
ATOM     15  C   UNL     1      34.343 -16.924 -25.176  0.00  0.00    -0.003 C 
ATOM     16  C   UNL     1      33.203 -14.777 -25.756  0.00  0.00    +0.031 C 
ENDBRANCH   2  10
TORSDOF 1
ENDMDL
MODEL 4
REMARK VINA RESULT:      -7.7      1.748      5.508
REMARK  Name = 72138
REMARK  1 active torsions:
REMARK  status: ('A' for Active; 'I' for Inactive)
REMARK    1  A    between atoms: N_2  and  C_10
REMARK                            x       y       z     vdW  Elec       q    Type
REMARK                         _______ _______ _______ _____ _____    ______ ____
ROOT
ATOM      1  N   UNL     1      35.562 -20.541 -19.889  0.00  0.00    -0.284 N 
ATOM      2  N   UNL     1      35.645 -18.449 -20.901  0.00  0.00    -0.285 N 
ATOM      3  N   UNL     1      33.607 -19.675 -20.649  0.00  0.00    -0.214 NA
ATOM      4  C   UNL     1      34.651 -21.587 -19.535  0.00  0.00    +0.085 C 
ATOM      5  C   UNL     1      33.323 -21.010 -20.041  0.00  0.00    +0.117 C 
ATOM      6  C   UNL     1      34.901 -19.520 -20.503  0.00  0.00    +0.190 C 
ATOM      7  H   UNL     1      36.530 -20.557 -19.714  0.00  0.00    +0.155 HD
ATOM      8  H   UNL     1      36.611 -18.493 -20.714  0.00  0.00    +0.155 HD
ENDROOT
BRANCH   2  10
ATOM      9 CL   UNL     1      35.519 -18.568 -23.941  0.00  0.00    -0.081 Cl
ATOM     10  C   UNL     1      35.188 -17.297 -21.548  0.00  0.00    +0.061 C 
ATOM     11  C   UNL     1      35.085 -17.224 -22.945  0.00  0.00    +0.071 C 
ATOM     12  C   UNL     1      34.823 -16.181 -20.781  0.00  0.00    +0.015 C 
ATOM     13  C   UNL     1      34.266 -14.956 -22.787  0.00  0.00    -0.021 C 
ATOM     14  C   UNL     1      34.626 -16.061 -23.561  0.00  0.00    +0.008 C 
ATOM     15  C   UNL     1      34.365 -15.017 -21.398  0.00  0.00    -0.003 C 
ATOM     16  C   UNL     1      33.777 -13.712 -23.446  0.00  0.00    +0.031 C 
ENDBRANCH   2  10
TORSDOF 1
ENDMDL
MODEL 5
REMARK VINA RESULT:      -7.6      9.543     12.437
REMARK  Name = 72138
REMARK  1 active torsions:
REMARK  status: ('A' for Active; 'I' for Inactive)
REMARK    1  A    between atoms: N_2  and  C_10
REMARK                            x       y       z     vdW  Elec       q    Type
REMARK                         _______ _______ _______ _____ _____    ______ ____
ROOT
ATOM      1  N   UNL     1      32.373  -9.254 -19.323  0.00  0.00    -0.284 N 
ATOM      2  N   UNL     1      33.007  -7.747 -20.977  0.00  0.00    -0.285 N 
ATOM      3  N   UNL     1      31.743  -9.720 -21.454  0.00  0.00    -0.214 NA
ATOM      4  C   UNL     1      31.669 -10.485 -19.131  0.00  0.00    +0.085 C 
ATOM      5  C   UNL     1      31.233 -10.808 -20.566  0.00  0.00    +0.117 C 
ATOM      6  C   UNL     1      32.367  -8.902 -20.640  0.00  0.00    +0.190 C 
ATOM      7  H   UNL     1      32.802  -8.734 -18.606  0.00  0.00    +0.155 HD
ATOM      8  H   UNL     1      33.427  -7.247 -20.239  0.00  0.00    +0.155 HD
ENDROOT
BRANCH   2  10
ATOM      9 CL   UNL     1      30.794  -5.846 -21.848  0.00  0.00    -0.081 Cl
ATOM     10  C   UNL     1      33.133  -7.193 -22.254  0.00  0.00    +0.061 C 
ATOM     11  C   UNL     1      32.180  -6.304 -22.773  0.00  0.00    +0.071 C 
ATOM     12  C   UNL     1      34.242  -7.535 -23.042  0.00  0.00    +0.015 C 
ATOM     13  C   UNL     1      33.441  -6.117 -24.826  0.00  0.00    -0.021 C 
ATOM     14  C   UNL     1      32.333  -5.768 -24.051  0.00  0.00    +0.008 C 
ATOM     15  C   UNL     1      34.394  -7.000 -24.321  0.00  0.00    -0.003 C 
ATOM     16  C   UNL     1      33.604  -5.545 -26.193  0.00  0.00    +0.031 C 
ENDBRANCH   2  10
TORSDOF 1
ENDMDL
MODEL 6
REMARK VINA RESULT:      -7.5      1.716      2.245
REMARK  Name = 72138
REMARK  1 active torsions:
REMARK  status: ('A' for Active; 'I' for Inactive)
REMARK    1  A    between atoms: N_2  and  C_10
REMARK                            x       y       z     vdW  Elec       q    Type
REMARK                         _______ _______ _______ _____ _____    ______ ____
ROOT
ATOM      1  N   UNL     1      35.238 -17.353 -23.038  0.00  0.00    -0.284 N 
ATOM      2  N   UNL     1      35.314 -19.338 -21.828  0.00  0.00    -0.285 N 
ATOM      3  N   UNL     1      34.849 -17.226 -20.805  0.00  0.00    -0.214 NA
ATOM      4  C   UNL     1      35.019 -15.947 -22.884  0.00  0.00    +0.085 C 
ATOM      5  C   UNL     1      34.750 -15.849 -21.377  0.00  0.00    +0.117 C 
ATOM      6  C   UNL     1      35.127 -17.988 -21.837  0.00  0.00    +0.190 C 
ATOM      7  H   UNL     1      35.441 -17.799 -23.891  0.00  0.00    +0.155 HD
ATOM      8  H   UNL     1      35.517 -19.758 -22.696  0.00  0.00    +0.155 HD
ENDROOT
BRANCH   2  10
ATOM      9 CL   UNL     1      32.534 -20.216 -20.955  0.00  0.00    -0.081 Cl
ATOM     10  C   UNL     1      35.253 -20.192 -20.723  0.00  0.00    +0.061 C 
ATOM     11  C   UNL     1      34.032 -20.666 -20.222  0.00  0.00    +0.071 C 
ATOM     12  C   UNL     1      36.444 -20.584 -20.095  0.00  0.00    +0.015 C 
ATOM     13  C   UNL     1      35.195 -21.900 -18.500  0.00  0.00    -0.021 C 
ATOM     14  C   UNL     1      34.003 -21.517 -19.117  0.00  0.00    +0.008 C 
ATOM     15  C   UNL     1      36.414 -21.434 -18.989  0.00  0.00    -0.003 C 
ATOM     16  C   UNL     1      35.164 -22.808 -17.318  0.00  0.00    +0.031 C 
ENDBRANCH   2  10
TORSDOF 1
ENDMDL
MODEL 7
REMARK VINA RESULT:      -7.4      1.560      2.129
REMARK  Name = 72138
REMARK  1 active torsions:
REMARK  status: ('A' for Active; 'I' for Inactive)
REMARK    1  A    between atoms: N_2  and  C_10
REMARK                            x       y       z     vdW  Elec       q    Type
REMARK                         _______ _______ _______ _____ _____    ______ ____
ROOT
ATOM      1  N   UNL     1      34.138 -15.948 -22.985  0.00  0.00    -0.284 N 
ATOM      2  N   UNL     1      34.727 -18.050 -22.182  0.00  0.00    -0.285 N 
ATOM      3  N   UNL     1      34.829 -16.082 -20.827  0.00  0.00    -0.214 NA
ATOM      4  C   UNL     1      34.043 -14.576 -22.589  0.00  0.00    +0.085 C 
ATOM      5  C   UNL     1      34.504 -14.655 -21.128  0.00  0.00    +0.117 C 
ATOM      6  C   UNL     1      34.583 -16.715 -21.950  0.00  0.00    +0.190 C 
ATOM      7  H   UNL     1      33.915 -16.291 -23.881  0.00  0.00    +0.155 HD
ATOM      8  H   UNL     1      34.497 -18.365 -23.087  0.00  0.00    +0.155 HD
ENDROOT
BRANCH   2  10
ATOM      9 CL   UNL     1      32.587 -19.864 -21.002  0.00  0.00    -0.081 Cl
ATOM     10  C   UNL     1      35.168 -19.022 -21.279  0.00  0.00    +0.061 C 
ATOM     11  C   UNL     1      34.281 -19.918 -20.665  0.00  0.00    +0.071 C 
ATOM     12  C   UNL     1      36.535 -19.104 -20.975  0.00  0.00    +0.015 C 
ATOM     13  C   UNL     1      36.113 -20.947 -19.473  0.00  0.00    -0.021 C 
ATOM     14  C   UNL     1      34.750 -20.876 -19.768  0.00  0.00    +0.008 C 
ATOM     15  C   UNL     1      37.004 -20.062 -20.076  0.00  0.00    -0.003 C 
ATOM     16  C   UNL     1      36.615 -21.971 -18.512  0.00  0.00    +0.031 C 
ENDBRANCH   2  10
TORSDOF 1
ENDMDL
MODEL 8
REMARK VINA RESULT:      -7.3      2.406      3.556
REMARK  Name = 72138
REMARK  1 active torsions:
REMARK  status: ('A' for Active; 'I' for Inactive)
REMARK    1  A    between atoms: N_2  and  C_10
REMARK                            x       y       z     vdW  Elec       q    Type
REMARK                         _______ _______ _______ _____ _____    ______ ____
ROOT
ATOM      1  N   UNL     1      34.089 -13.049 -23.923  0.00  0.00    -0.284 N 
ATOM      2  N   UNL     1      34.822 -15.212 -23.483  0.00  0.00    -0.285 N 
ATOM      3  N   UNL     1      32.936 -14.244 -22.376  0.00  0.00    -0.214 NA
ATOM      4  C   UNL     1      33.088 -12.099 -23.543  0.00  0.00    +0.085 C 
ATOM      5  C   UNL     1      32.298 -12.899 -22.499  0.00  0.00    +0.117 C 
ATOM      6  C   UNL     1      33.933 -14.211 -23.227  0.00  0.00    +0.190 C 
ATOM      7  H   UNL     1      34.792 -12.886 -24.592  0.00  0.00    +0.155 HD
ATOM      8  H   UNL     1      35.515 -15.021 -24.158  0.00  0.00    +0.155 HD
ENDROOT
BRANCH   2  10
ATOM      9 CL   UNL     1      34.502 -17.585 -25.363  0.00  0.00    -0.081 Cl
ATOM     10  C   UNL     1      34.860 -16.479 -22.894  0.00  0.00    +0.061 C 
ATOM     11  C   UNL     1      34.723 -17.651 -23.651  0.00  0.00    +0.071 C 
ATOM     12  C   UNL     1      35.037 -16.583 -21.506  0.00  0.00    +0.015 C 
ATOM     13  C   UNL     1      34.941 -18.992 -21.652  0.00  0.00    -0.021 C 
ATOM     14  C   UNL     1      34.764 -18.901 -23.033  0.00  0.00    +0.008 C 
ATOM     15  C   UNL     1      35.078 -17.833 -20.889  0.00  0.00    -0.003 C 
ATOM     16  C   UNL     1      34.983 -20.328 -20.992  0.00  0.00    +0.031 C 
ENDBRANCH   2  10
TORSDOF 1
ENDMDL
MODEL 9
REMARK VINA RESULT:      -7.2      6.027      8.834
REMARK  Name = 72138
REMARK  1 active torsions:
REMARK  status: ('A' for Active; 'I' for Inactive)
REMARK    1  A    between atoms: N_2  and  C_10
REMARK                            x       y       z     vdW  Elec       q    Type
REMARK                         _______ _______ _______ _____ _____    ______ ____
ROOT
ATOM      1  N   UNL     1      36.534 -25.153 -13.209  0.00  0.00    -0.284 N 
ATOM      2  N   UNL     1      35.540 -23.712 -14.740  0.00  0.00    -0.285 N 
ATOM      3  N   UNL     1      36.507 -25.802 -15.384  0.00  0.00    -0.214 NA
ATOM      4  C   UNL     1      37.202 -26.416 -13.119  0.00  0.00    +0.085 C 
ATOM      5  C   UNL     1      37.185 -26.867 -14.585  0.00  0.00    +0.117 C 
ATOM      6  C   UNL     1      36.184 -24.889 -14.500  0.00  0.00    +0.190 C 
ATOM      7  H   UNL     1      36.354 -24.557 -12.446  0.00  0.00    +0.155 HD
ATOM      8  H   UNL     1      35.373 -23.135 -13.958  0.00  0.00    +0.155 HD
ENDROOT
BRANCH   2  10
ATOM      9 CL   UNL     1      37.556 -22.135 -16.388  0.00  0.00    -0.081 Cl
ATOM     10  C   UNL     1      35.092 -23.231 -15.974  0.00  0.00    +0.061 C 
ATOM     11  C   UNL     1      35.923 -22.490 -16.826  0.00  0.00    +0.071 C 
ATOM     12  C   UNL     1      33.773 -23.495 -16.373  0.00  0.00    +0.015 C 
ATOM     13  C   UNL     1      34.133 -22.293 -18.436  0.00  0.00    -0.021 C 
ATOM     14  C   UNL     1      35.447 -22.024 -18.051  0.00  0.00    +0.008 C 
ATOM     15  C   UNL     1      33.296 -23.028 -17.598  0.00  0.00    -0.003 C 
ATOM     16  C   UNL     1      33.623 -21.794 -19.745  0.00  0.00    +0.031 C 
ENDBRANCH   2  10
TORSDOF 1
ENDMDL
