MODEL 1
REMARK VINA RESULT:     -10.8      0.000      0.000
REMARK  Name = 11349170
REMARK  6 active torsions:
REMARK  status: ('A' for Active; 'I' for Inactive)
REMARK    1  A    between atoms: N_3  and  C_12
REMARK    2  A    between atoms: C_5  and  C_20
REMARK    3  A    between atoms: C_15  and  O_18
REMARK    4  A    between atoms: C_20  and  N_21
REMARK    5  A    between atoms: C_22  and  N_28
REMARK    6  A    between atoms: C_23  and  O_32
REMARK                            x       y       z     vdW  Elec       q    Type
REMARK                         _______ _______ _______ _____ _____    ______ ____
ROOT
ATOM      1  N   UNL     1      34.099 -16.259 -25.290  0.00  0.00    -0.185 N 
ATOM      2  N   UNL     1      33.579 -15.728 -26.423  0.00  0.00    -0.151 NA
ATOM      3  N   UNL     1      32.758 -13.989 -22.691  0.00  0.00    -0.297 N 
ATOM      4  N   UNL     1      32.547 -14.076 -25.003  0.00  0.00    -0.206 NA
ATOM      5  C   UNL     1      34.553 -16.537 -23.157  0.00  0.00    -0.024 C 
ATOM      6  C   UNL     1      33.877 -15.748 -24.036  0.00  0.00    +0.100 C 
ATOM      7  C   UNL     1      35.207 -17.554 -23.866  0.00  0.00    +0.013 C 
ATOM      8  C   UNL     1      34.909 -17.360 -25.197  0.00  0.00    +0.089 C 
ATOM      9  C   UNL     1      33.043 -14.579 -23.899  0.00  0.00    +0.149 C 
ATOM     10  C   UNL     1      32.840 -14.675 -26.215  0.00  0.00    +0.219 C 
ATOM     11  H   UNL     1      32.734 -14.582 -21.906  0.00  0.00    +0.154 HD
ENDROOT
BRANCH   3  12
ATOM     12  C   UNL     1      32.500 -12.640 -22.463  0.00  0.00    +0.052 C 
ATOM     13  C   UNL     1      33.051 -11.655 -23.296  0.00  0.00    +0.052 C 
ATOM     14  C   UNL     1      31.683 -12.239 -21.393  0.00  0.00    +0.015 C 
ATOM     15  C   UNL     1      32.793 -10.304 -23.068  0.00  0.00    +0.140 C 
ATOM     16  C   UNL     1      31.425 -10.888 -21.164  0.00  0.00    +0.004 C 
ATOM     17  C   UNL     1      31.979  -9.920 -22.001  0.00  0.00    +0.037 C 
BRANCH  15  18
ATOM     18  O   UNL     1      33.334  -9.358 -23.884  0.00  0.00    -0.471 OA
ATOM     19  C   UNL     1      34.731  -9.458 -24.156  0.00  0.00    +0.252 C 
ENDBRANCH  15  18
ENDBRANCH   3  12
BRANCH   5  20
ATOM     20  C   UNL     1      34.615 -16.378 -21.661  0.00  0.00    -0.048 C 
BRANCH  20  21
ATOM     21  N   UNL     1      34.788 -17.634 -20.933  0.00  0.00    +0.391 N 
ATOM     22  C   UNL     1      35.107 -20.536 -20.684  0.00  0.00    -0.042 C 
ATOM     23  C   UNL     1      33.779 -19.831 -20.376  0.00  0.00    +0.070 C 
ATOM     24  C   UNL     1      36.274 -19.560 -20.506  0.00  0.00    -0.042 C 
ATOM     25  C   UNL     1      33.650 -18.528 -21.174  0.00  0.00    -0.049 C 
ATOM     26  C   UNL     1      36.053 -18.277 -21.309  0.00  0.00    -0.079 C 
ATOM     27  H   UNL     1      34.822 -17.429 -19.933  0.00  0.00    -0.079 HD
BRANCH  22  28
ATOM     28  N   UNL     1      35.300 -21.690 -19.806  0.00  0.00    +0.383 N 
ATOM     29  H   UNL     1      34.638 -21.642 -19.031  0.00  0.00    -0.089 HD
ATOM     30  H   UNL     1      36.252 -21.684 -19.440  0.00  0.00    -0.089 HD
ATOM     31  H   UNL     1      35.144 -22.549 -20.334  0.00  0.00    -0.089 HD
ENDBRANCH  22  28
BRANCH  23  32
ATOM     32  O   UNL     1      32.683 -20.668 -20.743  0.00  0.00    -0.389 OA
ATOM     33  H   UNL     1      32.416 -21.203 -19.980  0.00  0.00    +0.210 HD
ENDBRANCH  23  32
ENDBRANCH  20  21
ENDBRANCH   5  20
TORSDOF 6
ENDMDL
MODEL 2
REMARK VINA RESULT:     -10.7      1.229      1.640
REMARK  Name = 11349170
REMARK  6 active torsions:
REMARK  status: ('A' for Active; 'I' for Inactive)
REMARK    1  A    between atoms: N_3  and  C_12
REMARK    2  A    between atoms: C_5  and  C_20
REMARK    3  A    between atoms: C_15  and  O_18
REMARK    4  A    between atoms: C_20  and  N_21
REMARK    5  A    between atoms: C_22  and  N_28
REMARK    6  A    between atoms: C_23  and  O_32
REMARK                            x       y       z     vdW  Elec       q    Type
REMARK                         _______ _______ _______ _____ _____    ______ ____
ROOT
ATOM      1  N   UNL     1      34.164 -15.996 -25.388  0.00  0.00    -0.185 N 
ATOM      2  N   UNL     1      33.747 -15.161 -26.371  0.00  0.00    -0.151 NA
ATOM      3  N   UNL     1      32.570 -14.515 -22.393  0.00  0.00    -0.297 N 
ATOM      4  N   UNL     1      32.574 -13.951 -24.647  0.00  0.00    -0.206 NA
ATOM      5  C   UNL     1      34.422 -16.864 -23.385  0.00  0.00    -0.024 C 
ATOM      6  C   UNL     1      33.824 -15.850 -24.067  0.00  0.00    +0.100 C 
ATOM      7  C   UNL     1      35.147 -17.655 -24.287  0.00  0.00    +0.013 C 
ATOM      8  C   UNL     1      34.972 -17.093 -25.532  0.00  0.00    +0.089 C 
ATOM      9  C   UNL     1      32.970 -14.750 -23.687  0.00  0.00    +0.149 C 
ATOM     10  C   UNL     1      32.983 -14.195 -25.946  0.00  0.00    +0.219 C 
ATOM     11  H   UNL     1      32.478 -15.303 -21.810  0.00  0.00    +0.154 HD
ENDROOT
BRANCH   3  12
ATOM     12  C   UNL     1      32.280 -13.279 -21.822  0.00  0.00    +0.052 C 
ATOM     13  C   UNL     1      32.123 -12.139 -22.626  0.00  0.00    +0.052 C 
ATOM     14  C   UNL     1      32.139 -13.148 -20.431  0.00  0.00    +0.015 C 
ATOM     15  C   UNL     1      31.833 -10.900 -22.054  0.00  0.00    +0.140 C 
ATOM     16  C   UNL     1      31.849 -11.910 -19.860  0.00  0.00    +0.004 C 
ATOM     17  C   UNL     1      31.696 -10.786 -20.670  0.00  0.00    +0.037 C 
BRANCH  15  18
ATOM     18  O   UNL     1      31.684  -9.802 -22.845  0.00  0.00    -0.471 OA
ATOM     19  C   UNL     1      32.826  -9.375 -23.586  0.00  0.00    +0.252 C 
ENDBRANCH  15  18
ENDBRANCH   3  12
BRANCH   5  20
ATOM     20  C   UNL     1      34.344 -17.129 -21.905  0.00  0.00    -0.048 C 
BRANCH  20  21
ATOM     21  N   UNL     1      34.331 -18.547 -21.551  0.00  0.00    +0.391 N 
ATOM     22  C   UNL     1      34.257 -20.820 -19.704  0.00  0.00    -0.042 C 
ATOM     23  C   UNL     1      35.549 -20.381 -20.407  0.00  0.00    +0.070 C 
ATOM     24  C   UNL     1      33.038 -20.383 -20.521  0.00  0.00    -0.042 C 
ATOM     25  C   UNL     1      35.509 -18.887 -20.745  0.00  0.00    -0.049 C 
ATOM     26  C   UNL     1      33.091 -18.888 -20.841  0.00  0.00    -0.079 C 
ATOM     27  H   UNL     1      34.365 -19.098 -22.409  0.00  0.00    -0.079 HD
BRANCH  22  28
ATOM     28  N   UNL     1      34.229 -22.273 -19.527  0.00  0.00    +0.383 N 
ATOM     29  H   UNL     1      33.302 -22.626 -19.761  0.00  0.00    -0.089 HD
ATOM     30  H   UNL     1      34.444 -22.501 -18.555  0.00  0.00    -0.089 HD
ATOM     31  H   UNL     1      34.922 -22.703 -20.138  0.00  0.00    -0.089 HD
ENDBRANCH  22  28
BRANCH  23  32
ATOM     32  O   UNL     1      36.671 -20.597 -19.552  0.00  0.00    -0.389 OA
ATOM     33  H   UNL     1      37.258 -21.258 -19.951  0.00  0.00    +0.210 HD
ENDBRANCH  23  32
ENDBRANCH  20  21
ENDBRANCH   5  20
TORSDOF 6
ENDMDL
MODEL 3
REMARK VINA RESULT:     -10.7      1.021      1.803
REMARK  Name = 11349170
REMARK  6 active torsions:
REMARK  status: ('A' for Active; 'I' for Inactive)
REMARK    1  A    between atoms: N_3  and  C_12
REMARK    2  A    between atoms: C_5  and  C_20
REMARK    3  A    between atoms: C_15  and  O_18
REMARK    4  A    between atoms: C_20  and  N_21
REMARK    5  A    between atoms: C_22  and  N_28
REMARK    6  A    between atoms: C_23  and  O_32
REMARK                            x       y       z     vdW  Elec       q    Type
REMARK                         _______ _______ _______ _____ _____    ______ ____
ROOT
ATOM      1  N   UNL     1      34.089 -16.344 -25.299  0.00  0.00    -0.185 N 
ATOM      2  N   UNL     1      33.557 -15.819 -26.429  0.00  0.00    -0.151 NA
ATOM      3  N   UNL     1      32.795 -14.046 -22.702  0.00  0.00    -0.297 N 
ATOM      4  N   UNL     1      32.553 -14.151 -25.010  0.00  0.00    -0.206 NA
ATOM      5  C   UNL     1      34.570 -16.607 -23.170  0.00  0.00    -0.024 C 
ATOM      6  C   UNL     1      33.887 -15.822 -24.046  0.00  0.00    +0.100 C 
ATOM      7  C   UNL     1      35.210 -17.633 -23.879  0.00  0.00    +0.013 C 
ATOM      8  C   UNL     1      34.895 -17.448 -25.208  0.00  0.00    +0.089 C 
ATOM      9  C   UNL     1      33.061 -14.647 -23.908  0.00  0.00    +0.149 C 
ATOM     10  C   UNL     1      32.826 -14.761 -26.220  0.00  0.00    +0.219 C 
ATOM     11  H   UNL     1      32.778 -14.633 -21.911  0.00  0.00    +0.154 HD
ENDROOT
BRANCH   3  12
ATOM     12  C   UNL     1      32.547 -12.694 -22.480  0.00  0.00    +0.052 C 
ATOM     13  C   UNL     1      31.793 -12.277 -21.372  0.00  0.00    +0.052 C 
ATOM     14  C   UNL     1      33.046 -11.721 -23.362  0.00  0.00    +0.015 C 
ATOM     15  C   UNL     1      31.544 -10.923 -21.150  0.00  0.00    +0.140 C 
ATOM     16  C   UNL     1      32.797 -10.367 -23.139  0.00  0.00    +0.004 C 
ATOM     17  C   UNL     1      32.047  -9.967 -22.034  0.00  0.00    +0.037 C 
BRANCH  15  18
ATOM     18  O   UNL     1      30.811 -10.532 -20.072  0.00  0.00    -0.471 OA
ATOM     19  C   UNL     1      31.360 -10.798 -18.782  0.00  0.00    +0.252 C 
ENDBRANCH  15  18
ENDBRANCH   3  12
BRANCH   5  20
ATOM     20  C   UNL     1      34.653 -16.436 -21.677  0.00  0.00    -0.048 C 
BRANCH  20  21
ATOM     21  N   UNL     1      34.826 -17.687 -20.940  0.00  0.00    +0.391 N 
ATOM     22  C   UNL     1      35.129 -20.589 -20.672  0.00  0.00    -0.042 C 
ATOM     23  C   UNL     1      33.809 -19.873 -20.354  0.00  0.00    +0.070 C 
ATOM     24  C   UNL     1      36.304 -19.620 -20.515  0.00  0.00    -0.042 C 
ATOM     25  C   UNL     1      33.679 -18.576 -21.161  0.00  0.00    -0.049 C 
ATOM     26  C   UNL     1      36.082 -18.342 -21.325  0.00  0.00    -0.079 C 
ATOM     27  H   UNL     1      34.873 -17.475 -19.943  0.00  0.00    -0.079 HD
BRANCH  22  28
ATOM     28  N   UNL     1      35.324 -21.738 -19.787  0.00  0.00    +0.383 N 
ATOM     29  H   UNL     1      34.487 -22.322 -19.798  0.00  0.00    -0.089 HD
ATOM     30  H   UNL     1      35.496 -21.410 -18.836  0.00  0.00    -0.089 HD
ATOM     31  H   UNL     1      36.123 -22.283 -20.107  0.00  0.00    -0.089 HD
ENDBRANCH  22  28
BRANCH  23  32
ATOM     32  O   UNL     1      32.703 -20.706 -20.702  0.00  0.00    -0.389 OA
ATOM     33  H   UNL     1      32.574 -20.687 -21.663  0.00  0.00    +0.210 HD
ENDBRANCH  23  32
ENDBRANCH  20  21
ENDBRANCH   5  20
TORSDOF 6
ENDMDL
MODEL 4
REMARK VINA RESULT:     -10.5      8.892     11.293
REMARK  Name = 11349170
REMARK  6 active torsions:
REMARK  status: ('A' for Active; 'I' for Inactive)
REMARK    1  A    between atoms: N_3  and  C_12
REMARK    2  A    between atoms: C_5  and  C_20
REMARK    3  A    between atoms: C_15  and  O_18
REMARK    4  A    between atoms: C_20  and  N_21
REMARK    5  A    between atoms: C_22  and  N_28
REMARK    6  A    between atoms: C_23  and  O_32
REMARK                            x       y       z     vdW  Elec       q    Type
REMARK                         _______ _______ _______ _____ _____    ______ ____
ROOT
ATOM      1  N   UNL     1      35.428 -21.983 -18.245  0.00  0.00    -0.185 N 
ATOM      2  N   UNL     1      34.814 -21.922 -19.451  0.00  0.00    -0.151 NA
ATOM      3  N   UNL     1      32.864 -23.649 -16.159  0.00  0.00    -0.297 N 
ATOM      4  N   UNL     1      32.944 -23.012 -18.392  0.00  0.00    -0.206 NA
ATOM      5  C   UNL     1      35.763 -22.415 -16.116  0.00  0.00    -0.024 C 
ATOM      6  C   UNL     1      34.858 -22.530 -17.125  0.00  0.00    +0.100 C 
ATOM      7  C   UNL     1      36.916 -21.786 -16.608  0.00  0.00    +0.013 C 
ATOM      8  C   UNL     1      36.683 -21.526 -17.941  0.00  0.00    +0.089 C 
ATOM      9  C   UNL     1      33.526 -23.078 -17.220  0.00  0.00    +0.149 C 
ATOM     10  C   UNL     1      33.616 -22.435 -19.454  0.00  0.00    +0.219 C 
ATOM     11  H   UNL     1      33.422 -24.089 -15.476  0.00  0.00    +0.154 HD
ENDROOT
BRANCH   3  12
ATOM     12  C   UNL     1      31.489 -23.671 -15.949  0.00  0.00    +0.052 C 
ATOM     13  C   UNL     1      30.652 -22.744 -16.591  0.00  0.00    +0.052 C 
ATOM     14  C   UNL     1      30.910 -24.619 -15.089  0.00  0.00    +0.015 C 
ATOM     15  C   UNL     1      29.274 -22.765 -16.381  0.00  0.00    +0.140 C 
ATOM     16  C   UNL     1      29.532 -24.640 -14.879  0.00  0.00    +0.004 C 
ATOM     17  C   UNL     1      28.713 -23.714 -15.524  0.00  0.00    +0.037 C 
BRANCH  15  18
ATOM     18  O   UNL     1      28.474 -21.861 -17.010  0.00  0.00    -0.471 OA
ATOM     19  C   UNL     1      27.143 -22.273 -17.317  0.00  0.00    +0.252 C 
ENDBRANCH  15  18
ENDBRANCH   3  12
BRANCH   5  20
ATOM     20  C   UNL     1      35.596 -22.871 -14.692  0.00  0.00    -0.048 C 
BRANCH  20  21
ATOM     21  N   UNL     1      36.376 -24.058 -14.347  0.00  0.00    +0.391 N 
ATOM     22  C   UNL     1      38.495 -26.045 -14.734  0.00  0.00    -0.042 C 
ATOM     23  C   UNL     1      37.022 -26.353 -15.036  0.00  0.00    +0.070 C 
ATOM     24  C   UNL     1      38.596 -24.925 -13.695  0.00  0.00    -0.042 C 
ATOM     25  C   UNL     1      36.257 -25.075 -15.399  0.00  0.00    -0.049 C 
ATOM     26  C   UNL     1      37.782 -23.701 -14.118  0.00  0.00    -0.079 C 
ATOM     27  H   UNL     1      36.005 -24.453 -13.483  0.00  0.00    -0.079 HD
BRANCH  22  28
ATOM     28  N   UNL     1      39.183 -27.236 -14.234  0.00  0.00    +0.383 N 
ATOM     29  H   UNL     1      39.277 -27.174 -13.220  0.00  0.00    -0.089 HD
ATOM     30  H   UNL     1      40.109 -27.297 -14.658  0.00  0.00    -0.089 HD
ATOM     31  H   UNL     1      38.643 -28.067 -14.475  0.00  0.00    -0.089 HD
ENDBRANCH  22  28
BRANCH  23  32
ATOM     32  O   UNL     1      36.924 -27.241 -16.149  0.00  0.00    -0.389 OA
ATOM     33  H   UNL     1      37.556 -26.972 -16.833  0.00  0.00    +0.210 HD
ENDBRANCH  23  32
ENDBRANCH  20  21
ENDBRANCH   5  20
TORSDOF 6
ENDMDL
MODEL 5
REMARK VINA RESULT:     -10.4      8.815     11.383
REMARK  Name = 11349170
REMARK  6 active torsions:
REMARK  status: ('A' for Active; 'I' for Inactive)
REMARK    1  A    between atoms: N_3  and  C_12
REMARK    2  A    between atoms: C_5  and  C_20
REMARK    3  A    between atoms: C_15  and  O_18
REMARK    4  A    between atoms: C_20  and  N_21
REMARK    5  A    between atoms: C_22  and  N_28
REMARK    6  A    between atoms: C_23  and  O_32
REMARK                            x       y       z     vdW  Elec       q    Type
REMARK                         _______ _______ _______ _____ _____    ______ ____
ROOT
ATOM      1  N   UNL     1      35.555 -21.896 -18.406  0.00  0.00    -0.185 N 
ATOM      2  N   UNL     1      34.874 -21.845 -19.577  0.00  0.00    -0.151 NA
ATOM      3  N   UNL     1      33.129 -23.582 -16.177  0.00  0.00    -0.297 N 
ATOM      4  N   UNL     1      33.078 -22.952 -18.412  0.00  0.00    -0.206 NA
ATOM      5  C   UNL     1      36.011 -22.316 -16.297  0.00  0.00    -0.024 C 
ATOM      6  C   UNL     1      35.053 -22.445 -17.254  0.00  0.00    +0.100 C 
ATOM      7  C   UNL     1      37.128 -21.677 -16.854  0.00  0.00    +0.013 C 
ATOM      8  C   UNL     1      36.820 -21.424 -18.173  0.00  0.00    +0.089 C 
ATOM      9  C   UNL     1      33.724 -23.008 -17.274  0.00  0.00    +0.149 C 
ATOM     10  C   UNL     1      33.684 -22.372 -19.512  0.00  0.00    +0.219 C 
ATOM     11  H   UNL     1      33.728 -24.013 -15.525  0.00  0.00    +0.154 HD
ENDROOT
BRANCH   3  12
ATOM     12  C   UNL     1      31.767 -23.618 -15.891  0.00  0.00    +0.052 C 
ATOM     13  C   UNL     1      30.871 -22.775 -16.567  0.00  0.00    +0.052 C 
ATOM     14  C   UNL     1      31.262 -24.498 -14.920  0.00  0.00    +0.015 C 
ATOM     15  C   UNL     1      29.507 -22.810 -16.282  0.00  0.00    +0.140 C 
ATOM     16  C   UNL     1      29.897 -24.533 -14.634  0.00  0.00    +0.004 C 
ATOM     17  C   UNL     1      29.019 -23.690 -15.314  0.00  0.00    +0.037 C 
BRANCH  15  18
ATOM     18  O   UNL     1      28.649 -21.986 -16.944  0.00  0.00    -0.471 OA
ATOM     19  C   UNL     1      27.269 -22.348 -16.943  0.00  0.00    +0.252 C 
ENDBRANCH  15  18
ENDBRANCH   3  12
BRANCH   5  20
ATOM     20  C   UNL     1      35.928 -22.769 -14.864  0.00  0.00    -0.048 C 
BRANCH  20  21
ATOM     21  N   UNL     1      37.126 -23.452 -14.381  0.00  0.00    +0.391 N 
ATOM     22  C   UNL     1      38.876 -25.765 -13.960  0.00  0.00    -0.042 C 
ATOM     23  C   UNL     1      38.016 -25.175 -12.833  0.00  0.00    +0.070 C 
ATOM     24  C   UNL     1      39.165 -24.694 -15.016  0.00  0.00    -0.042 C 
ATOM     25  C   UNL     1      36.771 -24.481 -13.398  0.00  0.00    -0.049 C 
ATOM     26  C   UNL     1      37.876 -24.032 -15.503  0.00  0.00    -0.079 C 
ATOM     27  H   UNL     1      37.727 -22.768 -13.919  0.00  0.00    -0.079 HD
BRANCH  22  28
ATOM     28  N   UNL     1      40.138 -26.283 -13.433  0.00  0.00    +0.383 N 
ATOM     29  H   UNL     1      40.025 -27.265 -13.181  0.00  0.00    -0.089 HD
ATOM     30  H   UNL     1      40.406 -25.750 -12.605  0.00  0.00    -0.089 HD
ATOM     31  H   UNL     1      40.865 -26.196 -14.143  0.00  0.00    -0.089 HD
ENDBRANCH  22  28
BRANCH  23  32
ATOM     32  O   UNL     1      37.569 -26.213 -11.962  0.00  0.00    -0.389 OA
ATOM     33  H   UNL     1      38.334 -26.708 -11.630  0.00  0.00    +0.210 HD
ENDBRANCH  23  32
ENDBRANCH  20  21
ENDBRANCH   5  20
TORSDOF 6
ENDMDL
MODEL 6
REMARK VINA RESULT:     -10.4      9.014     12.666
REMARK  Name = 11349170
REMARK  6 active torsions:
REMARK  status: ('A' for Active; 'I' for Inactive)
REMARK    1  A    between atoms: N_3  and  C_12
REMARK    2  A    between atoms: C_5  and  C_20
REMARK    3  A    between atoms: C_15  and  O_18
REMARK    4  A    between atoms: C_20  and  N_21
REMARK    5  A    between atoms: C_22  and  N_28
REMARK    6  A    between atoms: C_23  and  O_32
REMARK                            x       y       z     vdW  Elec       q    Type
REMARK                         _______ _______ _______ _____ _____    ______ ____
ROOT
ATOM      1  N   UNL     1      35.114 -22.023 -18.267  0.00  0.00    -0.185 N 
ATOM      2  N   UNL     1      36.393 -21.608 -18.432  0.00  0.00    -0.151 NA
ATOM      3  N   UNL     1      35.232 -23.560 -14.902  0.00  0.00    -0.297 N 
ATOM      4  N   UNL     1      36.818 -22.516 -16.241  0.00  0.00    -0.206 NA
ATOM      5  C   UNL     1      33.338 -22.926 -17.338  0.00  0.00    -0.024 C 
ATOM      6  C   UNL     1      34.659 -22.667 -17.145  0.00  0.00    +0.100 C 
ATOM      7  C   UNL     1      32.957 -22.439 -18.597  0.00  0.00    +0.013 C 
ATOM      8  C   UNL     1      34.084 -21.880 -19.159  0.00  0.00    +0.089 C 
ATOM      9  C   UNL     1      35.585 -22.923 -16.067  0.00  0.00    +0.149 C 
ATOM     10  C   UNL     1      37.165 -21.877 -17.417  0.00  0.00    +0.219 C 
ATOM     11  H   UNL     1      34.301 -23.446 -14.601  0.00  0.00    +0.154 HD
ENDROOT
BRANCH   3  12
ATOM     12  C   UNL     1      36.054 -24.349 -14.102  0.00  0.00    +0.052 C 
ATOM     13  C   UNL     1      37.090 -25.108 -14.669  0.00  0.00    +0.052 C 
ATOM     14  C   UNL     1      35.862 -24.403 -12.711  0.00  0.00    +0.015 C 
ATOM     15  C   UNL     1      37.913 -25.899 -13.869  0.00  0.00    +0.140 C 
ATOM     16  C   UNL     1      36.686 -25.194 -11.911  0.00  0.00    +0.004 C 
ATOM     17  C   UNL     1      37.711 -25.942 -12.488  0.00  0.00    +0.037 C 
BRANCH  15  18
ATOM     18  O   UNL     1      38.913 -26.630 -14.432  0.00  0.00    -0.471 OA
ATOM     19  C   UNL     1      40.149 -25.961 -14.676  0.00  0.00    +0.252 C 
ENDBRANCH  15  18
ENDBRANCH   3  12
BRANCH   5  20
ATOM     20  C   UNL     1      32.401 -23.618 -16.385  0.00  0.00    -0.048 C 
BRANCH  20  21
ATOM     21  N   UNL     1      31.049 -23.062 -16.363  0.00  0.00    +0.391 N 
ATOM     22  C   UNL     1      28.229 -22.972 -15.574  0.00  0.00    -0.042 C 
ATOM     23  C   UNL     1      28.673 -23.438 -16.968  0.00  0.00    +0.070 C 
ATOM     24  C   UNL     1      29.283 -22.040 -14.971  0.00  0.00    -0.042 C 
ATOM     25  C   UNL     1      30.091 -24.019 -16.927  0.00  0.00    -0.049 C 
ATOM     26  C   UNL     1      30.671 -22.682 -14.996  0.00  0.00    -0.079 C 
ATOM     27  H   UNL     1      31.034 -22.221 -16.941  0.00  0.00    -0.079 HD
BRANCH  22  28
ATOM     28  N   UNL     1      26.944 -22.274 -15.644  0.00  0.00    +0.383 N 
ATOM     29  H   UNL     1      26.473 -22.516 -16.515  0.00  0.00    -0.089 HD
ATOM     30  H   UNL     1      27.103 -21.266 -15.612  0.00  0.00    -0.089 HD
ATOM     31  H   UNL     1      26.363 -22.552 -14.854  0.00  0.00    -0.089 HD
ENDBRANCH  22  28
BRANCH  23  32
ATOM     32  O   UNL     1      27.803 -24.465 -17.443  0.00  0.00    -0.389 OA
ATOM     33  H   UNL     1      28.225 -25.329 -17.317  0.00  0.00    +0.210 HD
ENDBRANCH  23  32
ENDBRANCH  20  21
ENDBRANCH   5  20
TORSDOF 6
ENDMDL
MODEL 7
REMARK VINA RESULT:     -10.1      3.617      6.600
REMARK  Name = 11349170
REMARK  6 active torsions:
REMARK  status: ('A' for Active; 'I' for Inactive)
REMARK    1  A    between atoms: N_3  and  C_12
REMARK    2  A    between atoms: C_5  and  C_20
REMARK    3  A    between atoms: C_15  and  O_18
REMARK    4  A    between atoms: C_20  and  N_21
REMARK    5  A    between atoms: C_22  and  N_28
REMARK    6  A    between atoms: C_23  and  O_32
REMARK                            x       y       z     vdW  Elec       q    Type
REMARK                         _______ _______ _______ _____ _____    ______ ____
ROOT
ATOM      1  N   UNL     1      31.766 -10.278 -20.246  0.00  0.00    -0.185 N 
ATOM      2  N   UNL     1      31.641  -9.218 -19.411  0.00  0.00    -0.151 NA
ATOM      3  N   UNL     1      33.308  -8.726 -23.232  0.00  0.00    -0.297 N 
ATOM      4  N   UNL     1      32.632  -7.900 -21.168  0.00  0.00    -0.206 NA
ATOM      5  C   UNL     1      32.261 -11.448 -22.040  0.00  0.00    -0.024 C 
ATOM      6  C   UNL     1      32.298 -10.197 -21.507  0.00  0.00    +0.100 C 
ATOM      7  C   UNL     1      31.697 -12.326 -21.102  0.00  0.00    +0.013 C 
ATOM      8  C   UNL     1      31.395 -11.572 -19.990  0.00  0.00    +0.089 C 
ATOM      9  C   UNL     1      32.759  -8.916 -21.987  0.00  0.00    +0.149 C 
ATOM     10  C   UNL     1      32.078  -8.100 -19.917  0.00  0.00    +0.219 C 
ATOM     11  H   UNL     1      33.796  -9.489 -23.620  0.00  0.00    +0.154 HD
ENDROOT
BRANCH   3  12
ATOM     12  C   UNL     1      33.246  -7.568 -24.002  0.00  0.00    +0.052 C 
ATOM     13  C   UNL     1      32.059  -6.824 -24.081  0.00  0.00    +0.052 C 
ATOM     14  C   UNL     1      34.371  -7.122 -24.716  0.00  0.00    +0.015 C 
ATOM     15  C   UNL     1      31.997  -5.664 -24.853  0.00  0.00    +0.140 C 
ATOM     16  C   UNL     1      34.308  -5.963 -25.488  0.00  0.00    +0.004 C 
ATOM     17  C   UNL     1      33.122  -5.233 -25.557  0.00  0.00    +0.037 C 
BRANCH  15  18
ATOM     18  O   UNL     1      30.839  -4.951 -24.921  0.00  0.00    -0.471 OA
ATOM     19  C   UNL     1      30.954  -3.533 -25.024  0.00  0.00    +0.252 C 
ENDBRANCH  15  18
ENDBRANCH   3  12
BRANCH   5  20
ATOM     20  C   UNL     1      32.734 -11.866 -23.406  0.00  0.00    -0.048 C 
BRANCH  20  21
ATOM     21  N   UNL     1      32.956 -13.304 -23.549  0.00  0.00    +0.391 N 
ATOM     22  C   UNL     1      34.483 -15.693 -24.286  0.00  0.00    -0.042 C 
ATOM     23  C   UNL     1      33.324 -15.168 -25.145  0.00  0.00    +0.070 C 
ATOM     24  C   UNL     1      34.307 -15.243 -22.833  0.00  0.00    -0.042 C 
ATOM     25  C   UNL     1      33.146 -13.656 -24.961  0.00  0.00    -0.049 C 
ATOM     26  C   UNL     1      34.105 -13.731 -22.741  0.00  0.00    -0.079 C 
ATOM     27  H   UNL     1      32.129 -13.796 -23.209  0.00  0.00    -0.079 HD
BRANCH  22  28
ATOM     28  N   UNL     1      34.549 -17.154 -24.340  0.00  0.00    +0.383 N 
ATOM     29  H   UNL     1      34.609 -17.457 -25.312  0.00  0.00    -0.089 HD
ATOM     30  H   UNL     1      33.710 -17.548 -23.913  0.00  0.00    -0.089 HD
ATOM     31  H   UNL     1      35.372 -17.477 -23.831  0.00  0.00    -0.089 HD
ENDBRANCH  22  28
BRANCH  23  32
ATOM     32  O   UNL     1      33.592 -15.402 -26.527  0.00  0.00    -0.389 OA
ATOM     33  H   UNL     1      33.487 -14.574 -27.021  0.00  0.00    +0.210 HD
ENDBRANCH  23  32
ENDBRANCH  20  21
ENDBRANCH   5  20
TORSDOF 6
ENDMDL
MODEL 8
REMARK VINA RESULT:     -10.0      6.782     12.672
REMARK  Name = 11349170
REMARK  6 active torsions:
REMARK  status: ('A' for Active; 'I' for Inactive)
REMARK    1  A    between atoms: N_3  and  C_12
REMARK    2  A    between atoms: C_5  and  C_20
REMARK    3  A    between atoms: C_15  and  O_18
REMARK    4  A    between atoms: C_20  and  N_21
REMARK    5  A    between atoms: C_22  and  N_28
REMARK    6  A    between atoms: C_23  and  O_32
REMARK                            x       y       z     vdW  Elec       q    Type
REMARK                         _______ _______ _______ _____ _____    ______ ____
ROOT
ATOM      1  N   UNL     1      31.342 -23.247 -15.000  0.00  0.00    -0.185 N 
ATOM      2  N   UNL     1      31.057 -23.487 -13.697  0.00  0.00    -0.151 NA
ATOM      3  N   UNL     1      34.798 -24.541 -15.284  0.00  0.00    -0.297 N 
ATOM      4  N   UNL     1      33.276 -24.413 -13.533  0.00  0.00    -0.206 NA
ATOM      5  C   UNL     1      32.458 -23.176 -16.892  0.00  0.00    -0.024 C 
ATOM      6  C   UNL     1      32.539 -23.561 -15.590  0.00  0.00    +0.100 C 
ATOM      7  C   UNL     1      31.194 -22.613 -17.123  0.00  0.00    +0.013 C 
ATOM      8  C   UNL     1      30.515 -22.668 -15.926  0.00  0.00    +0.089 C 
ATOM      9  C   UNL     1      33.565 -24.186 -14.791  0.00  0.00    +0.149 C 
ATOM     10  C   UNL     1      32.034 -24.051 -13.044  0.00  0.00    +0.219 C 
ATOM     11  H   UNL     1      34.837 -24.789 -16.236  0.00  0.00    +0.154 HD
ENDROOT
BRANCH   3  12
ATOM     12  C   UNL     1      35.996 -24.588 -14.577  0.00  0.00    +0.052 C 
ATOM     13  C   UNL     1      36.974 -25.545 -14.890  0.00  0.00    +0.052 C 
ATOM     14  C   UNL     1      36.250 -23.679 -13.537  0.00  0.00    +0.015 C 
ATOM     15  C   UNL     1      38.175 -25.593 -14.182  0.00  0.00    +0.140 C 
ATOM     16  C   UNL     1      37.451 -23.727 -12.829  0.00  0.00    +0.004 C 
ATOM     17  C   UNL     1      38.414 -24.683 -13.151  0.00  0.00    +0.037 C 
BRANCH  15  18
ATOM     18  O   UNL     1      39.115 -26.527 -14.495  0.00  0.00    -0.471 OA
ATOM     19  C   UNL     1      40.475 -26.097 -14.517  0.00  0.00    +0.252 C 
ENDBRANCH  15  18
ENDBRANCH   3  12
BRANCH   5  20
ATOM     20  C   UNL     1      33.524 -23.314 -17.946  0.00  0.00    -0.048 C 
BRANCH  20  21
ATOM     21  N   UNL     1      33.942 -22.047 -18.543  0.00  0.00    +0.391 N 
ATOM     22  C   UNL     1      34.868 -20.317 -20.719  0.00  0.00    -0.042 C 
ATOM     23  C   UNL     1      35.808 -20.804 -19.607  0.00  0.00    +0.070 C 
ATOM     24  C   UNL     1      33.421 -20.309 -20.219  0.00  0.00    -0.042 C 
ATOM     25  C   UNL     1      35.325 -22.138 -19.026  0.00  0.00    -0.049 C 
ATOM     26  C   UNL     1      33.030 -21.664 -19.629  0.00  0.00    -0.079 C 
ATOM     27  H   UNL     1      33.905 -21.321 -17.827  0.00  0.00    -0.079 HD
BRANCH  22  28
ATOM     28  N   UNL     1      35.239 -18.972 -21.160  0.00  0.00    +0.383 N 
ATOM     29  H   UNL     1      35.791 -19.034 -22.016  0.00  0.00    -0.089 HD
ATOM     30  H   UNL     1      35.791 -18.515 -20.433  0.00  0.00    -0.089 HD
ATOM     31  H   UNL     1      34.395 -18.428 -21.338  0.00  0.00    -0.089 HD
ENDBRANCH  22  28
BRANCH  23  32
ATOM     32  O   UNL     1      37.119 -21.015 -20.129  0.00  0.00    -0.389 OA
ATOM     33  H   UNL     1      37.771 -20.604 -19.540  0.00  0.00    +0.210 HD
ENDBRANCH  23  32
ENDBRANCH  20  21
ENDBRANCH   5  20
TORSDOF 6
ENDMDL
MODEL 9
REMARK VINA RESULT:      -9.8      3.799      6.951
REMARK  Name = 11349170
REMARK  6 active torsions:
REMARK  status: ('A' for Active; 'I' for Inactive)
REMARK    1  A    between atoms: N_3  and  C_12
REMARK    2  A    between atoms: C_5  and  C_20
REMARK    3  A    between atoms: C_15  and  O_18
REMARK    4  A    between atoms: C_20  and  N_21
REMARK    5  A    between atoms: C_22  and  N_28
REMARK    6  A    between atoms: C_23  and  O_32
REMARK                            x       y       z     vdW  Elec       q    Type
REMARK                         _______ _______ _______ _____ _____    ______ ____
ROOT
ATOM      1  N   UNL     1      31.690  -9.218 -19.786  0.00  0.00    -0.185 N 
ATOM      2  N   UNL     1      31.859  -8.057 -19.107  0.00  0.00    -0.151 NA
ATOM      3  N   UNL     1      33.201  -8.415 -23.068  0.00  0.00    -0.297 N 
ATOM      4  N   UNL     1      32.909  -7.210 -21.103  0.00  0.00    -0.206 NA
ATOM      5  C   UNL     1      31.764 -10.685 -21.421  0.00  0.00    -0.024 C 
ATOM      6  C   UNL     1      32.099  -9.411 -21.081  0.00  0.00    +0.100 C 
ATOM      7  C   UNL     1      31.136 -11.299 -20.329  0.00  0.00    +0.013 C 
ATOM      8  C   UNL     1      31.100 -10.363 -19.319  0.00  0.00    +0.089 C 
ATOM      9  C   UNL     1      32.752  -8.326 -21.773  0.00  0.00    +0.149 C 
ATOM     10  C   UNL     1      32.453  -7.128 -19.800  0.00  0.00    +0.219 C 
ATOM     11  H   UNL     1      33.489  -9.305 -23.375  0.00  0.00    +0.154 HD
ENDROOT
BRANCH   3  12
ATOM     12  C   UNL     1      33.291  -7.378 -23.992  0.00  0.00    +0.052 C 
ATOM     13  C   UNL     1      32.193  -6.538 -24.235  0.00  0.00    +0.052 C 
ATOM     14  C   UNL     1      34.483  -7.151 -24.700  0.00  0.00    +0.015 C 
ATOM     15  C   UNL     1      32.282  -5.499 -25.160  0.00  0.00    +0.140 C 
ATOM     16  C   UNL     1      34.572  -6.112 -25.626  0.00  0.00    +0.004 C 
ATOM     17  C   UNL     1      33.473  -5.285 -25.856  0.00  0.00    +0.037 C 
BRANCH  15  18
ATOM     18  O   UNL     1      31.210  -4.692 -25.387  0.00  0.00    -0.471 OA
ATOM     19  C   UNL     1      31.190  -3.434 -24.715  0.00  0.00    +0.252 C 
ENDBRANCH  15  18
ENDBRANCH   3  12
BRANCH   5  20
ATOM     20  C   UNL     1      32.009 -11.363 -22.743  0.00  0.00    -0.048 C 
BRANCH  20  21
ATOM     21  N   UNL     1      32.878 -12.536 -22.662  0.00  0.00    +0.391 N 
ATOM     22  C   UNL     1      33.587 -15.347 -23.084  0.00  0.00    -0.042 C 
ATOM     23  C   UNL     1      33.163 -14.809 -21.711  0.00  0.00    +0.070 C 
ATOM     24  C   UNL     1      34.166 -14.215 -23.937  0.00  0.00    -0.042 C 
ATOM     25  C   UNL     1      32.247 -13.588 -21.857  0.00  0.00    -0.049 C 
ATOM     26  C   UNL     1      33.206 -13.026 -24.007  0.00  0.00    -0.079 C 
ATOM     27  H   UNL     1      33.748 -12.266 -22.203  0.00  0.00    -0.079 HD
BRANCH  22  28
ATOM     28  N   UNL     1      34.585 -16.408 -22.941  0.00  0.00    +0.383 N 
ATOM     29  H   UNL     1      35.510 -15.993 -22.831  0.00  0.00    -0.089 HD
ATOM     30  H   UNL     1      34.575 -16.999 -23.774  0.00  0.00    -0.089 HD
ATOM     31  H   UNL     1      34.365 -16.973 -22.122  0.00  0.00    -0.089 HD
ENDBRANCH  22  28
BRANCH  23  32
ATOM     32  O   UNL     1      32.434 -15.807 -20.996  0.00  0.00    -0.389 OA
ATOM     33  H   UNL     1      32.981 -16.603 -20.905  0.00  0.00    +0.210 HD
ENDBRANCH  23  32
ENDBRANCH  20  21
ENDBRANCH   5  20
TORSDOF 6
ENDMDL
