MODEL 1
REMARK VINA RESULT:     -11.1      0.000      0.000
REMARK  Name = 444746
REMARK  6 active torsions:
REMARK  status: ('A' for Active; 'I' for Inactive)
REMARK    1  A    between atoms: C_1  and  C_9
REMARK    2  A    between atoms: C_1  and  N_13
REMARK    3  A    between atoms: C_1  and  C_27
REMARK    4  A    between atoms: C_4  and  O_10
REMARK    5  A    between atoms: C_14  and  C_18
REMARK    6  A    between atoms: C_27  and  C_29
REMARK                            x       y       z     vdW  Elec       q    Type
REMARK                         _______ _______ _______ _____ _____    ______ ____
ROOT
ATOM      1  C   UNL     1      35.085 -22.640 -15.856  0.00  0.00    +0.153 C 
ENDROOT
BRANCH   1   9
ATOM      2  O   UNL     1      37.285 -23.167 -16.564  0.00  0.00    -0.273 OA
ATOM      3  N   UNL     1      36.793 -23.567 -14.330  0.00  0.00    -0.278 N 
ATOM      4  C   UNL     1      37.185 -25.441 -12.161  0.00  0.00    +0.114 C 
ATOM      5  C   UNL     1      38.116 -25.413 -13.375  0.00  0.00    +0.051 C 
ATOM      6  C   UNL     1      35.794 -24.931 -12.535  0.00  0.00    +0.051 C 
ATOM      7  C   UNL     1      38.147 -24.029 -14.014  0.00  0.00    +0.096 C 
ATOM      8  C   UNL     1      35.865 -23.555 -13.190  0.00  0.00    +0.096 C 
ATOM      9  C   UNL     1      36.487 -23.145 -15.623  0.00  0.00    +0.244 C 
BRANCH   4  10
ATOM     10  O   UNL     1      37.070 -26.771 -11.673  0.00  0.00    -0.384 OA
ATOM     11  H   UNL     1      36.133 -27.024 -11.640  0.00  0.00    +0.210 HD
ENDBRANCH   4  10
ENDBRANCH   1   9
BRANCH   1  13
ATOM     12  O   UNL     1      34.368 -23.376 -18.481  0.00  0.00    -0.269 OA
ATOM     13  N   UNL     1      35.216 -21.816 -17.022  0.00  0.00    -0.294 N 
ATOM     14  C   UNL     1      34.837 -22.252 -18.297  0.00  0.00    +0.260 C 
ATOM     15  H   UNL     1      35.586 -20.909 -16.923  0.00  0.00    +0.150 HD
BRANCH  14  18
ATOM     16 CL   UNL     1      34.639 -17.361 -24.198  0.00  0.00    -0.082 Cl
ATOM     17  N   UNL     1      36.176 -20.674 -19.638  0.00  0.00    -0.309 N 
ATOM     18  C   UNL     1      35.001 -21.282 -19.388  0.00  0.00    +0.102 C 
ATOM     19  C   UNL     1      34.054 -20.870 -20.259  0.00  0.00    +0.020 C 
ATOM     20  C   UNL     1      34.685 -19.931 -21.123  0.00  0.00    +0.016 C 
ATOM     21  C   UNL     1      36.016 -19.826 -20.712  0.00  0.00    +0.048 C 
ATOM     22  C   UNL     1      34.251 -19.158 -22.218  0.00  0.00    +0.013 C 
ATOM     23  C   UNL     1      36.938 -18.984 -21.343  0.00  0.00    +0.015 C 
ATOM     24  C   UNL     1      35.161 -18.310 -22.859  0.00  0.00    +0.058 C 
ATOM     25  C   UNL     1      36.483 -18.227 -22.427  0.00  0.00    +0.013 C 
ATOM     26  H   UNL     1      37.012 -20.812 -19.137  0.00  0.00    +0.152 HD
ENDBRANCH  14  18
ENDBRANCH   1  13
BRANCH   1  27
ATOM     27  C   UNL     1      34.130 -23.810 -16.048  0.00  0.00    +0.055 C 
BRANCH  27  29
ATOM     28  F   UNL     1      28.850 -22.482 -14.648  0.00  0.00    -0.204 F 
ATOM     29  C   UNL     1      32.713 -23.454 -15.673  0.00  0.00    -0.020 C 
ATOM     30  C   UNL     1      31.795 -23.172 -16.671  0.00  0.00    -0.002 C 
ATOM     31  C   UNL     1      32.354 -23.414 -14.334  0.00  0.00    -0.002 C 
ATOM     32  C   UNL     1      30.485 -22.841 -16.325  0.00  0.00    +0.029 C 
ATOM     33  C   UNL     1      31.043 -23.084 -13.986  0.00  0.00    +0.029 C 
ATOM     34  C   UNL     1      30.109 -22.797 -14.982  0.00  0.00    +0.140 C 
ENDBRANCH  27  29
ENDBRANCH   1  27
TORSDOF 6
ENDMDL
MODEL 2
REMARK VINA RESULT:     -10.1     11.947     15.572
REMARK  Name = 444746
REMARK  6 active torsions:
REMARK  status: ('A' for Active; 'I' for Inactive)
REMARK    1  A    between atoms: C_1  and  C_9
REMARK    2  A    between atoms: C_1  and  N_13
REMARK    3  A    between atoms: C_1  and  C_27
REMARK    4  A    between atoms: C_4  and  O_10
REMARK    5  A    between atoms: C_14  and  C_18
REMARK    6  A    between atoms: C_27  and  C_29
REMARK                            x       y       z     vdW  Elec       q    Type
REMARK                         _______ _______ _______ _____ _____    ______ ____
ROOT
ATOM      1  C   UNL     1      32.630  -8.028 -23.531  0.00  0.00    +0.153 C 
ENDROOT
BRANCH   1   9
ATOM      2  O   UNL     1      33.386  -7.214 -21.438  0.00  0.00    -0.273 OA
ATOM      3  N   UNL     1      31.924  -9.017 -21.380  0.00  0.00    -0.278 N 
ATOM      4  C   UNL     1      31.383 -11.531 -20.056  0.00  0.00    +0.114 C 
ATOM      5  C   UNL     1      32.258 -10.457 -19.409  0.00  0.00    +0.051 C 
ATOM      6  C   UNL     1      31.434 -11.425 -21.580  0.00  0.00    +0.051 C 
ATOM      7  C   UNL     1      31.889  -9.066 -19.916  0.00  0.00    +0.096 C 
ATOM      8  C   UNL     1      31.081 -10.017 -22.050  0.00  0.00    +0.096 C 
ATOM      9  C   UNL     1      32.685  -8.042 -22.024  0.00  0.00    +0.244 C 
BRANCH   4  10
ATOM     10  O   UNL     1      31.839 -12.822 -19.671  0.00  0.00    -0.384 OA
ATOM     11  H   UNL     1      31.127 -13.468 -19.798  0.00  0.00    +0.210 HD
ENDBRANCH   4  10
ENDBRANCH   1   9
BRANCH   1  13
ATOM     12  O   UNL     1      35.015  -9.461 -23.985  0.00  0.00    -0.269 OA
ATOM     13  N   UNL     1      32.719  -9.414 -23.883  0.00  0.00    -0.294 N 
ATOM     14  C   UNL     1      33.943 -10.059 -24.094  0.00  0.00    +0.260 C 
ATOM     15  H   UNL     1      31.888  -9.933 -23.982  0.00  0.00    +0.150 HD
BRANCH  14  18
ATOM     16 CL   UNL     1      33.956 -17.696 -24.776  0.00  0.00    -0.082 Cl
ATOM     17  N   UNL     1      33.437 -11.937 -25.611  0.00  0.00    -0.309 N 
ATOM     18  C   UNL     1      33.873 -11.491 -24.418  0.00  0.00    +0.102 C 
ATOM     19  C   UNL     1      34.213 -12.523 -23.616  0.00  0.00    +0.020 C 
ATOM     20  C   UNL     1      33.972 -13.709 -24.365  0.00  0.00    +0.016 C 
ATOM     21  C   UNL     1      33.485 -13.314 -25.613  0.00  0.00    +0.048 C 
ATOM     22  C   UNL     1      34.121 -15.085 -24.100  0.00  0.00    +0.013 C 
ATOM     23  C   UNL     1      33.139 -14.228 -26.613  0.00  0.00    +0.015 C 
ATOM     24  C   UNL     1      33.777 -16.012 -25.091  0.00  0.00    +0.058 C 
ATOM     25  C   UNL     1      33.295 -15.588 -26.327  0.00  0.00    +0.013 C 
ATOM     26  H   UNL     1      33.134 -11.374 -26.359  0.00  0.00    +0.152 HD
ENDBRANCH  14  18
ENDBRANCH   1  13
BRANCH   1  27
ATOM     27  C   UNL     1      31.341  -7.368 -24.004  0.00  0.00    +0.055 C 
BRANCH  27  29
ATOM     28  F   UNL     1      31.888  -1.800 -24.545  0.00  0.00    -0.204 F 
ATOM     29  C   UNL     1      31.488  -5.874 -24.149  0.00  0.00    -0.020 C 
ATOM     30  C   UNL     1      32.035  -5.354 -25.311  0.00  0.00    -0.002 C 
ATOM     31  C   UNL     1      31.072  -5.046 -23.117  0.00  0.00    -0.002 C 
ATOM     32  C   UNL     1      32.173  -3.972 -25.445  0.00  0.00    +0.029 C 
ATOM     33  C   UNL     1      31.208  -3.664 -23.251  0.00  0.00    +0.029 C 
ATOM     34  C   UNL     1      31.759  -3.127 -24.415  0.00  0.00    +0.140 C 
ENDBRANCH  27  29
ENDBRANCH   1  27
TORSDOF 6
ENDMDL
MODEL 3
REMARK VINA RESULT:      -9.6     10.978     15.317
REMARK  Name = 444746
REMARK  6 active torsions:
REMARK  status: ('A' for Active; 'I' for Inactive)
REMARK    1  A    between atoms: C_1  and  C_9
REMARK    2  A    between atoms: C_1  and  N_13
REMARK    3  A    between atoms: C_1  and  C_27
REMARK    4  A    between atoms: C_4  and  O_10
REMARK    5  A    between atoms: C_14  and  C_18
REMARK    6  A    between atoms: C_27  and  C_29
REMARK                            x       y       z     vdW  Elec       q    Type
REMARK                         _______ _______ _______ _____ _____    ______ ____
ROOT
ATOM      1  C   UNL     1      32.769  -8.335 -23.669  0.00  0.00    +0.153 C 
ENDROOT
BRANCH   1   9
ATOM      2  O   UNL     1      33.722  -7.292 -21.767  0.00  0.00    -0.273 OA
ATOM      3  N   UNL     1      32.068  -8.870 -21.362  0.00  0.00    -0.278 N 
ATOM      4  C   UNL     1      31.312 -11.053 -19.620  0.00  0.00    +0.114 C 
ATOM      5  C   UNL     1      32.338 -10.002 -19.190  0.00  0.00    +0.051 C 
ATOM      6  C   UNL     1      31.295 -11.201 -21.141  0.00  0.00    +0.051 C 
ATOM      7  C   UNL     1      32.104  -8.678 -19.910  0.00  0.00    +0.096 C 
ATOM      8  C   UNL     1      31.081  -9.855 -21.828  0.00  0.00    +0.096 C 
ATOM      9  C   UNL     1      32.901  -8.112 -22.183  0.00  0.00    +0.244 C 
BRANCH   4  10
ATOM     10  O   UNL     1      31.637 -12.310 -19.041  0.00  0.00    -0.384 OA
ATOM     11  H   UNL     1      32.338 -12.190 -18.381  0.00  0.00    +0.210 HD
ENDBRANCH   4  10
ENDBRANCH   1   9
BRANCH   1  13
ATOM     12  O   UNL     1      35.005  -9.726 -24.675  0.00  0.00    -0.269 OA
ATOM     13  N   UNL     1      32.877  -9.757 -23.807  0.00  0.00    -0.294 N 
ATOM     14  C   UNL     1      34.023 -10.379 -24.316  0.00  0.00    +0.260 C 
ATOM     15  H   UNL     1      32.117 -10.320 -23.533  0.00  0.00    +0.150 HD
BRANCH  14  18
ATOM     16 CL   UNL     1      33.589 -17.922 -25.618  0.00  0.00    -0.082 Cl
ATOM     17  N   UNL     1      34.297 -12.608 -23.296  0.00  0.00    -0.309 N 
ATOM     18  C   UNL     1      33.996 -11.847 -24.365  0.00  0.00    +0.102 C 
ATOM     19  C   UNL     1      33.684 -12.618 -25.429  0.00  0.00    +0.020 C 
ATOM     20  C   UNL     1      33.798 -13.968 -24.993  0.00  0.00    +0.016 C 
ATOM     21  C   UNL     1      34.185 -13.934 -23.651  0.00  0.00    +0.048 C 
ATOM     22  C   UNL     1      33.610 -15.220 -25.612  0.00  0.00    +0.013 C 
ATOM     23  C   UNL     1      34.392 -15.092 -22.894  0.00  0.00    +0.015 C 
ATOM     24  C   UNL     1      33.816 -16.388 -24.868  0.00  0.00    +0.058 C 
ATOM     25  C   UNL     1      34.200 -16.322 -23.531  0.00  0.00    +0.013 C 
ATOM     26  H   UNL     1      34.555 -12.273 -22.407  0.00  0.00    +0.152 HD
ENDBRANCH  14  18
ENDBRANCH   1  13
BRANCH   1  27
ATOM     27  C   UNL     1      31.440  -7.781 -24.168  0.00  0.00    +0.055 C 
BRANCH  27  29
ATOM     28  F   UNL     1      31.224  -2.174 -23.838  0.00  0.00    -0.204 F 
ATOM     29  C   UNL     1      31.382  -6.276 -24.079  0.00  0.00    -0.020 C 
ATOM     30  C   UNL     1      30.878  -5.681 -22.933  0.00  0.00    -0.002 C 
ATOM     31  C   UNL     1      31.834  -5.514 -25.146  0.00  0.00    -0.002 C 
ATOM     32  C   UNL     1      30.823  -4.290 -22.852  0.00  0.00    +0.029 C 
ATOM     33  C   UNL     1      31.780  -4.122 -25.064  0.00  0.00    +0.029 C 
ATOM     34  C   UNL     1      31.274  -3.510 -23.917  0.00  0.00    +0.140 C 
ENDBRANCH  27  29
ENDBRANCH   1  27
TORSDOF 6
ENDMDL
MODEL 4
REMARK VINA RESULT:      -9.4      3.402      6.516
REMARK  Name = 444746
REMARK  6 active torsions:
REMARK  status: ('A' for Active; 'I' for Inactive)
REMARK    1  A    between atoms: C_1  and  C_9
REMARK    2  A    between atoms: C_1  and  N_13
REMARK    3  A    between atoms: C_1  and  C_27
REMARK    4  A    between atoms: C_4  and  O_10
REMARK    5  A    between atoms: C_14  and  C_18
REMARK    6  A    between atoms: C_27  and  C_29
REMARK                            x       y       z     vdW  Elec       q    Type
REMARK                         _______ _______ _______ _____ _____    ______ ____
ROOT
ATOM      1  C   UNL     1      36.611 -22.956 -16.155  0.00  0.00    +0.153 C 
ENDROOT
BRANCH   1   9
ATOM      2  O   UNL     1      36.815 -22.210 -13.915  0.00  0.00    -0.273 OA
ATOM      3  N   UNL     1      37.666 -24.319 -14.385  0.00  0.00    -0.278 N 
ATOM      4  C   UNL     1      39.874 -26.109 -13.849  0.00  0.00    +0.114 C 
ATOM      5  C   UNL     1      39.544 -24.942 -12.916  0.00  0.00    +0.051 C 
ATOM      6  C   UNL     1      39.418 -25.806 -15.276  0.00  0.00    +0.051 C 
ATOM      7  C   UNL     1      38.066 -24.573 -12.998  0.00  0.00    +0.096 C 
ATOM      8  C   UNL     1      37.942 -25.421 -15.317  0.00  0.00    +0.096 C 
ATOM      9  C   UNL     1      37.036 -23.121 -14.717  0.00  0.00    +0.244 C 
BRANCH   4  10
ATOM     10  O   UNL     1      41.277 -26.339 -13.855  0.00  0.00    -0.384 OA
ATOM     11  H   UNL     1      41.626 -26.234 -12.955  0.00  0.00    +0.210 HD
ENDBRANCH   4  10
ENDBRANCH   1   9
BRANCH   1  13
ATOM     12  O   UNL     1      34.898 -25.176 -15.862  0.00  0.00    -0.269 OA
ATOM     13  N   UNL     1      35.181 -22.905 -16.079  0.00  0.00    -0.294 N 
ATOM     14  C   UNL     1      34.394 -24.054 -15.933  0.00  0.00    +0.260 C 
ATOM     15  H   UNL     1      34.733 -22.030 -16.131  0.00  0.00    +0.150 HD
BRANCH  14  18
ATOM     16 CL   UNL     1      26.961 -22.201 -16.240  0.00  0.00    -0.082 Cl
ATOM     17  N   UNL     1      32.173 -24.508 -14.960  0.00  0.00    -0.309 N 
ATOM     18  C   UNL     1      32.944 -23.837 -15.838  0.00  0.00    +0.102 C 
ATOM     19  C   UNL     1      32.200 -22.983 -16.574  0.00  0.00    +0.020 C 
ATOM     20  C   UNL     1      30.858 -23.130 -16.122  0.00  0.00    +0.016 C 
ATOM     21  C   UNL     1      30.869 -24.092 -15.110  0.00  0.00    +0.048 C 
ATOM     22  C   UNL     1      29.631 -22.534 -16.478  0.00  0.00    +0.013 C 
ATOM     23  C   UNL     1      29.711 -24.490 -14.433  0.00  0.00    +0.015 C 
ATOM     24  C   UNL     1      28.464 -22.923 -15.811  0.00  0.00    +0.058 C 
ATOM     25  C   UNL     1      28.506 -23.885 -14.805  0.00  0.00    +0.013 C 
ATOM     26  H   UNL     1      32.489 -25.183 -14.318  0.00  0.00    +0.152 HD
ENDBRANCH  14  18
ENDBRANCH   1  13
BRANCH   1  27
ATOM     27  C   UNL     1      37.228 -21.694 -16.743  0.00  0.00    +0.055 C 
BRANCH  27  29
ATOM     28  F   UNL     1      34.942 -20.329 -21.694  0.00  0.00    -0.204 F 
ATOM     29  C   UNL     1      36.615 -21.328 -18.072  0.00  0.00    -0.020 C 
ATOM     30  C   UNL     1      37.229 -20.370 -18.864  0.00  0.00    -0.002 C 
ATOM     31  C   UNL     1      35.446 -21.955 -18.478  0.00  0.00    -0.002 C 
ATOM     32  C   UNL     1      36.661 -20.030 -20.092  0.00  0.00    +0.029 C 
ATOM     33  C   UNL     1      34.879 -21.616 -19.706  0.00  0.00    +0.029 C 
ATOM     34  C   UNL     1      35.486 -20.653 -20.513  0.00  0.00    +0.140 C 
ENDBRANCH  27  29
ENDBRANCH   1  27
TORSDOF 6
ENDMDL
MODEL 5
REMARK VINA RESULT:      -9.0     11.668     15.782
REMARK  Name = 444746
REMARK  6 active torsions:
REMARK  status: ('A' for Active; 'I' for Inactive)
REMARK    1  A    between atoms: C_1  and  C_9
REMARK    2  A    between atoms: C_1  and  N_13
REMARK    3  A    between atoms: C_1  and  C_27
REMARK    4  A    between atoms: C_4  and  O_10
REMARK    5  A    between atoms: C_14  and  C_18
REMARK    6  A    between atoms: C_27  and  C_29
REMARK                            x       y       z     vdW  Elec       q    Type
REMARK                         _______ _______ _______ _____ _____    ______ ____
ROOT
ATOM      1  C   UNL     1      33.342  -7.749 -23.227  0.00  0.00    +0.153 C 
ENDROOT
BRANCH   1   9
ATOM      2  O   UNL     1      33.704  -6.891 -21.048  0.00  0.00    -0.273 OA
ATOM      3  N   UNL     1      32.199  -8.651 -21.231  0.00  0.00    -0.278 N 
ATOM      4  C   UNL     1      31.327 -11.106 -19.974  0.00  0.00    +0.114 C 
ATOM      5  C   UNL     1      32.096 -10.036 -19.196  0.00  0.00    +0.051 C 
ATOM      6  C   UNL     1      31.678 -11.049 -21.461  0.00  0.00    +0.051 C 
ATOM      7  C   UNL     1      31.879  -8.653 -19.801  0.00  0.00    +0.096 C 
ATOM      8  C   UNL     1      31.470  -9.647 -22.027  0.00  0.00    +0.096 C 
ATOM      9  C   UNL     1      33.103  -7.718 -21.738  0.00  0.00    +0.244 C 
BRANCH   4  10
ATOM     10  O   UNL     1      31.657 -12.395 -19.475  0.00  0.00    -0.384 OA
ATOM     11  H   UNL     1      31.973 -12.954 -20.204  0.00  0.00    +0.210 HD
ENDBRANCH   4  10
ENDBRANCH   1   9
BRANCH   1  13
ATOM     12  O   UNL     1      35.281  -9.226 -24.646  0.00  0.00    -0.269 OA
ATOM     13  N   UNL     1      33.262  -9.143 -23.551  0.00  0.00    -0.294 N 
ATOM     14  C   UNL     1      34.267  -9.810 -24.260  0.00  0.00    +0.260 C 
ATOM     15  H   UNL     1      32.470  -9.652 -23.263  0.00  0.00    +0.150 HD
BRANCH  14  18
ATOM     16 CL   UNL     1      32.836 -17.019 -26.445  0.00  0.00    -0.082 Cl
ATOM     17  N   UNL     1      34.313 -12.169 -23.542  0.00  0.00    -0.309 N 
ATOM     18  C   UNL     1      34.055 -11.246 -24.487  0.00  0.00    +0.102 C 
ATOM     19  C   UNL     1      33.597 -11.832 -25.615  0.00  0.00    +0.020 C 
ATOM     20  C   UNL     1      33.565 -13.231 -25.356  0.00  0.00    +0.016 C 
ATOM     21  C   UNL     1      34.019 -13.416 -24.048  0.00  0.00    +0.048 C 
ATOM     22  C   UNL     1      33.193 -14.361 -26.110  0.00  0.00    +0.013 C 
ATOM     23  C   UNL     1      34.119 -14.679 -23.454  0.00  0.00    +0.015 C 
ATOM     24  C   UNL     1      33.289 -15.632 -25.530  0.00  0.00    +0.058 C 
ATOM     25  C   UNL     1      33.744 -15.785 -24.223  0.00  0.00    +0.013 C 
ATOM     26  H   UNL     1      34.654 -11.984 -22.637  0.00  0.00    +0.152 HD
ENDBRANCH  14  18
ENDBRANCH   1  13
BRANCH   1  27
ATOM     27  C   UNL     1      32.299  -6.903 -23.945  0.00  0.00    +0.055 C 
BRANCH  27  29
ATOM     28  F   UNL     1      34.574  -3.696 -27.962  0.00  0.00    -0.204 F 
ATOM     29  C   UNL     1      32.910  -6.042 -25.023  0.00  0.00    -0.020 C 
ATOM     30  C   UNL     1      34.229  -6.249 -25.394  0.00  0.00    -0.002 C 
ATOM     31  C   UNL     1      32.140  -5.058 -25.625  0.00  0.00    -0.002 C 
ATOM     32  C   UNL     1      34.794  -5.453 -26.389  0.00  0.00    +0.029 C 
ATOM     33  C   UNL     1      32.704  -4.262 -26.622  0.00  0.00    +0.029 C 
ATOM     34  C   UNL     1      34.032  -4.459 -27.004  0.00  0.00    +0.140 C 
ENDBRANCH  27  29
ENDBRANCH   1  27
TORSDOF 6
ENDMDL
MODEL 6
REMARK VINA RESULT:      -9.0      4.840      9.998
REMARK  Name = 444746
REMARK  6 active torsions:
REMARK  status: ('A' for Active; 'I' for Inactive)
REMARK    1  A    between atoms: C_1  and  C_9
REMARK    2  A    between atoms: C_1  and  N_13
REMARK    3  A    between atoms: C_1  and  C_27
REMARK    4  A    between atoms: C_4  and  O_10
REMARK    5  A    between atoms: C_14  and  C_18
REMARK    6  A    between atoms: C_27  and  C_29
REMARK                            x       y       z     vdW  Elec       q    Type
REMARK                         _______ _______ _______ _____ _____    ______ ____
ROOT
ATOM      1  C   UNL     1      35.144 -18.795 -21.024  0.00  0.00    +0.153 C 
ENDROOT
BRANCH   1   9
ATOM      2  O   UNL     1      32.782 -18.957 -21.118  0.00  0.00    -0.273 OA
ATOM      3  N   UNL     1      33.660 -16.844 -20.721  0.00  0.00    -0.278 N 
ATOM      4  C   UNL     1      33.360 -14.041 -21.370  0.00  0.00    +0.114 C 
ATOM      5  C   UNL     1      32.211 -15.034 -21.556  0.00  0.00    +0.051 C 
ATOM      6  C   UNL     1      34.710 -14.748 -21.484  0.00  0.00    +0.051 C 
ATOM      7  C   UNL     1      32.343 -16.214 -20.597  0.00  0.00    +0.096 C 
ATOM      8  C   UNL     1      34.798 -15.934 -20.529  0.00  0.00    +0.096 C 
ATOM      9  C   UNL     1      33.753 -18.214 -20.959  0.00  0.00    +0.244 C 
BRANCH   4  10
ATOM     10  O   UNL     1      33.287 -13.028 -22.365  0.00  0.00    -0.384 OA
ATOM     11  H   UNL     1      32.856 -13.385 -23.158  0.00  0.00    +0.210 HD
ENDBRANCH   4  10
ENDBRANCH   1   9
BRANCH   1  13
ATOM     12  O   UNL     1      37.371 -20.318 -20.205  0.00  0.00    -0.269 OA
ATOM     13  N   UNL     1      35.157 -19.755 -19.960  0.00  0.00    -0.294 N 
ATOM     14  C   UNL     1      36.304 -20.475 -19.609  0.00  0.00    +0.260 C 
ATOM     15  H   UNL     1      34.327 -19.915 -19.455  0.00  0.00    +0.150 HD
BRANCH  14  18
ATOM     16 CL   UNL     1      36.633 -25.057 -13.471  0.00  0.00    -0.082 Cl
ATOM     17  N   UNL     1      35.017 -22.045 -18.209  0.00  0.00    -0.309 N 
ATOM     18  C   UNL     1      36.168 -21.399 -18.476  0.00  0.00    +0.102 C 
ATOM     19  C   UNL     1      37.120 -21.725 -17.574  0.00  0.00    +0.020 C 
ATOM     20  C   UNL     1      36.518 -22.648 -16.672  0.00  0.00    +0.016 C 
ATOM     21  C   UNL     1      35.199 -22.831 -17.093  0.00  0.00    +0.048 C 
ATOM     22  C   UNL     1      36.971 -23.347 -15.535  0.00  0.00    +0.013 C 
ATOM     23  C   UNL     1      34.306 -23.681 -16.431  0.00  0.00    +0.015 C 
ATOM     24  C   UNL     1      36.089 -24.200 -14.862  0.00  0.00    +0.058 C 
ATOM     25  C   UNL     1      34.778 -24.363 -15.306  0.00  0.00    +0.013 C 
ATOM     26  H   UNL     1      34.183 -21.969 -18.726  0.00  0.00    +0.152 HD
ENDBRANCH  14  18
ENDBRANCH   1  13
BRANCH   1  27
ATOM     27  C   UNL     1      35.392 -19.412 -22.395  0.00  0.00    +0.055 C 
BRANCH  27  29
ATOM     28  F   UNL     1      33.713 -16.044 -26.569  0.00  0.00    -0.204 F 
ATOM     29  C   UNL     1      34.942 -18.508 -23.515  0.00  0.00    -0.020 C 
ATOM     30  C   UNL     1      35.408 -17.205 -23.566  0.00  0.00    -0.002 C 
ATOM     31  C   UNL     1      34.067 -18.998 -24.474  0.00  0.00    -0.002 C 
ATOM     32  C   UNL     1      34.991 -16.368 -24.601  0.00  0.00    +0.029 C 
ATOM     33  C   UNL     1      33.650 -18.161 -25.510  0.00  0.00    +0.029 C 
ATOM     34  C   UNL     1      34.112 -16.846 -25.573  0.00  0.00    +0.140 C 
ENDBRANCH  27  29
ENDBRANCH   1  27
TORSDOF 6
ENDMDL
MODEL 7
REMARK VINA RESULT:      -8.9      1.498      2.192
REMARK  Name = 444746
REMARK  6 active torsions:
REMARK  status: ('A' for Active; 'I' for Inactive)
REMARK    1  A    between atoms: C_1  and  C_9
REMARK    2  A    between atoms: C_1  and  N_13
REMARK    3  A    between atoms: C_1  and  C_27
REMARK    4  A    between atoms: C_4  and  O_10
REMARK    5  A    between atoms: C_14  and  C_18
REMARK    6  A    between atoms: C_27  and  C_29
REMARK                            x       y       z     vdW  Elec       q    Type
REMARK                         _______ _______ _______ _____ _____    ______ ____
ROOT
ATOM      1  C   UNL     1      33.997 -23.997 -15.051  0.00  0.00    +0.153 C 
ENDROOT
BRANCH   1   9
ATOM      2  O   UNL     1      35.206 -25.802 -15.998  0.00  0.00    -0.273 OA
ATOM      3  N   UNL     1      36.337 -24.503 -14.440  0.00  0.00    -0.278 N 
ATOM      4  C   UNL     1      38.172 -24.621 -12.207  0.00  0.00    +0.114 C 
ATOM      5  C   UNL     1      38.065 -25.764 -13.218  0.00  0.00    +0.051 C 
ATOM      6  C   UNL     1      36.854 -23.852 -12.120  0.00  0.00    +0.051 C 
ATOM      7  C   UNL     1      37.586 -25.257 -14.574  0.00  0.00    +0.096 C 
ATOM      8  C   UNL     1      36.395 -23.379 -13.495  0.00  0.00    +0.096 C 
ATOM      9  C   UNL     1      35.230 -24.852 -15.212  0.00  0.00    +0.244 C 
BRANCH   4  10
ATOM     10  O   UNL     1      38.486 -25.141 -10.922  0.00  0.00    -0.384 OA
ATOM     11  H   UNL     1      38.249 -26.082 -10.887  0.00  0.00    +0.210 HD
ENDBRANCH   4  10
ENDBRANCH   1   9
BRANCH   1  13
ATOM     12  O   UNL     1      36.242 -22.930 -16.382  0.00  0.00    -0.269 OA
ATOM     13  N   UNL     1      33.966 -23.223 -16.258  0.00  0.00    -0.294 N 
ATOM     14  C   UNL     1      35.126 -22.726 -16.862  0.00  0.00    +0.260 C 
ATOM     15  H   UNL     1      33.096 -23.034 -16.678  0.00  0.00    +0.150 HD
BRANCH  14  18
ATOM     16 CL   UNL     1      35.213 -18.807 -23.452  0.00  0.00    -0.082 Cl
ATOM     17  N   UNL     1      33.711 -21.678 -18.590  0.00  0.00    -0.309 N 
ATOM     18  C   UNL     1      34.934 -21.978 -18.112  0.00  0.00    +0.102 C 
ATOM     19  C   UNL     1      35.898 -21.503 -18.931  0.00  0.00    +0.020 C 
ATOM     20  C   UNL     1      35.227 -20.855 -20.006  0.00  0.00    +0.016 C 
ATOM     21  C   UNL     1      33.856 -20.979 -19.768  0.00  0.00    +0.048 C 
ATOM     22  C   UNL     1      35.655 -20.173 -21.163  0.00  0.00    +0.013 C 
ATOM     23  C   UNL     1      32.888 -20.452 -20.631  0.00  0.00    +0.015 C 
ATOM     24  C   UNL     1      34.699 -19.642 -22.036  0.00  0.00    +0.058 C 
ATOM     25  C   UNL     1      33.338 -19.781 -21.772  0.00  0.00    +0.013 C 
ATOM     26  H   UNL     1      32.855 -21.917 -18.168  0.00  0.00    +0.152 HD
ENDBRANCH  14  18
ENDBRANCH   1  13
BRANCH   1  27
ATOM     27  C   UNL     1      32.767 -24.877 -14.867  0.00  0.00    +0.055 C 
BRANCH  27  29
ATOM     28  F   UNL     1      27.985 -22.011 -15.580  0.00  0.00    -0.204 F 
ATOM     29  C   UNL     1      31.484 -24.107 -15.059  0.00  0.00    -0.020 C 
ATOM     30  C   UNL     1      31.280 -22.937 -14.345  0.00  0.00    -0.002 C 
ATOM     31  C   UNL     1      30.531 -24.585 -15.945  0.00  0.00    -0.002 C 
ATOM     32  C   UNL     1      30.093 -22.226 -14.521  0.00  0.00    +0.029 C 
ATOM     33  C   UNL     1      29.343 -23.874 -16.122  0.00  0.00    +0.029 C 
ATOM     34  C   UNL     1      29.124 -22.695 -15.409  0.00  0.00    +0.140 C 
ENDBRANCH  27  29
ENDBRANCH   1  27
TORSDOF 6
ENDMDL
MODEL 8
REMARK VINA RESULT:      -8.9      7.539     12.762
REMARK  Name = 444746
REMARK  6 active torsions:
REMARK  status: ('A' for Active; 'I' for Inactive)
REMARK    1  A    between atoms: C_1  and  C_9
REMARK    2  A    between atoms: C_1  and  N_13
REMARK    3  A    between atoms: C_1  and  C_27
REMARK    4  A    between atoms: C_4  and  O_10
REMARK    5  A    between atoms: C_14  and  C_18
REMARK    6  A    between atoms: C_27  and  C_29
REMARK                            x       y       z     vdW  Elec       q    Type
REMARK                         _______ _______ _______ _____ _____    ______ ____
ROOT
ATOM      1  C   UNL     1      33.236 -14.037 -22.873  0.00  0.00    +0.153 C 
ENDROOT
BRANCH   1   9
ATOM      2  O   UNL     1      31.511 -14.094 -21.249  0.00  0.00    -0.273 OA
ATOM      3  N   UNL     1      32.344 -11.997 -21.800  0.00  0.00    -0.278 N 
ATOM      4  C   UNL     1      31.584  -9.254 -22.316  0.00  0.00    +0.114 C 
ATOM      5  C   UNL     1      30.675 -10.205 -21.535  0.00  0.00    +0.051 C 
ATOM      6  C   UNL     1      32.476 -10.033 -23.283  0.00  0.00    +0.051 C 
ATOM      7  C   UNL     1      31.484 -11.297 -20.843  0.00  0.00    +0.096 C 
ATOM      8  C   UNL     1      33.253 -11.129 -22.561  0.00  0.00    +0.096 C 
ATOM      9  C   UNL     1      32.284 -13.387 -21.899  0.00  0.00    +0.244 C 
BRANCH   4  10
ATOM     10  O   UNL     1      30.795  -8.334 -23.060  0.00  0.00    -0.384 OA
ATOM     11  H   UNL     1      30.333  -7.738 -22.449  0.00  0.00    +0.210 HD
ENDBRANCH   4  10
ENDBRANCH   1   9
BRANCH   1  13
ATOM     12  O   UNL     1      35.440 -15.702 -23.435  0.00  0.00    -0.269 OA
ATOM     13  N   UNL     1      33.483 -15.324 -22.292  0.00  0.00    -0.294 N 
ATOM     14  C   UNL     1      34.603 -16.095 -22.621  0.00  0.00    +0.260 C 
ATOM     15  H   UNL     1      32.841 -15.679 -21.636  0.00  0.00    +0.150 HD
BRANCH  14  18
ATOM     16 CL   UNL     1      34.201 -22.810 -18.942  0.00  0.00    -0.082 Cl
ATOM     17  N   UNL     1      35.934 -17.919 -21.628  0.00  0.00    -0.309 N 
ATOM     18  C   UNL     1      34.735 -17.378 -21.918  0.00  0.00    +0.102 C 
ATOM     19  C   UNL     1      33.733 -18.170 -21.478  0.00  0.00    +0.020 C 
ATOM     20  C   UNL     1      34.352 -19.296 -20.865  0.00  0.00    +0.016 C 
ATOM     21  C   UNL     1      35.733 -19.114 -20.973  0.00  0.00    +0.048 C 
ATOM     22  C   UNL     1      33.870 -20.456 -20.227  0.00  0.00    +0.013 C 
ATOM     23  C   UNL     1      36.658 -20.036 -20.473  0.00  0.00    +0.015 C 
ATOM     24  C   UNL     1      34.783 -21.389 -19.723  0.00  0.00    +0.058 C 
ATOM     25  C   UNL     1      36.155 -21.180 -19.845  0.00  0.00    +0.013 C 
ATOM     26  H   UNL     1      36.809 -17.527 -21.848  0.00  0.00    +0.152 HD
ENDBRANCH  14  18
ENDBRANCH   1  13
BRANCH   1  27
ATOM     27  C   UNL     1      32.602 -14.112 -24.256  0.00  0.00    +0.055 C 
BRANCH  27  29
ATOM     28  F   UNL     1      35.504 -11.183 -28.076  0.00  0.00    -0.204 F 
ATOM     29  C   UNL     1      33.380 -13.326 -25.281  0.00  0.00    -0.020 C 
ATOM     30  C   UNL     1      33.382 -13.745 -26.602  0.00  0.00    -0.002 C 
ATOM     31  C   UNL     1      34.082 -12.197 -24.884  0.00  0.00    -0.002 C 
ATOM     32  C   UNL     1      34.103 -13.019 -27.550  0.00  0.00    +0.029 C 
ATOM     33  C   UNL     1      34.802 -11.470 -25.832  0.00  0.00    +0.029 C 
ATOM     34  C   UNL     1      34.813 -11.882 -27.165  0.00  0.00    +0.140 C 
ENDBRANCH  27  29
ENDBRANCH   1  27
TORSDOF 6
ENDMDL
MODEL 9
REMARK VINA RESULT:      -8.9      9.311     13.824
REMARK  Name = 444746
REMARK  6 active torsions:
REMARK  status: ('A' for Active; 'I' for Inactive)
REMARK    1  A    between atoms: C_1  and  C_9
REMARK    2  A    between atoms: C_1  and  N_13
REMARK    3  A    between atoms: C_1  and  C_27
REMARK    4  A    between atoms: C_4  and  O_10
REMARK    5  A    between atoms: C_14  and  C_18
REMARK    6  A    between atoms: C_27  and  C_29
REMARK                            x       y       z     vdW  Elec       q    Type
REMARK                         _______ _______ _______ _____ _____    ______ ____
ROOT
ATOM      1  C   UNL     1      32.274 -11.103 -23.878  0.00  0.00    +0.153 C 
ENDROOT
BRANCH   1   9
ATOM      2  O   UNL     1      34.471 -10.527 -23.203  0.00  0.00    -0.273 OA
ATOM      3  N   UNL     1      33.093  -8.772 -23.848  0.00  0.00    -0.278 N 
ATOM      4  C   UNL     1      32.328  -6.058 -23.205  0.00  0.00    +0.114 C 
ATOM      5  C   UNL     1      33.651  -6.654 -22.721  0.00  0.00    +0.051 C 
ATOM      6  C   UNL     1      31.284  -7.156 -23.411  0.00  0.00    +0.051 C 
ATOM      7  C   UNL     1      34.133  -7.758 -23.657  0.00  0.00    +0.096 C 
ATOM      8  C   UNL     1      31.807  -8.253 -24.334  0.00  0.00    +0.096 C 
ATOM      9  C   UNL     1      33.382 -10.115 -23.611  0.00  0.00    +0.244 C 
BRANCH   4  10
ATOM     10  O   UNL     1      31.836  -5.132 -22.245  0.00  0.00    -0.384 OA
ATOM     11  H   UNL     1      31.967  -4.227 -22.570  0.00  0.00    +0.210 HD
ENDBRANCH   4  10
ENDBRANCH   1   9
BRANCH   1  13
ATOM     12  O   UNL     1      33.059 -13.141 -25.661  0.00  0.00    -0.269 OA
ATOM     13  N   UNL     1      32.851 -12.362 -23.508  0.00  0.00    -0.294 N 
ATOM     14  C   UNL     1      33.216 -13.328 -24.453  0.00  0.00    +0.260 C 
ATOM     15  H   UNL     1      32.995 -12.557 -22.554  0.00  0.00    +0.150 HD
BRANCH  14  18
ATOM     16 CL   UNL     1      36.442 -19.203 -20.730  0.00  0.00    -0.082 Cl
ATOM     17  N   UNL     1      34.028 -15.645 -24.685  0.00  0.00    -0.309 N 
ATOM     18  C   UNL     1      33.825 -14.555 -23.922  0.00  0.00    +0.102 C 
ATOM     19  C   UNL     1      34.249 -14.770 -22.658  0.00  0.00    +0.020 C 
ATOM     20  C   UNL     1      34.759 -16.099 -22.627  0.00  0.00    +0.016 C 
ATOM     21  C   UNL     1      34.608 -16.626 -23.911  0.00  0.00    +0.048 C 
ATOM     22  C   UNL     1      35.335 -16.907 -21.626  0.00  0.00    +0.013 C 
ATOM     23  C   UNL     1      35.006 -17.924 -24.247  0.00  0.00    +0.015 C 
ATOM     24  C   UNL     1      35.737 -18.209 -21.947  0.00  0.00    +0.058 C 
ATOM     25  C   UNL     1      35.574 -18.706 -23.237  0.00  0.00    +0.013 C 
ATOM     26  H   UNL     1      33.800 -15.729 -25.640  0.00  0.00    +0.152 HD
ENDBRANCH  14  18
ENDBRANCH   1  13
BRANCH   1  27
ATOM     27  C   UNL     1      31.041 -10.742 -23.060  0.00  0.00    +0.055 C 
BRANCH  27  29
ATOM     28  F   UNL     1      32.120 -10.612 -17.545  0.00  0.00    -0.204 F 
ATOM     29  C   UNL     1      31.331 -10.707 -21.580  0.00  0.00    -0.020 C 
ATOM     30  C   UNL     1      31.378 -11.895 -20.868  0.00  0.00    -0.002 C 
ATOM     31  C   UNL     1      31.544  -9.486 -20.957  0.00  0.00    -0.002 C 
ATOM     32  C   UNL     1      31.644 -11.863 -19.499  0.00  0.00    +0.029 C 
ATOM     33  C   UNL     1      31.812  -9.454 -19.588  0.00  0.00    +0.029 C 
ATOM     34  C   UNL     1      31.861 -10.642 -18.859  0.00  0.00    +0.140 C 
ENDBRANCH  27  29
ENDBRANCH   1  27
TORSDOF 6
ENDMDL
