MODEL 1
REMARK VINA RESULT:     -10.7      0.000      0.000
REMARK  Name = 44112
REMARK  9 active torsions:
REMARK  status: ('A' for Active; 'I' for Inactive)
REMARK    1  A    between atoms: C_1  and  O_2
REMARK    2  A    between atoms: C_1  and  C_11
REMARK    3  A    between atoms: C_1  and  C_19
REMARK    4  A    between atoms: O_2  and  C_4
REMARK    5  A    between atoms: C_4  and  C_5
REMARK    6  A    between atoms: C_11  and  N_12
REMARK    7  A    between atoms: N_12  and  C_15
REMARK    8  A    between atoms: C_19  and  O_20
REMARK    9  A    between atoms: O_20  and  C_23
REMARK                            x       y       z     vdW  Elec       q    Type
REMARK                         _______ _______ _______ _____ _____    ______ ____
ROOT
ATOM      1  C   UNL     1      33.143 -23.390 -17.002  0.00  0.00    +0.192 C 
ENDROOT
BRANCH   1   2
ATOM      2  O   UNL     1      33.014 -22.442 -18.065  0.00  0.00    -0.448 OA
BRANCH   2   4
ATOM      3  O   UNL     1      34.093 -23.789 -19.587  0.00  0.00    -0.245 OA
ATOM      4  C   UNL     1      33.764 -22.691 -19.170  0.00  0.00    +0.341 C 
BRANCH   4   5
ATOM      5  C   UNL     1      34.150 -21.418 -19.831  0.00  0.00    +0.076 C 
ATOM      6  C   UNL     1      35.489 -21.138 -20.009  0.00  0.00    +0.006 C 
ATOM      7  C   UNL     1      33.157 -20.555 -20.248  0.00  0.00    +0.006 C 
ATOM      8  C   UNL     1      35.852 -19.944 -20.629  0.00  0.00    +0.000 C 
ATOM      9  C   UNL     1      33.519 -19.361 -20.870  0.00  0.00    +0.000 C 
ATOM     10  C   UNL     1      34.867 -19.054 -21.060  0.00  0.00    +0.000 C 
ENDBRANCH   4   5
ENDBRANCH   2   4
ENDBRANCH   1   2
BRANCH   1  11
ATOM     11  C   UNL     1      31.920 -23.256 -16.091  0.00  0.00    -0.033 C 
BRANCH  11  12
ATOM     12  N   UNL     1      30.728 -22.862 -16.829  0.00  0.00    +0.389 N 
ATOM     13  H   UNL     1      30.688 -21.844 -16.880  0.00  0.00    -0.084 HD
ATOM     14  H   UNL     1      30.778 -23.263 -17.766  0.00  0.00    -0.084 HD
BRANCH  12  15
ATOM     15  C   UNL     1      29.524 -23.354 -16.176  0.00  0.00    -0.046 C 
ATOM     16  C   UNL     1      28.355 -23.316 -17.168  0.00  0.00    -0.022 C 
ATOM     17  C   UNL     1      29.221 -22.459 -14.971  0.00  0.00    -0.022 C 
ATOM     18  C   UNL     1      29.774 -24.794 -15.712  0.00  0.00    -0.022 C 
ENDBRANCH  12  15
ENDBRANCH  11  12
ENDBRANCH   1  11
BRANCH   1  19
ATOM     19  C   UNL     1      34.465 -23.136 -16.280  0.00  0.00    +0.246 C 
BRANCH  19  20
ATOM     20  O   UNL     1      35.006 -24.383 -15.860  0.00  0.00    -0.472 OA
BRANCH  20  23
ATOM     21  N   UNL     1      38.421 -25.266 -12.827  0.00  0.00    -0.316 N 
ATOM     22  C   UNL     1      36.737 -24.829 -14.223  0.00  0.00    +0.048 C 
ATOM     23  C   UNL     1      35.415 -24.471 -14.556  0.00  0.00    +0.140 C 
ATOM     24  C   UNL     1      37.094 -24.901 -12.875  0.00  0.00    +0.051 C 
ATOM     25  C   UNL     1      37.895 -25.162 -14.981  0.00  0.00    +0.014 C 
ATOM     26  C   UNL     1      38.913 -25.426 -14.094  0.00  0.00    +0.026 C 
ATOM     27  C   UNL     1      34.502 -24.201 -13.530  0.00  0.00    +0.037 C 
ATOM     28  C   UNL     1      36.193 -24.633 -11.839  0.00  0.00    +0.015 C 
ATOM     29  C   UNL     1      34.887 -24.281 -12.194  0.00  0.00    +0.004 C 
ATOM     30  C   UNL     1      40.316 -25.814 -14.329  0.00  0.00    +0.047 C 
ATOM     31  H   UNL     1      38.941 -25.393 -12.000  0.00  0.00    +0.152 HD
ENDBRANCH  20  23
ENDBRANCH  19  20
ENDBRANCH   1  19
TORSDOF 9
ENDMDL
MODEL 2
REMARK VINA RESULT:     -10.1      1.530      5.959
REMARK  Name = 44112
REMARK  9 active torsions:
REMARK  status: ('A' for Active; 'I' for Inactive)
REMARK    1  A    between atoms: C_1  and  O_2
REMARK    2  A    between atoms: C_1  and  C_11
REMARK    3  A    between atoms: C_1  and  C_19
REMARK    4  A    between atoms: O_2  and  C_4
REMARK    5  A    between atoms: C_4  and  C_5
REMARK    6  A    between atoms: C_11  and  N_12
REMARK    7  A    between atoms: N_12  and  C_15
REMARK    8  A    between atoms: C_19  and  O_20
REMARK    9  A    between atoms: O_20  and  C_23
REMARK                            x       y       z     vdW  Elec       q    Type
REMARK                         _______ _______ _______ _____ _____    ______ ____
ROOT
ATOM      1  C   UNL     1      35.244 -22.455 -16.894  0.00  0.00    +0.192 C 
ENDROOT
BRANCH   1   2
ATOM      2  O   UNL     1      35.627 -22.534 -18.271  0.00  0.00    -0.448 OA
BRANCH   2   4
ATOM      3  O   UNL     1      33.948 -23.632 -19.399  0.00  0.00    -0.245 OA
ATOM      4  C   UNL     1      34.607 -22.632 -19.161  0.00  0.00    +0.341 C 
BRANCH   4   5
ATOM      5  C   UNL     1      34.382 -21.330 -19.837  0.00  0.00    +0.076 C 
ATOM      6  C   UNL     1      33.092 -20.857 -19.964  0.00  0.00    +0.006 C 
ATOM      7  C   UNL     1      35.472 -20.630 -20.315  0.00  0.00    +0.006 C 
ATOM      8  C   UNL     1      32.881 -19.634 -20.599  0.00  0.00    +0.000 C 
ATOM      9  C   UNL     1      35.261 -19.405 -20.949  0.00  0.00    +0.000 C 
ATOM     10  C   UNL     1      33.966 -18.907 -21.091  0.00  0.00    +0.000 C 
ENDBRANCH   4   5
ENDBRANCH   2   4
ENDBRANCH   1   2
BRANCH   1  11
ATOM     11  C   UNL     1      36.437 -22.890 -16.040  0.00  0.00    -0.033 C 
BRANCH  11  12
ATOM     12  N   UNL     1      36.028 -23.330 -14.713  0.00  0.00    +0.389 N 
ATOM     13  H   UNL     1      36.238 -22.595 -14.037  0.00  0.00    -0.084 HD
ATOM     14  H   UNL     1      35.027 -23.524 -14.728  0.00  0.00    -0.084 HD
BRANCH  12  15
ATOM     15  C   UNL     1      36.732 -24.545 -14.328  0.00  0.00    -0.046 C 
ATOM     16  C   UNL     1      38.208 -24.426 -14.726  0.00  0.00    -0.022 C 
ATOM     17  C   UNL     1      36.086 -25.733 -15.048  0.00  0.00    -0.022 C 
ATOM     18  C   UNL     1      36.610 -24.720 -12.810  0.00  0.00    -0.022 C 
ENDBRANCH  12  15
ENDBRANCH  11  12
ENDBRANCH   1  11
BRANCH   1  19
ATOM     19  C   UNL     1      34.002 -23.319 -16.685  0.00  0.00    +0.246 C 
BRANCH  19  20
ATOM     20  O   UNL     1      33.184 -22.714 -15.690  0.00  0.00    -0.472 OA
BRANCH  20  23
ATOM     21  N   UNL     1      28.720 -24.008 -15.481  0.00  0.00    -0.316 N 
ATOM     22  C   UNL     1      30.877 -23.436 -15.526  0.00  0.00    +0.048 C 
ATOM     23  C   UNL     1      32.223 -23.503 -15.117  0.00  0.00    +0.140 C 
ATOM     24  C   UNL     1      29.942 -24.267 -14.903  0.00  0.00    +0.051 C 
ATOM     25  C   UNL     1      30.172 -22.671 -16.497  0.00  0.00    +0.014 C 
ATOM     26  C   UNL     1      28.849 -23.044 -16.445  0.00  0.00    +0.026 C 
ATOM     27  C   UNL     1      32.584 -24.395 -14.100  0.00  0.00    +0.037 C 
ATOM     28  C   UNL     1      30.288 -25.164 -13.886  0.00  0.00    +0.015 C 
ATOM     29  C   UNL     1      31.630 -25.212 -13.497  0.00  0.00    +0.004 C 
ATOM     30  C   UNL     1      27.687 -22.579 -17.224  0.00  0.00    +0.047 C 
ATOM     31  H   UNL     1      27.876 -24.450 -15.236  0.00  0.00    +0.152 HD
ENDBRANCH  20  23
ENDBRANCH  19  20
ENDBRANCH   1  19
TORSDOF 9
ENDMDL
MODEL 3
REMARK VINA RESULT:      -9.7     10.336     14.712
REMARK  Name = 44112
REMARK  9 active torsions:
REMARK  status: ('A' for Active; 'I' for Inactive)
REMARK    1  A    between atoms: C_1  and  O_2
REMARK    2  A    between atoms: C_1  and  C_11
REMARK    3  A    between atoms: C_1  and  C_19
REMARK    4  A    between atoms: O_2  and  C_4
REMARK    5  A    between atoms: C_4  and  C_5
REMARK    6  A    between atoms: C_11  and  N_12
REMARK    7  A    between atoms: N_12  and  C_15
REMARK    8  A    between atoms: C_19  and  O_20
REMARK    9  A    between atoms: O_20  and  C_23
REMARK                            x       y       z     vdW  Elec       q    Type
REMARK                         _______ _______ _______ _____ _____    ______ ____
ROOT
ATOM      1  C   UNL     1      32.846  -9.665 -23.651  0.00  0.00    +0.192 C 
ENDROOT
BRANCH   1   2
ATOM      2  O   UNL     1      33.741  -8.800 -22.945  0.00  0.00    -0.448 OA
BRANCH   2   4
ATOM      3  O   UNL     1      32.862  -7.130 -21.628  0.00  0.00    -0.245 OA
ATOM      4  C   UNL     1      33.278  -7.548 -22.697  0.00  0.00    +0.341 C 
BRANCH   4   5
ATOM      5  C   UNL     1      33.339  -6.720 -23.928  0.00  0.00    +0.076 C 
ATOM      6  C   UNL     1      34.488  -6.744 -24.692  0.00  0.00    +0.006 C 
ATOM      7  C   UNL     1      32.243  -5.954 -24.272  0.00  0.00    +0.006 C 
ATOM      8  C   UNL     1      34.545  -5.967 -25.848  0.00  0.00    +0.000 C 
ATOM      9  C   UNL     1      32.300  -5.177 -25.428  0.00  0.00    +0.000 C 
ATOM     10  C   UNL     1      33.451  -5.183 -26.217  0.00  0.00    +0.000 C 
ENDBRANCH   4   5
ENDBRANCH   2   4
ENDBRANCH   1   2
BRANCH   1  11
ATOM     11  C   UNL     1      31.799 -10.180 -22.660  0.00  0.00    -0.033 C 
BRANCH  11  12
ATOM     12  N   UNL     1      32.342 -10.327 -21.317  0.00  0.00    +0.389 N 
ATOM     13  H   UNL     1      33.279 -10.727 -21.377  0.00  0.00    -0.084 HD
ATOM     14  H   UNL     1      32.375  -9.407 -20.876  0.00  0.00    -0.084 HD
BRANCH  12  15
ATOM     15  C   UNL     1      31.503 -11.201 -20.508  0.00  0.00    -0.046 C 
ATOM     16  C   UNL     1      32.177 -12.572 -20.374  0.00  0.00    -0.022 C 
ATOM     17  C   UNL     1      30.144 -11.348 -21.199  0.00  0.00    -0.022 C 
ATOM     18  C   UNL     1      31.324 -10.564 -19.125  0.00  0.00    -0.022 C 
ENDBRANCH  12  15
ENDBRANCH  11  12
ENDBRANCH   1  11
BRANCH   1  19
ATOM     19  C   UNL     1      33.660 -10.779 -24.306  0.00  0.00    +0.246 C 
BRANCH  19  20
ATOM     20  O   UNL     1      33.530 -11.961 -23.525  0.00  0.00    -0.472 OA
BRANCH  20  23
ATOM     21  N   UNL     1      34.323 -16.545 -23.466  0.00  0.00    -0.316 N 
ATOM     22  C   UNL     1      33.924 -14.352 -23.567  0.00  0.00    +0.048 C 
ATOM     23  C   UNL     1      33.546 -13.152 -24.201  0.00  0.00    +0.140 C 
ATOM     24  C   UNL     1      33.920 -15.535 -24.310  0.00  0.00    +0.051 C 
ATOM     25  C   UNL     1      34.343 -14.688 -22.249  0.00  0.00    +0.014 C 
ATOM     26  C   UNL     1      34.581 -16.043 -22.219  0.00  0.00    +0.026 C 
ATOM     27  C   UNL     1      33.180 -13.179 -25.552  0.00  0.00    +0.037 C 
ATOM     28  C   UNL     1      33.556 -15.578 -25.660  0.00  0.00    +0.015 C 
ATOM     29  C   UNL     1      33.185 -14.375 -26.268  0.00  0.00    +0.004 C 
ATOM     30  C   UNL     1      35.030 -16.916 -21.119  0.00  0.00    +0.047 C 
ATOM     31  H   UNL     1      34.413 -17.491 -23.722  0.00  0.00    +0.152 HD
ENDBRANCH  20  23
ENDBRANCH  19  20
ENDBRANCH   1  19
TORSDOF 9
ENDMDL
MODEL 4
REMARK VINA RESULT:      -9.7      1.234      2.356
REMARK  Name = 44112
REMARK  9 active torsions:
REMARK  status: ('A' for Active; 'I' for Inactive)
REMARK    1  A    between atoms: C_1  and  O_2
REMARK    2  A    between atoms: C_1  and  C_11
REMARK    3  A    between atoms: C_1  and  C_19
REMARK    4  A    between atoms: O_2  and  C_4
REMARK    5  A    between atoms: C_4  and  C_5
REMARK    6  A    between atoms: C_11  and  N_12
REMARK    7  A    between atoms: N_12  and  C_15
REMARK    8  A    between atoms: C_19  and  O_20
REMARK    9  A    between atoms: O_20  and  C_23
REMARK                            x       y       z     vdW  Elec       q    Type
REMARK                         _______ _______ _______ _____ _____    ______ ____
ROOT
ATOM      1  C   UNL     1      32.292 -23.276 -17.131  0.00  0.00    +0.192 C 
ENDROOT
BRANCH   1   2
ATOM      2  O   UNL     1      32.919 -22.210 -17.851  0.00  0.00    -0.448 OA
BRANCH   2   4
ATOM      3  O   UNL     1      33.858 -23.714 -19.318  0.00  0.00    -0.245 OA
ATOM      4  C   UNL     1      33.595 -22.574 -18.971  0.00  0.00    +0.341 C 
BRANCH   4   5
ATOM      5  C   UNL     1      33.992 -21.373 -19.749  0.00  0.00    +0.076 C 
ATOM      6  C   UNL     1      33.007 -20.537 -20.234  0.00  0.00    +0.006 C 
ATOM      7  C   UNL     1      35.334 -21.129 -19.962  0.00  0.00    +0.006 C 
ATOM      8  C   UNL     1      33.378 -19.410 -20.965  0.00  0.00    +0.000 C 
ATOM      9  C   UNL     1      35.706 -20.001 -20.693  0.00  0.00    +0.000 C 
ATOM     10  C   UNL     1      34.728 -19.141 -21.194  0.00  0.00    +0.000 C 
ENDBRANCH   4   5
ENDBRANCH   2   4
ENDBRANCH   1   2
BRANCH   1  11
ATOM     11  C   UNL     1      31.111 -22.695 -16.349  0.00  0.00    -0.033 C 
BRANCH  11  12
ATOM     12  N   UNL     1      29.873 -22.738 -17.115  0.00  0.00    +0.389 N 
ATOM     13  H   UNL     1      29.745 -21.847 -17.595  0.00  0.00    -0.084 HD
ATOM     14  H   UNL     1      29.934 -23.501 -17.790  0.00  0.00    -0.084 HD
BRANCH  12  15
ATOM     15  C   UNL     1      28.731 -22.978 -16.244  0.00  0.00    -0.046 C 
ATOM     16  C   UNL     1      28.535 -24.489 -16.067  0.00  0.00    -0.022 C 
ATOM     17  C   UNL     1      27.487 -22.357 -16.887  0.00  0.00    -0.022 C 
ATOM     18  C   UNL     1      29.005 -22.321 -14.886  0.00  0.00    -0.022 C 
ENDBRANCH  12  15
ENDBRANCH  11  12
ENDBRANCH   1  11
BRANCH   1  19
ATOM     19  C   UNL     1      33.338 -23.943 -16.241  0.00  0.00    +0.246 C 
BRANCH  19  20
ATOM     20  O   UNL     1      34.064 -22.933 -15.550  0.00  0.00    -0.472 OA
BRANCH  20  23
ATOM     21  N   UNL     1      38.103 -24.725 -14.094  0.00  0.00    -0.316 N 
ATOM     22  C   UNL     1      36.204 -23.823 -14.841  0.00  0.00    +0.048 C 
ATOM     23  C   UNL     1      35.429 -22.973 -15.655  0.00  0.00    +0.140 C 
ATOM     24  C   UNL     1      37.593 -23.818 -14.995  0.00  0.00    +0.051 C 
ATOM     25  C   UNL     1      35.901 -24.763 -13.817  0.00  0.00    +0.014 C 
ATOM     26  C   UNL     1      37.089 -25.300 -13.378  0.00  0.00    +0.026 C 
ATOM     27  C   UNL     1      36.070 -22.150 -16.589  0.00  0.00    +0.037 C 
ATOM     28  C   UNL     1      38.247 -23.002 -15.925  0.00  0.00    +0.015 C 
ATOM     29  C   UNL     1      37.457 -22.167 -16.721  0.00  0.00    +0.004 C 
ATOM     30  C   UNL     1      37.361 -26.314 -12.342  0.00  0.00    +0.047 C 
ATOM     31  H   UNL     1      39.060 -24.929 -13.981  0.00  0.00    +0.152 HD
ENDBRANCH  20  23
ENDBRANCH  19  20
ENDBRANCH   1  19
TORSDOF 9
ENDMDL
MODEL 5
REMARK VINA RESULT:      -9.6     10.270     14.637
REMARK  Name = 44112
REMARK  9 active torsions:
REMARK  status: ('A' for Active; 'I' for Inactive)
REMARK    1  A    between atoms: C_1  and  O_2
REMARK    2  A    between atoms: C_1  and  C_11
REMARK    3  A    between atoms: C_1  and  C_19
REMARK    4  A    between atoms: O_2  and  C_4
REMARK    5  A    between atoms: C_4  and  C_5
REMARK    6  A    between atoms: C_11  and  N_12
REMARK    7  A    between atoms: N_12  and  C_15
REMARK    8  A    between atoms: C_19  and  O_20
REMARK    9  A    between atoms: O_20  and  C_23
REMARK                            x       y       z     vdW  Elec       q    Type
REMARK                         _______ _______ _______ _____ _____    ______ ____
ROOT
ATOM      1  C   UNL     1      32.946  -9.792 -23.635  0.00  0.00    +0.192 C 
ENDROOT
BRANCH   1   2
ATOM      2  O   UNL     1      33.796  -8.896 -22.912  0.00  0.00    -0.448 OA
BRANCH   2   4
ATOM      3  O   UNL     1      34.837  -7.267 -24.162  0.00  0.00    -0.245 OA
ATOM      4  C   UNL     1      33.929  -7.653 -23.444  0.00  0.00    +0.341 C 
BRANCH   4   5
ATOM      5  C   UNL     1      32.795  -6.789 -23.029  0.00  0.00    +0.076 C 
ATOM      6  C   UNL     1      32.101  -6.088 -23.994  0.00  0.00    +0.006 C 
ATOM      7  C   UNL     1      32.468  -6.714 -21.689  0.00  0.00    +0.006 C 
ATOM      8  C   UNL     1      31.036  -5.277 -23.605  0.00  0.00    +0.000 C 
ATOM      9  C   UNL     1      31.403  -5.903 -21.299  0.00  0.00    +0.000 C 
ATOM     10  C   UNL     1      30.687  -5.184 -22.257  0.00  0.00    +0.000 C 
ENDBRANCH   4   5
ENDBRANCH   2   4
ENDBRANCH   1   2
BRANCH   1  11
ATOM     11  C   UNL     1      31.872 -10.310 -22.675  0.00  0.00    -0.033 C 
BRANCH  11  12
ATOM     12  N   UNL     1      32.305 -10.252 -21.285  0.00  0.00    +0.389 N 
ATOM     13  H   UNL     1      33.295 -10.493 -21.234  0.00  0.00    -0.084 HD
ATOM     14  H   UNL     1      32.151  -9.305 -20.936  0.00  0.00    -0.084 HD
BRANCH  12  15
ATOM     15  C   UNL     1      31.544 -11.182 -20.463  0.00  0.00    -0.046 C 
ATOM     16  C   UNL     1      32.227 -12.555 -20.483  0.00  0.00    -0.022 C 
ATOM     17  C   UNL     1      30.127 -11.291 -21.034  0.00  0.00    -0.022 C 
ATOM     18  C   UNL     1      31.494 -10.639 -19.031  0.00  0.00    -0.022 C 
ENDBRANCH  12  15
ENDBRANCH  11  12
ENDBRANCH   1  11
BRANCH   1  19
ATOM     19  C   UNL     1      33.807 -10.901 -24.236  0.00  0.00    +0.246 C 
BRANCH  19  20
ATOM     20  O   UNL     1      33.590 -12.099 -23.500  0.00  0.00    -0.472 OA
BRANCH  20  23
ATOM     21  N   UNL     1      34.374 -16.684 -23.595  0.00  0.00    -0.316 N 
ATOM     22  C   UNL     1      33.977 -14.489 -23.622  0.00  0.00    +0.048 C 
ATOM     23  C   UNL     1      33.590 -13.269 -24.212  0.00  0.00    +0.140 C 
ATOM     24  C   UNL     1      33.956 -15.649 -24.401  0.00  0.00    +0.051 C 
ATOM     25  C   UNL     1      34.422 -14.865 -22.324  0.00  0.00    +0.014 C 
ATOM     26  C   UNL     1      34.657 -16.220 -22.339  0.00  0.00    +0.026 C 
ATOM     27  C   UNL     1      33.198 -13.255 -25.556  0.00  0.00    +0.037 C 
ATOM     28  C   UNL     1      33.566 -15.650 -25.744  0.00  0.00    +0.015 C 
ATOM     29  C   UNL     1      33.186 -14.428 -26.308  0.00  0.00    +0.004 C 
ATOM     30  C   UNL     1      35.125 -17.127 -21.275  0.00  0.00    +0.047 C 
ATOM     31  H   UNL     1      34.456 -17.622 -23.882  0.00  0.00    +0.152 HD
ENDBRANCH  20  23
ENDBRANCH  19  20
ENDBRANCH   1  19
TORSDOF 9
ENDMDL
MODEL 6
REMARK VINA RESULT:      -9.5      1.100      2.282
REMARK  Name = 44112
REMARK  9 active torsions:
REMARK  status: ('A' for Active; 'I' for Inactive)
REMARK    1  A    between atoms: C_1  and  O_2
REMARK    2  A    between atoms: C_1  and  C_11
REMARK    3  A    between atoms: C_1  and  C_19
REMARK    4  A    between atoms: O_2  and  C_4
REMARK    5  A    between atoms: C_4  and  C_5
REMARK    6  A    between atoms: C_11  and  N_12
REMARK    7  A    between atoms: N_12  and  C_15
REMARK    8  A    between atoms: C_19  and  O_20
REMARK    9  A    between atoms: O_20  and  C_23
REMARK                            x       y       z     vdW  Elec       q    Type
REMARK                         _______ _______ _______ _____ _____    ______ ____
ROOT
ATOM      1  C   UNL     1      33.567 -23.364 -16.661  0.00  0.00    +0.192 C 
ENDROOT
BRANCH   1   2
ATOM      2  O   UNL     1      34.277 -22.505 -17.559  0.00  0.00    -0.448 OA
BRANCH   2   4
ATOM      3  O   UNL     1      33.949 -23.859 -19.391  0.00  0.00    -0.245 OA
ATOM      4  C   UNL     1      34.099 -22.761 -18.881  0.00  0.00    +0.341 C 
BRANCH   4   5
ATOM      5  C   UNL     1      34.113 -21.496 -19.658  0.00  0.00    +0.076 C 
ATOM      6  C   UNL     1      35.325 -20.972 -20.059  0.00  0.00    +0.006 C 
ATOM      7  C   UNL     1      32.912 -20.884 -19.958  0.00  0.00    +0.006 C 
ATOM      8  C   UNL     1      35.338 -19.784 -20.789  0.00  0.00    +0.000 C 
ATOM      9  C   UNL     1      32.925 -19.697 -20.689  0.00  0.00    +0.000 C 
ATOM     10  C   UNL     1      34.137 -19.146 -21.105  0.00  0.00    +0.000 C 
ENDBRANCH   4   5
ENDBRANCH   2   4
ENDBRANCH   1   2
BRANCH   1  11
ATOM     11  C   UNL     1      32.071 -23.071 -16.802  0.00  0.00    -0.033 C 
BRANCH  11  12
ATOM     12  N   UNL     1      31.250 -24.140 -16.249  0.00  0.00    +0.389 N 
ATOM     13  H   UNL     1      30.958 -24.761 -17.003  0.00  0.00    -0.084 HD
ATOM     14  H   UNL     1      31.802 -24.651 -15.559  0.00  0.00    -0.084 HD
BRANCH  12  15
ATOM     15  C   UNL     1      30.068 -23.600 -15.592  0.00  0.00    -0.046 C 
ATOM     16  C   UNL     1      29.312 -22.692 -16.570  0.00  0.00    -0.022 C 
ATOM     17  C   UNL     1      30.514 -22.798 -14.365  0.00  0.00    -0.022 C 
ATOM     18  C   UNL     1      29.173 -24.768 -15.160  0.00  0.00    -0.022 C 
ENDBRANCH  12  15
ENDBRANCH  11  12
ENDBRANCH   1  11
BRANCH   1  19
ATOM     19  C   UNL     1      34.098 -23.134 -15.247  0.00  0.00    +0.246 C 
BRANCH  19  20
ATOM     20  O   UNL     1      35.389 -22.543 -15.332  0.00  0.00    -0.472 OA
BRANCH  20  23
ATOM     21  N   UNL     1      37.276 -24.838 -11.752  0.00  0.00    -0.316 N 
ATOM     22  C   UNL     1      36.432 -23.754 -13.510  0.00  0.00    +0.048 C 
ATOM     23  C   UNL     1      36.436 -23.271 -14.834  0.00  0.00    +0.140 C 
ATOM     24  C   UNL     1      37.530 -24.491 -13.060  0.00  0.00    +0.051 C 
ATOM     25  C   UNL     1      35.512 -23.671 -12.428  0.00  0.00    +0.014 C 
ATOM     26  C   UNL     1      36.060 -24.347 -11.362  0.00  0.00    +0.026 C 
ATOM     27  C   UNL     1      37.537 -23.542 -15.656  0.00  0.00    +0.037 C 
ATOM     28  C   UNL     1      38.636 -24.770 -13.870  0.00  0.00    +0.015 C 
ATOM     29  C   UNL     1      38.618 -24.281 -15.180  0.00  0.00    +0.004 C 
ATOM     30  C   UNL     1      35.541 -24.578 -10.001  0.00  0.00    +0.047 C 
ATOM     31  H   UNL     1      37.882 -25.363 -11.181  0.00  0.00    +0.152 HD
ENDBRANCH  20  23
ENDBRANCH  19  20
ENDBRANCH   1  19
TORSDOF 9
ENDMDL
MODEL 7
REMARK VINA RESULT:      -9.4      8.088     12.243
REMARK  Name = 44112
REMARK  9 active torsions:
REMARK  status: ('A' for Active; 'I' for Inactive)
REMARK    1  A    between atoms: C_1  and  O_2
REMARK    2  A    between atoms: C_1  and  C_11
REMARK    3  A    between atoms: C_1  and  C_19
REMARK    4  A    between atoms: O_2  and  C_4
REMARK    5  A    between atoms: C_4  and  C_5
REMARK    6  A    between atoms: C_11  and  N_12
REMARK    7  A    between atoms: N_12  and  C_15
REMARK    8  A    between atoms: C_19  and  O_20
REMARK    9  A    between atoms: O_20  and  C_23
REMARK                            x       y       z     vdW  Elec       q    Type
REMARK                         _______ _______ _______ _____ _____    ______ ____
ROOT
ATOM      1  C   UNL     1      32.980 -13.386 -22.575  0.00  0.00    +0.192 C 
ENDROOT
BRANCH   1   2
ATOM      2  O   UNL     1      33.946 -12.412 -22.983  0.00  0.00    -0.448 OA
BRANCH   2   4
ATOM      3  O   UNL     1      33.584 -12.414 -25.256  0.00  0.00    -0.245 OA
ATOM      4  C   UNL     1      33.723 -11.833 -24.192  0.00  0.00    +0.341 C 
BRANCH   4   5
ATOM      5  C   UNL     1      33.670 -10.356 -24.056  0.00  0.00    +0.076 C 
ATOM      6  C   UNL     1      34.836  -9.630 -24.200  0.00  0.00    +0.006 C 
ATOM      7  C   UNL     1      32.457  -9.753 -23.792  0.00  0.00    +0.006 C 
ATOM      8  C   UNL     1      34.786  -8.243 -24.072  0.00  0.00    +0.000 C 
ATOM      9  C   UNL     1      32.407  -8.365 -23.666  0.00  0.00    +0.000 C 
ATOM     10  C   UNL     1      33.572  -7.609 -23.806  0.00  0.00    +0.000 C 
ENDBRANCH   4   5
ENDBRANCH   2   4
ENDBRANCH   1   2
BRANCH   1  11
ATOM     11  C   UNL     1      31.905 -12.676 -21.748  0.00  0.00    -0.033 C 
BRANCH  11  12
ATOM     12  N   UNL     1      32.472 -11.957 -20.615  0.00  0.00    +0.389 N 
ATOM     13  H   UNL     1      32.646 -12.614 -19.855  0.00  0.00    -0.084 HD
ATOM     14  H   UNL     1      33.343 -11.516 -20.913  0.00  0.00    -0.084 HD
BRANCH  12  15
ATOM     15  C   UNL     1      31.562 -10.920 -20.149  0.00  0.00    -0.046 C 
ATOM     16  C   UNL     1      32.203  -9.544 -20.369  0.00  0.00    -0.022 C 
ATOM     17  C   UNL     1      31.291 -11.143 -18.658  0.00  0.00    -0.022 C 
ATOM     18  C   UNL     1      30.255 -11.024 -20.944  0.00  0.00    -0.022 C 
ENDBRANCH  12  15
ENDBRANCH  11  12
ENDBRANCH   1  11
BRANCH   1  19
ATOM     19  C   UNL     1      33.701 -14.494 -21.809  0.00  0.00    +0.246 C 
BRANCH  19  20
ATOM     20  O   UNL     1      34.841 -14.900 -22.556  0.00  0.00    -0.472 OA
BRANCH  20  23
ATOM     21  N   UNL     1      34.992 -19.546 -22.770  0.00  0.00    -0.316 N 
ATOM     22  C   UNL     1      34.903 -17.317 -22.740  0.00  0.00    +0.048 C 
ATOM     23  C   UNL     1      34.714 -16.040 -23.306  0.00  0.00    +0.140 C 
ATOM     24  C   UNL     1      34.759 -18.441 -23.557  0.00  0.00    +0.051 C 
ATOM     25  C   UNL     1      35.230 -17.786 -21.437  0.00  0.00    +0.014 C 
ATOM     26  C   UNL     1      35.277 -19.160 -21.487  0.00  0.00    +0.026 C 
ATOM     27  C   UNL     1      34.391 -15.935 -24.664  0.00  0.00    +0.037 C 
ATOM     28  C   UNL     1      34.436 -18.352 -24.915  0.00  0.00    +0.015 C 
ATOM     29  C   UNL     1      34.254 -17.074 -25.454  0.00  0.00    +0.004 C 
ATOM     30  C   UNL     1      35.566 -20.151 -20.435  0.00  0.00    +0.047 C 
ATOM     31  H   UNL     1      34.959 -20.478 -23.084  0.00  0.00    +0.152 HD
ENDBRANCH  20  23
ENDBRANCH  19  20
ENDBRANCH   1  19
TORSDOF 9
ENDMDL
MODEL 8
REMARK VINA RESULT:      -9.4      8.293     13.341
REMARK  Name = 44112
REMARK  9 active torsions:
REMARK  status: ('A' for Active; 'I' for Inactive)
REMARK    1  A    between atoms: C_1  and  O_2
REMARK    2  A    between atoms: C_1  and  C_11
REMARK    3  A    between atoms: C_1  and  C_19
REMARK    4  A    between atoms: O_2  and  C_4
REMARK    5  A    between atoms: C_4  and  C_5
REMARK    6  A    between atoms: C_11  and  N_12
REMARK    7  A    between atoms: N_12  and  C_15
REMARK    8  A    between atoms: C_19  and  O_20
REMARK    9  A    between atoms: O_20  and  C_23
REMARK                            x       y       z     vdW  Elec       q    Type
REMARK                         _______ _______ _______ _____ _____    ______ ____
ROOT
ATOM      1  C   UNL     1      34.227 -14.959 -24.385  0.00  0.00    +0.192 C 
ENDROOT
BRANCH   1   2
ATOM      2  O   UNL     1      33.641 -16.262 -24.461  0.00  0.00    -0.448 OA
BRANCH   2   4
ATOM      3  O   UNL     1      34.981 -17.611 -25.758  0.00  0.00    -0.245 OA
ATOM      4  C   UNL     1      34.506 -17.285 -24.682  0.00  0.00    +0.341 C 
BRANCH   4   5
ATOM      5  C   UNL     1      34.813 -17.987 -23.410  0.00  0.00    +0.076 C 
ATOM      6  C   UNL     1      33.829 -18.747 -22.812  0.00  0.00    +0.006 C 
ATOM      7  C   UNL     1      36.075 -17.858 -22.865  0.00  0.00    +0.006 C 
ATOM      8  C   UNL     1      34.117 -19.406 -21.618  0.00  0.00    +0.000 C 
ATOM      9  C   UNL     1      36.364 -18.518 -21.671  0.00  0.00    +0.000 C 
ATOM     10  C   UNL     1      35.385 -19.292 -21.047  0.00  0.00    +0.000 C 
ENDBRANCH   4   5
ENDBRANCH   2   4
ENDBRANCH   1   2
BRANCH   1  11
ATOM     11  C   UNL     1      34.196 -14.505 -22.923  0.00  0.00    -0.033 C 
BRANCH  11  12
ATOM     12  N   UNL     1      32.878 -14.674 -22.326  0.00  0.00    +0.389 N 
ATOM     13  H   UNL     1      32.339 -13.818 -22.459  0.00  0.00    -0.084 HD
ATOM     14  H   UNL     1      32.414 -15.462 -22.779  0.00  0.00    -0.084 HD
BRANCH  12  15
ATOM     15  C   UNL     1      32.984 -14.953 -20.901  0.00  0.00    -0.046 C 
ATOM     16  C   UNL     1      34.445 -15.264 -20.552  0.00  0.00    -0.022 C 
ATOM     17  C   UNL     1      32.097 -16.158 -20.572  0.00  0.00    -0.022 C 
ATOM     18  C   UNL     1      32.508 -13.720 -20.125  0.00  0.00    -0.022 C 
ENDBRANCH  12  15
ENDBRANCH  11  12
ENDBRANCH   1  11
BRANCH   1  19
ATOM     19  C   UNL     1      33.465 -14.027 -25.325  0.00  0.00    +0.246 C 
BRANCH  19  20
ATOM     20  O   UNL     1      32.934 -12.947 -24.568  0.00  0.00    -0.472 OA
BRANCH  20  23
ATOM     21  N   UNL     1      33.573  -8.650 -22.901  0.00  0.00    -0.316 N 
ATOM     22  C   UNL     1      33.320 -10.697 -23.752  0.00  0.00    +0.048 C 
ATOM     23  C   UNL     1      33.604 -11.754 -24.639  0.00  0.00    +0.140 C 
ATOM     24  C   UNL     1      34.038  -9.505 -23.875  0.00  0.00    +0.051 C 
ATOM     25  C   UNL     1      32.410 -10.527 -22.671  0.00  0.00    +0.014 C 
ATOM     26  C   UNL     1      32.589  -9.259 -22.169  0.00  0.00    +0.026 C 
ATOM     27  C   UNL     1      34.591 -11.579 -25.617  0.00  0.00    +0.037 C 
ATOM     28  C   UNL     1      35.027  -9.316 -24.846  0.00  0.00    +0.015 C 
ATOM     29  C   UNL     1      35.291 -10.378 -25.715  0.00  0.00    +0.004 C 
ATOM     30  C   UNL     1      31.920  -8.561 -21.056  0.00  0.00    +0.047 C 
ATOM     31  H   UNL     1      33.900  -7.733 -22.754  0.00  0.00    +0.152 HD
ENDBRANCH  20  23
ENDBRANCH  19  20
ENDBRANCH   1  19
TORSDOF 9
ENDMDL
MODEL 9
REMARK VINA RESULT:      -9.2      9.148     13.978
REMARK  Name = 44112
REMARK  9 active torsions:
REMARK  status: ('A' for Active; 'I' for Inactive)
REMARK    1  A    between atoms: C_1  and  O_2
REMARK    2  A    between atoms: C_1  and  C_11
REMARK    3  A    between atoms: C_1  and  C_19
REMARK    4  A    between atoms: O_2  and  C_4
REMARK    5  A    between atoms: C_4  and  C_5
REMARK    6  A    between atoms: C_11  and  N_12
REMARK    7  A    between atoms: N_12  and  C_15
REMARK    8  A    between atoms: C_19  and  O_20
REMARK    9  A    between atoms: O_20  and  C_23
REMARK                            x       y       z     vdW  Elec       q    Type
REMARK                         _______ _______ _______ _____ _____    ______ ____
ROOT
ATOM      1  C   UNL     1      33.142 -14.173 -22.910  0.00  0.00    +0.192 C 
ENDROOT
BRANCH   1   2
ATOM      2  O   UNL     1      34.474 -14.286 -22.401  0.00  0.00    -0.448 OA
BRANCH   2   4
ATOM      3  O   UNL     1      34.804 -15.134 -20.287  0.00  0.00    -0.245 OA
ATOM      4  C   UNL     1      34.676 -15.275 -21.492  0.00  0.00    +0.341 C 
BRANCH   4   5
ATOM      5  C   UNL     1      34.724 -16.596 -22.168  0.00  0.00    +0.076 C 
ATOM      6  C   UNL     1      35.026 -16.647 -23.514  0.00  0.00    +0.006 C 
ATOM      7  C   UNL     1      34.466 -17.734 -21.430  0.00  0.00    +0.006 C 
ATOM      8  C   UNL     1      35.072 -17.887 -24.149  0.00  0.00    +0.000 C 
ATOM      9  C   UNL     1      34.513 -18.974 -22.065  0.00  0.00    +0.000 C 
ATOM     10  C   UNL     1      34.815 -19.052 -23.424  0.00  0.00    +0.000 C 
ENDBRANCH   4   5
ENDBRANCH   2   4
ENDBRANCH   1   2
BRANCH   1  11
ATOM     11  C   UNL     1      33.190 -13.348 -24.198  0.00  0.00    -0.033 C 
BRANCH  11  12
ATOM     12  N   UNL     1      34.194 -12.295 -24.137  0.00  0.00    +0.389 N 
ATOM     13  H   UNL     1      34.070 -11.765 -23.274  0.00  0.00    -0.084 HD
ATOM     14  H   UNL     1      35.119 -12.725 -24.161  0.00  0.00    -0.084 HD
BRANCH  12  15
ATOM     15  C   UNL     1      34.071 -11.392 -25.272  0.00  0.00    -0.046 C 
ATOM     16  C   UNL     1      35.363 -10.577 -25.417  0.00  0.00    -0.022 C 
ATOM     17  C   UNL     1      32.884 -10.456 -25.026  0.00  0.00    -0.022 C 
ATOM     18  C   UNL     1      33.831 -12.226 -26.536  0.00  0.00    -0.022 C 
ENDBRANCH  12  15
ENDBRANCH  11  12
ENDBRANCH   1  11
BRANCH   1  19
ATOM     19  C   UNL     1      32.259 -13.554 -21.828  0.00  0.00    +0.246 C 
BRANCH  19  20
ATOM     20  O   UNL     1      31.944 -12.218 -22.202  0.00  0.00    -0.472 OA
BRANCH  20  23
ATOM     21  N   UNL     1      32.095  -7.768 -20.851  0.00  0.00    -0.316 N 
ATOM     22  C   UNL     1      32.008  -9.922 -21.427  0.00  0.00    +0.048 C 
ATOM     23  C   UNL     1      31.843 -11.301 -21.189  0.00  0.00    +0.140 C 
ATOM     24  C   UNL     1      31.894  -9.036 -20.354  0.00  0.00    +0.051 C 
ATOM     25  C   UNL     1      32.286  -9.142 -22.585  0.00  0.00    +0.014 C 
ATOM     26  C   UNL     1      32.333  -7.822 -22.198  0.00  0.00    +0.026 C 
ATOM     27  C   UNL     1      31.571 -11.742 -19.889  0.00  0.00    +0.037 C 
ATOM     28  C   UNL     1      31.621  -9.461 -19.049  0.00  0.00    +0.015 C 
ATOM     29  C   UNL     1      31.461 -10.834 -18.837  0.00  0.00    +0.004 C 
ATOM     30  C   UNL     1      32.581  -6.599 -22.982  0.00  0.00    +0.047 C 
ATOM     31  H   UNL     1      32.072  -6.943 -20.315  0.00  0.00    +0.152 HD
ENDBRANCH  20  23
ENDBRANCH  19  20
ENDBRANCH   1  19
TORSDOF 9
ENDMDL
