MODEL 1
REMARK VINA RESULT:      -5.3      0.000      0.000
REMARK  Name = 8925
REMARK  12 active torsions:
REMARK  status: ('A' for Active; 'I' for Inactive)
REMARK    1  A    between atoms: O_1  and  C_2
REMARK    2  A    between atoms: O_1  and  C_9
REMARK    3  A    between atoms: C_2  and  C_3
REMARK    4  A    between atoms: C_3  and  O_4
REMARK    5  A    between atoms: O_4  and  C_5
REMARK    6  A    between atoms: C_5  and  C_6
REMARK    7  A    between atoms: C_6  and  O_7
REMARK    8  A    between atoms: C_9  and  C_10
REMARK    9  A    between atoms: C_10  and  O_11
REMARK   10  A    between atoms: O_11  and  C_12
REMARK   11  A    between atoms: C_12  and  C_13
REMARK   12  A    between atoms: C_13  and  O_14
REMARK                            x       y       z     vdW  Elec       q    Type
REMARK                         _______ _______ _______ _____ _____    ______ ____
ROOT
ATOM      1  O   UNL     1      36.179 -25.236 -15.662  0.00  0.00    -0.348 OA
ENDROOT
BRANCH   1   2
ATOM      2  C   UNL     1      35.254 -24.741 -14.702  0.00  0.00    +0.174 C 
BRANCH   2   3
ATOM      3  C   UNL     1      34.436 -23.630 -15.330  0.00  0.00    +0.174 C 
BRANCH   3   4
ATOM      4  O   UNL     1      34.710 -23.582 -16.723  0.00  0.00    -0.348 OA
BRANCH   4   5
ATOM      5  C   UNL     1      33.579 -23.136 -17.462  0.00  0.00    +0.174 C 
BRANCH   5   6
ATOM      6  C   UNL     1      34.037 -22.657 -18.825  0.00  0.00    +0.174 C 
BRANCH   6   7
ATOM      7  O   UNL     1      32.931 -22.086 -19.512  0.00  0.00    -0.348 OA
ATOM      8  C   UNL     1      33.212 -20.762 -19.947  0.00  0.00    +0.174 C 
ENDBRANCH   6   7
ENDBRANCH   5   6
ENDBRANCH   4   5
ENDBRANCH   3   4
ENDBRANCH   2   3
ENDBRANCH   1   2
BRANCH   1   9
ATOM      9  C   UNL     1      36.503 -26.598 -15.418  0.00  0.00    +0.174 C 
BRANCH   9  10
ATOM     10  C   UNL     1      37.286 -26.696 -14.124  0.00  0.00    +0.174 C 
BRANCH  10  11
ATOM     11  O   UNL     1      38.677 -26.620 -14.414  0.00  0.00    -0.348 OA
BRANCH  11  12
ATOM     12  C   UNL     1      39.294 -25.541 -13.729  0.00  0.00    +0.174 C 
BRANCH  12  13
ATOM     13  C   UNL     1      38.379 -25.073 -12.614  0.00  0.00    +0.174 C 
BRANCH  13  14
ATOM     14  O   UNL     1      38.514 -23.666 -12.461  0.00  0.00    -0.348 OA
ATOM     15  C   UNL     1      37.365 -23.094 -11.851  0.00  0.00    +0.174 C 
ENDBRANCH  13  14
ENDBRANCH  12  13
ENDBRANCH  11  12
ENDBRANCH  10  11
ENDBRANCH   9  10
ENDBRANCH   1   9
TORSDOF 12
ENDMDL
MODEL 2
REMARK VINA RESULT:      -5.2      5.378      7.791
REMARK  Name = 8925
REMARK  12 active torsions:
REMARK  status: ('A' for Active; 'I' for Inactive)
REMARK    1  A    between atoms: O_1  and  C_2
REMARK    2  A    between atoms: O_1  and  C_9
REMARK    3  A    between atoms: C_2  and  C_3
REMARK    4  A    between atoms: C_3  and  O_4
REMARK    5  A    between atoms: O_4  and  C_5
REMARK    6  A    between atoms: C_5  and  C_6
REMARK    7  A    between atoms: C_6  and  O_7
REMARK    8  A    between atoms: C_9  and  C_10
REMARK    9  A    between atoms: C_10  and  O_11
REMARK   10  A    between atoms: O_11  and  C_12
REMARK   11  A    between atoms: C_12  and  C_13
REMARK   12  A    between atoms: C_13  and  O_14
REMARK                            x       y       z     vdW  Elec       q    Type
REMARK                         _______ _______ _______ _____ _____    ______ ____
ROOT
ATOM      1  O   UNL     1      34.821 -22.637 -19.501  0.00  0.00    -0.348 OA
ENDROOT
BRANCH   1   2
ATOM      2  C   UNL     1      33.540 -22.201 -19.061  0.00  0.00    +0.174 C 
BRANCH   2   3
ATOM      3  C   UNL     1      33.152 -22.977 -17.818  0.00  0.00    +0.174 C 
BRANCH   3   4
ATOM      4  O   UNL     1      31.808 -22.667 -17.479  0.00  0.00    -0.348 OA
BRANCH   4   5
ATOM      5  C   UNL     1      31.465 -23.173 -16.194  0.00  0.00    +0.174 C 
BRANCH   5   6
ATOM      6  C   UNL     1      30.013 -22.845 -15.905  0.00  0.00    +0.174 C 
BRANCH   6   7
ATOM      7  O   UNL     1      29.354 -22.539 -17.127  0.00  0.00    -0.348 OA
ATOM      8  C   UNL     1      27.954 -22.762 -17.034  0.00  0.00    +0.174 C 
ENDBRANCH   6   7
ENDBRANCH   5   6
ENDBRANCH   4   5
ENDBRANCH   3   4
ENDBRANCH   2   3
ENDBRANCH   1   2
BRANCH   1   9
ATOM      9  C   UNL     1      35.751 -21.564 -19.541  0.00  0.00    +0.174 C 
BRANCH   9  10
ATOM     10  C   UNL     1      35.185 -20.450 -20.399  0.00  0.00    +0.174 C 
BRANCH  10  11
ATOM     11  O   UNL     1      36.024 -19.307 -20.291  0.00  0.00    -0.348 OA
BRANCH  11  12
ATOM     12  C   UNL     1      36.135 -18.623 -21.530  0.00  0.00    +0.174 C 
BRANCH  12  13
ATOM     13  C   UNL     1      35.108 -17.509 -21.575  0.00  0.00    +0.174 C 
BRANCH  13  14
ATOM     14  O   UNL     1      35.199 -16.745 -20.379  0.00  0.00    -0.348 OA
ATOM     15  C   UNL     1      34.696 -15.428 -20.561  0.00  0.00    +0.174 C 
ENDBRANCH  13  14
ENDBRANCH  12  13
ENDBRANCH  11  12
ENDBRANCH  10  11
ENDBRANCH   9  10
ENDBRANCH   1   9
TORSDOF 12
ENDMDL
MODEL 3
REMARK VINA RESULT:      -5.2      1.584      3.616
REMARK  Name = 8925
REMARK  12 active torsions:
REMARK  status: ('A' for Active; 'I' for Inactive)
REMARK    1  A    between atoms: O_1  and  C_2
REMARK    2  A    between atoms: O_1  and  C_9
REMARK    3  A    between atoms: C_2  and  C_3
REMARK    4  A    between atoms: C_3  and  O_4
REMARK    5  A    between atoms: O_4  and  C_5
REMARK    6  A    between atoms: C_5  and  C_6
REMARK    7  A    between atoms: C_6  and  O_7
REMARK    8  A    between atoms: C_9  and  C_10
REMARK    9  A    between atoms: C_10  and  O_11
REMARK   10  A    between atoms: O_11  and  C_12
REMARK   11  A    between atoms: C_12  and  C_13
REMARK   12  A    between atoms: C_13  and  O_14
REMARK                            x       y       z     vdW  Elec       q    Type
REMARK                         _______ _______ _______ _____ _____    ______ ____
ROOT
ATOM      1  O   UNL     1      34.319 -23.766 -17.224  0.00  0.00    -0.348 OA
ENDROOT
BRANCH   1   2
ATOM      2  C   UNL     1      33.345 -22.941 -17.852  0.00  0.00    +0.174 C 
BRANCH   2   3
ATOM      3  C   UNL     1      33.917 -22.396 -19.146  0.00  0.00    +0.174 C 
BRANCH   3   4
ATOM      4  O   UNL     1      32.866 -21.828 -19.915  0.00  0.00    -0.348 OA
BRANCH   4   5
ATOM      5  C   UNL     1      33.153 -20.482 -20.275  0.00  0.00    +0.174 C 
BRANCH   5   6
ATOM      6  C   UNL     1      34.650 -20.326 -20.457  0.00  0.00    +0.174 C 
BRANCH   6   7
ATOM      7  O   UNL     1      34.958 -18.947 -20.613  0.00  0.00    -0.348 OA
ATOM      8  C   UNL     1      36.203 -18.761 -21.271  0.00  0.00    +0.174 C 
ENDBRANCH   6   7
ENDBRANCH   5   6
ENDBRANCH   4   5
ENDBRANCH   3   4
ENDBRANCH   2   3
ENDBRANCH   1   2
BRANCH   1   9
ATOM      9  C   UNL     1      34.721 -23.235 -15.969  0.00  0.00    +0.174 C 
BRANCH   9  10
ATOM     10  C   UNL     1      34.804 -24.362 -14.959  0.00  0.00    +0.174 C 
BRANCH  10  11
ATOM     11  O   UNL     1      35.586 -25.418 -15.503  0.00  0.00    -0.348 OA
BRANCH  11  12
ATOM     12  C   UNL     1      36.912 -25.401 -14.995  0.00  0.00    +0.174 C 
BRANCH  12  13
ATOM     13  C   UNL     1      37.399 -26.828 -14.835  0.00  0.00    +0.174 C 
BRANCH  13  14
ATOM     14  O   UNL     1      38.806 -26.818 -14.631  0.00  0.00    -0.348 OA
ATOM     15  C   UNL     1      39.236 -25.613 -14.012  0.00  0.00    +0.174 C 
ENDBRANCH  13  14
ENDBRANCH  12  13
ENDBRANCH  11  12
ENDBRANCH  10  11
ENDBRANCH   9  10
ENDBRANCH   1   9
TORSDOF 12
ENDMDL
MODEL 4
REMARK VINA RESULT:      -5.2      1.578      6.974
REMARK  Name = 8925
REMARK  12 active torsions:
REMARK  status: ('A' for Active; 'I' for Inactive)
REMARK    1  A    between atoms: O_1  and  C_2
REMARK    2  A    between atoms: O_1  and  C_9
REMARK    3  A    between atoms: C_2  and  C_3
REMARK    4  A    between atoms: C_3  and  O_4
REMARK    5  A    between atoms: O_4  and  C_5
REMARK    6  A    between atoms: C_5  and  C_6
REMARK    7  A    between atoms: C_6  and  O_7
REMARK    8  A    between atoms: C_9  and  C_10
REMARK    9  A    between atoms: C_10  and  O_11
REMARK   10  A    between atoms: O_11  and  C_12
REMARK   11  A    between atoms: C_12  and  C_13
REMARK   12  A    between atoms: C_13  and  O_14
REMARK                            x       y       z     vdW  Elec       q    Type
REMARK                         _______ _______ _______ _____ _____    ______ ____
ROOT
ATOM      1  O   UNL     1      35.709 -23.184 -16.457  0.00  0.00    -0.348 OA
ENDROOT
BRANCH   1   2
ATOM      2  C   UNL     1      35.356 -23.313 -15.085  0.00  0.00    +0.174 C 
BRANCH   2   3
ATOM      3  C   UNL     1      35.284 -24.785 -14.729  0.00  0.00    +0.174 C 
BRANCH   3   4
ATOM      4  O   UNL     1      35.959 -25.537 -15.726  0.00  0.00    -0.348 OA
BRANCH   4   5
ATOM      5  C   UNL     1      36.704 -26.608 -15.157  0.00  0.00    +0.174 C 
BRANCH   5   6
ATOM      6  C   UNL     1      38.077 -26.101 -14.764  0.00  0.00    +0.174 C 
BRANCH   6   7
ATOM      7  O   UNL     1      38.229 -26.217 -13.354  0.00  0.00    -0.348 OA
ATOM      8  C   UNL     1      38.457 -24.952 -12.749  0.00  0.00    +0.174 C 
ENDBRANCH   6   7
ENDBRANCH   5   6
ENDBRANCH   4   5
ENDBRANCH   3   4
ENDBRANCH   2   3
ENDBRANCH   1   2
BRANCH   1   9
ATOM      9  C   UNL     1      36.749 -22.234 -16.641  0.00  0.00    +0.174 C 
BRANCH   9  10
ATOM     10  C   UNL     1      36.640 -21.644 -18.033  0.00  0.00    +0.174 C 
BRANCH  10  11
ATOM     11  O   UNL     1      35.638 -22.345 -18.759  0.00  0.00    -0.348 OA
BRANCH  11  12
ATOM     12  C   UNL     1      34.862 -21.465 -19.559  0.00  0.00    +0.174 C 
BRANCH  12  13
ATOM     13  C   UNL     1      33.395 -21.658 -19.227  0.00  0.00    +0.174 C 
BRANCH  13  14
ATOM     14  O   UNL     1      32.657 -20.548 -19.722  0.00  0.00    -0.348 OA
ATOM     15  C   UNL     1      33.334 -19.907 -20.795  0.00  0.00    +0.174 C 
ENDBRANCH  13  14
ENDBRANCH  12  13
ENDBRANCH  11  12
ENDBRANCH  10  11
ENDBRANCH   9  10
ENDBRANCH   1   9
TORSDOF 12
ENDMDL
MODEL 5
REMARK VINA RESULT:      -5.2      6.450     11.950
REMARK  Name = 8925
REMARK  12 active torsions:
REMARK  status: ('A' for Active; 'I' for Inactive)
REMARK    1  A    between atoms: O_1  and  C_2
REMARK    2  A    between atoms: O_1  and  C_9
REMARK    3  A    between atoms: C_2  and  C_3
REMARK    4  A    between atoms: C_3  and  O_4
REMARK    5  A    between atoms: O_4  and  C_5
REMARK    6  A    between atoms: C_5  and  C_6
REMARK    7  A    between atoms: C_6  and  O_7
REMARK    8  A    between atoms: C_9  and  C_10
REMARK    9  A    between atoms: C_10  and  O_11
REMARK   10  A    between atoms: O_11  and  C_12
REMARK   11  A    between atoms: C_12  and  C_13
REMARK   12  A    between atoms: C_13  and  O_14
REMARK                            x       y       z     vdW  Elec       q    Type
REMARK                         _______ _______ _______ _____ _____    ______ ____
ROOT
ATOM      1  O   UNL     1      34.541 -18.518 -23.543  0.00  0.00    -0.348 OA
ENDROOT
BRANCH   1   2
ATOM      2  C   UNL     1      35.512 -17.784 -22.807  0.00  0.00    +0.174 C 
BRANCH   2   3
ATOM      3  C   UNL     1      35.999 -18.632 -21.648  0.00  0.00    +0.174 C 
BRANCH   3   4
ATOM      4  O   UNL     1      34.947 -18.776 -20.705  0.00  0.00    -0.348 OA
BRANCH   4   5
ATOM      5  C   UNL     1      34.601 -20.143 -20.514  0.00  0.00    +0.174 C 
BRANCH   5   6
ATOM      6  C   UNL     1      33.094 -20.289 -20.595  0.00  0.00    +0.174 C 
BRANCH   6   7
ATOM      7  O   UNL     1      32.724 -21.565 -20.090  0.00  0.00    -0.348 OA
ATOM      8  C   UNL     1      33.641 -22.024 -19.107  0.00  0.00    +0.174 C 
ENDBRANCH   6   7
ENDBRANCH   5   6
ENDBRANCH   4   5
ENDBRANCH   3   4
ENDBRANCH   2   3
ENDBRANCH   1   2
BRANCH   1   9
ATOM      9  C   UNL     1      34.612 -18.228 -24.932  0.00  0.00    +0.174 C 
BRANCH   9  10
ATOM     10  C   UNL     1      34.734 -16.728 -25.118  0.00  0.00    +0.174 C 
BRANCH  10  11
ATOM     11  O   UNL     1      33.797 -16.304 -26.101  0.00  0.00    -0.348 OA
BRANCH  11  12
ATOM     12  C   UNL     1      33.308 -14.999 -25.826  0.00  0.00    +0.174 C 
BRANCH  12  13
ATOM     13  C   UNL     1      33.353 -14.759 -24.330  0.00  0.00    +0.174 C 
BRANCH  13  14
ATOM     14  O   UNL     1      32.865 -13.451 -24.054  0.00  0.00    -0.348 OA
ATOM     15  C   UNL     1      33.721 -12.451 -24.591  0.00  0.00    +0.174 C 
ENDBRANCH  13  14
ENDBRANCH  12  13
ENDBRANCH  11  12
ENDBRANCH  10  11
ENDBRANCH   9  10
ENDBRANCH   1   9
TORSDOF 12
ENDMDL
MODEL 6
REMARK VINA RESULT:      -5.1      1.338      6.643
REMARK  Name = 8925
REMARK  12 active torsions:
REMARK  status: ('A' for Active; 'I' for Inactive)
REMARK    1  A    between atoms: O_1  and  C_2
REMARK    2  A    between atoms: O_1  and  C_9
REMARK    3  A    between atoms: C_2  and  C_3
REMARK    4  A    between atoms: C_3  and  O_4
REMARK    5  A    between atoms: O_4  and  C_5
REMARK    6  A    between atoms: C_5  and  C_6
REMARK    7  A    between atoms: C_6  and  O_7
REMARK    8  A    between atoms: C_9  and  C_10
REMARK    9  A    between atoms: C_10  and  O_11
REMARK   10  A    between atoms: O_11  and  C_12
REMARK   11  A    between atoms: C_12  and  C_13
REMARK   12  A    between atoms: C_13  and  O_14
REMARK                            x       y       z     vdW  Elec       q    Type
REMARK                         _______ _______ _______ _____ _____    ______ ____
ROOT
ATOM      1  O   UNL     1      35.966 -25.750 -15.809  0.00  0.00    -0.348 OA
ENDROOT
BRANCH   1   2
ATOM      2  C   UNL     1      36.631 -26.881 -15.260  0.00  0.00    +0.174 C 
BRANCH   2   3
ATOM      3  C   UNL     1      37.265 -26.490 -13.939  0.00  0.00    +0.174 C 
BRANCH   3   4
ATOM      4  O   UNL     1      38.669 -26.369 -14.116  0.00  0.00    -0.348 OA
BRANCH   4   5
ATOM      5  C   UNL     1      39.190 -25.252 -13.406  0.00  0.00    +0.174 C 
BRANCH   5   6
ATOM      6  C   UNL     1      38.284 -24.947 -12.229  0.00  0.00    +0.174 C 
BRANCH   6   7
ATOM      7  O   UNL     1      38.514 -23.611 -11.800  0.00  0.00    -0.348 OA
ATOM      8  C   UNL     1      37.304 -22.870 -11.728  0.00  0.00    +0.174 C 
ENDBRANCH   6   7
ENDBRANCH   5   6
ENDBRANCH   4   5
ENDBRANCH   3   4
ENDBRANCH   2   3
ENDBRANCH   1   2
BRANCH   1   9
ATOM      9  C   UNL     1      35.523 -24.862 -14.792  0.00  0.00    +0.174 C 
BRANCH   9  10
ATOM     10  C   UNL     1      34.416 -23.988 -15.347  0.00  0.00    +0.174 C 
BRANCH  10  11
ATOM     11  O   UNL     1      34.734 -23.628 -16.685  0.00  0.00    -0.348 OA
BRANCH  11  12
ATOM     12  C   UNL     1      33.585 -23.183 -17.392  0.00  0.00    +0.174 C 
BRANCH  12  13
ATOM     13  C   UNL     1      32.360 -23.378 -16.520  0.00  0.00    +0.174 C 
BRANCH  13  14
ATOM     14  O   UNL     1      31.280 -22.627 -17.060  0.00  0.00    -0.348 OA
ATOM     15  C   UNL     1      30.059 -22.915 -16.393  0.00  0.00    +0.174 C 
ENDBRANCH  13  14
ENDBRANCH  12  13
ENDBRANCH  11  12
ENDBRANCH  10  11
ENDBRANCH   9  10
ENDBRANCH   1   9
TORSDOF 12
ENDMDL
MODEL 7
REMARK VINA RESULT:      -5.1      1.915      6.124
REMARK  Name = 8925
REMARK  12 active torsions:
REMARK  status: ('A' for Active; 'I' for Inactive)
REMARK    1  A    between atoms: O_1  and  C_2
REMARK    2  A    between atoms: O_1  and  C_9
REMARK    3  A    between atoms: C_2  and  C_3
REMARK    4  A    between atoms: C_3  and  O_4
REMARK    5  A    between atoms: O_4  and  C_5
REMARK    6  A    between atoms: C_5  and  C_6
REMARK    7  A    between atoms: C_6  and  O_7
REMARK    8  A    between atoms: C_9  and  C_10
REMARK    9  A    between atoms: C_10  and  O_11
REMARK   10  A    between atoms: O_11  and  C_12
REMARK   11  A    between atoms: C_12  and  C_13
REMARK   12  A    between atoms: C_13  and  O_14
REMARK                            x       y       z     vdW  Elec       q    Type
REMARK                         _______ _______ _______ _____ _____    ______ ____
ROOT
ATOM      1  O   UNL     1      35.921 -25.387 -15.699  0.00  0.00    -0.348 OA
ENDROOT
BRANCH   1   2
ATOM      2  C   UNL     1      36.600 -26.554 -15.251  0.00  0.00    +0.174 C 
BRANCH   2   3
ATOM      3  C   UNL     1      37.158 -26.301 -13.864  0.00  0.00    +0.174 C 
BRANCH   3   4
ATOM      4  O   UNL     1      38.577 -26.320 -13.924  0.00  0.00    -0.348 OA
BRANCH   4   5
ATOM      5  C   UNL     1      39.141 -25.176 -13.295  0.00  0.00    +0.174 C 
BRANCH   5   6
ATOM      6  C   UNL     1      38.325 -24.836 -12.063  0.00  0.00    +0.174 C 
BRANCH   6   7
ATOM      7  O   UNL     1      38.484 -23.454 -11.767  0.00  0.00    -0.348 OA
ATOM      8  C   UNL     1      37.230 -22.807 -11.604  0.00  0.00    +0.174 C 
ENDBRANCH   6   7
ENDBRANCH   5   6
ENDBRANCH   4   5
ENDBRANCH   3   4
ENDBRANCH   2   3
ENDBRANCH   1   2
BRANCH   1   9
ATOM      9  C   UNL     1      35.556 -24.548 -14.612  0.00  0.00    +0.174 C 
BRANCH   9  10
ATOM     10  C   UNL     1      35.855 -23.108 -14.977  0.00  0.00    +0.174 C 
BRANCH  10  11
ATOM     11  O   UNL     1      37.222 -22.997 -15.354  0.00  0.00    -0.348 OA
BRANCH  11  12
ATOM     12  C   UNL     1      37.426 -21.928 -16.265  0.00  0.00    +0.174 C 
BRANCH  12  13
ATOM     13  C   UNL     1      36.443 -22.059 -17.411  0.00  0.00    +0.174 C 
BRANCH  13  14
ATOM     14  O   UNL     1      36.623 -20.968 -18.306  0.00  0.00    -0.348 OA
ATOM     15  C   UNL     1      36.429 -21.363 -19.657  0.00  0.00    +0.174 C 
ENDBRANCH  13  14
ENDBRANCH  12  13
ENDBRANCH  11  12
ENDBRANCH  10  11
ENDBRANCH   9  10
ENDBRANCH   1   9
TORSDOF 12
ENDMDL
MODEL 8
REMARK VINA RESULT:      -5.1      2.532      3.623
REMARK  Name = 8925
REMARK  12 active torsions:
REMARK  status: ('A' for Active; 'I' for Inactive)
REMARK    1  A    between atoms: O_1  and  C_2
REMARK    2  A    between atoms: O_1  and  C_9
REMARK    3  A    between atoms: C_2  and  C_3
REMARK    4  A    between atoms: C_3  and  O_4
REMARK    5  A    between atoms: O_4  and  C_5
REMARK    6  A    between atoms: C_5  and  C_6
REMARK    7  A    between atoms: C_6  and  O_7
REMARK    8  A    between atoms: C_9  and  C_10
REMARK    9  A    between atoms: C_10  and  O_11
REMARK   10  A    between atoms: O_11  and  C_12
REMARK   11  A    between atoms: C_12  and  C_13
REMARK   12  A    between atoms: C_13  and  O_14
REMARK                            x       y       z     vdW  Elec       q    Type
REMARK                         _______ _______ _______ _____ _____    ______ ____
ROOT
ATOM      1  O   UNL     1      35.273 -23.528 -16.655  0.00  0.00    -0.348 OA
ENDROOT
BRANCH   1   2
ATOM      2  C   UNL     1      33.904 -23.301 -16.342  0.00  0.00    +0.174 C 
BRANCH   2   3
ATOM      3  C   UNL     1      33.145 -23.014 -17.623  0.00  0.00    +0.174 C 
BRANCH   3   4
ATOM      4  O   UNL     1      31.816 -22.631 -17.298  0.00  0.00    -0.348 OA
BRANCH   4   5
ATOM      5  C   UNL     1      31.326 -23.352 -16.174  0.00  0.00    +0.174 C 
BRANCH   5   6
ATOM      6  C   UNL     1      29.903 -22.914 -15.887  0.00  0.00    +0.174 C 
BRANCH   6   7
ATOM      7  O   UNL     1      29.292 -22.496 -17.101  0.00  0.00    -0.348 OA
ATOM      8  C   UNL     1      27.882 -22.664 -17.060  0.00  0.00    +0.174 C 
ENDBRANCH   6   7
ENDBRANCH   5   6
ENDBRANCH   4   5
ENDBRANCH   3   4
ENDBRANCH   2   3
ENDBRANCH   1   2
BRANCH   1   9
ATOM      9  C   UNL     1      36.133 -22.928 -15.696  0.00  0.00    +0.174 C 
BRANCH   9  10
ATOM     10  C   UNL     1      36.446 -23.940 -14.611  0.00  0.00    +0.174 C 
BRANCH  10  11
ATOM     11  O   UNL     1      37.696 -23.612 -14.016  0.00  0.00    -0.348 OA
BRANCH  11  12
ATOM     12  C   UNL     1      38.351 -24.766 -13.510  0.00  0.00    +0.174 C 
BRANCH  12  13
ATOM     13  C   UNL     1      37.978 -25.961 -14.365  0.00  0.00    +0.174 C 
BRANCH  13  14
ATOM     14  O   UNL     1      39.155 -26.699 -14.671  0.00  0.00    -0.348 OA
ATOM     15  C   UNL     1      40.316 -25.882 -14.602  0.00  0.00    +0.174 C 
ENDBRANCH  13  14
ENDBRANCH  12  13
ENDBRANCH  11  12
ENDBRANCH  10  11
ENDBRANCH   9  10
ENDBRANCH   1   9
TORSDOF 12
ENDMDL
MODEL 9
REMARK VINA RESULT:      -5.1      5.722     10.611
REMARK  Name = 8925
REMARK  12 active torsions:
REMARK  status: ('A' for Active; 'I' for Inactive)
REMARK    1  A    between atoms: O_1  and  C_2
REMARK    2  A    between atoms: O_1  and  C_9
REMARK    3  A    between atoms: C_2  and  C_3
REMARK    4  A    between atoms: C_3  and  O_4
REMARK    5  A    between atoms: O_4  and  C_5
REMARK    6  A    between atoms: C_5  and  C_6
REMARK    7  A    between atoms: C_6  and  O_7
REMARK    8  A    between atoms: C_9  and  C_10
REMARK    9  A    between atoms: C_10  and  O_11
REMARK   10  A    between atoms: O_11  and  C_12
REMARK   11  A    between atoms: C_12  and  C_13
REMARK   12  A    between atoms: C_13  and  O_14
REMARK                            x       y       z     vdW  Elec       q    Type
REMARK                         _______ _______ _______ _____ _____    ______ ____
ROOT
ATOM      1  O   UNL     1      35.452 -17.742 -20.629  0.00  0.00    -0.348 OA
ENDROOT
BRANCH   1   2
ATOM      2  C   UNL     1      36.121 -18.694 -21.448  0.00  0.00    +0.174 C 
BRANCH   2   3
ATOM      3  C   UNL     1      36.830 -19.699 -20.561  0.00  0.00    +0.174 C 
BRANCH   3   4
ATOM      4  O   UNL     1      35.896 -20.248 -19.644  0.00  0.00    -0.348 OA
BRANCH   4   5
ATOM      5  C   UNL     1      35.016 -21.166 -20.281  0.00  0.00    +0.174 C 
BRANCH   5   6
ATOM      6  C   UNL     1      33.592 -20.862 -19.858  0.00  0.00    +0.174 C 
BRANCH   6   7
ATOM      7  O   UNL     1      32.943 -22.077 -19.506  0.00  0.00    -0.348 OA
ATOM      8  C   UNL     1      33.516 -22.657 -18.342  0.00  0.00    +0.174 C 
ENDBRANCH   6   7
ENDBRANCH   5   6
ENDBRANCH   4   5
ENDBRANCH   3   4
ENDBRANCH   2   3
ENDBRANCH   1   2
BRANCH   1   9
ATOM      9  C   UNL     1      34.323 -17.189 -21.290  0.00  0.00    +0.174 C 
BRANCH   9  10
ATOM     10  C   UNL     1      34.629 -15.756 -21.676  0.00  0.00    +0.174 C 
BRANCH  10  11
ATOM     11  O   UNL     1      34.111 -15.504 -22.977  0.00  0.00    -0.348 OA
BRANCH  11  12
ATOM     12  C   UNL     1      34.854 -16.186 -23.976  0.00  0.00    +0.174 C 
BRANCH  12  13
ATOM     13  C   UNL     1      34.058 -16.195 -25.266  0.00  0.00    +0.174 C 
BRANCH  13  14
ATOM     14  O   UNL     1      33.836 -17.542 -25.666  0.00  0.00    -0.348 OA
ATOM     15  C   UNL     1      34.499 -18.458 -24.806  0.00  0.00    +0.174 C 
ENDBRANCH  13  14
ENDBRANCH  12  13
ENDBRANCH  11  12
ENDBRANCH  10  11
ENDBRANCH   9  10
ENDBRANCH   1   9
TORSDOF 12
ENDMDL
