MODEL 1
REMARK VINA RESULT:      -7.4      0.000      0.000
REMARK  Name = 3182
REMARK  5 active torsions:
REMARK  status: ('A' for Active; 'I' for Inactive)
REMARK    1  A    between atoms: N_3  and  C_14
REMARK    2  A    between atoms: C_14  and  C_15
REMARK    3  A    between atoms: C_15  and  O_16
REMARK    4  A    between atoms: C_15  and  C_18
REMARK    5  A    between atoms: C_18  and  O_19
REMARK                            x       y       z     vdW  Elec       q    Type
REMARK                         _______ _______ _______ _____ _____    ______ ____
ROOT
ATOM      1  O   UNL     1      35.783 -23.160 -16.662  0.00  0.00    -0.272 OA
ATOM      2  O   UNL     1      31.100 -23.317 -16.405  0.00  0.00    -0.252 OA
ATOM      3  N   UNL     1      35.749 -23.912 -13.767  0.00  0.00    -0.237 NA
ATOM      4  N   UNL     1      32.321 -23.791 -14.481  0.00  0.00    -0.228 N 
ATOM      5  N   UNL     1      33.436 -23.232 -16.557  0.00  0.00    -0.211 N 
ATOM      6  N   UNL     1      33.866 -24.244 -12.619  0.00  0.00    -0.240 NA
ATOM      7  C   UNL     1      34.724 -23.704 -14.645  0.00  0.00    +0.192 C 
ATOM      8  C   UNL     1      33.584 -23.913 -13.917  0.00  0.00    +0.136 C 
ATOM      9  C   UNL     1      34.749 -23.345 -16.027  0.00  0.00    +0.254 C 
ATOM     10  C   UNL     1      35.182 -24.235 -12.560  0.00  0.00    +0.203 C 
ATOM     11  C   UNL     1      32.199 -23.439 -15.849  0.00  0.00    +0.318 C 
ATOM     12  C   UNL     1      31.131 -24.022 -13.672  0.00  0.00    +0.123 C 
ATOM     13  C   UNL     1      33.330 -22.868 -17.967  0.00  0.00    +0.124 C 
ENDROOT
BRANCH   3  14
ATOM     14  C   UNL     1      37.165 -23.816 -14.030  0.00  0.00    +0.106 C 
BRANCH  14  15
ATOM     15  C   UNL     1      37.945 -24.998 -13.452  0.00  0.00    +0.156 C 
BRANCH  15  16
ATOM     16  O   UNL     1      39.301 -24.593 -13.257  0.00  0.00    -0.380 OA
ATOM     17  H   UNL     1      39.537 -24.692 -12.321  0.00  0.00    +0.211 HD
ENDBRANCH  15  16
BRANCH  15  18
ATOM     18  C   UNL     1      37.929 -26.185 -14.411  0.00  0.00    +0.168 C 
BRANCH  18  19
ATOM     19  O   UNL     1      37.247 -25.807 -15.601  0.00  0.00    -0.379 OA
ATOM     20  H   UNL     1      36.482 -26.390 -15.734  0.00  0.00    +0.211 HD
ENDBRANCH  18  19
ENDBRANCH  15  18
ENDBRANCH  14  15
ENDBRANCH   3  14
TORSDOF 5
ENDMDL
MODEL 2
REMARK VINA RESULT:      -7.4      1.602      2.939
REMARK  Name = 3182
REMARK  5 active torsions:
REMARK  status: ('A' for Active; 'I' for Inactive)
REMARK    1  A    between atoms: N_3  and  C_14
REMARK    2  A    between atoms: C_14  and  C_15
REMARK    3  A    between atoms: C_15  and  O_16
REMARK    4  A    between atoms: C_15  and  C_18
REMARK    5  A    between atoms: C_18  and  O_19
REMARK                            x       y       z     vdW  Elec       q    Type
REMARK                         _______ _______ _______ _____ _____    ______ ____
ROOT
ATOM      1  O   UNL     1      33.767 -24.317 -12.694  0.00  0.00    -0.272 OA
ATOM      2  O   UNL     1      31.079 -23.437 -16.438  0.00  0.00    -0.252 OA
ATOM      3  N   UNL     1      36.076 -23.604 -14.458  0.00  0.00    -0.237 NA
ATOM      4  N   UNL     1      33.382 -23.182 -16.656  0.00  0.00    -0.228 N 
ATOM      5  N   UNL     1      32.401 -23.882 -14.556  0.00  0.00    -0.211 N 
ATOM      6  N   UNL     1      35.835 -22.998 -16.590  0.00  0.00    -0.240 NA
ATOM      7  C   UNL     1      34.735 -23.639 -14.716  0.00  0.00    +0.192 C 
ATOM      8  C   UNL     1      34.616 -23.265 -16.027  0.00  0.00    +0.136 C 
ATOM      9  C   UNL     1      33.639 -23.981 -13.868  0.00  0.00    +0.254 C 
ATOM     10  C   UNL     1      36.696 -23.212 -15.617  0.00  0.00    +0.203 C 
ATOM     11  C   UNL     1      32.205 -23.494 -15.929  0.00  0.00    +0.318 C 
ATOM     12  C   UNL     1      33.297 -22.779 -18.055  0.00  0.00    +0.123 C 
ATOM     13  C   UNL     1      31.201 -24.208 -13.791  0.00  0.00    +0.124 C 
ENDROOT
BRANCH   3  14
ATOM     14  C   UNL     1      36.740 -23.916 -13.215  0.00  0.00    +0.106 C 
BRANCH  14  15
ATOM     15  C   UNL     1      36.991 -25.416 -13.049  0.00  0.00    +0.156 C 
BRANCH  15  16
ATOM     16  O   UNL     1      36.388 -25.845 -11.827  0.00  0.00    -0.380 OA
ATOM     17  H   UNL     1      37.052 -25.843 -11.120  0.00  0.00    +0.211 HD
ENDBRANCH  15  16
BRANCH  15  18
ATOM     18  C   UNL     1      38.485 -25.716 -12.981  0.00  0.00    +0.168 C 
BRANCH  18  19
ATOM     19  O   UNL     1      39.204 -24.594 -13.479  0.00  0.00    -0.379 OA
ATOM     20  H   UNL     1      38.784 -23.776 -13.170  0.00  0.00    +0.211 HD
ENDBRANCH  18  19
ENDBRANCH  15  18
ENDBRANCH  14  15
ENDBRANCH   3  14
TORSDOF 5
ENDMDL
MODEL 3
REMARK VINA RESULT:      -7.3      2.347      6.292
REMARK  Name = 3182
REMARK  5 active torsions:
REMARK  status: ('A' for Active; 'I' for Inactive)
REMARK    1  A    between atoms: N_3  and  C_14
REMARK    2  A    between atoms: C_14  and  C_15
REMARK    3  A    between atoms: C_15  and  O_16
REMARK    4  A    between atoms: C_15  and  C_18
REMARK    5  A    between atoms: C_18  and  O_19
REMARK                            x       y       z     vdW  Elec       q    Type
REMARK                         _______ _______ _______ _____ _____    ______ ____
ROOT
ATOM      1  O   UNL     1      32.231 -22.353 -18.262  0.00  0.00    -0.272 OA
ATOM      2  O   UNL     1      36.134 -23.518 -15.933  0.00  0.00    -0.252 OA
ATOM      3  N   UNL     1      30.763 -23.288 -15.829  0.00  0.00    -0.237 NA
ATOM      4  N   UNL     1      34.087 -23.853 -14.879  0.00  0.00    -0.228 N 
ATOM      5  N   UNL     1      34.200 -22.929 -17.115  0.00  0.00    -0.211 N 
ATOM      6  N   UNL     1      31.793 -24.094 -14.022  0.00  0.00    -0.240 NA
ATOM      7  C   UNL     1      32.101 -23.244 -16.099  0.00  0.00    +0.192 C 
ATOM      8  C   UNL     1      32.707 -23.742 -14.978  0.00  0.00    +0.136 C 
ATOM      9  C   UNL     1      32.794 -22.795 -17.264  0.00  0.00    +0.254 C 
ATOM     10  C   UNL     1      30.627 -23.807 -14.566  0.00  0.00    +0.203 C 
ATOM     11  C   UNL     1      34.900 -23.443 -15.965  0.00  0.00    +0.318 C 
ATOM     12  C   UNL     1      34.695 -24.390 -13.667  0.00  0.00    +0.123 C 
ATOM     13  C   UNL     1      35.020 -22.502 -18.244  0.00  0.00    +0.124 C 
ENDROOT
BRANCH   3  14
ATOM     14  C   UNL     1      29.678 -22.877 -16.688  0.00  0.00    +0.106 C 
BRANCH  14  15
ATOM     15  C   UNL     1      28.339 -23.485 -16.267  0.00  0.00    +0.156 C 
BRANCH  15  16
ATOM     16  O   UNL     1      27.811 -24.225 -17.368  0.00  0.00    -0.380 OA
ATOM     17  H   UNL     1      27.127 -23.700 -17.813  0.00  0.00    +0.211 HD
ENDBRANCH  15  16
BRANCH  15  18
ATOM     18  C   UNL     1      27.338 -22.397 -15.891  0.00  0.00    +0.168 C 
BRANCH  18  19
ATOM     19  O   UNL     1      27.171 -21.522 -17.000  0.00  0.00    -0.379 OA
ATOM     20  H   UNL     1      27.437 -21.976 -17.815  0.00  0.00    +0.211 HD
ENDBRANCH  18  19
ENDBRANCH  15  18
ENDBRANCH  14  15
ENDBRANCH   3  14
TORSDOF 5
ENDMDL
MODEL 4
REMARK VINA RESULT:      -7.3      1.874      5.911
REMARK  Name = 3182
REMARK  5 active torsions:
REMARK  status: ('A' for Active; 'I' for Inactive)
REMARK    1  A    between atoms: N_3  and  C_14
REMARK    2  A    between atoms: C_14  and  C_15
REMARK    3  A    between atoms: C_15  and  O_16
REMARK    4  A    between atoms: C_15  and  C_18
REMARK    5  A    between atoms: C_18  and  O_19
REMARK                            x       y       z     vdW  Elec       q    Type
REMARK                         _______ _______ _______ _____ _____    ______ ____
ROOT
ATOM      1  O   UNL     1      33.079 -24.361 -13.182  0.00  0.00    -0.272 OA
ATOM      2  O   UNL     1      37.598 -23.172 -13.600  0.00  0.00    -0.252 OA
ATOM      3  N   UNL     1      32.842 -23.618 -16.070  0.00  0.00    -0.237 NA
ATOM      4  N   UNL     1      36.234 -22.976 -15.475  0.00  0.00    -0.228 N 
ATOM      5  N   UNL     1      35.345 -23.772 -13.368  0.00  0.00    -0.211 N 
ATOM      6  N   UNL     1      34.562 -22.873 -17.278  0.00  0.00    -0.240 NA
ATOM      7  C   UNL     1      33.919 -23.596 -15.230  0.00  0.00    +0.192 C 
ATOM      8  C   UNL     1      34.956 -23.136 -15.994  0.00  0.00    +0.136 C 
ATOM      9  C   UNL     1      34.023 -23.952 -13.852  0.00  0.00    +0.254 C 
ATOM     10  C   UNL     1      33.279 -23.175 -17.292  0.00  0.00    +0.203 C 
ATOM     11  C   UNL     1      36.480 -23.294 -14.116  0.00  0.00    +0.318 C 
ATOM     12  C   UNL     1      37.313 -22.482 -16.322  0.00  0.00    +0.123 C 
ATOM     13  C   UNL     1      35.580 -24.104 -11.966  0.00  0.00    +0.124 C 
ENDROOT
BRANCH   3  14
ATOM     14  C   UNL     1      31.492 -24.025 -15.759  0.00  0.00    +0.106 C 
BRANCH  14  15
ATOM     15  C   UNL     1      30.682 -22.902 -15.107  0.00  0.00    +0.156 C 
BRANCH  15  16
ATOM     16  O   UNL     1      30.519 -23.206 -13.721  0.00  0.00    -0.380 OA
ATOM     17  H   UNL     1      30.356 -22.387 -13.227  0.00  0.00    +0.211 HD
ENDBRANCH  15  16
BRANCH  15  18
ATOM     18  C   UNL     1      29.300 -22.787 -15.742  0.00  0.00    +0.168 C 
BRANCH  18  19
ATOM     19  O   UNL     1      29.448 -22.392 -17.101  0.00  0.00    -0.379 OA
ATOM     20  H   UNL     1      30.375 -22.495 -17.369  0.00  0.00    +0.211 HD
ENDBRANCH  18  19
ENDBRANCH  15  18
ENDBRANCH  14  15
ENDBRANCH   3  14
TORSDOF 5
ENDMDL
MODEL 5
REMARK VINA RESULT:      -7.2      2.125      3.530
REMARK  Name = 3182
REMARK  5 active torsions:
REMARK  status: ('A' for Active; 'I' for Inactive)
REMARK    1  A    between atoms: N_3  and  C_14
REMARK    2  A    between atoms: C_14  and  C_15
REMARK    3  A    between atoms: C_15  and  O_16
REMARK    4  A    between atoms: C_15  and  C_18
REMARK    5  A    between atoms: C_18  and  O_19
REMARK                            x       y       z     vdW  Elec       q    Type
REMARK                         _______ _______ _______ _____ _____    ______ ____
ROOT
ATOM      1  O   UNL     1      33.773 -23.897 -14.574  0.00  0.00    -0.272 OA
ATOM      2  O   UNL     1      32.735 -22.384 -18.893  0.00  0.00    -0.252 OA
ATOM      3  N   UNL     1      36.581 -23.072 -15.197  0.00  0.00    -0.237 NA
ATOM      4  N   UNL     1      34.942 -22.220 -18.174  0.00  0.00    -0.228 N 
ATOM      5  N   UNL     1      33.230 -23.145 -16.733  0.00  0.00    -0.211 N 
ATOM      6  N   UNL     1      37.179 -22.172 -17.148  0.00  0.00    -0.240 NA
ATOM      7  C   UNL     1      35.444 -23.003 -15.951  0.00  0.00    +0.192 C 
ATOM      8  C   UNL     1      35.839 -22.450 -17.139  0.00  0.00    +0.136 C 
ATOM      9  C   UNL     1      34.107 -23.399 -15.646  0.00  0.00    +0.254 C 
ATOM     10  C   UNL     1      37.599 -22.560 -15.961  0.00  0.00    +0.203 C 
ATOM     11  C   UNL     1      33.578 -22.566 -18.006  0.00  0.00    +0.318 C 
ATOM     12  C   UNL     1      35.402 -21.628 -19.425  0.00  0.00    +0.123 C 
ATOM     13  C   UNL     1      31.829 -23.509 -16.542  0.00  0.00    +0.124 C 
ENDROOT
BRANCH   3  14
ATOM     14  C   UNL     1      36.715 -23.582 -13.854  0.00  0.00    +0.106 C 
BRANCH  14  15
ATOM     15  C   UNL     1      37.175 -25.041 -13.828  0.00  0.00    +0.156 C 
BRANCH  15  16
ATOM     16  O   UNL     1      36.029 -25.880 -13.977  0.00  0.00    -0.380 OA
ATOM     17  H   UNL     1      35.229 -25.380 -13.748  0.00  0.00    +0.211 HD
ENDBRANCH  15  16
BRANCH  15  18
ATOM     18  C   UNL     1      37.851 -25.378 -12.503  0.00  0.00    +0.168 C 
BRANCH  18  19
ATOM     19  O   UNL     1      36.999 -26.238 -11.756  0.00  0.00    -0.379 OA
ATOM     20  H   UNL     1      37.390 -26.405 -10.884  0.00  0.00    +0.211 HD
ENDBRANCH  18  19
ENDBRANCH  15  18
ENDBRANCH  14  15
ENDBRANCH   3  14
TORSDOF 5
ENDMDL
MODEL 6
REMARK VINA RESULT:      -7.0      8.634     11.135
REMARK  Name = 3182
REMARK  5 active torsions:
REMARK  status: ('A' for Active; 'I' for Inactive)
REMARK    1  A    between atoms: N_3  and  C_14
REMARK    2  A    between atoms: C_14  and  C_15
REMARK    3  A    between atoms: C_15  and  O_16
REMARK    4  A    between atoms: C_15  and  C_18
REMARK    5  A    between atoms: C_18  and  O_19
REMARK                            x       y       z     vdW  Elec       q    Type
REMARK                         _______ _______ _______ _____ _____    ______ ____
ROOT
ATOM      1  O   UNL     1      34.563 -16.173 -20.547  0.00  0.00    -0.272 OA
ATOM      2  O   UNL     1      32.555 -13.393 -23.750  0.00  0.00    -0.252 OA
ATOM      3  N   UNL     1      35.283 -17.940 -22.851  0.00  0.00    -0.237 NA
ATOM      4  N   UNL     1      33.583 -15.348 -24.484  0.00  0.00    -0.228 N 
ATOM      5  N   UNL     1      33.551 -14.765 -22.133  0.00  0.00    -0.211 N 
ATOM      6  N   UNL     1      34.738 -17.468 -24.962  0.00  0.00    -0.240 NA
ATOM      7  C   UNL     1      34.607 -16.754 -22.816  0.00  0.00    +0.192 C 
ATOM      8  C   UNL     1      34.285 -16.489 -24.119  0.00  0.00    +0.136 C 
ATOM      9  C   UNL     1      34.268 -15.916 -21.711  0.00  0.00    +0.254 C 
ATOM     10  C   UNL     1      35.337 -18.330 -24.165  0.00  0.00    +0.203 C 
ATOM     11  C   UNL     1      33.182 -14.426 -23.484  0.00  0.00    +0.318 C 
ATOM     12  C   UNL     1      33.259 -15.102 -25.883  0.00  0.00    +0.123 C 
ATOM     13  C   UNL     1      33.147 -13.828 -21.090  0.00  0.00    +0.124 C 
ENDROOT
BRANCH   3  14
ATOM     14  C   UNL     1      35.843 -18.666 -21.737  0.00  0.00    +0.106 C 
BRANCH  14  15
ATOM     15  C   UNL     1      34.936 -19.806 -21.270  0.00  0.00    +0.156 C 
BRANCH  15  16
ATOM     16  O   UNL     1      33.741 -19.241 -20.728  0.00  0.00    -0.380 OA
ATOM     17  H   UNL     1      33.971 -18.540 -20.098  0.00  0.00    +0.211 HD
ENDBRANCH  15  16
BRANCH  15  18
ATOM     18  C   UNL     1      35.614 -20.635 -20.183  0.00  0.00    +0.168 C 
BRANCH  18  19
ATOM     19  O   UNL     1      36.769 -19.940 -19.727  0.00  0.00    -0.379 OA
ATOM     20  H   UNL     1      36.785 -19.941 -18.757  0.00  0.00    +0.211 HD
ENDBRANCH  18  19
ENDBRANCH  15  18
ENDBRANCH  14  15
ENDBRANCH   3  14
TORSDOF 5
ENDMDL
MODEL 7
REMARK VINA RESULT:      -6.9      1.687      2.377
REMARK  Name = 3182
REMARK  5 active torsions:
REMARK  status: ('A' for Active; 'I' for Inactive)
REMARK    1  A    between atoms: N_3  and  C_14
REMARK    2  A    between atoms: C_14  and  C_15
REMARK    3  A    between atoms: C_15  and  O_16
REMARK    4  A    between atoms: C_15  and  C_18
REMARK    5  A    between atoms: C_18  and  O_19
REMARK                            x       y       z     vdW  Elec       q    Type
REMARK                         _______ _______ _______ _____ _____    ______ ____
ROOT
ATOM      1  O   UNL     1      36.391 -23.279 -16.352  0.00  0.00    -0.272 OA
ATOM      2  O   UNL     1      32.437 -22.178 -18.625  0.00  0.00    -0.252 OA
ATOM      3  N   UNL     1      34.603 -24.174 -14.126  0.00  0.00    -0.237 NA
ATOM      4  N   UNL     1      32.258 -23.085 -16.490  0.00  0.00    -0.228 N 
ATOM      5  N   UNL     1      34.424 -22.720 -17.510  0.00  0.00    -0.211 N 
ATOM      6  N   UNL     1      32.379 -24.055 -14.231  0.00  0.00    -0.240 NA
ATOM      7  C   UNL     1      34.306 -23.642 -15.348  0.00  0.00    +0.192 C 
ATOM      8  C   UNL     1      32.940 -23.580 -15.386  0.00  0.00    +0.136 C 
ATOM      9  C   UNL     1      35.166 -23.217 -16.405  0.00  0.00    +0.254 C 
ATOM     10  C   UNL     1      33.410 -24.406 -13.490  0.00  0.00    +0.203 C 
ATOM     11  C   UNL     1      32.990 -22.628 -17.615  0.00  0.00    +0.318 C 
ATOM     12  C   UNL     1      30.801 -23.035 -16.491  0.00  0.00    +0.123 C 
ATOM     13  C   UNL     1      35.195 -22.253 -18.658  0.00  0.00    +0.124 C 
ENDROOT
BRANCH   3  14
ATOM     14  C   UNL     1      35.912 -24.449 -13.582  0.00  0.00    +0.106 C 
BRANCH  14  15
ATOM     15  C   UNL     1      36.600 -23.188 -13.057  0.00  0.00    +0.156 C 
BRANCH  15  16
ATOM     16  O   UNL     1      37.722 -22.902 -13.893  0.00  0.00    -0.380 OA
ATOM     17  H   UNL     1      38.375 -22.386 -13.394  0.00  0.00    +0.211 HD
ENDBRANCH  15  16
BRANCH  15  18
ATOM     18  C   UNL     1      37.101 -23.392 -11.630  0.00  0.00    +0.168 C 
BRANCH  18  19
ATOM     19  O   UNL     1      38.481 -23.053 -11.573  0.00  0.00    -0.379 OA
ATOM     20  H   UNL     1      38.900 -23.255 -12.425  0.00  0.00    +0.211 HD
ENDBRANCH  18  19
ENDBRANCH  15  18
ENDBRANCH  14  15
ENDBRANCH   3  14
TORSDOF 5
ENDMDL
MODEL 8
REMARK VINA RESULT:      -6.7      9.406     12.265
REMARK  Name = 3182
REMARK  5 active torsions:
REMARK  status: ('A' for Active; 'I' for Inactive)
REMARK    1  A    between atoms: N_3  and  C_14
REMARK    2  A    between atoms: C_14  and  C_15
REMARK    3  A    between atoms: C_15  and  O_16
REMARK    4  A    between atoms: C_15  and  C_18
REMARK    5  A    between atoms: C_18  and  O_19
REMARK                            x       y       z     vdW  Elec       q    Type
REMARK                         _______ _______ _______ _____ _____    ______ ____
ROOT
ATOM      1  O   UNL     1      33.786 -15.295 -24.589  0.00  0.00    -0.272 OA
ATOM      2  O   UNL     1      35.265 -19.666 -23.742  0.00  0.00    -0.252 OA
ATOM      3  N   UNL     1      34.266 -14.802 -21.678  0.00  0.00    -0.237 NA
ATOM      4  N   UNL     1      35.202 -18.166 -21.964  0.00  0.00    -0.228 N 
ATOM      5  N   UNL     1      34.524 -17.490 -24.189  0.00  0.00    -0.211 N 
ATOM      6  N   UNL     1      35.028 -16.371 -20.289  0.00  0.00    -0.240 NA
ATOM      7  C   UNL     1      34.439 -15.928 -22.431  0.00  0.00    +0.192 C 
ATOM      8  C   UNL     1      34.905 -16.872 -21.557  0.00  0.00    +0.136 C 
ATOM      9  C   UNL     1      34.208 -16.155 -23.821  0.00  0.00    +0.254 C 
ATOM     10  C   UNL     1      34.635 -15.119 -20.395  0.00  0.00    +0.203 C 
ATOM     11  C   UNL     1      35.018 -18.530 -23.322  0.00  0.00    +0.318 C 
ATOM     12  C   UNL     1      35.696 -19.143 -21.002  0.00  0.00    +0.123 C 
ATOM     13  C   UNL     1      34.328 -17.845 -25.591  0.00  0.00    +0.124 C 
ENDROOT
BRANCH   3  14
ATOM     14  C   UNL     1      33.789 -13.514 -22.120  0.00  0.00    +0.106 C 
BRANCH  14  15
ATOM     15  C   UNL     1      32.262 -13.423 -22.107  0.00  0.00    +0.156 C 
BRANCH  15  16
ATOM     16  O   UNL     1      31.803 -13.304 -23.454  0.00  0.00    -0.380 OA
ATOM     17  H   UNL     1      32.562 -13.329 -24.058  0.00  0.00    +0.211 HD
ENDBRANCH  15  16
BRANCH  15  18
ATOM     18  C   UNL     1      31.793 -12.199 -21.327  0.00  0.00    +0.168 C 
BRANCH  18  19
ATOM     19  O   UNL     1      30.645 -11.656 -21.967  0.00  0.00    -0.379 OA
ATOM     20  H   UNL     1      30.307 -12.290 -22.620  0.00  0.00    +0.211 HD
ENDBRANCH  18  19
ENDBRANCH  15  18
ENDBRANCH  14  15
ENDBRANCH   3  14
TORSDOF 5
ENDMDL
MODEL 9
REMARK VINA RESULT:      -6.7     12.491     14.506
REMARK  Name = 3182
REMARK  5 active torsions:
REMARK  status: ('A' for Active; 'I' for Inactive)
REMARK    1  A    between atoms: N_3  and  C_14
REMARK    2  A    between atoms: C_14  and  C_15
REMARK    3  A    between atoms: C_15  and  O_16
REMARK    4  A    between atoms: C_15  and  C_18
REMARK    5  A    between atoms: C_18  and  O_19
REMARK                            x       y       z     vdW  Elec       q    Type
REMARK                         _______ _______ _______ _____ _____    ______ ____
ROOT
ATOM      1  O   UNL     1      34.172 -11.405 -24.823  0.00  0.00    -0.272 OA
ATOM      2  O   UNL     1      31.725  -8.829 -21.759  0.00  0.00    -0.252 OA
ATOM      3  N   UNL     1      33.254 -13.769 -23.236  0.00  0.00    -0.237 NA
ATOM      4  N   UNL     1      31.744 -11.139 -21.480  0.00  0.00    -0.228 N 
ATOM      5  N   UNL     1      32.953 -10.095 -23.301  0.00  0.00    -0.211 N 
ATOM      6  N   UNL     1      31.947 -13.592 -21.438  0.00  0.00    -0.240 NA
ATOM      7  C   UNL     1      33.008 -12.435 -23.071  0.00  0.00    +0.192 C 
ATOM      8  C   UNL     1      32.208 -12.355 -21.964  0.00  0.00    +0.136 C 
ATOM      9  C   UNL     1      33.451 -11.313 -23.834  0.00  0.00    +0.254 C 
ATOM     10  C   UNL     1      32.593 -14.424 -22.228  0.00  0.00    +0.203 C 
ATOM     11  C   UNL     1      32.108  -9.940 -22.144  0.00  0.00    +0.318 C 
ATOM     12  C   UNL     1      30.893 -11.096 -20.298  0.00  0.00    +0.123 C 
ATOM     13  C   UNL     1      33.338  -8.871 -23.997  0.00  0.00    +0.124 C 
ENDROOT
BRANCH   3  14
ATOM     14  C   UNL     1      34.052 -14.395 -24.262  0.00  0.00    +0.106 C 
BRANCH  14  15
ATOM     15  C   UNL     1      34.303 -15.878 -23.981  0.00  0.00    +0.156 C 
BRANCH  15  16
ATOM     16  O   UNL     1      35.640 -16.028 -23.501  0.00  0.00    -0.380 OA
ATOM     17  H   UNL     1      35.670 -15.818 -22.555  0.00  0.00    +0.211 HD
ENDBRANCH  15  16
BRANCH  15  18
ATOM     18  C   UNL     1      34.149 -16.709 -25.250  0.00  0.00    +0.168 C 
BRANCH  18  19
ATOM     19  O   UNL     1      33.736 -15.857 -26.312  0.00  0.00    -0.379 OA
ATOM     20  H   UNL     1      32.768 -15.869 -26.380  0.00  0.00    +0.211 HD
ENDBRANCH  18  19
ENDBRANCH  15  18
ENDBRANCH  14  15
ENDBRANCH   3  14
TORSDOF 5
ENDMDL
