MODEL 1
REMARK VINA RESULT:      -7.5      0.000      0.000
REMARK  Name = 5463874
REMARK  3 active torsions:
REMARK  status: ('A' for Active; 'I' for Inactive)
REMARK    1  A    between atoms: C_10  and  O_23
REMARK    2  A    between atoms: C_18  and  O_21
REMARK    3  A    between atoms: O_23  and  C_25
REMARK                            x       y       z     vdW  Elec       q    Type
REMARK                         _______ _______ _______ _____ _____    ______ ____
ROOT
ATOM      1  O   UNL     1      31.579 -11.726 -23.382  0.00  0.00    -0.472 OA
ATOM      2  N   UNL     1      31.464  -6.614 -22.427  0.00  0.00    +0.387 N 
ATOM      3  C   UNL     1      31.460  -9.522 -22.387  0.00  0.00    +0.058 C 
ATOM      4  C   UNL     1      31.705  -8.671 -21.139  0.00  0.00    -0.011 C 
ATOM      5  C   UNL     1      31.074 -11.003 -22.204  0.00  0.00    +0.209 C 
ATOM      6  C   UNL     1      32.439  -7.377 -21.607  0.00  0.00    -0.053 C 
ATOM      7  C   UNL     1      30.483  -8.748 -23.304  0.00  0.00    -0.015 C 
ATOM      8  C   UNL     1      32.723  -9.759 -23.129  0.00  0.00    +0.014 C 
ATOM      9  C   UNL     1      32.404  -9.437 -20.014  0.00  0.00    +0.002 C 
ATOM     10  C   UNL     1      31.594 -11.679 -20.908  0.00  0.00    +0.209 C 
ATOM     11  C   UNL     1      33.807  -7.680 -22.316  0.00  0.00    +0.005 C 
ATOM     12  C   UNL     1      31.636 -10.729 -19.708  0.00  0.00    +0.047 C 
ATOM     13  C   UNL     1      30.981  -7.324 -23.617  0.00  0.00    -0.077 C 
ATOM     14  C   UNL     1      33.810  -8.910 -23.183  0.00  0.00    -0.025 C 
ATOM     15  C   UNL     1      32.690 -10.995 -23.747  0.00  0.00    +0.168 C 
ATOM     16  C   UNL     1      31.909  -5.264 -22.753  0.00  0.00    -0.101 C 
ATOM     17  C   UNL     1      34.880  -9.314 -23.981  0.00  0.00    -0.001 C 
ATOM     18  C   UNL     1      33.727 -11.404 -24.552  0.00  0.00    +0.172 C 
ATOM     19  C   UNL     1      34.827 -10.543 -24.674  0.00  0.00    +0.040 C 
ATOM     20  H   UNL     1      30.657  -6.523 -21.810  0.00  0.00    -0.080 HD
ENDROOT
BRANCH  18  21
ATOM     21  O   UNL     1      33.713 -12.608 -25.175  0.00  0.00    -0.468 OA
ATOM     22  C   UNL     1      33.445 -12.617 -26.579  0.00  0.00    +0.253 C 
ENDBRANCH  18  21
BRANCH  10  23
ATOM     23  O   UNL     1      32.889 -12.260 -21.072  0.00  0.00    -0.448 OA
BRANCH  23  25
ATOM     24  O   UNL     1      32.436 -14.287 -20.061  0.00  0.00    -0.250 OA
ATOM     25  C   UNL     1      32.943 -13.617 -20.950  0.00  0.00    +0.318 C 
ATOM     26  C   UNL     1      33.732 -14.192 -22.088  0.00  0.00    +0.121 C 
ENDBRANCH  23  25
ENDBRANCH  10  23
TORSDOF 3
ENDMDL
MODEL 2
REMARK VINA RESULT:      -6.8      1.446      2.368
REMARK  Name = 5463874
REMARK  3 active torsions:
REMARK  status: ('A' for Active; 'I' for Inactive)
REMARK    1  A    between atoms: C_10  and  O_23
REMARK    2  A    between atoms: C_18  and  O_21
REMARK    3  A    between atoms: O_23  and  C_25
REMARK                            x       y       z     vdW  Elec       q    Type
REMARK                         _______ _______ _______ _____ _____    ______ ____
ROOT
ATOM      1  O   UNL     1      30.949 -10.495 -22.357  0.00  0.00    -0.472 OA
ATOM      2  N   UNL     1      32.867  -6.180 -24.537  0.00  0.00    +0.387 N 
ATOM      3  C   UNL     1      31.855  -8.299 -22.822  0.00  0.00    +0.058 C 
ATOM      4  C   UNL     1      32.678  -7.122 -22.296  0.00  0.00    -0.011 C 
ATOM      5  C   UNL     1      31.032  -9.129 -21.817  0.00  0.00    +0.209 C 
ATOM      6  C   UNL     1      33.681  -6.727 -23.424  0.00  0.00    -0.053 C 
ATOM      7  C   UNL     1      31.019  -7.794 -24.022  0.00  0.00    -0.015 C 
ATOM      8  C   UNL     1      32.733  -9.402 -23.285  0.00  0.00    +0.014 C 
ATOM      9  C   UNL     1      33.317  -7.393 -20.933  0.00  0.00    +0.002 C 
ATOM     10  C   UNL     1      31.582  -9.167 -20.367  0.00  0.00    +0.209 C 
ATOM     11  C   UNL     1      34.640  -7.905 -23.820  0.00  0.00    +0.005 C 
ATOM     12  C   UNL     1      32.245  -7.856 -19.938  0.00  0.00    +0.047 C 
ATOM     13  C   UNL     1      31.892  -7.121 -25.100  0.00  0.00    -0.077 C 
ATOM     14  C   UNL     1      34.001  -9.268 -23.815  0.00  0.00    -0.025 C 
ATOM     15  C   UNL     1      32.120 -10.622 -23.073  0.00  0.00    +0.168 C 
ATOM     16  C   UNL     1      33.662  -5.546 -25.584  0.00  0.00    -0.101 C 
ATOM     17  C   UNL     1      34.633 -10.440 -24.228  0.00  0.00    -0.001 C 
ATOM     18  C   UNL     1      32.719 -11.789 -23.489  0.00  0.00    +0.172 C 
ATOM     19  C   UNL     1      33.986 -11.688 -24.082  0.00  0.00    +0.040 C 
ATOM     20  H   UNL     1      32.320  -5.444 -24.091  0.00  0.00    -0.080 HD
ENDROOT
BRANCH  18  21
ATOM     21  O   UNL     1      32.133 -12.996 -23.300  0.00  0.00    -0.468 OA
ATOM     22  C   UNL     1      32.995 -14.124 -23.133  0.00  0.00    +0.253 C 
ENDBRANCH  18  21
BRANCH  10  23
ATOM     23  O   UNL     1      32.510 -10.235 -20.159  0.00  0.00    -0.448 OA
BRANCH  23  25
ATOM     24  O   UNL     1      32.089 -12.501 -20.001  0.00  0.00    -0.250 OA
ATOM     25  C   UNL     1      31.994 -11.356 -19.579  0.00  0.00    +0.318 C 
ATOM     26  C   UNL     1      31.275 -10.983 -18.318  0.00  0.00    +0.121 C 
ENDBRANCH  23  25
ENDBRANCH  10  23
TORSDOF 3
ENDMDL
MODEL 3
REMARK VINA RESULT:      -5.1      4.729      8.437
REMARK  Name = 5463874
REMARK  3 active torsions:
REMARK  status: ('A' for Active; 'I' for Inactive)
REMARK    1  A    between atoms: C_10  and  O_23
REMARK    2  A    between atoms: C_18  and  O_21
REMARK    3  A    between atoms: O_23  and  C_25
REMARK                            x       y       z     vdW  Elec       q    Type
REMARK                         _______ _______ _______ _____ _____    ______ ____
ROOT
ATOM      1  O   UNL     1      35.164 -15.271 -23.264  0.00  0.00    -0.472 OA
ATOM      2  N   UNL     1      35.505 -19.660 -20.492  0.00  0.00    +0.387 N 
ATOM      3  C   UNL     1      34.946 -17.041 -21.626  0.00  0.00    +0.058 C 
ATOM      4  C   UNL     1      34.051 -17.704 -20.576  0.00  0.00    -0.011 C 
ATOM      5  C   UNL     1      34.807 -15.524 -21.859  0.00  0.00    +0.209 C 
ATOM      6  C   UNL     1      34.120 -19.242 -20.825  0.00  0.00    -0.053 C 
ATOM      7  C   UNL     1      36.403 -17.484 -21.354  0.00  0.00    -0.015 C 
ATOM      8  C   UNL     1      34.567 -17.465 -22.996  0.00  0.00    +0.014 C 
ATOM      9  C   UNL     1      32.638 -17.121 -20.533  0.00  0.00    +0.002 C 
ATOM     10  C   UNL     1      33.411 -14.921 -21.553  0.00  0.00    +0.209 C 
ATOM     11  C   UNL     1      33.634 -19.645 -22.262  0.00  0.00    +0.005 C 
ATOM     12  C   UNL     1      32.706 -15.597 -20.374  0.00  0.00    +0.047 C 
ATOM     13  C   UNL     1      36.547 -19.017 -21.301  0.00  0.00    -0.077 C 
ATOM     14  C   UNL     1      34.020 -18.682 -23.352  0.00  0.00    -0.025 C 
ATOM     15  C   UNL     1      34.800 -16.442 -23.895  0.00  0.00    +0.168 C 
ATOM     16  C   UNL     1      35.681 -21.107 -20.445  0.00  0.00    -0.101 C 
ATOM     17  C   UNL     1      33.781 -18.887 -24.711  0.00  0.00    -0.001 C 
ATOM     18  C   UNL     1      34.588 -16.630 -25.242  0.00  0.00    +0.172 C 
ATOM     19  C   UNL     1      34.082 -17.874 -25.648  0.00  0.00    +0.040 C 
ATOM     20  H   UNL     1      35.635 -19.312 -19.542  0.00  0.00    -0.080 HD
ENDROOT
BRANCH  18  21
ATOM     21  O   UNL     1      34.817 -15.644 -26.143  0.00  0.00    -0.468 OA
ATOM     22  C   UNL     1      33.684 -14.916 -26.621  0.00  0.00    +0.253 C 
ENDBRANCH  18  21
BRANCH  10  23
ATOM     23  O   UNL     1      32.537 -14.956 -22.685  0.00  0.00    -0.448 OA
BRANCH  23  25
ATOM     24  O   UNL     1      32.380 -13.539 -24.503  0.00  0.00    -0.250 OA
ATOM     25  C   UNL     1      32.326 -13.758 -23.300  0.00  0.00    +0.318 C 
ATOM     26  C   UNL     1      32.008 -12.715 -22.271  0.00  0.00    +0.121 C 
ENDBRANCH  23  25
ENDBRANCH  10  23
TORSDOF 3
ENDMDL
