MODEL 1
REMARK VINA RESULT:      -6.0      0.000      0.000
REMARK  Name = 6433083
REMARK  11 active torsions:
REMARK  status: ('A' for Active; 'I' for Inactive)
REMARK    1  A    between atoms: C_1  and  C_3
REMARK    2  A    between atoms: C_1  and  C_11
REMARK    3  A    between atoms: C_3  and  O_4
REMARK    4  A    between atoms: O_4  and  C_5
REMARK    5  A    between atoms: C_5  and  C_6
REMARK    6  A    between atoms: C_6  and  C_7
REMARK    7  A    between atoms: C_7  and  C_8
REMARK    8  A    between atoms: C_8  and  C_9
REMARK    9  A    between atoms: C_11  and  C_13
REMARK   10  A    between atoms: C_13  and  C_14
REMARK   11  A    between atoms: C_14  and  N_15
REMARK                            x       y       z     vdW  Elec       q    Type
REMARK                         _______ _______ _______ _____ _____    ______ ____
ROOT
ATOM      1  C   UNL     1      33.861 -15.296 -24.329  0.00  0.00    +0.117 C 
ENDROOT
BRANCH   1   3
ATOM      2  O   UNL     1      34.735 -17.074 -25.744  0.00  0.00    -0.250 OA
ATOM      3  C   UNL     1      34.635 -16.559 -24.638  0.00  0.00    +0.317 C 
BRANCH   3   4
ATOM      4  O   UNL     1      35.193 -17.028 -23.483  0.00  0.00    -0.448 OA
BRANCH   4   5
ATOM      5  C   UNL     1      35.538 -18.418 -23.486  0.00  0.00    +0.208 C 
BRANCH   5   6
ATOM      6  C   UNL     1      34.429 -19.202 -22.797  0.00  0.00    +0.047 C 
BRANCH   6   7
ATOM      7  C   UNL     1      34.755 -19.460 -21.327  0.00  0.00    +0.004 C 
BRANCH   7   8
ATOM      8  C   UNL     1      33.653 -20.222 -20.583  0.00  0.00    +0.000 C 
BRANCH   8   9
ATOM      9  C   UNL     1      34.188 -21.327 -19.671  0.00  0.00    +0.000 C 
ATOM     10  C   UNL     1      35.708 -21.310 -19.615  0.00  0.00    +0.000 C 
ENDBRANCH   8   9
ENDBRANCH   7   8
ENDBRANCH   6   7
ENDBRANCH   5   6
ENDBRANCH   4   5
ENDBRANCH   3   4
ENDBRANCH   1   3
BRANCH   1  11
ATOM     11  C   UNL     1      34.322 -14.621 -23.040  0.00  0.00    +0.074 C 
BRANCH  11  13
ATOM     12  O   UNL     1      32.101 -14.213 -22.187  0.00  0.00    -0.298 OA
ATOM     13  C   UNL     1      33.250 -14.585 -21.958  0.00  0.00    +0.129 C 
BRANCH  13  14
ATOM     14  C   UNL     1      33.710 -15.029 -20.580  0.00  0.00    -0.020 C 
BRANCH  14  15
ATOM     15  N   UNL     1      34.771 -16.016 -20.719  0.00  0.00    +0.385 N 
ATOM     16  H   UNL     1      35.555 -15.758 -20.120  0.00  0.00    -0.089 HD
ATOM     17  H   UNL     1      35.080 -16.047 -21.691  0.00  0.00    -0.089 HD
ATOM     18  H   UNL     1      34.421 -16.933 -20.445  0.00  0.00    -0.089 HD
ENDBRANCH  14  15
ENDBRANCH  13  14
ENDBRANCH  11  13
ENDBRANCH   1  11
TORSDOF 11
ENDMDL
MODEL 2
REMARK VINA RESULT:      -5.9      6.687      9.329
REMARK  Name = 6433083
REMARK  11 active torsions:
REMARK  status: ('A' for Active; 'I' for Inactive)
REMARK    1  A    between atoms: C_1  and  C_3
REMARK    2  A    between atoms: C_1  and  C_11
REMARK    3  A    between atoms: C_3  and  O_4
REMARK    4  A    between atoms: O_4  and  C_5
REMARK    5  A    between atoms: C_5  and  C_6
REMARK    6  A    between atoms: C_6  and  C_7
REMARK    7  A    between atoms: C_7  and  C_8
REMARK    8  A    between atoms: C_8  and  C_9
REMARK    9  A    between atoms: C_11  and  C_13
REMARK   10  A    between atoms: C_13  and  C_14
REMARK   11  A    between atoms: C_14  and  N_15
REMARK                            x       y       z     vdW  Elec       q    Type
REMARK                         _______ _______ _______ _____ _____    ______ ____
ROOT
ATOM      1  C   UNL     1      31.475 -23.146 -16.403  0.00  0.00    +0.117 C 
ENDROOT
BRANCH   1   3
ATOM      2  O   UNL     1      33.885 -23.412 -16.628  0.00  0.00    -0.250 OA
ATOM      3  C   UNL     1      32.811 -23.077 -17.110  0.00  0.00    +0.317 C 
BRANCH   3   4
ATOM      4  O   UNL     1      32.620 -22.573 -18.366  0.00  0.00    -0.448 OA
BRANCH   4   5
ATOM      5  C   UNL     1      33.774 -21.984 -18.975  0.00  0.00    +0.208 C 
BRANCH   5   6
ATOM      6  C   UNL     1      33.327 -20.836 -19.870  0.00  0.00    +0.047 C 
BRANCH   6   7
ATOM      7  C   UNL     1      34.516 -20.156 -20.546  0.00  0.00    +0.004 C 
BRANCH   7   8
ATOM      8  C   UNL     1      34.153 -18.838 -21.237  0.00  0.00    +0.000 C 
BRANCH   8   9
ATOM      9  C   UNL     1      35.144 -18.430 -22.327  0.00  0.00    +0.000 C 
ATOM     10  C   UNL     1      34.948 -19.254 -23.590  0.00  0.00    +0.000 C 
ENDBRANCH   8   9
ENDBRANCH   7   8
ENDBRANCH   6   7
ENDBRANCH   5   6
ENDBRANCH   4   5
ENDBRANCH   3   4
ENDBRANCH   1   3
BRANCH   1  11
ATOM     11  C   UNL     1      31.598 -22.974 -14.891  0.00  0.00    +0.074 C 
BRANCH  11  13
ATOM     12  O   UNL     1      30.827 -24.045 -12.869  0.00  0.00    -0.298 OA
ATOM     13  C   UNL     1      30.873 -24.055 -14.098  0.00  0.00    +0.129 C 
BRANCH  13  14
ATOM     14  C   UNL     1      30.226 -25.145 -14.934  0.00  0.00    -0.020 C 
BRANCH  14  15
ATOM     15  N   UNL     1      28.916 -25.463 -14.385  0.00  0.00    +0.385 N 
ATOM     16  H   UNL     1      28.266 -25.654 -15.147  0.00  0.00    -0.089 HD
ATOM     17  H   UNL     1      28.576 -24.671 -13.838  0.00  0.00    -0.089 HD
ATOM     18  H   UNL     1      28.988 -26.283 -13.785  0.00  0.00    -0.089 HD
ENDBRANCH  14  15
ENDBRANCH  13  14
ENDBRANCH  11  13
ENDBRANCH   1  11
TORSDOF 11
ENDMDL
MODEL 3
REMARK VINA RESULT:      -5.9      1.686      1.998
REMARK  Name = 6433083
REMARK  11 active torsions:
REMARK  status: ('A' for Active; 'I' for Inactive)
REMARK    1  A    between atoms: C_1  and  C_3
REMARK    2  A    between atoms: C_1  and  C_11
REMARK    3  A    between atoms: C_3  and  O_4
REMARK    4  A    between atoms: O_4  and  C_5
REMARK    5  A    between atoms: C_5  and  C_6
REMARK    6  A    between atoms: C_6  and  C_7
REMARK    7  A    between atoms: C_7  and  C_8
REMARK    8  A    between atoms: C_8  and  C_9
REMARK    9  A    between atoms: C_11  and  C_13
REMARK   10  A    between atoms: C_13  and  C_14
REMARK   11  A    between atoms: C_14  and  N_15
REMARK                            x       y       z     vdW  Elec       q    Type
REMARK                         _______ _______ _______ _____ _____    ______ ____
ROOT
ATOM      1  C   UNL     1      33.336 -14.714 -24.227  0.00  0.00    +0.117 C 
ENDROOT
BRANCH   1   3
ATOM      2  O   UNL     1      33.844 -15.932 -26.273  0.00  0.00    -0.250 OA
ATOM      3  C   UNL     1      33.858 -15.871 -25.051  0.00  0.00    +0.317 C 
BRANCH   3   4
ATOM      4  O   UNL     1      34.337 -16.834 -24.207  0.00  0.00    -0.448 OA
BRANCH   4   5
ATOM      5  C   UNL     1      34.538 -18.124 -24.795  0.00  0.00    +0.208 C 
BRANCH   5   6
ATOM      6  C   UNL     1      34.977 -19.096 -23.708  0.00  0.00    +0.047 C 
BRANCH   6   7
ATOM      7  C   UNL     1      34.518 -18.635 -22.325  0.00  0.00    +0.004 C 
BRANCH   7   8
ATOM      8  C   UNL     1      35.220 -19.365 -21.176  0.00  0.00    +0.000 C 
BRANCH   8   9
ATOM      9  C   UNL     1      34.304 -20.323 -20.414  0.00  0.00    +0.000 C 
ATOM     10  C   UNL     1      32.838 -19.985 -20.640  0.00  0.00    +0.000 C 
ENDBRANCH   8   9
ENDBRANCH   7   8
ENDBRANCH   6   7
ENDBRANCH   5   6
ENDBRANCH   4   5
ENDBRANCH   3   4
ENDBRANCH   1   3
BRANCH   1  11
ATOM     11  C   UNL     1      33.856 -14.729 -22.792  0.00  0.00    +0.074 C 
BRANCH  11  13
ATOM     12  O   UNL     1      32.137 -15.653 -21.371  0.00  0.00    -0.298 OA
ATOM     13  C   UNL     1      32.750 -14.656 -21.746  0.00  0.00    +0.129 C 
BRANCH  13  14
ATOM     14  C   UNL     1      32.457 -13.264 -21.214  0.00  0.00    -0.020 C 
BRANCH  14  15
ATOM     15  N   UNL     1      31.574 -12.569 -22.138  0.00  0.00    +0.385 N 
ATOM     16  H   UNL     1      31.592 -13.038 -23.043  0.00  0.00    -0.089 HD
ATOM     17  H   UNL     1      31.889 -11.604 -22.249  0.00  0.00    -0.089 HD
ATOM     18  H   UNL     1      30.623 -12.576 -21.771  0.00  0.00    -0.089 HD
ENDBRANCH  14  15
ENDBRANCH  13  14
ENDBRANCH  11  13
ENDBRANCH   1  11
TORSDOF 11
ENDMDL
MODEL 4
REMARK VINA RESULT:      -5.9      5.790      8.913
REMARK  Name = 6433083
REMARK  11 active torsions:
REMARK  status: ('A' for Active; 'I' for Inactive)
REMARK    1  A    between atoms: C_1  and  C_3
REMARK    2  A    between atoms: C_1  and  C_11
REMARK    3  A    between atoms: C_3  and  O_4
REMARK    4  A    between atoms: O_4  and  C_5
REMARK    5  A    between atoms: C_5  and  C_6
REMARK    6  A    between atoms: C_6  and  C_7
REMARK    7  A    between atoms: C_7  and  C_8
REMARK    8  A    between atoms: C_8  and  C_9
REMARK    9  A    between atoms: C_11  and  C_13
REMARK   10  A    between atoms: C_13  and  C_14
REMARK   11  A    between atoms: C_14  and  N_15
REMARK                            x       y       z     vdW  Elec       q    Type
REMARK                         _______ _______ _______ _____ _____    ______ ____
ROOT
ATOM      1  C   UNL     1      37.201 -22.195 -16.611  0.00  0.00    +0.117 C 
ENDROOT
BRANCH   1   3
ATOM      2  O   UNL     1      36.871 -20.713 -18.514  0.00  0.00    -0.250 OA
ATOM      3  C   UNL     1      36.509 -21.677 -17.853  0.00  0.00    +0.317 C 
BRANCH   3   4
ATOM      4  O   UNL     1      35.415 -22.455 -18.106  0.00  0.00    -0.448 OA
BRANCH   4   5
ATOM      5  C   UNL     1      34.816 -22.275 -19.394  0.00  0.00    +0.208 C 
BRANCH   5   6
ATOM      6  C   UNL     1      33.422 -21.689 -19.210  0.00  0.00    +0.047 C 
BRANCH   6   7
ATOM      7  C   UNL     1      33.192 -20.491 -20.130  0.00  0.00    +0.004 C 
BRANCH   7   8
ATOM      8  C   UNL     1      34.462 -20.022 -20.848  0.00  0.00    +0.000 C 
BRANCH   8   9
ATOM      9  C   UNL     1      34.265 -18.737 -21.653  0.00  0.00    +0.000 C 
ATOM     10  C   UNL     1      34.800 -18.885 -23.069  0.00  0.00    +0.000 C 
ENDBRANCH   8   9
ENDBRANCH   7   8
ENDBRANCH   6   7
ENDBRANCH   5   6
ENDBRANCH   4   5
ENDBRANCH   3   4
ENDBRANCH   1   3
BRANCH   1  11
ATOM     11  C   UNL     1      36.340 -23.178 -15.822  0.00  0.00    +0.074 C 
BRANCH  11  13
ATOM     12  O   UNL     1      38.233 -23.906 -14.513  0.00  0.00    -0.298 OA
ATOM     13  C   UNL     1      37.153 -24.192 -15.025  0.00  0.00    +0.129 C 
BRANCH  13  14
ATOM     14  C   UNL     1      36.537 -25.576 -14.924  0.00  0.00    -0.020 C 
BRANCH  14  15
ATOM     15  N   UNL     1      36.605 -26.035 -13.544  0.00  0.00    +0.385 N 
ATOM     16  H   UNL     1      35.765 -26.569 -13.322  0.00  0.00    -0.089 HD
ATOM     17  H   UNL     1      36.671 -25.231 -12.921  0.00  0.00    -0.089 HD
ATOM     18  H   UNL     1      37.426 -26.627 -13.423  0.00  0.00    -0.089 HD
ENDBRANCH  14  15
ENDBRANCH  13  14
ENDBRANCH  11  13
ENDBRANCH   1  11
TORSDOF 11
ENDMDL
MODEL 5
REMARK VINA RESULT:      -5.9      2.031      2.574
REMARK  Name = 6433083
REMARK  11 active torsions:
REMARK  status: ('A' for Active; 'I' for Inactive)
REMARK    1  A    between atoms: C_1  and  C_3
REMARK    2  A    between atoms: C_1  and  C_11
REMARK    3  A    between atoms: C_3  and  O_4
REMARK    4  A    between atoms: O_4  and  C_5
REMARK    5  A    between atoms: C_5  and  C_6
REMARK    6  A    between atoms: C_6  and  C_7
REMARK    7  A    between atoms: C_7  and  C_8
REMARK    8  A    between atoms: C_8  and  C_9
REMARK    9  A    between atoms: C_11  and  C_13
REMARK   10  A    between atoms: C_13  and  C_14
REMARK   11  A    between atoms: C_14  and  N_15
REMARK                            x       y       z     vdW  Elec       q    Type
REMARK                         _______ _______ _______ _____ _____    ______ ____
ROOT
ATOM      1  C   UNL     1      34.240 -15.028 -20.764  0.00  0.00    +0.117 C 
ENDROOT
BRANCH   1   3
ATOM      2  O   UNL     1      35.159 -16.124 -22.734  0.00  0.00    -0.250 OA
ATOM      3  C   UNL     1      34.901 -16.148 -21.538  0.00  0.00    +0.317 C 
BRANCH   3   4
ATOM      4  O   UNL     1      35.152 -17.185 -20.685  0.00  0.00    -0.448 OA
BRANCH   4   5
ATOM      5  C   UNL     1      35.399 -18.450 -21.309  0.00  0.00    +0.208 C 
BRANCH   5   6
ATOM      6  C   UNL     1      34.093 -19.231 -21.373  0.00  0.00    +0.047 C 
BRANCH   6   7
ATOM      7  C   UNL     1      34.065 -20.359 -20.343  0.00  0.00    +0.004 C 
BRANCH   7   8
ATOM      8  C   UNL     1      35.454 -20.915 -20.011  0.00  0.00    +0.000 C 
BRANCH   8   9
ATOM      9  C   UNL     1      35.445 -21.924 -18.862  0.00  0.00    +0.000 C 
ATOM     10  C   UNL     1      36.676 -21.770 -17.981  0.00  0.00    +0.000 C 
ENDBRANCH   8   9
ENDBRANCH   7   8
ENDBRANCH   6   7
ENDBRANCH   5   6
ENDBRANCH   4   5
ENDBRANCH   3   4
ENDBRANCH   1   3
BRANCH   1  11
ATOM     11  C   UNL     1      32.759 -14.872 -21.099  0.00  0.00    +0.074 C 
BRANCH  11  13
ATOM     12  O   UNL     1      32.011 -12.579 -21.205  0.00  0.00    -0.298 OA
ATOM     13  C   UNL     1      32.432 -13.563 -21.809  0.00  0.00    +0.129 C 
BRANCH  13  14
ATOM     14  C   UNL     1      32.654 -13.572 -23.311  0.00  0.00    -0.020 C 
BRANCH  14  15
ATOM     15  N   UNL     1      34.037 -13.220 -23.598  0.00  0.00    +0.385 N 
ATOM     16  H   UNL     1      34.118 -12.924 -24.570  0.00  0.00    -0.089 HD
ATOM     17  H   UNL     1      34.634 -14.032 -23.438  0.00  0.00    -0.089 HD
ATOM     18  H   UNL     1      34.329 -12.459 -22.986  0.00  0.00    -0.089 HD
ENDBRANCH  14  15
ENDBRANCH  13  14
ENDBRANCH  11  13
ENDBRANCH   1  11
TORSDOF 11
ENDMDL
MODEL 6
REMARK VINA RESULT:      -5.9      2.142      2.532
REMARK  Name = 6433083
REMARK  11 active torsions:
REMARK  status: ('A' for Active; 'I' for Inactive)
REMARK    1  A    between atoms: C_1  and  C_3
REMARK    2  A    between atoms: C_1  and  C_11
REMARK    3  A    between atoms: C_3  and  O_4
REMARK    4  A    between atoms: O_4  and  C_5
REMARK    5  A    between atoms: C_5  and  C_6
REMARK    6  A    between atoms: C_6  and  C_7
REMARK    7  A    between atoms: C_7  and  C_8
REMARK    8  A    between atoms: C_8  and  C_9
REMARK    9  A    between atoms: C_11  and  C_13
REMARK   10  A    between atoms: C_13  and  C_14
REMARK   11  A    between atoms: C_14  and  N_15
REMARK                            x       y       z     vdW  Elec       q    Type
REMARK                         _______ _______ _______ _____ _____    ______ ____
ROOT
ATOM      1  C   UNL     1      34.768 -15.784 -23.677  0.00  0.00    +0.117 C 
ENDROOT
BRANCH   1   3
ATOM      2  O   UNL     1      34.377 -17.108 -25.683  0.00  0.00    -0.250 OA
ATOM      3  C   UNL     1      34.811 -17.026 -24.541  0.00  0.00    +0.317 C 
BRANCH   3   4
ATOM      4  O   UNL     1      35.403 -18.035 -23.836  0.00  0.00    -0.448 OA
BRANCH   4   5
ATOM      5  C   UNL     1      35.565 -17.793 -22.434  0.00  0.00    +0.208 C 
BRANCH   5   6
ATOM      6  C   UNL     1      35.279 -19.083 -21.676  0.00  0.00    +0.047 C 
BRANCH   6   7
ATOM      7  C   UNL     1      33.790 -19.235 -21.371  0.00  0.00    +0.004 C 
BRANCH   7   8
ATOM      8  C   UNL     1      33.487 -20.329 -20.342  0.00  0.00    +0.000 C 
BRANCH   8   9
ATOM      9  C   UNL     1      34.732 -21.085 -19.874  0.00  0.00    +0.000 C 
ATOM     10  C   UNL     1      34.364 -22.247 -18.965  0.00  0.00    +0.000 C 
ENDBRANCH   8   9
ENDBRANCH   7   8
ENDBRANCH   6   7
ENDBRANCH   5   6
ENDBRANCH   4   5
ENDBRANCH   3   4
ENDBRANCH   1   3
BRANCH   1  11
ATOM     11  C   UNL     1      33.432 -15.052 -23.760  0.00  0.00    +0.074 C 
BRANCH  11  13
ATOM     12  O   UNL     1      33.733 -12.657 -23.804  0.00  0.00    -0.298 OA
ATOM     13  C   UNL     1      33.527 -13.690 -24.438  0.00  0.00    +0.129 C 
BRANCH  13  14
ATOM     14  C   UNL     1      33.338 -13.705 -25.944  0.00  0.00    -0.020 C 
BRANCH  14  15
ATOM     15  N   UNL     1      32.438 -14.790 -26.308  0.00  0.00    +0.385 N 
ATOM     16  H   UNL     1      31.473 -14.471 -26.230  0.00  0.00    -0.089 HD
ATOM     17  H   UNL     1      32.588 -15.580 -25.680  0.00  0.00    -0.089 HD
ATOM     18  H   UNL     1      32.624 -15.079 -27.268  0.00  0.00    -0.089 HD
ENDBRANCH  14  15
ENDBRANCH  13  14
ENDBRANCH  11  13
ENDBRANCH   1  11
TORSDOF 11
ENDMDL
MODEL 7
REMARK VINA RESULT:      -5.9      2.199      2.589
REMARK  Name = 6433083
REMARK  11 active torsions:
REMARK  status: ('A' for Active; 'I' for Inactive)
REMARK    1  A    between atoms: C_1  and  C_3
REMARK    2  A    between atoms: C_1  and  C_11
REMARK    3  A    between atoms: C_3  and  O_4
REMARK    4  A    between atoms: O_4  and  C_5
REMARK    5  A    between atoms: C_5  and  C_6
REMARK    6  A    between atoms: C_6  and  C_7
REMARK    7  A    between atoms: C_7  and  C_8
REMARK    8  A    between atoms: C_8  and  C_9
REMARK    9  A    between atoms: C_11  and  C_13
REMARK   10  A    between atoms: C_13  and  C_14
REMARK   11  A    between atoms: C_14  and  N_15
REMARK                            x       y       z     vdW  Elec       q    Type
REMARK                         _______ _______ _______ _____ _____    ______ ____
ROOT
ATOM      1  C   UNL     1      33.527 -15.283 -24.227  0.00  0.00    +0.117 C 
ENDROOT
BRANCH   1   3
ATOM      2  O   UNL     1      33.327 -15.516 -26.642  0.00  0.00    -0.250 OA
ATOM      3  C   UNL     1      33.853 -15.854 -25.590  0.00  0.00    +0.317 C 
BRANCH   3   4
ATOM      4  O   UNL     1      34.822 -16.807 -25.449  0.00  0.00    -0.448 OA
BRANCH   4   5
ATOM      5  C   UNL     1      34.365 -18.088 -25.003  0.00  0.00    +0.208 C 
BRANCH   5   6
ATOM      6  C   UNL     1      35.262 -18.563 -23.868  0.00  0.00    +0.047 C 
BRANCH   6   7
ATOM      7  C   UNL     1      34.610 -18.333 -22.505  0.00  0.00    +0.004 C 
BRANCH   7   8
ATOM      8  C   UNL     1      34.559 -19.591 -21.634  0.00  0.00    +0.000 C 
BRANCH   8   9
ATOM      9  C   UNL     1      33.275 -19.711 -20.812  0.00  0.00    +0.000 C 
ATOM     10  C   UNL     1      33.328 -20.906 -19.873  0.00  0.00    +0.000 C 
ENDBRANCH   8   9
ENDBRANCH   7   8
ENDBRANCH   6   7
ENDBRANCH   5   6
ENDBRANCH   4   5
ENDBRANCH   3   4
ENDBRANCH   1   3
BRANCH   1  11
ATOM     11  C   UNL     1      34.102 -13.885 -24.019  0.00  0.00    +0.074 C 
BRANCH  11  13
ATOM     12  O   UNL     1      32.142 -13.275 -22.749  0.00  0.00    -0.298 OA
ATOM     13  C   UNL     1      33.105 -12.902 -23.416  0.00  0.00    +0.129 C 
BRANCH  13  14
ATOM     14  C   UNL     1      33.384 -11.439 -23.710  0.00  0.00    -0.020 C 
BRANCH  14  15
ATOM     15  N   UNL     1      34.541 -11.333 -24.586  0.00  0.00    +0.385 N 
ATOM     16  H   UNL     1      34.646 -10.367 -24.895  0.00  0.00    -0.089 HD
ATOM     17  H   UNL     1      34.409 -11.937 -25.398  0.00  0.00    -0.089 HD
ATOM     18  H   UNL     1      35.378 -11.621 -24.081  0.00  0.00    -0.089 HD
ENDBRANCH  14  15
ENDBRANCH  13  14
ENDBRANCH  11  13
ENDBRANCH   1  11
TORSDOF 11
ENDMDL
MODEL 8
REMARK VINA RESULT:      -5.8      2.099      2.827
REMARK  Name = 6433083
REMARK  11 active torsions:
REMARK  status: ('A' for Active; 'I' for Inactive)
REMARK    1  A    between atoms: C_1  and  C_3
REMARK    2  A    between atoms: C_1  and  C_11
REMARK    3  A    between atoms: C_3  and  O_4
REMARK    4  A    between atoms: O_4  and  C_5
REMARK    5  A    between atoms: C_5  and  C_6
REMARK    6  A    between atoms: C_6  and  C_7
REMARK    7  A    between atoms: C_7  and  C_8
REMARK    8  A    between atoms: C_8  and  C_9
REMARK    9  A    between atoms: C_11  and  C_13
REMARK   10  A    between atoms: C_13  and  C_14
REMARK   11  A    between atoms: C_14  and  N_15
REMARK                            x       y       z     vdW  Elec       q    Type
REMARK                         _______ _______ _______ _____ _____    ______ ____
ROOT
ATOM      1  C   UNL     1      33.086 -15.269 -21.886  0.00  0.00    +0.117 C 
ENDROOT
BRANCH   1   3
ATOM      2  O   UNL     1      34.857 -15.433 -20.223  0.00  0.00    -0.250 OA
ATOM      3  C   UNL     1      34.488 -15.542 -21.384  0.00  0.00    +0.317 C 
BRANCH   3   4
ATOM      4  O   UNL     1      35.269 -15.921 -22.440  0.00  0.00    -0.448 OA
BRANCH   4   5
ATOM      5  C   UNL     1      34.921 -17.171 -23.045  0.00  0.00    +0.208 C 
BRANCH   5   6
ATOM      6  C   UNL     1      35.582 -18.298 -22.262  0.00  0.00    +0.047 C 
BRANCH   6   7
ATOM      7  C   UNL     1      34.643 -19.491 -22.098  0.00  0.00    +0.004 C 
BRANCH   7   8
ATOM      8  C   UNL     1      33.567 -19.277 -21.029  0.00  0.00    +0.000 C 
BRANCH   8   9
ATOM      9  C   UNL     1      33.276 -20.528 -20.199  0.00  0.00    +0.000 C 
ATOM     10  C   UNL     1      34.562 -21.205 -19.749  0.00  0.00    +0.000 C 
ENDBRANCH   8   9
ENDBRANCH   7   8
ENDBRANCH   6   7
ENDBRANCH   5   6
ENDBRANCH   4   5
ENDBRANCH   3   4
ENDBRANCH   1   3
BRANCH   1  11
ATOM     11  C   UNL     1      32.523 -13.946 -21.374  0.00  0.00    +0.074 C 
BRANCH  11  13
ATOM     12  O   UNL     1      31.700 -11.883 -22.319  0.00  0.00    -0.298 OA
ATOM     13  C   UNL     1      32.410 -12.878 -22.455  0.00  0.00    +0.129 C 
BRANCH  13  14
ATOM     14  C   UNL     1      33.226 -13.139 -23.708  0.00  0.00    -0.020 C 
BRANCH  14  15
ATOM     15  N   UNL     1      34.082 -11.992 -23.976  0.00  0.00    +0.385 N 
ATOM     16  H   UNL     1      34.263 -11.493 -23.105  0.00  0.00    -0.089 HD
ATOM     17  H   UNL     1      33.616 -11.367 -24.635  0.00  0.00    -0.089 HD
ATOM     18  H   UNL     1      34.964 -12.311 -24.375  0.00  0.00    -0.089 HD
ENDBRANCH  14  15
ENDBRANCH  13  14
ENDBRANCH  11  13
ENDBRANCH   1  11
TORSDOF 11
ENDMDL
MODEL 9
REMARK VINA RESULT:      -5.8      7.656     10.578
REMARK  Name = 6433083
REMARK  11 active torsions:
REMARK  status: ('A' for Active; 'I' for Inactive)
REMARK    1  A    between atoms: C_1  and  C_3
REMARK    2  A    between atoms: C_1  and  C_11
REMARK    3  A    between atoms: C_3  and  O_4
REMARK    4  A    between atoms: O_4  and  C_5
REMARK    5  A    between atoms: C_5  and  C_6
REMARK    6  A    between atoms: C_6  and  C_7
REMARK    7  A    between atoms: C_7  and  C_8
REMARK    8  A    between atoms: C_8  and  C_9
REMARK    9  A    between atoms: C_11  and  C_13
REMARK   10  A    between atoms: C_13  and  C_14
REMARK   11  A    between atoms: C_14  and  N_15
REMARK                            x       y       z     vdW  Elec       q    Type
REMARK                         _______ _______ _______ _____ _____    ______ ____
ROOT
ATOM      1  C   UNL     1      35.363 -23.406 -14.198  0.00  0.00    +0.117 C 
ENDROOT
BRANCH   1   3
ATOM      2  O   UNL     1      36.013 -25.416 -15.409  0.00  0.00    -0.250 OA
ATOM      3  C   UNL     1      36.041 -24.198 -15.295  0.00  0.00    +0.317 C 
BRANCH   3   4
ATOM      4  O   UNL     1      36.690 -23.331 -16.128  0.00  0.00    -0.448 OA
BRANCH   4   5
ATOM      5  C   UNL     1      35.865 -22.341 -16.752  0.00  0.00    +0.208 C 
BRANCH   5   6
ATOM      6  C   UNL     1      36.555 -21.854 -18.019  0.00  0.00    +0.047 C 
BRANCH   6   7
ATOM      7  C   UNL     1      35.585 -21.798 -19.198  0.00  0.00    +0.004 C 
BRANCH   7   8
ATOM      8  C   UNL     1      35.754 -20.549 -20.068  0.00  0.00    +0.000 C 
BRANCH   8   9
ATOM      9  C   UNL     1      34.479 -20.149 -20.812  0.00  0.00    +0.000 C 
ATOM     10  C   UNL     1      33.235 -20.565 -20.042  0.00  0.00    +0.000 C 
ENDBRANCH   8   9
ENDBRANCH   7   8
ENDBRANCH   6   7
ENDBRANCH   5   6
ENDBRANCH   4   5
ENDBRANCH   3   4
ENDBRANCH   1   3
BRANCH   1  11
ATOM     11  C   UNL     1      34.761 -24.296 -13.113  0.00  0.00    +0.074 C 
BRANCH  11  13
ATOM     12  O   UNL     1      35.326 -25.098 -10.907  0.00  0.00    -0.298 OA
ATOM     13  C   UNL     1      35.580 -24.324 -11.828  0.00  0.00    +0.129 C 
BRANCH  13  14
ATOM     14  C   UNL     1      36.720 -23.323 -11.768  0.00  0.00    -0.020 C 
BRANCH  14  15
ATOM     15  N   UNL     1      37.971 -24.027 -11.531  0.00  0.00    +0.385 N 
ATOM     16  H   UNL     1      38.644 -23.776 -12.255  0.00  0.00    -0.089 HD
ATOM     17  H   UNL     1      37.804 -25.034 -11.556  0.00  0.00    -0.089 HD
ATOM     18  H   UNL     1      38.341 -23.767 -10.618  0.00  0.00    -0.089 HD
ENDBRANCH  14  15
ENDBRANCH  13  14
ENDBRANCH  11  13
ENDBRANCH   1  11
TORSDOF 11
ENDMDL
