MODEL 1
REMARK VINA RESULT:      -6.2      0.000      0.000
REMARK  Name = 10149052
REMARK  9 active torsions:
REMARK  status: ('A' for Active; 'I' for Inactive)
REMARK    1  A    between atoms: C_1  and  C_2
REMARK    2  A    between atoms: C_1  and  C_8
REMARK    3  A    between atoms: C_1  and  C_13
REMARK    4  A    between atoms: C_2  and  C_3
REMARK    5  A    between atoms: C_3  and  C_5
REMARK    6  A    between atoms: C_5  and  C_6
REMARK    7  A    between atoms: C_8  and  C_10
REMARK    8  A    between atoms: C_10  and  O_11
REMARK    9  A    between atoms: C_13  and  N_14
REMARK                            x       y       z     vdW  Elec       q    Type
REMARK                         _______ _______ _______ _____ _____    ______ ____
ROOT
ATOM      1  C   UNL     1      37.993 -25.308 -14.423  0.00  0.00    -0.011 C 
ENDROOT
BRANCH   1   2
ATOM      2  C   UNL     1      37.114 -24.235 -13.725  0.00  0.00    -0.002 C 
BRANCH   2   3
ATOM      3  C   UNL     1      36.562 -23.092 -14.614  0.00  0.00    -0.000 C 
ATOM      4  C   UNL     1      35.067 -23.342 -14.859  0.00  0.00    -0.000 C 
BRANCH   3   5
ATOM      5  C   UNL     1      37.343 -22.968 -15.938  0.00  0.00    -0.000 C 
BRANCH   5   6
ATOM      6  C   UNL     1      37.260 -21.608 -16.640  0.00  0.00    -0.000 C 
ATOM      7  C   UNL     1      36.652 -21.680 -18.032  0.00  0.00    +0.000 C 
ENDBRANCH   5   6
ENDBRANCH   3   5
ENDBRANCH   2   3
ENDBRANCH   1   2
BRANCH   1   8
ATOM      8  C   UNL     1      39.401 -25.316 -13.787  0.00  0.00    +0.107 C 
BRANCH   8  10
ATOM      9  O   UNL     1      41.268 -26.808 -14.180  0.00  0.00    -0.250 OA
ATOM     10  C   UNL     1      40.421 -26.046 -14.624  0.00  0.00    +0.314 C 
BRANCH  10  11
ATOM     11  O   UNL     1      40.294 -25.737 -15.937  0.00  0.00    -0.480 OA
ATOM     12  H   UNL     1      39.773 -25.002 -16.196  0.00  0.00    +0.295 HD
ENDBRANCH  10  11
ENDBRANCH   8  10
ENDBRANCH   1   8
BRANCH   1  13
ATOM     13  C   UNL     1      37.333 -26.702 -14.345  0.00  0.00    -0.086 C 
BRANCH  13  14
ATOM     14  N   UNL     1      36.170 -26.832 -15.221  0.00  0.00    +0.380 N 
ATOM     15  H   UNL     1      35.375 -26.348 -14.804  0.00  0.00    -0.089 HD
ATOM     16  H   UNL     1      35.943 -27.819 -15.339  0.00  0.00    -0.089 HD
ATOM     17  H   UNL     1      36.381 -26.420 -16.129  0.00  0.00    -0.089 HD
ENDBRANCH  13  14
ENDBRANCH   1  13
TORSDOF 9
ENDMDL
MODEL 2
REMARK VINA RESULT:      -6.2      1.026      1.812
REMARK  Name = 10149052
REMARK  9 active torsions:
REMARK  status: ('A' for Active; 'I' for Inactive)
REMARK    1  A    between atoms: C_1  and  C_2
REMARK    2  A    between atoms: C_1  and  C_8
REMARK    3  A    between atoms: C_1  and  C_13
REMARK    4  A    between atoms: C_2  and  C_3
REMARK    5  A    between atoms: C_3  and  C_5
REMARK    6  A    between atoms: C_5  and  C_6
REMARK    7  A    between atoms: C_8  and  C_10
REMARK    8  A    between atoms: C_10  and  O_11
REMARK    9  A    between atoms: C_13  and  N_14
REMARK                            x       y       z     vdW  Elec       q    Type
REMARK                         _______ _______ _______ _____ _____    ______ ____
ROOT
ATOM      1  C   UNL     1      38.006 -25.176 -14.702  0.00  0.00    -0.011 C 
ENDROOT
BRANCH   1   2
ATOM      2  C   UNL     1      37.441 -23.735 -14.575  0.00  0.00    -0.002 C 
BRANCH   2   3
ATOM      3  C   UNL     1      36.565 -23.219 -15.743  0.00  0.00    -0.000 C 
ATOM      4  C   UNL     1      37.275 -22.026 -16.398  0.00  0.00    -0.000 C 
BRANCH   3   5
ATOM      5  C   UNL     1      35.144 -22.846 -15.271  0.00  0.00    -0.000 C 
BRANCH   5   6
ATOM      6  C   UNL     1      33.992 -23.561 -15.987  0.00  0.00    -0.000 C 
ATOM      7  C   UNL     1      33.779 -23.087 -17.416  0.00  0.00    +0.000 C 
ENDBRANCH   5   6
ENDBRANCH   3   5
ENDBRANCH   2   3
ENDBRANCH   1   2
BRANCH   1   8
ATOM      8  C   UNL     1      39.337 -25.280 -13.924  0.00  0.00    +0.107 C 
BRANCH   8  10
ATOM      9  O   UNL     1      41.256 -26.740 -14.149  0.00  0.00    -0.250 OA
ATOM     10  C   UNL     1      40.400 -26.043 -14.674  0.00  0.00    +0.314 C 
BRANCH  10  11
ATOM     11  O   UNL     1      40.298 -25.844 -16.010  0.00  0.00    -0.480 OA
ATOM     12  H   UNL     1      40.691 -26.452 -16.605  0.00  0.00    +0.295 HD
ENDBRANCH  10  11
ENDBRANCH   8  10
ENDBRANCH   1   8
BRANCH   1  13
ATOM     13  C   UNL     1      36.982 -26.219 -14.204  0.00  0.00    -0.086 C 
BRANCH  13  14
ATOM     14  N   UNL     1      36.189 -26.801 -15.285  0.00  0.00    +0.380 N 
ATOM     15  H   UNL     1      36.621 -27.671 -15.593  0.00  0.00    -0.089 HD
ATOM     16  H   UNL     1      36.148 -26.146 -16.066  0.00  0.00    -0.089 HD
ATOM     17  H   UNL     1      35.245 -26.990 -14.949  0.00  0.00    -0.089 HD
ENDBRANCH  13  14
ENDBRANCH   1  13
TORSDOF 9
ENDMDL
MODEL 3
REMARK VINA RESULT:      -5.9      6.337      8.387
REMARK  Name = 10149052
REMARK  9 active torsions:
REMARK  status: ('A' for Active; 'I' for Inactive)
REMARK    1  A    between atoms: C_1  and  C_2
REMARK    2  A    between atoms: C_1  and  C_8
REMARK    3  A    between atoms: C_1  and  C_13
REMARK    4  A    between atoms: C_2  and  C_3
REMARK    5  A    between atoms: C_3  and  C_5
REMARK    6  A    between atoms: C_5  and  C_6
REMARK    7  A    between atoms: C_8  and  C_10
REMARK    8  A    between atoms: C_10  and  O_11
REMARK    9  A    between atoms: C_13  and  N_14
REMARK                            x       y       z     vdW  Elec       q    Type
REMARK                         _______ _______ _______ _____ _____    ______ ____
ROOT
ATOM      1  C   UNL     1      34.522 -20.500 -19.952  0.00  0.00    -0.011 C 
ENDROOT
BRANCH   1   2
ATOM      2  C   UNL     1      34.185 -19.651 -21.207  0.00  0.00    -0.002 C 
BRANCH   2   3
ATOM      3  C   UNL     1      35.086 -18.421 -21.487  0.00  0.00    -0.000 C 
ATOM      4  C   UNL     1      34.254 -17.148 -21.281  0.00  0.00    -0.000 C 
BRANCH   3   5
ATOM      5  C   UNL     1      35.704 -18.475 -22.899  0.00  0.00    -0.000 C 
BRANCH   5   6
ATOM      6  C   UNL     1      34.810 -19.056 -24.000  0.00  0.00    -0.000 C 
ATOM      7  C   UNL     1      34.448 -18.049 -25.081  0.00  0.00    +0.000 C 
ENDBRANCH   5   6
ENDBRANCH   3   5
ENDBRANCH   2   3
ENDBRANCH   1   2
BRANCH   1   8
ATOM      8  C   UNL     1      33.474 -21.623 -19.791  0.00  0.00    +0.107 C 
BRANCH   8  10
ATOM      9  O   UNL     1      34.377 -22.719 -17.829  0.00  0.00    -0.250 OA
ATOM     10  C   UNL     1      33.981 -22.792 -18.983  0.00  0.00    +0.314 C 
BRANCH  10  11
ATOM     11  O   UNL     1      33.960 -23.937 -19.707  0.00  0.00    -0.480 OA
ATOM     12  H   UNL     1      34.202 -24.749 -19.306  0.00  0.00    +0.295 HD
ENDBRANCH  10  11
ENDBRANCH   8  10
ENDBRANCH   1   8
BRANCH   1  13
ATOM     13  C   UNL     1      35.953 -21.075 -20.039  0.00  0.00    -0.086 C 
BRANCH  13  14
ATOM     14  N   UNL     1      36.729 -20.862 -18.818  0.00  0.00    +0.380 N 
ATOM     15  H   UNL     1      36.125 -20.986 -18.006  0.00  0.00    -0.089 HD
ATOM     16  H   UNL     1      37.109 -19.916 -18.819  0.00  0.00    -0.089 HD
ATOM     17  H   UNL     1      37.493 -21.537 -18.780  0.00  0.00    -0.089 HD
ENDBRANCH  13  14
ENDBRANCH   1  13
TORSDOF 9
ENDMDL
MODEL 4
REMARK VINA RESULT:      -5.9      8.311     10.692
REMARK  Name = 10149052
REMARK  9 active torsions:
REMARK  status: ('A' for Active; 'I' for Inactive)
REMARK    1  A    between atoms: C_1  and  C_2
REMARK    2  A    between atoms: C_1  and  C_8
REMARK    3  A    between atoms: C_1  and  C_13
REMARK    4  A    between atoms: C_2  and  C_3
REMARK    5  A    between atoms: C_3  and  C_5
REMARK    6  A    between atoms: C_5  and  C_6
REMARK    7  A    between atoms: C_8  and  C_10
REMARK    8  A    between atoms: C_10  and  O_11
REMARK    9  A    between atoms: C_13  and  N_14
REMARK                            x       y       z     vdW  Elec       q    Type
REMARK                         _______ _______ _______ _____ _____    ______ ____
ROOT
ATOM      1  C   UNL     1      34.989 -18.338 -22.428  0.00  0.00    -0.011 C 
ENDROOT
BRANCH   1   2
ATOM      2  C   UNL     1      34.961 -19.818 -21.960  0.00  0.00    -0.002 C 
BRANCH   2   3
ATOM      3  C   UNL     1      34.947 -20.072 -20.432  0.00  0.00    -0.000 C 
ATOM      4  C   UNL     1      36.248 -20.788 -20.043  0.00  0.00    -0.000 C 
BRANCH   3   5
ATOM      5  C   UNL     1      33.704 -20.876 -19.998  0.00  0.00    -0.000 C 
BRANCH   5   6
ATOM      6  C   UNL     1      33.974 -22.277 -19.438  0.00  0.00    -0.000 C 
ATOM      7  C   UNL     1      33.205 -22.578 -18.161  0.00  0.00    +0.000 C 
ENDBRANCH   5   6
ENDBRANCH   3   5
ENDBRANCH   2   3
ENDBRANCH   1   2
BRANCH   1   8
ATOM      8  C   UNL     1      34.536 -18.253 -23.903  0.00  0.00    +0.107 C 
BRANCH   8  10
ATOM      9  O   UNL     1      34.778 -16.717 -25.761  0.00  0.00    -0.250 OA
ATOM     10  C   UNL     1      35.017 -17.003 -24.596  0.00  0.00    +0.314 C 
BRANCH  10  11
ATOM     11  O   UNL     1      35.767 -16.237 -23.767  0.00  0.00    -0.480 OA
ATOM     12  H   UNL     1      35.677 -16.326 -22.838  0.00  0.00    +0.295 HD
ENDBRANCH  10  11
ENDBRANCH   8  10
ENDBRANCH   1   8
BRANCH   1  13
ATOM     13  C   UNL     1      34.111 -17.452 -21.518  0.00  0.00    -0.086 C 
BRANCH  13  14
ATOM     14  N   UNL     1      34.865 -16.392 -20.852  0.00  0.00    +0.380 N 
ATOM     15  H   UNL     1      35.317 -16.768 -20.019  0.00  0.00    -0.089 HD
ATOM     16  H   UNL     1      34.230 -15.640 -20.586  0.00  0.00    -0.089 HD
ATOM     17  H   UNL     1      35.574 -16.029 -21.489  0.00  0.00    -0.089 HD
ENDBRANCH  13  14
ENDBRANCH   1  13
TORSDOF 9
ENDMDL
MODEL 5
REMARK VINA RESULT:      -5.9      8.280     10.449
REMARK  Name = 10149052
REMARK  9 active torsions:
REMARK  status: ('A' for Active; 'I' for Inactive)
REMARK    1  A    between atoms: C_1  and  C_2
REMARK    2  A    between atoms: C_1  and  C_8
REMARK    3  A    between atoms: C_1  and  C_13
REMARK    4  A    between atoms: C_2  and  C_3
REMARK    5  A    between atoms: C_3  and  C_5
REMARK    6  A    between atoms: C_5  and  C_6
REMARK    7  A    between atoms: C_8  and  C_10
REMARK    8  A    between atoms: C_10  and  O_11
REMARK    9  A    between atoms: C_13  and  N_14
REMARK                            x       y       z     vdW  Elec       q    Type
REMARK                         _______ _______ _______ _____ _____    ______ ____
ROOT
ATOM      1  C   UNL     1      34.618 -18.300 -22.349  0.00  0.00    -0.011 C 
ENDROOT
BRANCH   1   2
ATOM      2  C   UNL     1      34.499 -19.786 -21.917  0.00  0.00    -0.002 C 
BRANCH   2   3
ATOM      3  C   UNL     1      34.651 -20.094 -20.406  0.00  0.00    -0.000 C 
ATOM      4  C   UNL     1      36.004 -20.784 -20.181  0.00  0.00    -0.000 C 
BRANCH   3   5
ATOM      5  C   UNL     1      33.481 -20.948 -19.876  0.00  0.00    -0.000 C 
BRANCH   5   6
ATOM      6  C   UNL     1      33.854 -22.332 -19.332  0.00  0.00    -0.000 C 
ATOM      7  C   UNL     1      33.149 -22.681 -18.031  0.00  0.00    +0.000 C 
ENDBRANCH   5   6
ENDBRANCH   3   5
ENDBRANCH   2   3
ENDBRANCH   1   2
BRANCH   1   8
ATOM      8  C   UNL     1      35.057 -17.444 -21.140  0.00  0.00    +0.107 C 
BRANCH   8  10
ATOM      9  O   UNL     1      33.699 -15.636 -22.009  0.00  0.00    -0.250 OA
ATOM     10  C   UNL     1      34.471 -16.055 -21.158  0.00  0.00    +0.314 C 
BRANCH  10  11
ATOM     11  O   UNL     1      34.921 -15.317 -20.115  0.00  0.00    -0.480 OA
ATOM     12  H   UNL     1      35.137 -14.413 -20.239  0.00  0.00    +0.295 HD
ENDBRANCH  10  11
ENDBRANCH   8  10
ENDBRANCH   1   8
BRANCH   1  13
ATOM     13  C   UNL     1      35.596 -18.143 -23.534  0.00  0.00    -0.086 C 
BRANCH  13  14
ATOM     14  N   UNL     1      35.217 -17.067 -24.448  0.00  0.00    +0.380 N 
ATOM     15  H   UNL     1      36.016 -16.451 -24.596  0.00  0.00    -0.089 HD
ATOM     16  H   UNL     1      34.447 -16.535 -24.044  0.00  0.00    -0.089 HD
ATOM     17  H   UNL     1      34.925 -17.466 -25.339  0.00  0.00    -0.089 HD
ENDBRANCH  13  14
ENDBRANCH   1  13
TORSDOF 9
ENDMDL
MODEL 6
REMARK VINA RESULT:      -5.9      7.494     10.272
REMARK  Name = 10149052
REMARK  9 active torsions:
REMARK  status: ('A' for Active; 'I' for Inactive)
REMARK    1  A    between atoms: C_1  and  C_2
REMARK    2  A    between atoms: C_1  and  C_8
REMARK    3  A    between atoms: C_1  and  C_13
REMARK    4  A    between atoms: C_2  and  C_3
REMARK    5  A    between atoms: C_3  and  C_5
REMARK    6  A    between atoms: C_5  and  C_6
REMARK    7  A    between atoms: C_8  and  C_10
REMARK    8  A    between atoms: C_10  and  O_11
REMARK    9  A    between atoms: C_13  and  N_14
REMARK                            x       y       z     vdW  Elec       q    Type
REMARK                         _______ _______ _______ _____ _____    ______ ____
ROOT
ATOM      1  C   UNL     1      34.594 -18.400 -22.235  0.00  0.00    -0.011 C 
ENDROOT
BRANCH   1   2
ATOM      2  C   UNL     1      35.066 -19.313 -21.072  0.00  0.00    -0.002 C 
BRANCH   2   3
ATOM      3  C   UNL     1      34.164 -20.522 -20.716  0.00  0.00    -0.000 C 
ATOM      4  C   UNL     1      32.746 -20.007 -20.431  0.00  0.00    -0.000 C 
BRANCH   3   5
ATOM      5  C   UNL     1      34.728 -21.326 -19.526  0.00  0.00    -0.000 C 
BRANCH   5   6
ATOM      6  C   UNL     1      36.251 -21.292 -19.357  0.00  0.00    -0.000 C 
ATOM      7  C   UNL     1      36.714 -21.671 -17.959  0.00  0.00    +0.000 C 
ENDBRANCH   5   6
ENDBRANCH   3   5
ENDBRANCH   2   3
ENDBRANCH   1   2
BRANCH   1   8
ATOM      8  C   UNL     1      35.308 -17.033 -22.142  0.00  0.00    +0.107 C 
BRANCH   8  10
ATOM      9  O   UNL     1      34.901 -15.603 -20.230  0.00  0.00    -0.250 OA
ATOM     10  C   UNL     1      34.545 -16.024 -21.321  0.00  0.00    +0.314 C 
BRANCH  10  11
ATOM     11  O   UNL     1      33.399 -15.651 -21.940  0.00  0.00    -0.480 OA
ATOM     12  H   UNL     1      32.697 -15.282 -21.442  0.00  0.00    +0.295 HD
ENDBRANCH  10  11
ENDBRANCH   8  10
ENDBRANCH   1   8
BRANCH   1  13
ATOM     13  C   UNL     1      34.841 -19.072 -23.603  0.00  0.00    -0.086 C 
BRANCH  13  14
ATOM     14  N   UNL     1      34.601 -18.174 -24.731  0.00  0.00    +0.380 N 
ATOM     15  H   UNL     1      33.720 -18.422 -25.181  0.00  0.00    -0.089 HD
ATOM     16  H   UNL     1      35.363 -18.263 -25.403  0.00  0.00    -0.089 HD
ATOM     17  H   UNL     1      34.553 -17.212 -24.395  0.00  0.00    -0.089 HD
ENDBRANCH  13  14
ENDBRANCH   1  13
TORSDOF 9
ENDMDL
MODEL 7
REMARK VINA RESULT:      -5.9     11.355     13.701
REMARK  Name = 10149052
REMARK  9 active torsions:
REMARK  status: ('A' for Active; 'I' for Inactive)
REMARK    1  A    between atoms: C_1  and  C_2
REMARK    2  A    between atoms: C_1  and  C_8
REMARK    3  A    between atoms: C_1  and  C_13
REMARK    4  A    between atoms: C_2  and  C_3
REMARK    5  A    between atoms: C_3  and  C_5
REMARK    6  A    between atoms: C_5  and  C_6
REMARK    7  A    between atoms: C_8  and  C_10
REMARK    8  A    between atoms: C_10  and  O_11
REMARK    9  A    between atoms: C_13  and  N_14
REMARK                            x       y       z     vdW  Elec       q    Type
REMARK                         _______ _______ _______ _____ _____    ______ ____
ROOT
ATOM      1  C   UNL     1      34.232 -14.226 -23.692  0.00  0.00    -0.011 C 
ENDROOT
BRANCH   1   2
ATOM      2  C   UNL     1      34.494 -14.447 -22.178  0.00  0.00    -0.002 C 
BRANCH   2   3
ATOM      3  C   UNL     1      33.822 -15.679 -21.520  0.00  0.00    -0.000 C 
ATOM      4  C   UNL     1      32.737 -15.185 -20.552  0.00  0.00    -0.000 C 
BRANCH   3   5
ATOM      5  C   UNL     1      34.851 -16.581 -20.809  0.00  0.00    -0.000 C 
BRANCH   5   6
ATOM      6  C   UNL     1      34.937 -18.026 -21.314  0.00  0.00    -0.000 C 
ATOM      7  C   UNL     1      35.616 -18.155 -22.669  0.00  0.00    +0.000 C 
ENDBRANCH   5   6
ENDBRANCH   3   5
ENDBRANCH   2   3
ENDBRANCH   1   2
BRANCH   1   8
ATOM      8  C   UNL     1      33.507 -15.459 -24.276  0.00  0.00    +0.107 C 
BRANCH   8  10
ATOM      9  O   UNL     1      33.422 -15.187 -26.682  0.00  0.00    -0.250 OA
ATOM     10  C   UNL     1      33.896 -15.749 -25.705  0.00  0.00    +0.314 C 
BRANCH  10  11
ATOM     11  O   UNL     1      34.829 -16.728 -25.772  0.00  0.00    -0.480 OA
ATOM     12  H   UNL     1      35.584 -16.619 -26.316  0.00  0.00    +0.295 HD
ENDBRANCH  10  11
ENDBRANCH   8  10
ENDBRANCH   1   8
BRANCH   1  13
ATOM     13  C   UNL     1      33.422 -12.933 -23.931  0.00  0.00    -0.086 C 
BRANCH  13  14
ATOM     14  N   UNL     1      34.260 -11.798 -24.316  0.00  0.00    +0.380 N 
ATOM     15  H   UNL     1      35.188 -11.907 -23.908  0.00  0.00    -0.089 HD
ATOM     16  H   UNL     1      33.837 -10.935 -23.975  0.00  0.00    -0.089 HD
ATOM     17  H   UNL     1      34.337 -11.762 -25.332  0.00  0.00    -0.089 HD
ENDBRANCH  13  14
ENDBRANCH   1  13
TORSDOF 9
ENDMDL
MODEL 8
REMARK VINA RESULT:      -5.8      6.990      8.493
REMARK  Name = 10149052
REMARK  9 active torsions:
REMARK  status: ('A' for Active; 'I' for Inactive)
REMARK    1  A    between atoms: C_1  and  C_2
REMARK    2  A    between atoms: C_1  and  C_8
REMARK    3  A    between atoms: C_1  and  C_13
REMARK    4  A    between atoms: C_2  and  C_3
REMARK    5  A    between atoms: C_3  and  C_5
REMARK    6  A    between atoms: C_5  and  C_6
REMARK    7  A    between atoms: C_8  and  C_10
REMARK    8  A    between atoms: C_10  and  O_11
REMARK    9  A    between atoms: C_13  and  N_14
REMARK                            x       y       z     vdW  Elec       q    Type
REMARK                         _______ _______ _______ _____ _____    ______ ____
ROOT
ATOM      1  C   UNL     1      30.040 -23.359 -15.081  0.00  0.00    -0.011 C 
ENDROOT
BRANCH   1   2
ATOM      2  C   UNL     1      31.456 -22.839 -14.714  0.00  0.00    -0.002 C 
BRANCH   2   3
ATOM      3  C   UNL     1      32.647 -23.793 -14.985  0.00  0.00    -0.000 C 
ATOM      4  C   UNL     1      33.382 -24.046 -13.661  0.00  0.00    -0.000 C 
BRANCH   3   5
ATOM      5  C   UNL     1      33.596 -23.231 -16.064  0.00  0.00    -0.000 C 
BRANCH   5   6
ATOM      6  C   UNL     1      33.070 -23.270 -17.504  0.00  0.00    -0.000 C 
ATOM      7  C   UNL     1      33.951 -22.521 -18.491  0.00  0.00    +0.000 C 
ENDBRANCH   5   6
ENDBRANCH   3   5
ENDBRANCH   2   3
ENDBRANCH   1   2
BRANCH   1   8
ATOM      8  C   UNL     1      29.590 -22.731 -16.419  0.00  0.00    +0.107 C 
BRANCH   8  10
ATOM      9  O   UNL     1      27.739 -23.364 -17.848  0.00  0.00    -0.250 OA
ATOM     10  C   UNL     1      28.146 -23.019 -16.748  0.00  0.00    +0.314 C 
BRANCH  10  11
ATOM     11  O   UNL     1      27.348 -22.828 -15.670  0.00  0.00    -0.480 OA
ATOM     12  H   UNL     1      27.406 -23.407 -14.936  0.00  0.00    +0.295 HD
ENDBRANCH  10  11
ENDBRANCH   8  10
ENDBRANCH   1   8
BRANCH   1  13
ATOM     13  C   UNL     1      30.015 -24.902 -15.147  0.00  0.00    -0.086 C 
BRANCH  13  14
ATOM     14  N   UNL     1      28.922 -25.489 -14.376  0.00  0.00    +0.380 N 
ATOM     15  H   UNL     1      28.569 -24.802 -13.710  0.00  0.00    -0.089 HD
ATOM     16  H   UNL     1      29.263 -26.308 -13.873  0.00  0.00    -0.089 HD
ATOM     17  H   UNL     1      28.171 -25.766 -15.009  0.00  0.00    -0.089 HD
ENDBRANCH  13  14
ENDBRANCH   1  13
TORSDOF 9
ENDMDL
MODEL 9
REMARK VINA RESULT:      -5.8      9.159     11.396
REMARK  Name = 10149052
REMARK  9 active torsions:
REMARK  status: ('A' for Active; 'I' for Inactive)
REMARK    1  A    between atoms: C_1  and  C_2
REMARK    2  A    between atoms: C_1  and  C_8
REMARK    3  A    between atoms: C_1  and  C_13
REMARK    4  A    between atoms: C_2  and  C_3
REMARK    5  A    between atoms: C_3  and  C_5
REMARK    6  A    between atoms: C_5  and  C_6
REMARK    7  A    between atoms: C_8  and  C_10
REMARK    8  A    between atoms: C_10  and  O_11
REMARK    9  A    between atoms: C_13  and  N_14
REMARK                            x       y       z     vdW  Elec       q    Type
REMARK                         _______ _______ _______ _____ _____    ______ ____
ROOT
ATOM      1  C   UNL     1      34.612 -16.915 -23.096  0.00  0.00    -0.011 C 
ENDROOT
BRANCH   1   2
ATOM      2  C   UNL     1      35.722 -17.749 -22.401  0.00  0.00    -0.002 C 
BRANCH   2   3
ATOM      3  C   UNL     1      35.281 -18.678 -21.242  0.00  0.00    -0.000 C 
ATOM      4  C   UNL     1      36.512 -19.444 -20.734  0.00  0.00    -0.000 C 
BRANCH   3   5
ATOM      5  C   UNL     1      34.153 -19.637 -21.675  0.00  0.00    -0.000 C 
BRANCH   5   6
ATOM      6  C   UNL     1      33.014 -19.829 -20.667  0.00  0.00    -0.000 C 
ATOM      7  C   UNL     1      33.213 -21.025 -19.748  0.00  0.00    +0.000 C 
ENDBRANCH   5   6
ENDBRANCH   3   5
ENDBRANCH   2   3
ENDBRANCH   1   2
BRANCH   1   8
ATOM      8  C   UNL     1      34.706 -15.443 -22.634  0.00  0.00    +0.107 C 
BRANCH   8  10
ATOM      9  O   UNL     1      34.827 -15.113 -20.237  0.00  0.00    -0.250 OA
ATOM     10  C   UNL     1      34.150 -15.224 -21.249  0.00  0.00    +0.314 C 
BRANCH  10  11
ATOM     11  O   UNL     1      32.795 -15.183 -21.263  0.00  0.00    -0.480 OA
ATOM     12  H   UNL     1      32.353 -14.389 -21.491  0.00  0.00    +0.295 HD
ENDBRANCH  10  11
ENDBRANCH   8  10
ENDBRANCH   1   8
BRANCH   1  13
ATOM     13  C   UNL     1      34.712 -17.029 -24.633  0.00  0.00    -0.086 C 
BRANCH  13  14
ATOM     14  N   UNL     1      34.382 -18.363 -25.129  0.00  0.00    +0.380 N 
ATOM     15  H   UNL     1      33.589 -18.734 -24.606  0.00  0.00    -0.089 HD
ATOM     16  H   UNL     1      35.187 -18.978 -25.007  0.00  0.00    -0.089 HD
ATOM     17  H   UNL     1      34.142 -18.308 -26.118  0.00  0.00    -0.089 HD
ENDBRANCH  13  14
ENDBRANCH   1  13
TORSDOF 9
ENDMDL
