MODEL 1
REMARK VINA RESULT:      -6.5      0.000      0.000
REMARK  Name = 3000469
REMARK  2 active torsions:
REMARK  status: ('A' for Active; 'I' for Inactive)
REMARK    1  A    between atoms: C_16  and  O_20
REMARK    2  A    between atoms: O_20  and  C_21
REMARK                            x       y       z     vdW  Elec       q    Type
REMARK                         _______ _______ _______ _____ _____    ______ ____
ROOT
ATOM      1  O   UNL     1      34.539 -25.161 -15.782  0.00  0.00    -0.218 OA
ATOM      2  O   UNL     1      33.311 -22.771 -14.678  0.00  0.00    -0.306 OA
ATOM      3  O   UNL     1      34.569 -23.925 -13.094  0.00  0.00    -0.304 OA
ATOM      4  O   UNL     1      33.206 -25.074 -15.193  0.00  0.00    -0.197 OA
ATOM      5  C   UNL     1      35.311 -23.976 -15.452  0.00  0.00    +0.178 C 
ATOM      6  C   UNL     1      35.412 -23.199 -16.804  0.00  0.00    +0.033 C 
ATOM      7  C   UNL     1      36.700 -24.500 -14.993  0.00  0.00    +0.038 C 
ATOM      8  C   UNL     1      36.526 -22.120 -16.796  0.00  0.00    +0.003 C 
ATOM      9  C   UNL     1      34.639 -23.169 -14.311  0.00  0.00    +0.268 C 
ATOM     10  C   UNL     1      37.773 -23.401 -15.014  0.00  0.00    +0.003 C 
ATOM     11  C   UNL     1      36.567 -25.218 -13.622  0.00  0.00    +0.059 C 
ATOM     12  C   UNL     1      34.070 -22.597 -17.280  0.00  0.00    +0.008 C 
ATOM     13  C   UNL     1      37.865 -22.733 -16.378  0.00  0.00    +0.000 C 
ATOM     14  C   UNL     1      32.679 -23.775 -15.479  0.00  0.00    +0.221 C 
ATOM     15  C   UNL     1      32.815 -23.419 -16.970  0.00  0.00    +0.059 C 
ATOM     16  C   UNL     1      35.824 -24.361 -12.584  0.00  0.00    +0.237 C 
ATOM     17  C   UNL     1      36.698 -21.432 -18.156  0.00  0.00    +0.000 C 
ATOM     18  C   UNL     1      37.900 -25.736 -13.080  0.00  0.00    +0.005 C 
ATOM     19  C   UNL     1      31.207 -23.814 -15.077  0.00  0.00    +0.064 C 
ENDROOT
BRANCH  16  20
ATOM     20  O   UNL     1      36.621 -23.279 -12.119  0.00  0.00    -0.330 OA
BRANCH  20  21
ATOM     21  C   UNL     1      36.610 -23.196 -10.700  0.00  0.00    +0.145 C 
ATOM     22  C   UNL     1      35.760 -24.328 -10.157  0.00  0.00    +0.035 C 
ENDBRANCH  20  21
ENDBRANCH  16  20
TORSDOF 2
ENDMDL
MODEL 2
REMARK VINA RESULT:      -6.4      1.504      2.340
REMARK  Name = 3000469
REMARK  2 active torsions:
REMARK  status: ('A' for Active; 'I' for Inactive)
REMARK    1  A    between atoms: C_16  and  O_20
REMARK    2  A    between atoms: O_20  and  C_21
REMARK                            x       y       z     vdW  Elec       q    Type
REMARK                         _______ _______ _______ _____ _____    ______ ____
ROOT
ATOM      1  O   UNL     1      32.639 -25.524 -14.449  0.00  0.00    -0.218 OA
ATOM      2  O   UNL     1      32.012 -22.947 -13.263  0.00  0.00    -0.306 OA
ATOM      3  O   UNL     1      33.961 -23.869 -12.384  0.00  0.00    -0.304 OA
ATOM      4  O   UNL     1      31.787 -25.298 -13.285  0.00  0.00    -0.197 OA
ATOM      5  C   UNL     1      33.405 -24.327 -14.749  0.00  0.00    +0.178 C 
ATOM      6  C   UNL     1      32.762 -23.785 -16.066  0.00  0.00    +0.033 C 
ATOM      7  C   UNL     1      34.861 -24.816 -14.986  0.00  0.00    +0.038 C 
ATOM      8  C   UNL     1      33.665 -22.755 -16.795  0.00  0.00    +0.003 C 
ATOM      9  C   UNL     1      33.362 -23.324 -13.567  0.00  0.00    +0.268 C 
ATOM     10  C   UNL     1      35.712 -23.771 -15.723  0.00  0.00    +0.003 C 
ATOM     11  C   UNL     1      35.482 -25.296 -13.646  0.00  0.00    +0.059 C 
ATOM     12  C   UNL     1      31.334 -23.223 -15.879  0.00  0.00    +0.008 C 
ATOM     13  C   UNL     1      35.062 -23.336 -17.028  0.00  0.00    +0.000 C 
ATOM     14  C   UNL     1      31.117 -24.046 -13.461  0.00  0.00    +0.221 C 
ATOM     15  C   UNL     1      30.457 -23.942 -14.848  0.00  0.00    +0.059 C 
ATOM     16  C   UNL     1      35.324 -24.257 -12.523  0.00  0.00    +0.237 C 
ATOM     17  C   UNL     1      33.084 -22.304 -18.141  0.00  0.00    +0.000 C 
ATOM     18  C   UNL     1      36.932 -25.763 -13.786  0.00  0.00    +0.005 C 
ATOM     19  C   UNL     1      30.058 -23.971 -12.364  0.00  0.00    +0.064 C 
ENDROOT
BRANCH  16  20
ATOM     20  O   UNL     1      36.185 -23.141 -12.705  0.00  0.00    -0.330 OA
BRANCH  20  21
ATOM     21  C   UNL     1      37.018 -22.936 -11.573  0.00  0.00    +0.145 C 
ATOM     22  C   UNL     1      38.414 -23.427 -11.904  0.00  0.00    +0.035 C 
ENDBRANCH  20  21
ENDBRANCH  16  20
TORSDOF 2
ENDMDL
MODEL 3
REMARK VINA RESULT:      -6.3     11.627     14.522
REMARK  Name = 3000469
REMARK  2 active torsions:
REMARK  status: ('A' for Active; 'I' for Inactive)
REMARK    1  A    between atoms: C_16  and  O_20
REMARK    2  A    between atoms: O_20  and  C_21
REMARK                            x       y       z     vdW  Elec       q    Type
REMARK                         _______ _______ _______ _____ _____    ______ ____
ROOT
ATOM      1  O   UNL     1      31.640 -13.924 -24.066  0.00  0.00    -0.218 OA
ATOM      2  O   UNL     1      34.220 -12.803 -24.794  0.00  0.00    -0.306 OA
ATOM      3  O   UNL     1      32.790 -11.203 -23.888  0.00  0.00    -0.304 OA
ATOM      4  O   UNL     1      32.005 -13.385 -25.374  0.00  0.00    -0.197 OA
ATOM      5  C   UNL     1      32.623 -13.530 -23.071  0.00  0.00    +0.178 C 
ATOM      6  C   UNL     1      33.383 -14.856 -22.744  0.00  0.00    +0.033 C 
ATOM      7  C   UNL     1      31.799 -13.032 -21.851  0.00  0.00    +0.038 C 
ATOM      8  C   UNL     1      34.194 -14.773 -21.424  0.00  0.00    +0.003 C 
ATOM      9  C   UNL     1      33.534 -12.395 -23.602  0.00  0.00    +0.268 C 
ATOM     10  C   UNL     1      32.638 -12.980 -20.565  0.00  0.00    +0.003 C 
ATOM     11  C   UNL     1      31.103 -11.688 -22.197  0.00  0.00    +0.059 C 
ATOM     12  C   UNL     1      34.273 -15.367 -23.900  0.00  0.00    +0.008 C 
ATOM     13  C   UNL     1      33.296 -14.320 -20.269  0.00  0.00    +0.000 C 
ATOM     14  C   UNL     1      33.393 -13.655 -25.592  0.00  0.00    +0.221 C 
ATOM     15  C   UNL     1      33.738 -15.130 -25.317  0.00  0.00    +0.059 C 
ATOM     16  C   UNL     1      32.082 -10.656 -22.781  0.00  0.00    +0.237 C 
ATOM     17  C   UNL     1      34.853 -16.106 -21.046  0.00  0.00    +0.000 C 
ATOM     18  C   UNL     1      30.296 -11.108 -21.033  0.00  0.00    +0.005 C 
ATOM     19  C   UNL     1      33.667 -13.313 -27.055  0.00  0.00    +0.064 C 
ENDROOT
BRANCH  16  20
ATOM     20  O   UNL     1      32.955 -10.130 -21.790  0.00  0.00    -0.330 OA
BRANCH  20  21
ATOM     21  C   UNL     1      32.929  -8.710 -21.774  0.00  0.00    +0.145 C 
ATOM     22  C   UNL     1      32.533  -8.250 -20.385  0.00  0.00    +0.035 C 
ENDBRANCH  20  21
ENDBRANCH  16  20
TORSDOF 2
ENDMDL
MODEL 4
REMARK VINA RESULT:      -6.2     15.516     18.206
REMARK  Name = 3000469
REMARK  2 active torsions:
REMARK  status: ('A' for Active; 'I' for Inactive)
REMARK    1  A    between atoms: C_16  and  O_20
REMARK    2  A    between atoms: O_20  and  C_21
REMARK                            x       y       z     vdW  Elec       q    Type
REMARK                         _______ _______ _______ _____ _____    ______ ____
ROOT
ATOM      1  O   UNL     1      34.571  -7.380 -22.686  0.00  0.00    -0.218 OA
ATOM      2  O   UNL     1      33.329  -9.062 -24.703  0.00  0.00    -0.306 OA
ATOM      3  O   UNL     1      32.914  -9.827 -22.543  0.00  0.00    -0.304 OA
ATOM      4  O   UNL     1      35.194  -8.517 -23.359  0.00  0.00    -0.197 OA
ATOM      5  C   UNL     1      33.136  -7.392 -22.907  0.00  0.00    +0.178 C 
ATOM      6  C   UNL     1      32.891  -6.191 -23.877  0.00  0.00    +0.033 C 
ATOM      7  C   UNL     1      32.499  -7.135 -21.513  0.00  0.00    +0.038 C 
ATOM      8  C   UNL     1      31.404  -5.755 -23.931  0.00  0.00    +0.003 C 
ATOM      9  C   UNL     1      32.666  -8.759 -23.467  0.00  0.00    +0.268 C 
ATOM     10  C   UNL     1      31.031  -6.692 -21.616  0.00  0.00    +0.003 C 
ATOM     11  C   UNL     1      32.716  -8.371 -20.598  0.00  0.00    +0.059 C 
ATOM     12  C   UNL     1      33.447  -6.416 -25.302  0.00  0.00    +0.008 C 
ATOM     13  C   UNL     1      30.873  -5.479 -22.521  0.00  0.00    +0.000 C 
ATOM     14  C   UNL     1      34.676  -8.580 -24.692  0.00  0.00    +0.221 C 
ATOM     15  C   UNL     1      34.751  -7.215 -25.399  0.00  0.00    +0.059 C 
ATOM     16  C   UNL     1      32.284  -9.682 -21.274  0.00  0.00    +0.237 C 
ATOM     17  C   UNL     1      31.180  -4.509 -24.797  0.00  0.00    +0.000 C 
ATOM     18  C   UNL     1      32.087  -8.214 -19.212  0.00  0.00    +0.005 C 
ATOM     19  C   UNL     1      35.531  -9.606 -25.432  0.00  0.00    +0.064 C 
ENDROOT
BRANCH  16  20
ATOM     20  O   UNL     1      30.869  -9.796 -21.360  0.00  0.00    -0.330 OA
BRANCH  20  21
ATOM     21  C   UNL     1      30.428 -11.093 -20.982  0.00  0.00    +0.145 C 
ATOM     22  C   UNL     1      31.508 -11.747 -20.144  0.00  0.00    +0.035 C 
ENDBRANCH  20  21
ENDBRANCH  16  20
TORSDOF 2
ENDMDL
MODEL 5
REMARK VINA RESULT:      -6.2     11.996     15.069
REMARK  Name = 3000469
REMARK  2 active torsions:
REMARK  status: ('A' for Active; 'I' for Inactive)
REMARK    1  A    between atoms: C_16  and  O_20
REMARK    2  A    between atoms: O_20  and  C_21
REMARK                            x       y       z     vdW  Elec       q    Type
REMARK                         _______ _______ _______ _____ _____    ______ ____
ROOT
ATOM      1  O   UNL     1      34.825 -13.361 -22.853  0.00  0.00    -0.218 OA
ATOM      2  O   UNL     1      32.035 -13.793 -22.165  0.00  0.00    -0.306 OA
ATOM      3  O   UNL     1      32.592 -11.532 -22.203  0.00  0.00    -0.304 OA
ATOM      4  O   UNL     1      34.295 -13.582 -21.510  0.00  0.00    -0.197 OA
ATOM      5  C   UNL     1      33.743 -13.055 -23.774  0.00  0.00    +0.178 C 
ATOM      6  C   UNL     1      33.634 -14.331 -24.669  0.00  0.00    +0.033 C 
ATOM      7  C   UNL     1      34.231 -11.827 -24.591  0.00  0.00    +0.038 C 
ATOM      8  C   UNL     1      32.835 -14.083 -25.975  0.00  0.00    +0.003 C 
ATOM      9  C   UNL     1      32.440 -12.707 -23.011  0.00  0.00    +0.268 C 
ATOM     10  C   UNL     1      33.421 -11.629 -25.882  0.00  0.00    +0.003 C 
ATOM     11  C   UNL     1      34.274 -10.570 -23.681  0.00  0.00    +0.059 C 
ATOM     12  C   UNL     1      33.091 -15.572 -23.924  0.00  0.00    +0.008 C 
ATOM     13  C   UNL     1      33.412 -12.886 -26.738  0.00  0.00    +0.000 C 
ATOM     14  C   UNL     1      33.173 -14.464 -21.615  0.00  0.00    +0.221 C 
ATOM     15  C   UNL     1      33.504 -15.710 -22.455  0.00  0.00    +0.059 C 
ATOM     16  C   UNL     1      32.958 -10.356 -22.917  0.00  0.00    +0.237 C 
ATOM     17  C   UNL     1      32.820 -15.302 -26.904  0.00  0.00    +0.000 C 
ATOM     18  C   UNL     1      34.713  -9.304 -24.420  0.00  0.00    +0.005 C 
ATOM     19  C   UNL     1      32.815 -14.868 -20.187  0.00  0.00    +0.064 C 
ENDROOT
BRANCH  16  20
ATOM     20  O   UNL     1      31.916  -9.897 -23.769  0.00  0.00    -0.330 OA
BRANCH  20  21
ATOM     21  C   UNL     1      31.182  -8.838 -23.171  0.00  0.00    +0.145 C 
ATOM     22  C   UNL     1      31.294  -7.612 -24.057  0.00  0.00    +0.035 C 
ENDBRANCH  20  21
ENDBRANCH  16  20
TORSDOF 2
ENDMDL
MODEL 6
REMARK VINA RESULT:      -6.1     12.127     14.850
REMARK  Name = 3000469
REMARK  2 active torsions:
REMARK  status: ('A' for Active; 'I' for Inactive)
REMARK    1  A    between atoms: C_16  and  O_20
REMARK    2  A    between atoms: O_20  and  C_21
REMARK                            x       y       z     vdW  Elec       q    Type
REMARK                         _______ _______ _______ _____ _____    ______ ____
ROOT
ATOM      1  O   UNL     1      30.994 -11.054 -22.812  0.00  0.00    -0.218 OA
ATOM      2  O   UNL     1      32.644 -11.076 -20.420  0.00  0.00    -0.306 OA
ATOM      3  O   UNL     1      32.600 -13.151 -21.478  0.00  0.00    -0.304 OA
ATOM      4  O   UNL     1      30.534 -11.330 -21.454  0.00  0.00    -0.197 OA
ATOM      5  C   UNL     1      32.444 -11.115 -22.872  0.00  0.00    +0.178 C 
ATOM      6  C   UNL     1      32.879  -9.625 -23.058  0.00  0.00    +0.033 C 
ATOM      7  C   UNL     1      32.772 -11.964 -24.131  0.00  0.00    +0.038 C 
ATOM      8  C   UNL     1      34.342  -9.484 -23.554  0.00  0.00    +0.003 C 
ATOM      9  C   UNL     1      33.030 -11.788 -21.604  0.00  0.00    +0.268 C 
ATOM     10  C   UNL     1      34.225 -11.781 -24.594  0.00  0.00    +0.003 C 
ATOM     11  C   UNL     1      32.375 -13.446 -23.887  0.00  0.00    +0.059 C 
ATOM     12  C   UNL     1      32.637  -8.743 -21.811  0.00  0.00    +0.008 C 
ATOM     13  C   UNL     1      34.562 -10.315 -24.822  0.00  0.00    +0.000 C 
ATOM     14  C   UNL     1      31.321 -10.546 -20.552  0.00  0.00    +0.221 C 
ATOM     15  C   UNL     1      31.388  -9.071 -20.987  0.00  0.00    +0.059 C 
ATOM     16  C   UNL     1      32.948 -13.995 -22.570  0.00  0.00    +0.237 C 
ATOM     17  C   UNL     1      34.735  -8.029 -23.841  0.00  0.00    +0.000 C 
ATOM     18  C   UNL     1      32.698 -14.360 -25.070  0.00  0.00    +0.005 C 
ATOM     19  C   UNL     1      30.648 -10.664 -19.186  0.00  0.00    +0.064 C 
ENDROOT
BRANCH  16  20
ATOM     20  O   UNL     1      34.350 -14.218 -22.652  0.00  0.00    -0.330 OA
BRANCH  20  21
ATOM     21  C   UNL     1      34.681 -15.567 -22.351  0.00  0.00    +0.145 C 
ATOM     22  C   UNL     1      34.627 -15.753 -20.847  0.00  0.00    +0.035 C 
ENDBRANCH  20  21
ENDBRANCH  16  20
TORSDOF 2
ENDMDL
MODEL 7
REMARK VINA RESULT:      -6.0      2.077      5.775
REMARK  Name = 3000469
REMARK  2 active torsions:
REMARK  status: ('A' for Active; 'I' for Inactive)
REMARK    1  A    between atoms: C_16  and  O_20
REMARK    2  A    between atoms: O_20  and  C_21
REMARK                            x       y       z     vdW  Elec       q    Type
REMARK                         _______ _______ _______ _____ _____    ______ ____
ROOT
ATOM      1  O   UNL     1      34.976 -25.000 -16.070  0.00  0.00    -0.218 OA
ATOM      2  O   UNL     1      35.988 -22.561 -14.860  0.00  0.00    -0.306 OA
ATOM      3  O   UNL     1      36.044 -22.477 -17.186  0.00  0.00    -0.304 OA
ATOM      4  O   UNL     1      36.357 -24.751 -15.665  0.00  0.00    -0.197 OA
ATOM      5  C   UNL     1      34.229 -23.755 -16.098  0.00  0.00    +0.178 C 
ATOM      6  C   UNL     1      33.264 -23.864 -14.874  0.00  0.00    +0.033 C 
ATOM      7  C   UNL     1      33.448 -23.770 -17.441  0.00  0.00    +0.038 C 
ATOM      8  C   UNL     1      32.095 -22.847 -14.938  0.00  0.00    +0.003 C 
ATOM      9  C   UNL     1      35.179 -22.531 -16.044  0.00  0.00    +0.268 C 
ATOM     10  C   UNL     1      32.292 -22.758 -17.453  0.00  0.00    +0.003 C 
ATOM     11  C   UNL     1      34.435 -23.606 -18.628  0.00  0.00    +0.059 C 
ATOM     12  C   UNL     1      33.980 -23.789 -13.505  0.00  0.00    +0.008 C 
ATOM     13  C   UNL     1      31.354 -22.963 -16.273  0.00  0.00    +0.000 C 
ATOM     14  C   UNL     1      36.334 -23.905 -14.511  0.00  0.00    +0.221 C 
ATOM     15  C   UNL     1      35.368 -24.433 -13.435  0.00  0.00    +0.059 C 
ATOM     16  C   UNL     1      35.378 -22.406 -18.443  0.00  0.00    +0.237 C 
ATOM     17  C   UNL     1      31.088 -23.025 -13.795  0.00  0.00    +0.000 C 
ATOM     18  C   UNL     1      33.741 -23.576 -19.991  0.00  0.00    +0.005 C 
ATOM     19  C   UNL     1      37.762 -23.880 -13.973  0.00  0.00    +0.064 C 
ENDROOT
BRANCH  16  20
ATOM     20  O   UNL     1      34.705 -21.167 -18.625  0.00  0.00    -0.330 OA
BRANCH  20  21
ATOM     21  C   UNL     1      34.995 -20.598 -19.894  0.00  0.00    +0.145 C 
ATOM     22  C   UNL     1      33.706 -20.070 -20.493  0.00  0.00    +0.035 C 
ENDBRANCH  20  21
ENDBRANCH  16  20
TORSDOF 2
ENDMDL
MODEL 8
REMARK VINA RESULT:      -6.0      1.927      5.680
REMARK  Name = 3000469
REMARK  2 active torsions:
REMARK  status: ('A' for Active; 'I' for Inactive)
REMARK    1  A    between atoms: C_16  and  O_20
REMARK    2  A    between atoms: O_20  and  C_21
REMARK                            x       y       z     vdW  Elec       q    Type
REMARK                         _______ _______ _______ _____ _____    ______ ____
ROOT
ATOM      1  O   UNL     1      36.729 -26.208 -14.645  0.00  0.00    -0.218 OA
ATOM      2  O   UNL     1      38.891 -24.323 -14.181  0.00  0.00    -0.306 OA
ATOM      3  O   UNL     1      37.566 -23.712 -15.996  0.00  0.00    -0.304 OA
ATOM      4  O   UNL     1      38.079 -26.296 -15.195  0.00  0.00    -0.197 OA
ATOM      5  C   UNL     1      36.497 -24.882 -14.099  0.00  0.00    +0.178 C 
ATOM      6  C   UNL     1      36.472 -25.108 -12.553  0.00  0.00    +0.033 C 
ATOM      7  C   UNL     1      35.102 -24.452 -14.633  0.00  0.00    +0.038 C 
ATOM      8  C   UNL     1      35.837 -23.921 -11.782  0.00  0.00    +0.003 C 
ATOM      9  C   UNL     1      37.583 -23.883 -14.572  0.00  0.00    +0.268 C 
ATOM     10  C   UNL     1      34.507 -23.285 -13.831  0.00  0.00    +0.003 C 
ATOM     11  C   UNL     1      35.181 -24.186 -16.161  0.00  0.00    +0.059 C 
ATOM     12  C   UNL     1      37.849 -25.475 -11.953  0.00  0.00    +0.008 C 
ATOM     13  C   UNL     1      34.449 -23.597 -12.343  0.00  0.00    +0.000 C 
ATOM     14  C   UNL     1      38.986 -25.751 -14.233  0.00  0.00    +0.221 C 
ATOM     15  C   UNL     1      38.756 -26.343 -12.831  0.00  0.00    +0.059 C 
ATOM     16  C   UNL     1      36.334 -23.239 -16.530  0.00  0.00    +0.237 C 
ATOM     17  C   UNL     1      35.713 -24.187 -10.277  0.00  0.00    +0.000 C 
ATOM     18  C   UNL     1      33.852 -23.723 -16.762  0.00  0.00    +0.005 C 
ATOM     19  C   UNL     1      40.389 -26.093 -14.728  0.00  0.00    +0.064 C 
ENDROOT
BRANCH  16  20
ATOM     20  O   UNL     1      36.063 -21.896 -16.150  0.00  0.00    -0.330 OA
BRANCH  20  21
ATOM     21  C   UNL     1      36.815 -20.973 -16.925  0.00  0.00    +0.145 C 
ATOM     22  C   UNL     1      36.681 -21.349 -18.388  0.00  0.00    +0.035 C 
ENDBRANCH  20  21
ENDBRANCH  16  20
TORSDOF 2
ENDMDL
MODEL 9
REMARK VINA RESULT:      -5.8      1.922      4.022
REMARK  Name = 3000469
REMARK  2 active torsions:
REMARK  status: ('A' for Active; 'I' for Inactive)
REMARK    1  A    between atoms: C_16  and  O_20
REMARK    2  A    between atoms: O_20  and  C_21
REMARK                            x       y       z     vdW  Elec       q    Type
REMARK                         _______ _______ _______ _____ _____    ______ ____
ROOT
ATOM      1  O   UNL     1      34.565 -22.014 -15.561  0.00  0.00    -0.218 OA
ATOM      2  O   UNL     1      34.403 -24.358 -17.269  0.00  0.00    -0.306 OA
ATOM      3  O   UNL     1      36.353 -24.330 -15.997  0.00  0.00    -0.304 OA
ATOM      4  O   UNL     1      35.034 -22.105 -16.941  0.00  0.00    -0.197 OA
ATOM      5  C   UNL     1      34.303 -23.341 -15.032  0.00  0.00    +0.178 C 
ATOM      6  C   UNL     1      32.745 -23.409 -14.931  0.00  0.00    +0.033 C 
ATOM      7  C   UNL     1      34.966 -23.365 -13.627  0.00  0.00    +0.038 C 
ATOM      8  C   UNL     1      32.252 -24.562 -14.018  0.00  0.00    +0.003 C 
ATOM      9  C   UNL     1      34.924 -24.437 -15.935  0.00  0.00    +0.268 C 
ATOM     10  C   UNL     1      34.437 -24.513 -12.753  0.00  0.00    +0.003 C 
ATOM     11  C   UNL     1      36.512 -23.350 -13.771  0.00  0.00    +0.059 C 
ATOM     12  C   UNL     1      32.032 -23.454 -16.302  0.00  0.00    +0.008 C 
ATOM     13  C   UNL     1      32.920 -24.481 -12.642  0.00  0.00    +0.000 C 
ATOM     14  C   UNL     1      34.165 -22.998 -17.646  0.00  0.00    +0.221 C 
ATOM     15  C   UNL     1      32.684 -22.644 -17.427  0.00  0.00    +0.059 C 
ATOM     16  C   UNL     1      37.018 -24.429 -14.742  0.00  0.00    +0.237 C 
ATOM     17  C   UNL     1      30.730 -24.563 -13.831  0.00  0.00    +0.000 C 
ATOM     18  C   UNL     1      37.244 -23.407 -12.429  0.00  0.00    +0.005 C 
ATOM     19  C   UNL     1      34.528 -22.866 -19.123  0.00  0.00    +0.064 C 
ENDROOT
BRANCH  16  20
ATOM     20  O   UNL     1      36.924 -25.734 -14.185  0.00  0.00    -0.330 OA
BRANCH  20  21
ATOM     21  C   UNL     1      37.988 -26.566 -14.625  0.00  0.00    +0.145 C 
ATOM     22  C   UNL     1      39.291 -25.805 -14.477  0.00  0.00    +0.035 C 
ENDBRANCH  20  21
ENDBRANCH  16  20
TORSDOF 2
ENDMDL
