MODEL 1
REMARK VINA RESULT:     -11.2      0.000      0.000
REMARK  Name = 9796590
REMARK  3 active torsions:
REMARK  status: ('A' for Active; 'I' for Inactive)
REMARK    1  A    between atoms: C_1  and  C_13
REMARK    2  A    between atoms: C_9  and  C_23
REMARK    3  A    between atoms: C_13  and  O_19
REMARK                            x       y       z     vdW  Elec       q    Type
REMARK                         _______ _______ _______ _____ _____    ______ ____
ROOT
ATOM      1  C   UNL     1      34.963 -19.194 -21.844  0.00  0.00    +0.007 C 
ATOM      2  C   UNL     1      35.778 -19.910 -20.967  0.00  0.00    -0.002 C 
ATOM      3  C   UNL     1      33.579 -19.310 -21.761  0.00  0.00    -0.002 C 
ATOM      4  C   UNL     1      35.216 -20.753 -19.994  0.00  0.00    -0.000 C 
ATOM      5  C   UNL     1      33.809 -20.871 -19.909  0.00  0.00    +0.000 C 
ATOM      6  C   UNL     1      33.004 -20.142 -20.800  0.00  0.00    -0.000 C 
ATOM      7  C   UNL     1      36.021 -21.482 -19.102  0.00  0.00    +0.000 C 
ATOM      8  C   UNL     1      33.247 -21.713 -18.936  0.00  0.00    +0.005 C 
ATOM      9  C   UNL     1      34.061 -22.430 -18.059  0.00  0.00    +0.053 C 
ATOM     10  C   UNL     1      35.446 -22.314 -18.142  0.00  0.00    +0.005 C 
ENDROOT
BRANCH   1  13
ATOM     11  N   UNL     1      34.244 -16.681 -23.971  0.00  0.00    -0.270 N 
ATOM     12  N   UNL     1      34.124 -14.846 -22.792  0.00  0.00    -0.225 NA
ATOM     13  C   UNL     1      35.588 -18.286 -22.891  0.00  0.00    +0.141 C 
ATOM     14  C   UNL     1      35.355 -18.676 -24.396  0.00  0.00    +0.059 C 
ATOM     15  C   UNL     1      34.998 -16.924 -22.864  0.00  0.00    +0.078 C 
ATOM     16  C   UNL     1      34.200 -17.785 -24.905  0.00  0.00    +0.100 C 
ATOM     17  C   UNL     1      34.915 -15.772 -22.130  0.00  0.00    +0.113 C 
ATOM     18  C   UNL     1      33.739 -15.438 -23.910  0.00  0.00    +0.167 C 
BRANCH  13  19
ATOM     19  O   UNL     1      36.993 -18.170 -22.668  0.00  0.00    -0.377 OA
ATOM     20  H   UNL     1      37.284 -17.274 -22.897  0.00  0.00    +0.211 HD
ENDBRANCH  13  19
ENDBRANCH   1  13
BRANCH   9  23
ATOM     21  O   UNL     1      34.162 -24.120 -16.436  0.00  0.00    -0.270 OA
ATOM     22  N   UNL     1      32.093 -23.146 -16.820  0.00  0.00    -0.299 N 
ATOM     23  C   UNL     1      33.464 -23.298 -17.058  0.00  0.00    +0.246 C 
ATOM     24  C   UNL     1      31.361 -23.916 -15.841  0.00  0.00    +0.111 C 
ATOM     25  H   UNL     1      31.601 -22.476 -17.348  0.00  0.00    +0.150 HD
ENDBRANCH   9  23
TORSDOF 3
ENDMDL
MODEL 2
REMARK VINA RESULT:     -10.7      3.924      9.265
REMARK  Name = 9796590
REMARK  3 active torsions:
REMARK  status: ('A' for Active; 'I' for Inactive)
REMARK    1  A    between atoms: C_1  and  C_13
REMARK    2  A    between atoms: C_9  and  C_23
REMARK    3  A    between atoms: C_13  and  O_19
REMARK                            x       y       z     vdW  Elec       q    Type
REMARK                         _______ _______ _______ _____ _____    ______ ____
ROOT
ATOM      1  C   UNL     1      35.916 -23.691 -15.666  0.00  0.00    +0.007 C 
ATOM      2  C   UNL     1      34.771 -23.550 -16.451  0.00  0.00    -0.002 C 
ATOM      3  C   UNL     1      37.063 -22.964 -15.971  0.00  0.00    -0.002 C 
ATOM      4  C   UNL     1      34.760 -22.679 -17.552  0.00  0.00    -0.000 C 
ATOM      5  C   UNL     1      35.927 -21.940 -17.862  0.00  0.00    +0.000 C 
ATOM      6  C   UNL     1      37.070 -22.094 -17.061  0.00  0.00    -0.000 C 
ATOM      7  C   UNL     1      33.617 -22.524 -18.353  0.00  0.00    +0.000 C 
ATOM      8  C   UNL     1      35.915 -21.069 -18.964  0.00  0.00    +0.005 C 
ATOM      9  C   UNL     1      34.771 -20.928 -19.749  0.00  0.00    +0.053 C 
ATOM     10  C   UNL     1      33.624 -21.655 -19.444  0.00  0.00    +0.005 C 
ENDROOT
BRANCH   1  13
ATOM     11  N   UNL     1      37.796 -24.726 -13.067  0.00  0.00    -0.270 N 
ATOM     12  N   UNL     1      37.693 -23.175 -11.532  0.00  0.00    -0.225 NA
ATOM     13  C   UNL     1      35.910 -24.637 -14.477  0.00  0.00    +0.141 C 
ATOM     14  C   UNL     1      36.675 -26.000 -14.654  0.00  0.00    +0.059 C 
ATOM     15  C   UNL     1      36.630 -24.065 -13.311  0.00  0.00    +0.078 C 
ATOM     16  C   UNL     1      38.053 -25.818 -13.981  0.00  0.00    +0.100 C 
ATOM     17  C   UNL     1      36.575 -23.095 -12.349  0.00  0.00    +0.113 C 
ATOM     18  C   UNL     1      38.409 -24.184 -12.003  0.00  0.00    +0.167 C 
BRANCH  13  19
ATOM     19  O   UNL     1      34.569 -24.922 -14.079  0.00  0.00    -0.377 OA
ATOM     20  H   UNL     1      33.953 -24.539 -14.723  0.00  0.00    +0.211 HD
ENDBRANCH  13  19
ENDBRANCH   1  13
BRANCH   9  23
ATOM     21  O   UNL     1      33.760 -19.890 -21.593  0.00  0.00    -0.270 OA
ATOM     22  N   UNL     1      35.954 -19.305 -21.122  0.00  0.00    -0.299 N 
ATOM     23  C   UNL     1      34.776 -20.023 -20.886  0.00  0.00    +0.246 C 
ATOM     24  C   UNL     1      36.108 -18.351 -22.196  0.00  0.00    +0.111 C 
ATOM     25  H   UNL     1      36.721 -19.459 -20.523  0.00  0.00    +0.150 HD
ENDBRANCH   9  23
TORSDOF 3
ENDMDL
MODEL 3
REMARK VINA RESULT:     -10.6      6.682      9.166
REMARK  Name = 9796590
REMARK  3 active torsions:
REMARK  status: ('A' for Active; 'I' for Inactive)
REMARK    1  A    between atoms: C_1  and  C_13
REMARK    2  A    between atoms: C_9  and  C_23
REMARK    3  A    between atoms: C_13  and  O_19
REMARK                            x       y       z     vdW  Elec       q    Type
REMARK                         _______ _______ _______ _____ _____    ______ ____
ROOT
ATOM      1  C   UNL     1      34.941 -23.514 -15.588  0.00  0.00    +0.007 C 
ATOM      2  C   UNL     1      33.913 -23.732 -14.671  0.00  0.00    -0.002 C 
ATOM      3  C   UNL     1      34.642 -23.178 -16.905  0.00  0.00    -0.002 C 
ATOM      4  C   UNL     1      32.569 -23.617 -15.062  0.00  0.00    -0.000 C 
ATOM      5  C   UNL     1      32.264 -23.275 -16.401  0.00  0.00    +0.000 C 
ATOM      6  C   UNL     1      33.312 -23.059 -17.310  0.00  0.00    -0.000 C 
ATOM      7  C   UNL     1      31.520 -23.832 -14.153  0.00  0.00    +0.000 C 
ATOM      8  C   UNL     1      30.920 -23.160 -16.792  0.00  0.00    +0.005 C 
ATOM      9  C   UNL     1      29.891 -23.378 -15.875  0.00  0.00    +0.053 C 
ATOM     10  C   UNL     1      30.191 -23.714 -14.558  0.00  0.00    +0.005 C 
ENDROOT
BRANCH   1  13
ATOM     11  N   UNL     1      36.927 -25.068 -13.351  0.00  0.00    -0.270 N 
ATOM     12  N   UNL     1      37.201 -27.122 -14.042  0.00  0.00    -0.225 NA
ATOM     13  C   UNL     1      36.391 -23.642 -15.148  0.00  0.00    +0.141 C 
ATOM     14  C   UNL     1      36.824 -22.810 -13.886  0.00  0.00    +0.059 C 
ATOM     15  C   UNL     1      36.711 -25.019 -14.695  0.00  0.00    +0.078 C 
ATOM     16  C   UNL     1      36.803 -23.787 -12.690  0.00  0.00    +0.100 C 
ATOM     17  C   UNL     1      36.882 -26.308 -15.119  0.00  0.00    +0.113 C 
ATOM     18  C   UNL     1      37.221 -26.326 -12.986  0.00  0.00    +0.167 C 
BRANCH  13  19
ATOM     19  O   UNL     1      37.264 -23.311 -16.228  0.00  0.00    -0.377 OA
ATOM     20  H   UNL     1      37.150 -22.377 -16.462  0.00  0.00    +0.211 HD
ENDBRANCH  13  19
ENDBRANCH   1  13
BRANCH   9  23
ATOM     21  O   UNL     1      28.028 -24.037 -17.138  0.00  0.00    -0.270 OA
ATOM     22  N   UNL     1      27.744 -22.245 -15.694  0.00  0.00    -0.299 N 
ATOM     23  C   UNL     1      28.505 -23.255 -16.295  0.00  0.00    +0.246 C 
ATOM     24  C   UNL     1      26.349 -22.013 -15.988  0.00  0.00    +0.111 C 
ATOM     25  H   UNL     1      28.185 -21.662 -15.034  0.00  0.00    +0.150 HD
ENDBRANCH   9  23
TORSDOF 3
ENDMDL
MODEL 4
REMARK VINA RESULT:     -10.2      4.691      7.817
REMARK  Name = 9796590
REMARK  3 active torsions:
REMARK  status: ('A' for Active; 'I' for Inactive)
REMARK    1  A    between atoms: C_1  and  C_13
REMARK    2  A    between atoms: C_9  and  C_23
REMARK    3  A    between atoms: C_13  and  O_19
REMARK                            x       y       z     vdW  Elec       q    Type
REMARK                         _______ _______ _______ _____ _____    ______ ____
ROOT
ATOM      1  C   UNL     1      32.101 -12.478 -21.508  0.00  0.00    +0.007 C 
ATOM      2  C   UNL     1      32.763 -12.992 -22.623  0.00  0.00    -0.002 C 
ATOM      3  C   UNL     1      32.138 -13.163 -20.298  0.00  0.00    -0.002 C 
ATOM      4  C   UNL     1      33.471 -14.202 -22.540  0.00  0.00    -0.000 C 
ATOM      5  C   UNL     1      33.508 -14.900 -21.310  0.00  0.00    +0.000 C 
ATOM      6  C   UNL     1      32.837 -14.367 -20.197  0.00  0.00    -0.000 C 
ATOM      7  C   UNL     1      34.143 -14.736 -23.652  0.00  0.00    +0.000 C 
ATOM      8  C   UNL     1      34.217 -16.110 -21.227  0.00  0.00    +0.005 C 
ATOM      9  C   UNL     1      34.879 -16.625 -22.342  0.00  0.00    +0.053 C 
ATOM     10  C   UNL     1      34.842 -15.939 -23.552  0.00  0.00    +0.005 C 
ENDROOT
BRANCH   1  13
ATOM     11  N   UNL     1      32.514  -9.134 -21.417  0.00  0.00    -0.270 N 
ATOM     12  N   UNL     1      33.354  -8.530 -23.341  0.00  0.00    -0.225 NA
ATOM     13  C   UNL     1      31.340 -11.166 -21.615  0.00  0.00    +0.141 C 
ATOM     14  C   UNL     1      30.981 -10.444 -20.265  0.00  0.00    +0.059 C 
ATOM     15  C   UNL     1      32.143 -10.114 -22.287  0.00  0.00    +0.078 C 
ATOM     16  C   UNL     1      32.042  -9.339 -20.066  0.00  0.00    +0.100 C 
ATOM     17  C   UNL     1      32.674  -9.730 -23.487  0.00  0.00    +0.113 C 
ATOM     18  C   UNL     1      33.229  -8.201 -22.066  0.00  0.00    +0.167 C 
BRANCH  13  19
ATOM     19  O   UNL     1      30.136 -11.355 -22.359  0.00  0.00    -0.377 OA
ATOM     20  H   UNL     1      29.840 -12.274 -22.268  0.00  0.00    +0.211 HD
ENDBRANCH  13  19
ENDBRANCH   1  13
BRANCH   9  23
ATOM     21  O   UNL     1      35.963 -18.489 -23.265  0.00  0.00    -0.270 OA
ATOM     22  N   UNL     1      35.900 -18.341 -20.951  0.00  0.00    -0.299 N 
ATOM     23  C   UNL     1      35.607 -17.879 -22.240  0.00  0.00    +0.246 C 
ATOM     24  C   UNL     1      36.637 -19.555 -20.686  0.00  0.00    +0.111 C 
ATOM     25  H   UNL     1      35.588 -17.808 -20.184  0.00  0.00    +0.150 HD
ENDBRANCH   9  23
TORSDOF 3
ENDMDL
MODEL 5
REMARK VINA RESULT:     -10.0      1.450      7.865
REMARK  Name = 9796590
REMARK  3 active torsions:
REMARK  status: ('A' for Active; 'I' for Inactive)
REMARK    1  A    between atoms: C_1  and  C_13
REMARK    2  A    between atoms: C_9  and  C_23
REMARK    3  A    between atoms: C_13  and  O_19
REMARK                            x       y       z     vdW  Elec       q    Type
REMARK                         _______ _______ _______ _____ _____    ______ ____
ROOT
ATOM      1  C   UNL     1      33.821 -22.134 -18.704  0.00  0.00    +0.007 C 
ATOM      2  C   UNL     1      35.040 -21.652 -19.179  0.00  0.00    -0.002 C 
ATOM      3  C   UNL     1      32.629 -21.554 -19.125  0.00  0.00    -0.002 C 
ATOM      4  C   UNL     1      35.081 -20.579 -20.086  0.00  0.00    -0.000 C 
ATOM      5  C   UNL     1      33.869 -19.989 -20.515  0.00  0.00    +0.000 C 
ATOM      6  C   UNL     1      32.651 -20.488 -20.026  0.00  0.00    -0.000 C 
ATOM      7  C   UNL     1      36.299 -20.080 -20.576  0.00  0.00    +0.000 C 
ATOM      8  C   UNL     1      33.910 -18.917 -21.421  0.00  0.00    +0.005 C 
ATOM      9  C   UNL     1      35.129 -18.433 -21.897  0.00  0.00    +0.053 C 
ATOM     10  C   UNL     1      36.321 -19.014 -21.475  0.00  0.00    +0.005 C 
ENDROOT
BRANCH   1  13
ATOM     11  N   UNL     1      33.135 -22.908 -15.496  0.00  0.00    -0.270 N 
ATOM     12  N   UNL     1      30.961 -23.002 -15.301  0.00  0.00    -0.225 NA
ATOM     13  C   UNL     1      33.794 -23.296 -17.724  0.00  0.00    +0.141 C 
ATOM     14  C   UNL     1      35.021 -23.428 -16.748  0.00  0.00    +0.059 C 
ATOM     15  C   UNL     1      32.679 -23.174 -16.751  0.00  0.00    +0.078 C 
ATOM     16  C   UNL     1      34.575 -22.816 -15.402  0.00  0.00    +0.100 C 
ATOM     17  C   UNL     1      31.318 -23.228 -16.621  0.00  0.00    +0.113 C 
ATOM     18  C   UNL     1      32.097 -22.815 -14.649  0.00  0.00    +0.167 C 
BRANCH  13  19
ATOM     19  O   UNL     1      33.643 -24.530 -18.426  0.00  0.00    -0.377 OA
ATOM     20  H   UNL     1      33.330 -25.214 -17.814  0.00  0.00    +0.211 HD
ENDBRANCH  13  19
ENDBRANCH   1  13
BRANCH   9  23
ATOM     21  O   UNL     1      35.475 -16.181 -22.454  0.00  0.00    -0.270 OA
ATOM     22  N   UNL     1      34.829 -17.605 -24.166  0.00  0.00    -0.299 N 
ATOM     23  C   UNL     1      35.155 -17.322 -22.834  0.00  0.00    +0.246 C 
ATOM     24  C   UNL     1      34.832 -16.615 -25.218  0.00  0.00    +0.111 C 
ATOM     25  H   UNL     1      34.584 -18.531 -24.398  0.00  0.00    +0.150 HD
ENDBRANCH   9  23
TORSDOF 3
ENDMDL
MODEL 6
REMARK VINA RESULT:      -9.9      3.661      8.460
REMARK  Name = 9796590
REMARK  3 active torsions:
REMARK  status: ('A' for Active; 'I' for Inactive)
REMARK    1  A    between atoms: C_1  and  C_13
REMARK    2  A    between atoms: C_9  and  C_23
REMARK    3  A    between atoms: C_13  and  O_19
REMARK                            x       y       z     vdW  Elec       q    Type
REMARK                         _______ _______ _______ _____ _____    ______ ____
ROOT
ATOM      1  C   UNL     1      34.156 -17.010 -22.226  0.00  0.00    +0.007 C 
ATOM      2  C   UNL     1      34.220 -16.006 -23.192  0.00  0.00    -0.002 C 
ATOM      3  C   UNL     1      33.496 -16.780 -21.024  0.00  0.00    -0.002 C 
ATOM      4  C   UNL     1      33.622 -14.756 -22.966  0.00  0.00    -0.000 C 
ATOM      5  C   UNL     1      32.950 -14.521 -21.743  0.00  0.00    +0.000 C 
ATOM      6  C   UNL     1      32.895 -15.543 -20.782  0.00  0.00    -0.000 C 
ATOM      7  C   UNL     1      33.676 -13.732 -23.927  0.00  0.00    +0.000 C 
ATOM      8  C   UNL     1      32.352 -13.270 -21.517  0.00  0.00    +0.005 C 
ATOM      9  C   UNL     1      32.415 -12.266 -22.483  0.00  0.00    +0.053 C 
ATOM     10  C   UNL     1      33.076 -12.497 -23.685  0.00  0.00    +0.005 C 
ENDROOT
BRANCH   1  13
ATOM     11  N   UNL     1      35.334 -19.756 -20.666  0.00  0.00    -0.270 N 
ATOM     12  N   UNL     1      33.609 -20.967 -20.091  0.00  0.00    -0.225 NA
ATOM     13  C   UNL     1      34.809 -18.358 -22.488  0.00  0.00    +0.141 C 
ATOM     14  C   UNL     1      36.365 -18.443 -22.281  0.00  0.00    +0.059 C 
ATOM     15  C   UNL     1      34.345 -19.392 -21.528  0.00  0.00    +0.078 C 
ATOM     16  C   UNL     1      36.587 -19.067 -20.886  0.00  0.00    +0.100 C 
ATOM     17  C   UNL     1      33.269 -20.152 -21.160  0.00  0.00    +0.113 C 
ATOM     18  C   UNL     1      34.876 -20.696 -19.824  0.00  0.00    +0.167 C 
BRANCH  13  19
ATOM     19  O   UNL     1      34.504 -18.805 -23.809  0.00  0.00    -0.377 OA
ATOM     20  H   UNL     1      35.137 -19.491 -24.072  0.00  0.00    +0.211 HD
ENDBRANCH  13  19
ENDBRANCH   1  13
BRANCH   9  23
ATOM     21  O   UNL     1      30.898 -10.862 -21.374  0.00  0.00    -0.270 OA
ATOM     22  N   UNL     1      32.259  -9.888 -22.979  0.00  0.00    -0.299 N 
ATOM     23  C   UNL     1      31.792 -10.977 -22.233  0.00  0.00    +0.246 C 
ATOM     24  C   UNL     1      31.759  -8.542 -22.828  0.00  0.00    +0.111 C 
ATOM     25  H   UNL     1      32.970 -10.049 -23.642  0.00  0.00    +0.150 HD
ENDBRANCH   9  23
TORSDOF 3
ENDMDL
MODEL 7
REMARK VINA RESULT:      -9.8      4.873      7.897
REMARK  Name = 9796590
REMARK  3 active torsions:
REMARK  status: ('A' for Active; 'I' for Inactive)
REMARK    1  A    between atoms: C_1  and  C_13
REMARK    2  A    between atoms: C_9  and  C_23
REMARK    3  A    between atoms: C_13  and  O_19
REMARK                            x       y       z     vdW  Elec       q    Type
REMARK                         _______ _______ _______ _____ _____    ______ ____
ROOT
ATOM      1  C   UNL     1      32.232 -12.228 -21.999  0.00  0.00    +0.007 C 
ATOM      2  C   UNL     1      32.258 -13.267 -21.069  0.00  0.00    -0.002 C 
ATOM      3  C   UNL     1      33.013 -12.302 -23.148  0.00  0.00    -0.002 C 
ATOM      4  C   UNL     1      33.068 -14.395 -21.277  0.00  0.00    -0.000 C 
ATOM      5  C   UNL     1      33.863 -14.470 -22.446  0.00  0.00    +0.000 C 
ATOM      6  C   UNL     1      33.824 -13.415 -23.372  0.00  0.00    -0.000 C 
ATOM      7  C   UNL     1      33.107 -15.452 -20.352  0.00  0.00    +0.000 C 
ATOM      8  C   UNL     1      34.673 -15.598 -22.654  0.00  0.00    +0.005 C 
ATOM      9  C   UNL     1      34.700 -16.638 -21.724  0.00  0.00    +0.053 C 
ATOM     10  C   UNL     1      33.918 -16.564 -20.575  0.00  0.00    +0.005 C 
ENDROOT
BRANCH   1  13
ATOM     11  N   UNL     1      32.334  -8.997 -21.048  0.00  0.00    -0.270 N 
ATOM     12  N   UNL     1      33.054  -7.839 -22.755  0.00  0.00    -0.225 NA
ATOM     13  C   UNL     1      31.349 -11.015 -21.758  0.00  0.00    +0.141 C 
ATOM     14  C   UNL     1      30.967 -10.703 -20.265  0.00  0.00    +0.059 C 
ATOM     15  C   UNL     1      32.029  -9.751 -22.139  0.00  0.00    +0.078 C 
ATOM     16  C   UNL     1      31.925  -9.588 -19.793  0.00  0.00    +0.100 C 
ATOM     17  C   UNL     1      32.485  -9.022 -23.203  0.00  0.00    +0.113 C 
ATOM     18  C   UNL     1      32.938  -7.862 -21.437  0.00  0.00    +0.167 C 
BRANCH  13  19
ATOM     19  O   UNL     1      30.145 -11.123 -22.518  0.00  0.00    -0.377 OA
ATOM     20  H   UNL     1      29.883 -10.244 -22.835  0.00  0.00    +0.211 HD
ENDBRANCH  13  19
ENDBRANCH   1  13
BRANCH   9  23
ATOM     21  O   UNL     1      35.834 -18.149 -23.113  0.00  0.00    -0.270 OA
ATOM     22  N   UNL     1      36.024 -18.471 -20.824  0.00  0.00    -0.299 N 
ATOM     23  C   UNL     1      35.544 -17.798 -21.955  0.00  0.00    +0.246 C 
ATOM     24  C   UNL     1      36.892 -19.624 -20.888  0.00  0.00    +0.111 C 
ATOM     25  H   UNL     1      35.755 -18.139 -19.937  0.00  0.00    +0.150 HD
ENDBRANCH   9  23
TORSDOF 3
ENDMDL
MODEL 8
REMARK VINA RESULT:      -9.8      4.015      9.476
REMARK  Name = 9796590
REMARK  3 active torsions:
REMARK  status: ('A' for Active; 'I' for Inactive)
REMARK    1  A    between atoms: C_1  and  C_13
REMARK    2  A    between atoms: C_9  and  C_23
REMARK    3  A    between atoms: C_13  and  O_19
REMARK                            x       y       z     vdW  Elec       q    Type
REMARK                         _______ _______ _______ _____ _____    ______ ____
ROOT
ATOM      1  C   UNL     1      36.483 -24.013 -15.401  0.00  0.00    +0.007 C 
ATOM      2  C   UNL     1      35.277 -23.942 -16.098  0.00  0.00    -0.002 C 
ATOM      3  C   UNL     1      37.543 -23.183 -15.753  0.00  0.00    -0.002 C 
ATOM      4  C   UNL     1      35.116 -23.036 -17.159  0.00  0.00    -0.000 C 
ATOM      5  C   UNL     1      36.193 -22.192 -17.518  0.00  0.00    +0.000 C 
ATOM      6  C   UNL     1      37.400 -22.277 -16.805  0.00  0.00    -0.000 C 
ATOM      7  C   UNL     1      33.909 -22.950 -17.873  0.00  0.00    +0.000 C 
ATOM      8  C   UNL     1      36.032 -21.286 -18.579  0.00  0.00    +0.005 C 
ATOM      9  C   UNL     1      34.826 -21.214 -19.277  0.00  0.00    +0.053 C 
ATOM     10  C   UNL     1      33.767 -22.045 -18.924  0.00  0.00    +0.005 C 
ENDROOT
BRANCH   1  13
ATOM     11  N   UNL     1      36.900 -24.180 -12.060  0.00  0.00    -0.270 N 
ATOM     12  N   UNL     1      34.957 -23.785 -11.142  0.00  0.00    -0.225 NA
ATOM     13  C   UNL     1      36.641 -24.999 -14.254  0.00  0.00    +0.141 C 
ATOM     14  C   UNL     1      38.103 -25.252 -13.734  0.00  0.00    +0.059 C 
ATOM     15  C   UNL     1      35.986 -24.513 -13.013  0.00  0.00    +0.078 C 
ATOM     16  C   UNL     1      38.273 -24.382 -12.469  0.00  0.00    +0.100 C 
ATOM     17  C   UNL     1      34.773 -24.260 -12.433  0.00  0.00    +0.113 C 
ATOM     18  C   UNL     1      36.266 -23.756 -10.955  0.00  0.00    +0.167 C 
BRANCH  13  19
ATOM     19  O   UNL     1      36.063 -26.257 -14.602  0.00  0.00    -0.377 OA
ATOM     20  H   UNL     1      35.176 -26.324 -14.214  0.00  0.00    +0.211 HD
ENDBRANCH  13  19
ENDBRANCH   1  13
BRANCH   9  23
ATOM     21  O   UNL     1      33.613 -20.218 -21.020  0.00  0.00    -0.270 OA
ATOM     22  N   UNL     1      35.761 -19.430 -20.642  0.00  0.00    -0.299 N 
ATOM     23  C   UNL     1      34.676 -20.272 -20.374  0.00  0.00    +0.246 C 
ATOM     24  C   UNL     1      35.757 -18.426 -21.681  0.00  0.00    +0.111 C 
ATOM     25  H   UNL     1      36.572 -19.526 -20.092  0.00  0.00    +0.150 HD
ENDBRANCH   9  23
TORSDOF 3
ENDMDL
MODEL 9
REMARK VINA RESULT:      -9.8      3.436      8.857
REMARK  Name = 9796590
REMARK  3 active torsions:
REMARK  status: ('A' for Active; 'I' for Inactive)
REMARK    1  A    between atoms: C_1  and  C_13
REMARK    2  A    between atoms: C_9  and  C_23
REMARK    3  A    between atoms: C_13  and  O_19
REMARK                            x       y       z     vdW  Elec       q    Type
REMARK                         _______ _______ _______ _____ _____    ______ ____
ROOT
ATOM      1  C   UNL     1      34.912 -23.819 -16.008  0.00  0.00    +0.007 C 
ATOM      2  C   UNL     1      35.925 -23.086 -16.624  0.00  0.00    -0.002 C 
ATOM      3  C   UNL     1      33.611 -23.761 -16.498  0.00  0.00    -0.002 C 
ATOM      4  C   UNL     1      35.649 -22.282 -17.743  0.00  0.00    -0.000 C 
ATOM      5  C   UNL     1      34.326 -22.223 -18.242  0.00  0.00    +0.000 C 
ATOM      6  C   UNL     1      33.318 -22.968 -17.609  0.00  0.00    -0.000 C 
ATOM      7  C   UNL     1      36.656 -21.537 -18.377  0.00  0.00    +0.000 C 
ATOM      8  C   UNL     1      34.049 -21.419 -19.360  0.00  0.00    +0.005 C 
ATOM      9  C   UNL     1      35.063 -20.685 -19.978  0.00  0.00    +0.053 C 
ATOM     10  C   UNL     1      36.363 -20.744 -19.487  0.00  0.00    +0.005 C 
ENDROOT
BRANCH   1  13
ATOM     11  N   UNL     1      37.438 -24.760 -13.984  0.00  0.00    -0.270 N 
ATOM     12  N   UNL     1      37.817 -23.108 -12.606  0.00  0.00    -0.225 NA
ATOM     13  C   UNL     1      35.229 -24.684 -14.798  0.00  0.00    +0.141 C 
ATOM     14  C   UNL     1      35.880 -26.087 -15.083  0.00  0.00    +0.059 C 
ATOM     15  C   UNL     1      36.266 -24.068 -13.934  0.00  0.00    +0.078 C 
ATOM     16  C   UNL     1      37.397 -25.920 -14.847  0.00  0.00    +0.100 C 
ATOM     17  C   UNL     1      36.512 -23.034 -13.072  0.00  0.00    +0.113 C 
ATOM     18  C   UNL     1      38.343 -24.175 -13.183  0.00  0.00    +0.167 C 
BRANCH  13  19
ATOM     19  O   UNL     1      34.053 -24.884 -14.014  0.00  0.00    -0.377 OA
ATOM     20  H   UNL     1      33.953 -25.828 -13.816  0.00  0.00    +0.211 HD
ENDBRANCH  13  19
ENDBRANCH   1  13
BRANCH   9  23
ATOM     21  O   UNL     1      33.589 -19.745 -21.541  0.00  0.00    -0.270 OA
ATOM     22  N   UNL     1      35.832 -19.189 -21.737  0.00  0.00    -0.299 N 
ATOM     23  C   UNL     1      34.760 -19.858 -21.134  0.00  0.00    +0.246 C 
ATOM     24  C   UNL     1      35.689 -18.313 -22.876  0.00  0.00    +0.111 C 
ATOM     25  H   UNL     1      36.733 -19.323 -21.363  0.00  0.00    +0.150 HD
ENDBRANCH   9  23
TORSDOF 3
ENDMDL
