MODEL 1
REMARK VINA RESULT:      -9.8      0.000      0.000
REMARK  Name = 6918485
REMARK  8 active torsions:
REMARK  status: ('A' for Active; 'I' for Inactive)
REMARK    1  A    between atoms: C_1  and  C_4
REMARK    2  A    between atoms: C_1  and  O_10
REMARK    3  A    between atoms: C_1  and  C_12
REMARK    4  A    between atoms: C_1  and  C_27
REMARK    5  A    between atoms: C_12  and  C_16
REMARK    6  A    between atoms: C_17  and  C_19
REMARK    7  A    between atoms: C_24  and  C_26
REMARK    8  A    between atoms: C_27  and  N_28
REMARK                            x       y       z     vdW  Elec       q    Type
REMARK                         _______ _______ _______ _____ _____    ______ ____
ROOT
ATOM      1  C   UNL     1      33.208 -11.052 -23.777  0.00  0.00    +0.136 C 
ENDROOT
BRANCH   1   4
ATOM      2  F   UNL     1      35.588  -9.537 -23.941  0.00  0.00    -0.204 F 
ATOM      3  F   UNL     1      30.858  -6.792 -23.885  0.00  0.00    -0.204 F 
ATOM      4  C   UNL     1      33.216  -9.516 -23.850  0.00  0.00    +0.034 C 
ATOM      5  C   UNL     1      34.425  -8.870 -23.927  0.00  0.00    +0.138 C 
ATOM      6  C   UNL     1      32.011  -8.859 -23.833  0.00  0.00    +0.030 C 
ATOM      7  C   UNL     1      32.015  -7.466 -23.898  0.00  0.00    +0.140 C 
ATOM      8  C   UNL     1      34.430  -7.477 -23.992  0.00  0.00    +0.032 C 
ATOM      9  C   UNL     1      33.224  -6.775 -23.978  0.00  0.00    +0.032 C 
ENDBRANCH   1   4
BRANCH   1  10
ATOM     10  O   UNL     1      34.243 -11.504 -22.892  0.00  0.00    -0.380 OA
ATOM     11  H   UNL     1      35.056 -11.004 -23.063  0.00  0.00    +0.211 HD
ENDBRANCH   1  10
BRANCH   1  12
ATOM     12  C   UNL     1      33.465 -11.687 -25.200  0.00  0.00    +0.089 C 
ATOM     13  C   UNL     1      34.692 -11.111 -25.930  0.00  0.00    +0.011 C 
BRANCH  12  16
ATOM     14  S   UNL     1      32.950 -14.060 -26.507  0.00  0.00    -0.079 S 
ATOM     15  N   UNL     1      34.057 -13.861 -24.179  0.00  0.00    -0.403 NA
ATOM     16  C   UNL     1      33.552 -13.222 -25.170  0.00  0.00    +0.137 C 
ATOM     17  C   UNL     1      33.971 -15.205 -24.489  0.00  0.00    +0.120 C 
ATOM     18  C   UNL     1      33.401 -15.509 -25.707  0.00  0.00    +0.123 C 
BRANCH  17  19
ATOM     19  C   UNL     1      34.450 -16.214 -23.588  0.00  0.00    +0.026 C 
ATOM     20  C   UNL     1      34.533 -15.948 -22.220  0.00  0.00    +0.003 C 
ATOM     21  C   UNL     1      34.834 -17.463 -24.079  0.00  0.00    +0.003 C 
ATOM     22  C   UNL     1      34.998 -16.929 -21.346  0.00  0.00    +0.010 C 
ATOM     23  C   UNL     1      35.300 -18.444 -23.203  0.00  0.00    +0.010 C 
ATOM     24  C   UNL     1      35.382 -18.177 -21.837  0.00  0.00    +0.068 C 
BRANCH  24  26
ATOM     25  N   UNL     1      36.248 -20.000 -20.211  0.00  0.00    -0.191 NA
ATOM     26  C   UNL     1      35.859 -19.183 -20.940  0.00  0.00    +0.100 C 
ENDBRANCH  24  26
ENDBRANCH  17  19
ENDBRANCH  12  16
ENDBRANCH   1  12
BRANCH   1  27
ATOM     27  C   UNL     1      31.853 -11.566 -23.193  0.00  0.00    +0.149 C 
BRANCH  27  28
ATOM     28  N   UNL     1      31.855 -11.838 -21.752  0.00  0.00    -0.188 N 
ATOM     29  N   UNL     1      32.257 -13.021 -21.302  0.00  0.00    -0.154 NA
ATOM     30  N   UNL     1      31.629 -11.610 -19.615  0.00  0.00    -0.203 NA
ATOM     31  C   UNL     1      31.482 -11.001 -20.769  0.00  0.00    +0.186 C 
ATOM     32  C   UNL     1      32.102 -12.835 -19.989  0.00  0.00    +0.218 C 
ENDBRANCH  27  28
ENDBRANCH   1  27
TORSDOF 8
ENDMDL
MODEL 2
REMARK VINA RESULT:      -9.7      3.324      8.569
REMARK  Name = 6918485
REMARK  8 active torsions:
REMARK  status: ('A' for Active; 'I' for Inactive)
REMARK    1  A    between atoms: C_1  and  C_4
REMARK    2  A    between atoms: C_1  and  O_10
REMARK    3  A    between atoms: C_1  and  C_12
REMARK    4  A    between atoms: C_1  and  C_27
REMARK    5  A    between atoms: C_12  and  C_16
REMARK    6  A    between atoms: C_17  and  C_19
REMARK    7  A    between atoms: C_24  and  C_26
REMARK    8  A    between atoms: C_27  and  N_28
REMARK                            x       y       z     vdW  Elec       q    Type
REMARK                         _______ _______ _______ _____ _____    ______ ____
ROOT
ATOM      1  C   UNL     1      33.502 -13.389 -23.601  0.00  0.00    +0.136 C 
ENDROOT
BRANCH   1   4
ATOM      2  F   UNL     1      32.589 -14.687 -25.938  0.00  0.00    -0.204 F 
ATOM      3  F   UNL     1      36.031 -17.449 -22.709  0.00  0.00    -0.204 F 
ATOM      4  C   UNL     1      33.932 -14.814 -23.986  0.00  0.00    +0.034 C 
ATOM      5  C   UNL     1      33.433 -15.359 -25.142  0.00  0.00    +0.138 C 
ATOM      6  C   UNL     1      34.797 -15.478 -23.152  0.00  0.00    +0.030 C 
ATOM      7  C   UNL     1      35.188 -16.772 -23.498  0.00  0.00    +0.140 C 
ATOM      8  C   UNL     1      33.824 -16.652 -25.489  0.00  0.00    +0.032 C 
ATOM      9  C   UNL     1      34.702 -17.359 -24.666  0.00  0.00    +0.032 C 
ENDBRANCH   1   4
BRANCH   1  10
ATOM     10  O   UNL     1      34.576 -12.721 -22.924  0.00  0.00    -0.380 OA
ATOM     11  H   UNL     1      35.305 -12.569 -23.545  0.00  0.00    +0.211 HD
ENDBRANCH   1  10
BRANCH   1  12
ATOM     12  C   UNL     1      32.252 -13.416 -22.635  0.00  0.00    +0.089 C 
ATOM     13  C   UNL     1      32.294 -14.545 -21.589  0.00  0.00    +0.011 C 
BRANCH  12  16
ATOM     14  S   UNL     1      31.715 -12.100 -20.273  0.00  0.00    -0.079 S 
ATOM     15  N   UNL     1      31.995 -10.957 -22.575  0.00  0.00    -0.403 NA
ATOM     16  C   UNL     1      31.998 -12.070 -21.937  0.00  0.00    +0.137 C 
ATOM     17  C   UNL     1      31.736  -9.968 -21.645  0.00  0.00    +0.120 C 
ATOM     18  C   UNL     1      31.556 -10.394 -20.345  0.00  0.00    +0.123 C 
BRANCH  17  19
ATOM     19  C   UNL     1      31.661  -8.586 -22.021  0.00  0.00    +0.026 C 
ATOM     20  C   UNL     1      31.205  -8.231 -23.292  0.00  0.00    +0.003 C 
ATOM     21  C   UNL     1      32.045  -7.594 -21.117  0.00  0.00    +0.003 C 
ATOM     22  C   UNL     1      31.132  -6.887 -23.657  0.00  0.00    +0.010 C 
ATOM     23  C   UNL     1      31.972  -6.249 -21.483  0.00  0.00    +0.010 C 
ATOM     24  C   UNL     1      31.516  -5.896 -22.753  0.00  0.00    +0.068 C 
BRANCH  24  26
ATOM     25  N   UNL     1      31.380  -3.400 -23.432  0.00  0.00    -0.191 NA
ATOM     26  C   UNL     1      31.441  -4.519 -23.128  0.00  0.00    +0.100 C 
ENDBRANCH  24  26
ENDBRANCH  17  19
ENDBRANCH  12  16
ENDBRANCH   1  12
BRANCH   1  27
ATOM     27  C   UNL     1      33.178 -12.550 -24.879  0.00  0.00    +0.149 C 
BRANCH  27  28
ATOM     28  N   UNL     1      34.144 -11.492 -25.195  0.00  0.00    -0.188 N 
ATOM     29  N   UNL     1      34.305 -10.471 -24.360  0.00  0.00    -0.154 NA
ATOM     30  N   UNL     1      35.657 -10.321 -26.198  0.00  0.00    -0.203 NA
ATOM     31  C   UNL     1      34.933 -11.414 -26.280  0.00  0.00    +0.186 C 
ATOM     32  C   UNL     1      35.241  -9.781 -25.016  0.00  0.00    +0.218 C 
ENDBRANCH  27  28
ENDBRANCH   1  27
TORSDOF 8
ENDMDL
MODEL 3
REMARK VINA RESULT:      -9.4      2.740      4.612
REMARK  Name = 6918485
REMARK  8 active torsions:
REMARK  status: ('A' for Active; 'I' for Inactive)
REMARK    1  A    between atoms: C_1  and  C_4
REMARK    2  A    between atoms: C_1  and  O_10
REMARK    3  A    between atoms: C_1  and  C_12
REMARK    4  A    between atoms: C_1  and  C_27
REMARK    5  A    between atoms: C_12  and  C_16
REMARK    6  A    between atoms: C_17  and  C_19
REMARK    7  A    between atoms: C_24  and  C_26
REMARK    8  A    between atoms: C_27  and  N_28
REMARK                            x       y       z     vdW  Elec       q    Type
REMARK                         _______ _______ _______ _____ _____    ______ ____
ROOT
ATOM      1  C   UNL     1      33.304 -13.746 -23.149  0.00  0.00    +0.136 C 
ENDROOT
BRANCH   1   4
ATOM      2  F   UNL     1      34.332 -11.245 -23.970  0.00  0.00    -0.204 F 
ATOM      3  F   UNL     1      29.893 -11.212 -20.776  0.00  0.00    -0.204 F 
ATOM      4  C   UNL     1      32.670 -12.407 -22.737  0.00  0.00    +0.034 C 
ATOM      5  C   UNL     1      33.244 -11.244 -23.187  0.00  0.00    +0.138 C 
ATOM      6  C   UNL     1      31.557 -12.436 -21.934  0.00  0.00    +0.030 C 
ATOM      7  C   UNL     1      30.980 -11.222 -21.558  0.00  0.00    +0.140 C 
ATOM      8  C   UNL     1      32.668 -10.031 -22.811  0.00  0.00    +0.032 C 
ATOM      9  C   UNL     1      31.536 -10.020 -21.996  0.00  0.00    +0.032 C 
ENDBRANCH   1   4
BRANCH   1  10
ATOM     10  O   UNL     1      32.277 -14.683 -23.504  0.00  0.00    -0.380 OA
ATOM     11  H   UNL     1      31.802 -14.959 -22.705  0.00  0.00    +0.211 HD
ENDBRANCH   1  10
BRANCH   1  12
ATOM     12  C   UNL     1      34.145 -14.362 -21.963  0.00  0.00    +0.089 C 
ATOM     13  C   UNL     1      33.530 -14.129 -20.571  0.00  0.00    +0.011 C 
BRANCH  12  16
ATOM     14  S   UNL     1      35.210 -16.320 -23.586  0.00  0.00    -0.079 S 
ATOM     15  N   UNL     1      34.147 -16.736 -21.267  0.00  0.00    -0.403 NA
ATOM     16  C   UNL     1      34.450 -15.858 -22.151  0.00  0.00    +0.137 C 
ATOM     17  C   UNL     1      34.560 -17.958 -21.763  0.00  0.00    +0.120 C 
ATOM     18  C   UNL     1      35.158 -17.933 -23.005  0.00  0.00    +0.123 C 
BRANCH  17  19
ATOM     19  C   UNL     1      34.373 -19.171 -21.021  0.00  0.00    +0.026 C 
ATOM     20  C   UNL     1      33.085 -19.597 -20.690  0.00  0.00    +0.003 C 
ATOM     21  C   UNL     1      35.478 -19.927 -20.627  0.00  0.00    +0.003 C 
ATOM     22  C   UNL     1      32.904 -20.776 -19.969  0.00  0.00    +0.010 C 
ATOM     23  C   UNL     1      35.296 -21.107 -19.905  0.00  0.00    +0.010 C 
ATOM     24  C   UNL     1      34.009 -21.532 -19.576  0.00  0.00    +0.068 C 
BRANCH  24  26
ATOM     25  N   UNL     1      33.672 -23.722 -18.235  0.00  0.00    -0.191 NA
ATOM     26  C   UNL     1      33.823 -22.740 -18.837  0.00  0.00    +0.100 C 
ENDBRANCH  24  26
ENDBRANCH  17  19
ENDBRANCH  12  16
ENDBRANCH   1  12
BRANCH   1  27
ATOM     27  C   UNL     1      34.206 -13.559 -24.411  0.00  0.00    +0.149 C 
BRANCH  27  28
ATOM     28  N   UNL     1      33.519 -13.705 -25.699  0.00  0.00    -0.188 N 
ATOM     29  N   UNL     1      33.082 -14.898 -26.086  0.00  0.00    -0.154 NA
ATOM     30  N   UNL     1      32.628 -13.260 -27.616  0.00  0.00    -0.203 NA
ATOM     31  C   UNL     1      33.258 -12.734 -26.592  0.00  0.00    +0.186 C 
ATOM     32  C   UNL     1      32.543 -14.577 -27.264  0.00  0.00    +0.218 C 
ENDBRANCH  27  28
ENDBRANCH   1  27
TORSDOF 8
ENDMDL
MODEL 4
REMARK VINA RESULT:      -9.1      8.959     14.152
REMARK  Name = 6918485
REMARK  8 active torsions:
REMARK  status: ('A' for Active; 'I' for Inactive)
REMARK    1  A    between atoms: C_1  and  C_4
REMARK    2  A    between atoms: C_1  and  O_10
REMARK    3  A    between atoms: C_1  and  C_12
REMARK    4  A    between atoms: C_1  and  C_27
REMARK    5  A    between atoms: C_12  and  C_16
REMARK    6  A    between atoms: C_17  and  C_19
REMARK    7  A    between atoms: C_24  and  C_26
REMARK    8  A    between atoms: C_27  and  N_28
REMARK                            x       y       z     vdW  Elec       q    Type
REMARK                         _______ _______ _______ _____ _____    ______ ____
ROOT
ATOM      1  C   UNL     1      34.131 -23.576 -14.146  0.00  0.00    +0.136 C 
ENDROOT
BRANCH   1   4
ATOM      2  F   UNL     1      32.576 -25.601 -12.936  0.00  0.00    -0.204 F 
ATOM      3  F   UNL     1      30.279 -22.758 -17.005  0.00  0.00    -0.204 F 
ATOM      4  C   UNL     1      32.693 -23.897 -14.584  0.00  0.00    +0.034 C 
ATOM      5  C   UNL     1      32.019 -24.901 -13.934  0.00  0.00    +0.138 C 
ATOM      6  C   UNL     1      32.147 -23.164 -15.609  0.00  0.00    +0.030 C 
ATOM      7  C   UNL     1      30.843 -23.453 -16.009  0.00  0.00    +0.140 C 
ATOM      8  C   UNL     1      30.714 -25.191 -14.334  0.00  0.00    +0.032 C 
ATOM      9  C   UNL     1      30.126 -24.467 -15.372  0.00  0.00    +0.032 C 
ENDBRANCH   1   4
BRANCH   1  10
ATOM     10  O   UNL     1      34.356 -22.160 -14.209  0.00  0.00    -0.380 OA
ATOM     11  H   UNL     1      34.673 -21.845 -13.348  0.00  0.00    +0.211 HD
ENDBRANCH   1  10
BRANCH   1  12
ATOM     12  C   UNL     1      35.182 -24.284 -15.090  0.00  0.00    +0.089 C 
ATOM     13  C   UNL     1      34.618 -25.493 -15.857  0.00  0.00    +0.011 C 
BRANCH  12  16
ATOM     14  S   UNL     1      37.465 -22.891 -15.760  0.00  0.00    -0.079 S 
ATOM     15  N   UNL     1      35.251 -22.837 -17.095  0.00  0.00    -0.403 NA
ATOM     16  C   UNL     1      35.861 -23.316 -16.072  0.00  0.00    +0.137 C 
ATOM     17  C   UNL     1      36.152 -22.014 -17.744  0.00  0.00    +0.120 C 
ATOM     18  C   UNL     1      37.403 -21.917 -17.171  0.00  0.00    +0.123 C 
BRANCH  17  19
ATOM     19  C   UNL     1      35.796 -21.309 -18.942  0.00  0.00    +0.026 C 
ATOM     20  C   UNL     1      34.484 -21.356 -19.416  0.00  0.00    +0.003 C 
ATOM     21  C   UNL     1      36.761 -20.577 -19.635  0.00  0.00    +0.003 C 
ATOM     22  C   UNL     1      34.138 -20.670 -20.580  0.00  0.00    +0.010 C 
ATOM     23  C   UNL     1      36.414 -19.891 -20.799  0.00  0.00    +0.010 C 
ATOM     24  C   UNL     1      35.103 -19.938 -21.272  0.00  0.00    +0.068 C 
BRANCH  24  26
ATOM     25  N   UNL     1      34.461 -18.665 -23.435  0.00  0.00    -0.191 NA
ATOM     26  C   UNL     1      34.748 -19.236 -22.465  0.00  0.00    +0.100 C 
ENDBRANCH  24  26
ENDBRANCH  17  19
ENDBRANCH  12  16
ENDBRANCH   1  12
BRANCH   1  27
ATOM     27  C   UNL     1      34.361 -24.008 -12.662  0.00  0.00    +0.149 C 
BRANCH  27  28
ATOM     28  N   UNL     1      35.762 -24.032 -12.227  0.00  0.00    -0.188 N 
ATOM     29  N   UNL     1      36.453 -22.900 -12.155  0.00  0.00    -0.154 NA
ATOM     30  N   UNL     1      37.693 -24.722 -11.545  0.00  0.00    -0.203 NA
ATOM     31  C   UNL     1      36.482 -25.110 -11.872  0.00  0.00    +0.186 C 
ATOM     32  C   UNL     1      37.628 -23.372 -11.733  0.00  0.00    +0.218 C 
ENDBRANCH  27  28
ENDBRANCH   1  27
TORSDOF 8
ENDMDL
MODEL 5
REMARK VINA RESULT:      -8.8      2.850      4.650
REMARK  Name = 6918485
REMARK  8 active torsions:
REMARK  status: ('A' for Active; 'I' for Inactive)
REMARK    1  A    between atoms: C_1  and  C_4
REMARK    2  A    between atoms: C_1  and  O_10
REMARK    3  A    between atoms: C_1  and  C_12
REMARK    4  A    between atoms: C_1  and  C_27
REMARK    5  A    between atoms: C_12  and  C_16
REMARK    6  A    between atoms: C_17  and  C_19
REMARK    7  A    between atoms: C_24  and  C_26
REMARK    8  A    between atoms: C_27  and  N_28
REMARK                            x       y       z     vdW  Elec       q    Type
REMARK                         _______ _______ _______ _____ _____    ______ ____
ROOT
ATOM      1  C   UNL     1      32.579 -14.126 -22.410  0.00  0.00    +0.136 C 
ENDROOT
BRANCH   1   4
ATOM      2  F   UNL     1      32.271 -13.993 -19.604  0.00  0.00    -0.204 F 
ATOM      3  F   UNL     1      31.494  -9.382 -22.440  0.00  0.00    -0.204 F 
ATOM      4  C   UNL     1      32.209 -12.829 -21.671  0.00  0.00    +0.034 C 
ATOM      5  C   UNL     1      32.082 -12.866 -20.305  0.00  0.00    +0.138 C 
ATOM      6  C   UNL     1      32.021 -11.690 -22.414  0.00  0.00    +0.030 C 
ATOM      7  C   UNL     1      31.685 -10.512 -21.747  0.00  0.00    +0.140 C 
ATOM      8  C   UNL     1      31.746 -11.689 -19.638  0.00  0.00    +0.032 C 
ATOM      9  C   UNL     1      31.547 -10.511 -20.359  0.00  0.00    +0.032 C 
ENDBRANCH   1   4
BRANCH   1  10
ATOM     10  O   UNL     1      31.870 -15.233 -21.837  0.00  0.00    -0.380 OA
ATOM     11  H   UNL     1      31.955 -16.006 -22.417  0.00  0.00    +0.211 HD
ENDBRANCH   1  10
BRANCH   1  12
ATOM     12  C   UNL     1      34.127 -14.420 -22.296  0.00  0.00    +0.089 C 
ATOM     13  C   UNL     1      34.783 -13.836 -21.032  0.00  0.00    +0.011 C 
BRANCH  12  16
ATOM     14  S   UNL     1      35.226 -16.426 -23.836  0.00  0.00    -0.079 S 
ATOM     15  N   UNL     1      34.198 -16.756 -21.487  0.00  0.00    -0.403 NA
ATOM     16  C   UNL     1      34.469 -15.914 -22.416  0.00  0.00    +0.137 C 
ATOM     17  C   UNL     1      34.638 -17.989 -21.928  0.00  0.00    +0.120 C 
ATOM     18  C   UNL     1      35.222 -18.010 -23.177  0.00  0.00    +0.123 C 
BRANCH  17  19
ATOM     19  C   UNL     1      34.490 -19.170 -21.126  0.00  0.00    +0.026 C 
ATOM     20  C   UNL     1      35.618 -19.891 -20.730  0.00  0.00    +0.003 C 
ATOM     21  C   UNL     1      33.219 -19.600 -20.742  0.00  0.00    +0.003 C 
ATOM     22  C   UNL     1      35.475 -21.038 -19.950  0.00  0.00    +0.010 C 
ATOM     23  C   UNL     1      33.076 -20.747 -19.962  0.00  0.00    +0.010 C 
ATOM     24  C   UNL     1      34.204 -21.466 -19.566  0.00  0.00    +0.068 C 
BRANCH  24  26
ATOM     25  N   UNL     1      33.937 -23.598 -18.119  0.00  0.00    -0.191 NA
ATOM     26  C   UNL     1      34.057 -22.642 -18.767  0.00  0.00    +0.100 C 
ENDBRANCH  24  26
ENDBRANCH  17  19
ENDBRANCH  12  16
ENDBRANCH   1  12
BRANCH   1  27
ATOM     27  C   UNL     1      32.155 -14.041 -23.911  0.00  0.00    +0.149 C 
BRANCH  27  28
ATOM     28  N   UNL     1      33.037 -13.240 -24.767  0.00  0.00    -0.188 N 
ATOM     29  N   UNL     1      33.095 -13.483 -26.071  0.00  0.00    -0.154 NA
ATOM     30  N   UNL     1      34.470 -11.768 -25.438  0.00  0.00    -0.203 NA
ATOM     31  C   UNL     1      33.843 -12.234 -24.383  0.00  0.00    +0.186 C 
ATOM     32  C   UNL     1      33.984 -12.558 -26.441  0.00  0.00    +0.218 C 
ENDBRANCH  27  28
ENDBRANCH   1  27
TORSDOF 8
ENDMDL
MODEL 6
REMARK VINA RESULT:      -8.8      1.702      2.537
REMARK  Name = 6918485
REMARK  8 active torsions:
REMARK  status: ('A' for Active; 'I' for Inactive)
REMARK    1  A    between atoms: C_1  and  C_4
REMARK    2  A    between atoms: C_1  and  O_10
REMARK    3  A    between atoms: C_1  and  C_12
REMARK    4  A    between atoms: C_1  and  C_27
REMARK    5  A    between atoms: C_12  and  C_16
REMARK    6  A    between atoms: C_17  and  C_19
REMARK    7  A    between atoms: C_24  and  C_26
REMARK    8  A    between atoms: C_27  and  N_28
REMARK                            x       y       z     vdW  Elec       q    Type
REMARK                         _______ _______ _______ _____ _____    ______ ____
ROOT
ATOM      1  C   UNL     1      32.757  -9.085 -22.767  0.00  0.00    +0.136 C 
ENDROOT
BRANCH   1   4
ATOM      2  F   UNL     1      32.940  -7.288 -20.594  0.00  0.00    -0.204 F 
ATOM      3  F   UNL     1      30.583  -5.460 -25.177  0.00  0.00    -0.204 F 
ATOM      4  C   UNL     1      32.228  -7.643 -22.830  0.00  0.00    +0.034 C 
ATOM      5  C   UNL     1      32.363  -6.847 -21.720  0.00  0.00    +0.138 C 
ATOM      6  C   UNL     1      31.642  -7.217 -23.996  0.00  0.00    +0.030 C 
ATOM      7  C   UNL     1      31.160  -5.909 -24.056  0.00  0.00    +0.140 C 
ATOM      8  C   UNL     1      31.882  -5.539 -21.780  0.00  0.00    +0.032 C 
ATOM      9  C   UNL     1      31.280  -5.070 -22.948  0.00  0.00    +0.032 C 
ENDBRANCH   1   4
BRANCH   1  10
ATOM     10  O   UNL     1      33.673  -9.222 -21.671  0.00  0.00    -0.380 OA
ATOM     11  H   UNL     1      34.365  -8.546 -21.743  0.00  0.00    +0.211 HD
ENDBRANCH   1  10
BRANCH   1  12
ATOM     12  C   UNL     1      33.519  -9.467 -24.097  0.00  0.00    +0.089 C 
ATOM     13  C   UNL     1      34.937  -8.876 -24.197  0.00  0.00    +0.011 C 
BRANCH  12  16
ATOM     14  S   UNL     1      33.094 -11.530 -25.876  0.00  0.00    -0.079 S 
ATOM     15  N   UNL     1      33.953 -11.816 -23.455  0.00  0.00    -0.403 NA
ATOM     16  C   UNL     1      33.569 -10.983 -24.351  0.00  0.00    +0.137 C 
ATOM     17  C   UNL     1      33.872 -13.074 -24.021  0.00  0.00    +0.120 C 
ATOM     18  C   UNL     1      33.427 -13.120 -25.326  0.00  0.00    +0.123 C 
BRANCH  17  19
ATOM     19  C   UNL     1      34.231 -14.252 -23.286  0.00  0.00    +0.026 C 
ATOM     20  C   UNL     1      34.561 -15.427 -23.966  0.00  0.00    +0.003 C 
ATOM     21  C   UNL     1      34.251 -14.227 -21.891  0.00  0.00    +0.003 C 
ATOM     22  C   UNL     1      34.910 -16.572 -23.252  0.00  0.00    +0.010 C 
ATOM     23  C   UNL     1      34.601 -15.373 -21.177  0.00  0.00    +0.010 C 
ATOM     24  C   UNL     1      34.931 -16.546 -21.857  0.00  0.00    +0.068 C 
BRANCH  24  26
ATOM     25  N   UNL     1      35.578 -18.674 -20.530  0.00  0.00    -0.191 NA
ATOM     26  C   UNL     1      35.288 -17.720 -21.126  0.00  0.00    +0.100 C 
ENDBRANCH  24  26
ENDBRANCH  17  19
ENDBRANCH  12  16
ENDBRANCH   1  12
BRANCH   1  27
ATOM     27  C   UNL     1      31.586 -10.088 -22.509  0.00  0.00    +0.149 C 
BRANCH  27  28
ATOM     28  N   UNL     1      31.564 -10.694 -21.174  0.00  0.00    -0.188 N 
ATOM     29  N   UNL     1      31.425  -9.926 -20.099  0.00  0.00    -0.154 NA
ATOM     30  N   UNL     1      31.605 -12.145 -19.573  0.00  0.00    -0.203 NA
ATOM     31  C   UNL     1      31.671 -12.001 -20.876  0.00  0.00    +0.186 C 
ATOM     32  C   UNL     1      31.455 -10.857 -19.143  0.00  0.00    +0.218 C 
ENDBRANCH  27  28
ENDBRANCH   1  27
TORSDOF 8
ENDMDL
MODEL 7
REMARK VINA RESULT:      -8.7      3.743      8.508
REMARK  Name = 6918485
REMARK  8 active torsions:
REMARK  status: ('A' for Active; 'I' for Inactive)
REMARK    1  A    between atoms: C_1  and  C_4
REMARK    2  A    between atoms: C_1  and  O_10
REMARK    3  A    between atoms: C_1  and  C_12
REMARK    4  A    between atoms: C_1  and  C_27
REMARK    5  A    between atoms: C_12  and  C_16
REMARK    6  A    between atoms: C_17  and  C_19
REMARK    7  A    between atoms: C_24  and  C_26
REMARK    8  A    between atoms: C_27  and  N_28
REMARK                            x       y       z     vdW  Elec       q    Type
REMARK                         _______ _______ _______ _____ _____    ______ ____
ROOT
ATOM      1  C   UNL     1      34.539 -18.065 -21.618  0.00  0.00    +0.136 C 
ENDROOT
BRANCH   1   4
ATOM      2  F   UNL     1      37.221 -18.846 -21.193  0.00  0.00    -0.204 F 
ATOM      3  F   UNL     1      33.307 -22.213 -19.392  0.00  0.00    -0.204 F 
ATOM      4  C   UNL     1      34.925 -19.375 -20.913  0.00  0.00    +0.034 C 
ATOM      5  C   UNL     1      36.257 -19.667 -20.754  0.00  0.00    +0.138 C 
ATOM      6  C   UNL     1      33.917 -20.198 -20.474  0.00  0.00    +0.030 C 
ATOM      7  C   UNL     1      34.264 -21.388 -19.834  0.00  0.00    +0.140 C 
ATOM      8  C   UNL     1      36.604 -20.857 -20.115  0.00  0.00    +0.032 C 
ATOM      9  C   UNL     1      35.607 -21.717 -19.655  0.00  0.00    +0.032 C 
ENDBRANCH   1   4
BRANCH   1  10
ATOM     10  O   UNL     1      33.111 -17.953 -21.693  0.00  0.00    -0.380 OA
ATOM     11  H   UNL     1      32.706 -18.539 -21.035  0.00  0.00    +0.211 HD
ENDBRANCH   1  10
BRANCH   1  12
ATOM     12  C   UNL     1      35.114 -18.024 -23.089  0.00  0.00    +0.089 C 
ATOM     13  C   UNL     1      34.962 -19.348 -23.858  0.00  0.00    +0.011 C 
BRANCH  12  16
ATOM     14  S   UNL     1      34.092 -17.211 -25.517  0.00  0.00    -0.079 S 
ATOM     15  N   UNL     1      34.414 -15.680 -23.459  0.00  0.00    -0.403 NA
ATOM     16  C   UNL     1      34.546 -16.867 -23.928  0.00  0.00    +0.137 C 
ATOM     17  C   UNL     1      33.881 -14.910 -24.475  0.00  0.00    +0.120 C 
ATOM     18  C   UNL     1      33.638 -15.564 -25.664  0.00  0.00    +0.123 C 
BRANCH  17  19
ATOM     19  C   UNL     1      33.602 -13.514 -24.290  0.00  0.00    +0.026 C 
ATOM     20  C   UNL     1      32.756 -13.101 -23.260  0.00  0.00    +0.003 C 
ATOM     21  C   UNL     1      34.175 -12.568 -25.142  0.00  0.00    +0.003 C 
ATOM     22  C   UNL     1      32.485 -11.745 -23.081  0.00  0.00    +0.010 C 
ATOM     23  C   UNL     1      33.903 -11.212 -24.962  0.00  0.00    +0.010 C 
ATOM     24  C   UNL     1      33.059 -10.800 -23.932  0.00  0.00    +0.068 C 
BRANCH  24  26
ATOM     25  N   UNL     1      32.554  -8.281 -23.598  0.00  0.00    -0.191 NA
ATOM     26  C   UNL     1      32.780  -9.411 -23.748  0.00  0.00    +0.100 C 
ENDBRANCH  24  26
ENDBRANCH  17  19
ENDBRANCH  12  16
ENDBRANCH   1  12
BRANCH   1  27
ATOM     27  C   UNL     1      35.050 -16.833 -20.803  0.00  0.00    +0.149 C 
BRANCH  27  28
ATOM     28  N   UNL     1      34.049 -15.792 -20.548  0.00  0.00    -0.188 N 
ATOM     29  N   UNL     1      32.772 -16.125 -20.390  0.00  0.00    -0.154 NA
ATOM     30  N   UNL     1      33.118 -13.871 -20.214  0.00  0.00    -0.203 NA
ATOM     31  C   UNL     1      34.263 -14.469 -20.448  0.00  0.00    +0.186 C 
ATOM     32  C   UNL     1      32.241 -14.917 -20.188  0.00  0.00    +0.218 C 
ENDBRANCH  27  28
ENDBRANCH   1  27
TORSDOF 8
ENDMDL
MODEL 8
REMARK VINA RESULT:      -8.5      9.312     14.816
REMARK  Name = 6918485
REMARK  8 active torsions:
REMARK  status: ('A' for Active; 'I' for Inactive)
REMARK    1  A    between atoms: C_1  and  C_4
REMARK    2  A    between atoms: C_1  and  O_10
REMARK    3  A    between atoms: C_1  and  C_12
REMARK    4  A    between atoms: C_1  and  C_27
REMARK    5  A    between atoms: C_12  and  C_16
REMARK    6  A    between atoms: C_17  and  C_19
REMARK    7  A    between atoms: C_24  and  C_26
REMARK    8  A    between atoms: C_27  and  N_28
REMARK                            x       y       z     vdW  Elec       q    Type
REMARK                         _______ _______ _______ _____ _____    ______ ____
ROOT
ATOM      1  C   UNL     1      35.537 -24.285 -14.722  0.00  0.00    +0.136 C 
ENDROOT
BRANCH   1   4
ATOM      2  F   UNL     1      37.562 -22.408 -14.123  0.00  0.00    -0.204 F 
ATOM      3  F   UNL     1      35.247 -25.035  -9.923  0.00  0.00    -0.204 F 
ATOM      4  C   UNL     1      35.998 -23.985 -13.286  0.00  0.00    +0.034 C 
ATOM      5  C   UNL     1      36.991 -23.055 -13.098  0.00  0.00    +0.138 C 
ATOM      6  C   UNL     1      35.396 -24.663 -12.256  0.00  0.00    +0.030 C 
ATOM      7  C   UNL     1      35.813 -24.393 -10.952  0.00  0.00    +0.140 C 
ATOM      8  C   UNL     1      37.408 -22.785 -11.794  0.00  0.00    +0.032 C 
ATOM      9  C   UNL     1      36.819 -23.455 -10.721  0.00  0.00    +0.032 C 
ENDBRANCH   1   4
BRANCH   1  10
ATOM     10  O   UNL     1      35.984 -23.247 -15.605  0.00  0.00    -0.380 OA
ATOM     11  H   UNL     1      35.375 -23.179 -16.358  0.00  0.00    +0.211 HD
ENDBRANCH   1  10
BRANCH   1  12
ATOM     12  C   UNL     1      33.961 -24.359 -14.805  0.00  0.00    +0.089 C 
ATOM     13  C   UNL     1      33.244 -23.911 -13.519  0.00  0.00    +0.011 C 
BRANCH  12  16
ATOM     14  S   UNL     1      31.705 -23.602 -16.199  0.00  0.00    -0.079 S 
ATOM     15  N   UNL     1      34.129 -22.986 -16.856  0.00  0.00    -0.403 NA
ATOM     16  C   UNL     1      33.383 -23.601 -16.012  0.00  0.00    +0.137 C 
ATOM     17  C   UNL     1      33.285 -22.425 -17.796  0.00  0.00    +0.120 C 
ATOM     18  C   UNL     1      31.937 -22.651 -17.608  0.00  0.00    +0.123 C 
BRANCH  17  19
ATOM     19  C   UNL     1      33.792 -21.658 -18.897  0.00  0.00    +0.026 C 
ATOM     20  C   UNL     1      32.919 -20.907 -19.686  0.00  0.00    +0.003 C 
ATOM     21  C   UNL     1      35.159 -21.661 -19.180  0.00  0.00    +0.003 C 
ATOM     22  C   UNL     1      33.412 -20.160 -20.756  0.00  0.00    +0.010 C 
ATOM     23  C   UNL     1      35.651 -20.914 -20.251  0.00  0.00    +0.010 C 
ATOM     24  C   UNL     1      34.778 -20.164 -21.038  0.00  0.00    +0.068 C 
BRANCH  24  26
ATOM     25  N   UNL     1      35.695 -18.777 -23.025  0.00  0.00    -0.191 NA
ATOM     26  C   UNL     1      35.283 -19.399 -22.135  0.00  0.00    +0.100 C 
ENDBRANCH  24  26
ENDBRANCH  17  19
ENDBRANCH  12  16
ENDBRANCH   1  12
BRANCH   1  27
ATOM     27  C   UNL     1      36.168 -25.620 -15.232  0.00  0.00    +0.149 C 
BRANCH  27  28
ATOM     28  N   UNL     1      37.603 -25.774 -14.971  0.00  0.00    -0.188 N 
ATOM     29  N   UNL     1      38.466 -24.896 -15.469  0.00  0.00    -0.154 NA
ATOM     30  N   UNL     1      39.492 -26.536 -14.248  0.00  0.00    -0.203 NA
ATOM     31  C   UNL     1      38.196 -26.744 -14.252  0.00  0.00    +0.186 C 
ATOM     32  C   UNL     1      39.609 -25.402 -15.000  0.00  0.00    +0.218 C 
ENDBRANCH  27  28
ENDBRANCH   1  27
TORSDOF 8
ENDMDL
MODEL 9
REMARK VINA RESULT:      -8.5      8.630     14.009
REMARK  Name = 6918485
REMARK  8 active torsions:
REMARK  status: ('A' for Active; 'I' for Inactive)
REMARK    1  A    between atoms: C_1  and  C_4
REMARK    2  A    between atoms: C_1  and  O_10
REMARK    3  A    between atoms: C_1  and  C_12
REMARK    4  A    between atoms: C_1  and  C_27
REMARK    5  A    between atoms: C_12  and  C_16
REMARK    6  A    between atoms: C_17  and  C_19
REMARK    7  A    between atoms: C_24  and  C_26
REMARK    8  A    between atoms: C_27  and  N_28
REMARK                            x       y       z     vdW  Elec       q    Type
REMARK                         _______ _______ _______ _____ _____    ______ ____
ROOT
ATOM      1  C   UNL     1      35.455 -23.620 -15.177  0.00  0.00    +0.136 C 
ENDROOT
BRANCH   1   4
ATOM      2  F   UNL     1      36.039 -26.359 -15.557  0.00  0.00    -0.204 F 
ATOM      3  F   UNL     1      38.724 -23.742 -11.575  0.00  0.00    -0.204 F 
ATOM      4  C   UNL     1      36.479 -24.381 -14.321  0.00  0.00    +0.034 C 
ATOM      5  C   UNL     1      36.693 -25.711 -14.582  0.00  0.00    +0.138 C 
ATOM      6  C   UNL     1      37.135 -23.693 -13.330  0.00  0.00    +0.030 C 
ATOM      7  C   UNL     1      38.065 -24.381 -12.550  0.00  0.00    +0.140 C 
ATOM      8  C   UNL     1      37.623 -26.400 -13.803  0.00  0.00    +0.032 C 
ATOM      9  C   UNL     1      38.309 -25.734 -12.787  0.00  0.00    +0.032 C 
ENDBRANCH   1   4
BRANCH   1  10
ATOM     10  O   UNL     1      34.758 -24.536 -16.034  0.00  0.00    -0.380 OA
ATOM     11  H   UNL     1      35.400 -25.044 -16.555  0.00  0.00    +0.211 HD
ENDBRANCH   1  10
BRANCH   1  12
ATOM     12  C   UNL     1      36.166 -22.541 -16.085  0.00  0.00    +0.089 C 
ATOM     13  C   UNL     1      37.638 -22.861 -16.402  0.00  0.00    +0.011 C 
BRANCH  12  16
ATOM     14  S   UNL     1      34.093 -23.247 -17.760  0.00  0.00    -0.079 S 
ATOM     15  N   UNL     1      35.737 -21.297 -18.181  0.00  0.00    -0.403 NA
ATOM     16  C   UNL     1      35.405 -22.251 -17.390  0.00  0.00    +0.137 C 
ATOM     17  C   UNL     1      34.849 -21.331 -19.238  0.00  0.00    +0.120 C 
ATOM     18  C   UNL     1      33.886 -22.317 -19.186  0.00  0.00    +0.123 C 
BRANCH  17  19
ATOM     19  C   UNL     1      34.933 -20.391 -20.319  0.00  0.00    +0.026 C 
ATOM     20  C   UNL     1      36.157 -19.801 -20.639  0.00  0.00    +0.003 C 
ATOM     21  C   UNL     1      33.790 -20.064 -21.051  0.00  0.00    +0.003 C 
ATOM     22  C   UNL     1      36.238 -18.888 -21.689  0.00  0.00    +0.010 C 
ATOM     23  C   UNL     1      33.872 -19.150 -22.102  0.00  0.00    +0.010 C 
ATOM     24  C   UNL     1      35.096 -18.562 -22.421  0.00  0.00    +0.068 C 
BRANCH  24  26
ATOM     25  N   UNL     1      35.247 -16.865 -24.373  0.00  0.00    -0.191 NA
ATOM     26  C   UNL     1      35.179 -17.626 -23.497  0.00  0.00    +0.100 C 
ENDBRANCH  24  26
ENDBRANCH  17  19
ENDBRANCH  12  16
ENDBRANCH   1  12
BRANCH   1  27
ATOM     27  C   UNL     1      34.380 -22.939 -14.270  0.00  0.00    +0.149 C 
BRANCH  27  28
ATOM     28  N   UNL     1      33.090 -23.634 -14.197  0.00  0.00    -0.188 N 
ATOM     29  N   UNL     1      32.995 -24.787 -13.546  0.00  0.00    -0.154 NA
ATOM     30  N   UNL     1      31.001 -24.124 -14.450  0.00  0.00    -0.203 NA
ATOM     31  C   UNL     1      31.924 -23.235 -14.734  0.00  0.00    +0.186 C 
ATOM     32  C   UNL     1      31.699 -25.049 -13.727  0.00  0.00    +0.218 C 
ENDBRANCH  27  28
ENDBRANCH   1  27
TORSDOF 8
ENDMDL
