MODEL 1
REMARK VINA RESULT:      -7.0      0.000      0.000
REMARK  Name = 6971294
REMARK  5 active torsions:
REMARK  status: ('A' for Active; 'I' for Inactive)
REMARK    1  A    between atoms: N_2  and  C_10
REMARK    2  A    between atoms: C_5  and  O_8
REMARK    3  A    between atoms: C_10  and  CA_11
REMARK    4  A    between atoms: CA_11  and  N_12
REMARK    5  A    between atoms: CA_11  and  C_18
REMARK                            x       y       z     vdW  Elec       q    Type
REMARK                         _______ _______ _______ _____ _____    ______ ____
ROOT
ATOM      1  O   UNL     1      32.771 -22.155 -18.871  0.00  0.00    -0.283 OA
ATOM      2  N   UNL     1      35.051 -19.537 -20.974  0.00  0.00    -0.284 N 
ATOM      3  C   UNL     1      35.635 -20.530 -20.199  0.00  0.00    +0.106 C 
ATOM      4  C   UNL     1      33.664 -19.494 -21.030  0.00  0.00    +0.069 C 
ATOM      5  C   UNL     1      34.954 -21.432 -19.477  0.00  0.00    +0.188 C 
ATOM      6  C   UNL     1      32.847 -20.322 -20.367  0.00  0.00    +0.061 C 
ATOM      7  C   UNL     1      33.463 -21.373 -19.511  0.00  0.00    +0.232 C 
ENDROOT
BRANCH   5   8
ATOM      8  O   UNL     1      35.580 -22.394 -18.721  0.00  0.00    -0.502 OA
ATOM      9  H   UNL     1      36.080 -23.067 -19.140  0.00  0.00    +0.292 HD
ENDBRANCH   5   8
BRANCH   2  10
ATOM     10  C   UNL     1      35.866 -18.623 -21.766  0.00  0.00    +0.085 C 
BRANCH  10  11
ATOM     11  CA  UNL     1      35.033 -17.615 -22.556  0.00  0.00    +0.061 C 
BRANCH  11  12
ATOM     12  N   UNL     1      35.462 -17.683 -23.989  0.00  0.00    +0.390 N 
ATOM     13  H1  UNL     1      35.945 -16.821 -24.242  0.00  0.00    -0.088 HD
ATOM     14  H2  UNL     1      34.643 -17.801 -24.585  0.00  0.00    -0.088 HD
ATOM     15  H3  UNL     1      36.091 -18.475 -24.119  0.00  0.00    -0.088 HD
ENDBRANCH  11  12
BRANCH  11  18
ATOM     16  O   UNL     1      34.978 -16.070 -20.742  0.00  0.00    -0.248 OA
ATOM     17  OXT UNL     1      34.996 -15.271 -22.878  0.00  0.00    -0.248 OA
ATOM     18  C   UNL     1      35.007 -16.180 -21.999  0.00  0.00    +0.346 C 
ENDBRANCH  11  18
ENDBRANCH  10  11
ENDBRANCH   2  10
TORSDOF 5
ENDMDL
MODEL 2
REMARK VINA RESULT:      -6.8      1.880      2.712
REMARK  Name = 6971294
REMARK  5 active torsions:
REMARK  status: ('A' for Active; 'I' for Inactive)
REMARK    1  A    between atoms: N_2  and  C_10
REMARK    2  A    between atoms: C_5  and  O_8
REMARK    3  A    between atoms: C_10  and  CA_11
REMARK    4  A    between atoms: CA_11  and  N_12
REMARK    5  A    between atoms: CA_11  and  C_18
REMARK                            x       y       z     vdW  Elec       q    Type
REMARK                         _______ _______ _______ _____ _____    ______ ____
ROOT
ATOM      1  O   UNL     1      35.451 -22.358 -18.876  0.00  0.00    -0.283 OA
ATOM      2  N   UNL     1      34.630 -19.154 -21.228  0.00  0.00    -0.284 N 
ATOM      3  C   UNL     1      33.608 -19.932 -20.700  0.00  0.00    +0.106 C 
ATOM      4  C   UNL     1      35.935 -19.490 -20.897  0.00  0.00    +0.069 C 
ATOM      5  C   UNL     1      33.795 -21.004 -19.916  0.00  0.00    +0.188 C 
ATOM      6  C   UNL     1      36.284 -20.529 -20.127  0.00  0.00    +0.061 C 
ATOM      7  C   UNL     1      35.198 -21.387 -19.578  0.00  0.00    +0.232 C 
ENDROOT
BRANCH   5   8
ATOM      8  O   UNL     1      32.750 -21.745 -19.421  0.00  0.00    -0.502 OA
ATOM      9  H   UNL     1      32.918 -22.545 -18.961  0.00  0.00    +0.292 HD
ENDBRANCH   5   8
BRANCH   2  10
ATOM     10  C   UNL     1      34.337 -17.976 -22.038  0.00  0.00    +0.085 C 
BRANCH  10  11
ATOM     11  CA  UNL     1      35.226 -17.868 -23.275  0.00  0.00    +0.061 C 
BRANCH  11  12
ATOM     12  N   UNL     1      35.540 -16.420 -23.494  0.00  0.00    +0.390 N 
ATOM     13  H1  UNL     1      36.422 -16.190 -23.038  0.00  0.00    -0.088 HD
ATOM     14  H2  UNL     1      34.794 -15.847 -23.101  0.00  0.00    -0.088 HD
ATOM     15  H3  UNL     1      35.617 -16.237 -24.495  0.00  0.00    -0.088 HD
ENDBRANCH  11  12
BRANCH  11  18
ATOM     16  O   UNL     1      34.844 -19.829 -24.574  0.00  0.00    -0.248 OA
ATOM     17  OXT UNL     1      34.220 -17.803 -25.416  0.00  0.00    -0.248 OA
ATOM     18  C   UNL     1      34.708 -18.574 -24.541  0.00  0.00    +0.346 C 
ENDBRANCH  11  18
ENDBRANCH  10  11
ENDBRANCH   2  10
TORSDOF 5
ENDMDL
MODEL 3
REMARK VINA RESULT:      -6.7      1.694      5.693
REMARK  Name = 6971294
REMARK  5 active torsions:
REMARK  status: ('A' for Active; 'I' for Inactive)
REMARK    1  A    between atoms: N_2  and  C_10
REMARK    2  A    between atoms: C_5  and  O_8
REMARK    3  A    between atoms: C_10  and  CA_11
REMARK    4  A    between atoms: CA_11  and  N_12
REMARK    5  A    between atoms: CA_11  and  C_18
REMARK                            x       y       z     vdW  Elec       q    Type
REMARK                         _______ _______ _______ _____ _____    ______ ____
ROOT
ATOM      1  O   UNL     1      34.709 -16.705 -25.768  0.00  0.00    -0.283 OA
ATOM      2  N   UNL     1      34.933 -18.647 -22.211  0.00  0.00    -0.284 N 
ATOM      3  C   UNL     1      35.012 -17.263 -22.274  0.00  0.00    +0.106 C 
ATOM      4  C   UNL     1      34.741 -19.338 -23.400  0.00  0.00    +0.069 C 
ATOM      5  C   UNL     1      34.946 -16.547 -23.406  0.00  0.00    +0.188 C 
ATOM      6  C   UNL     1      34.657 -18.769 -24.609  0.00  0.00    +0.061 C 
ATOM      7  C   UNL     1      34.767 -17.286 -24.691  0.00  0.00    +0.232 C 
ENDROOT
BRANCH   5   8
ATOM      8  O   UNL     1      35.033 -15.176 -23.417  0.00  0.00    -0.502 OA
ATOM      9  H   UNL     1      34.291 -14.661 -23.665  0.00  0.00    +0.292 HD
ENDBRANCH   5   8
BRANCH   2  10
ATOM     10  C   UNL     1      34.969 -19.346 -20.930  0.00  0.00    +0.085 C 
BRANCH  10  11
ATOM     11  CA  UNL     1      33.800 -20.311 -20.746  0.00  0.00    +0.061 C 
BRANCH  11  12
ATOM     12  N   UNL     1      32.556 -19.500 -20.550  0.00  0.00    +0.390 N 
ATOM     13  H1  UNL     1      31.842 -20.075 -20.102  0.00  0.00    -0.088 HD
ATOM     14  H2  UNL     1      32.214 -19.177 -21.454  0.00  0.00    -0.088 HD
ATOM     15  H3  UNL     1      32.765 -18.695 -19.959  0.00  0.00    -0.088 HD
ENDBRANCH  11  12
BRANCH  11  18
ATOM     16  O   UNL     1      32.967 -22.087 -19.392  0.00  0.00    -0.248 OA
ATOM     17  OXT UNL     1      35.151 -21.463 -19.181  0.00  0.00    -0.248 OA
ATOM     18  C   UNL     1      33.988 -21.400 -19.674  0.00  0.00    +0.346 C 
ENDBRANCH  11  18
ENDBRANCH  10  11
ENDBRANCH   2  10
TORSDOF 5
ENDMDL
MODEL 4
REMARK VINA RESULT:      -6.6      0.963      1.924
REMARK  Name = 6971294
REMARK  5 active torsions:
REMARK  status: ('A' for Active; 'I' for Inactive)
REMARK    1  A    between atoms: N_2  and  C_10
REMARK    2  A    between atoms: C_5  and  O_8
REMARK    3  A    between atoms: C_10  and  CA_11
REMARK    4  A    between atoms: CA_11  and  N_12
REMARK    5  A    between atoms: CA_11  and  C_18
REMARK                            x       y       z     vdW  Elec       q    Type
REMARK                         _______ _______ _______ _____ _____    ______ ____
ROOT
ATOM      1  O   UNL     1      34.561 -22.919 -18.434  0.00  0.00    -0.283 OA
ATOM      2  N   UNL     1      35.874 -19.781 -20.649  0.00  0.00    -0.284 N 
ATOM      3  C   UNL     1      34.532 -20.137 -20.641  0.00  0.00    +0.106 C 
ATOM      4  C   UNL     1      36.741 -20.513 -19.849  0.00  0.00    +0.069 C 
ATOM      5  C   UNL     1      34.019 -21.157 -19.938  0.00  0.00    +0.188 C 
ATOM      6  C   UNL     1      36.383 -21.558 -19.091  0.00  0.00    +0.061 C 
ATOM      7  C   UNL     1      34.951 -21.965 -19.097  0.00  0.00    +0.232 C 
ENDROOT
BRANCH   5   8
ATOM      8  O   UNL     1      32.682 -21.473 -19.966  0.00  0.00    -0.502 OA
ATOM      9  H   UNL     1      32.158 -21.362 -19.198  0.00  0.00    +0.292 HD
ENDBRANCH   5   8
BRANCH   2  10
ATOM     10  C   UNL     1      36.342 -18.627 -21.409  0.00  0.00    +0.085 C 
BRANCH  10  11
ATOM     11  CA  UNL     1      35.215 -17.895 -22.135  0.00  0.00    +0.061 C 
BRANCH  11  12
ATOM     12  N   UNL     1      35.602 -17.761 -23.575  0.00  0.00    +0.390 N 
ATOM     13  H1  UNL     1      34.763 -17.782 -24.156  0.00  0.00    -0.088 HD
ATOM     14  H2  UNL     1      36.215 -18.532 -23.836  0.00  0.00    -0.088 HD
ATOM     15  H3  UNL     1      36.090 -16.877 -23.716  0.00  0.00    -0.088 HD
ENDBRANCH  11  12
BRANCH  11  18
ATOM     16  O   UNL     1      35.117 -16.365 -20.310  0.00  0.00    -0.248 OA
ATOM     17  OXT UNL     1      34.056 -15.835 -22.258  0.00  0.00    -0.248 OA
ATOM     18  C   UNL     1      34.760 -16.566 -21.504  0.00  0.00    +0.346 C 
ENDBRANCH  11  18
ENDBRANCH  10  11
ENDBRANCH   2  10
TORSDOF 5
ENDMDL
MODEL 5
REMARK VINA RESULT:      -6.6      7.515      9.533
REMARK  Name = 6971294
REMARK  5 active torsions:
REMARK  status: ('A' for Active; 'I' for Inactive)
REMARK    1  A    between atoms: N_2  and  C_10
REMARK    2  A    between atoms: C_5  and  O_8
REMARK    3  A    between atoms: C_10  and  CA_11
REMARK    4  A    between atoms: CA_11  and  N_12
REMARK    5  A    between atoms: CA_11  and  C_18
REMARK                            x       y       z     vdW  Elec       q    Type
REMARK                         _______ _______ _______ _____ _____    ______ ____
ROOT
ATOM      1  O   UNL     1      32.871 -23.179 -15.446  0.00  0.00    -0.283 OA
ATOM      2  N   UNL     1      36.639 -24.100 -14.249  0.00  0.00    -0.284 N 
ATOM      3  C   UNL     1      35.535 -24.536 -13.529  0.00  0.00    +0.106 C 
ATOM      4  C   UNL     1      36.408 -23.369 -15.406  0.00  0.00    +0.069 C 
ATOM      5  C   UNL     1      34.261 -24.276 -13.857  0.00  0.00    +0.188 C 
ATOM      6  C   UNL     1      35.197 -23.027 -15.865  0.00  0.00    +0.061 C 
ATOM      7  C   UNL     1      34.006 -23.467 -15.086  0.00  0.00    +0.232 C 
ENDROOT
BRANCH   5   8
ATOM      8  O   UNL     1      33.201 -24.728 -13.109  0.00  0.00    -0.502 OA
ATOM      9  H   UNL     1      33.325 -24.956 -12.209  0.00  0.00    +0.292 HD
ENDBRANCH   5   8
BRANCH   2  10
ATOM     10  C   UNL     1      37.993 -24.466 -13.846  0.00  0.00    +0.085 C 
BRANCH  10  11
ATOM     11  CA  UNL     1      38.617 -25.525 -14.753  0.00  0.00    +0.061 C 
BRANCH  11  12
ATOM     12  N   UNL     1      38.140 -26.868 -14.294  0.00  0.00    +0.390 N 
ATOM     13  H1  UNL     1      38.444 -27.582 -14.955  0.00  0.00    -0.088 HD
ATOM     14  H2  UNL     1      37.122 -26.867 -14.239  0.00  0.00    -0.088 HD
ATOM     15  H3  UNL     1      38.529 -27.070 -13.373  0.00  0.00    -0.088 HD
ENDBRANCH  11  12
BRANCH  11  18
ATOM     16  O   UNL     1      40.764 -24.733 -14.086  0.00  0.00    -0.248 OA
ATOM     17  OXT UNL     1      40.604 -26.108 -15.899  0.00  0.00    -0.248 OA
ATOM     18  C   UNL     1      40.146 -25.451 -14.921  0.00  0.00    +0.346 C 
ENDBRANCH  11  18
ENDBRANCH  10  11
ENDBRANCH   2  10
TORSDOF 5
ENDMDL
MODEL 6
REMARK VINA RESULT:      -6.6      9.681     10.788
REMARK  Name = 6971294
REMARK  5 active torsions:
REMARK  status: ('A' for Active; 'I' for Inactive)
REMARK    1  A    between atoms: N_2  and  C_10
REMARK    2  A    between atoms: C_5  and  O_8
REMARK    3  A    between atoms: C_10  and  CA_11
REMARK    4  A    between atoms: CA_11  and  N_12
REMARK    5  A    between atoms: CA_11  and  C_18
REMARK                            x       y       z     vdW  Elec       q    Type
REMARK                         _______ _______ _______ _____ _____    ______ ____
ROOT
ATOM      1  O   UNL     1      35.287 -24.242 -10.087  0.00  0.00    -0.283 OA
ATOM      2  N   UNL     1      37.389 -24.416 -13.555  0.00  0.00    -0.284 N 
ATOM      3  C   UNL     1      36.013 -24.601 -13.544  0.00  0.00    +0.106 C 
ATOM      4  C   UNL     1      38.012 -24.138 -12.346  0.00  0.00    +0.069 C 
ATOM      5  C   UNL     1      35.247 -24.559 -12.444  0.00  0.00    +0.188 C 
ATOM      6  C   UNL     1      37.387 -24.063 -11.164  0.00  0.00    +0.061 C 
ATOM      7  C   UNL     1      35.915 -24.286 -11.137  0.00  0.00    +0.232 C 
ENDROOT
BRANCH   5   8
ATOM      8  O   UNL     1      33.888 -24.752 -12.485  0.00  0.00    -0.502 OA
ATOM      9  H   UNL     1      33.527 -25.438 -13.011  0.00  0.00    +0.292 HD
ENDBRANCH   5   8
BRANCH   2  10
ATOM     10  C   UNL     1      38.141 -24.434 -14.804  0.00  0.00    +0.085 C 
BRANCH  10  11
ATOM     11  CA  UNL     1      38.931 -25.726 -15.005  0.00  0.00    +0.061 C 
BRANCH  11  12
ATOM     12  N   UNL     1      38.169 -26.840 -14.355  0.00  0.00    +0.390 N 
ATOM     13  H1  UNL     1      37.170 -26.704 -14.509  0.00  0.00    -0.088 HD
ATOM     14  H2  UNL     1      38.361 -26.845 -13.354  0.00  0.00    -0.088 HD
ATOM     15  H3  UNL     1      38.457 -27.731 -14.760  0.00  0.00    -0.088 HD
ENDBRANCH  11  12
BRANCH  11  18
ATOM     16  O   UNL     1      40.891 -24.537 -14.354  0.00  0.00    -0.248 OA
ATOM     17  OXT UNL     1      40.986 -26.808 -14.546  0.00  0.00    -0.248 OA
ATOM     18  C   UNL     1      40.412 -25.681 -14.587  0.00  0.00    +0.346 C 
ENDBRANCH  11  18
ENDBRANCH  10  11
ENDBRANCH   2  10
TORSDOF 5
ENDMDL
MODEL 7
REMARK VINA RESULT:      -6.5      8.897      9.941
REMARK  Name = 6971294
REMARK  5 active torsions:
REMARK  status: ('A' for Active; 'I' for Inactive)
REMARK    1  A    between atoms: N_2  and  C_10
REMARK    2  A    between atoms: C_5  and  O_8
REMARK    3  A    between atoms: C_10  and  CA_11
REMARK    4  A    between atoms: CA_11  and  N_12
REMARK    5  A    between atoms: CA_11  and  C_18
REMARK                            x       y       z     vdW  Elec       q    Type
REMARK                         _______ _______ _______ _____ _____    ______ ____
ROOT
ATOM      1  O   UNL     1      39.363 -26.750 -14.756  0.00  0.00    -0.283 OA
ATOM      2  N   UNL     1      35.979 -24.855 -13.558  0.00  0.00    -0.284 N 
ATOM      3  C   UNL     1      35.970 -25.708 -14.653  0.00  0.00    +0.106 C 
ATOM      4  C   UNL     1      37.176 -24.700 -12.870  0.00  0.00    +0.069 C 
ATOM      5  C   UNL     1      37.042 -26.371 -15.111  0.00  0.00    +0.188 C 
ATOM      6  C   UNL     1      38.330 -25.292 -13.204  0.00  0.00    +0.061 C 
ATOM      7  C   UNL     1      38.337 -26.188 -14.393  0.00  0.00    +0.232 C 
ENDROOT
BRANCH   5   8
ATOM      8  O   UNL     1      36.982 -27.203 -16.203  0.00  0.00    -0.502 OA
ATOM      9  H   UNL     1      36.219 -27.208 -16.747  0.00  0.00    +0.292 HD
ENDBRANCH   5   8
BRANCH   2  10
ATOM     10  C   UNL     1      34.756 -24.206 -13.098  0.00  0.00    +0.085 C 
BRANCH  10  11
ATOM     11  CA  UNL     1      33.672 -24.151 -14.172  0.00  0.00    +0.061 C 
BRANCH  11  12
ATOM     12  N   UNL     1      33.851 -22.881 -14.945  0.00  0.00    +0.390 N 
ATOM     13  H1  UNL     1      34.136 -23.101 -15.900  0.00  0.00    -0.088 HD
ATOM     14  H2  UNL     1      34.568 -22.309 -14.500  0.00  0.00    -0.088 HD
ATOM     15  H3  UNL     1      32.970 -22.367 -14.963  0.00  0.00    -0.088 HD
ENDBRANCH  11  12
BRANCH  11  18
ATOM     16  O   UNL     1      31.689 -25.462 -13.994  0.00  0.00    -0.248 OA
ATOM     17  OXT UNL     1      31.739 -23.392 -13.036  0.00  0.00    -0.248 OA
ATOM     18  C   UNL     1      32.228 -24.363 -13.682  0.00  0.00    +0.346 C 
ENDBRANCH  11  18
ENDBRANCH  10  11
ENDBRANCH   2  10
TORSDOF 5
ENDMDL
MODEL 8
REMARK VINA RESULT:      -6.5      1.748      5.640
REMARK  Name = 6971294
REMARK  5 active torsions:
REMARK  status: ('A' for Active; 'I' for Inactive)
REMARK    1  A    between atoms: N_2  and  C_10
REMARK    2  A    between atoms: C_5  and  O_8
REMARK    3  A    between atoms: C_10  and  CA_11
REMARK    4  A    between atoms: CA_11  and  N_12
REMARK    5  A    between atoms: CA_11  and  C_18
REMARK                            x       y       z     vdW  Elec       q    Type
REMARK                         _______ _______ _______ _____ _____    ______ ____
ROOT
ATOM      1  O   UNL     1      34.288 -14.625 -23.966  0.00  0.00    -0.283 OA
ATOM      2  N   UNL     1      34.729 -18.399 -22.537  0.00  0.00    -0.284 N 
ATOM      3  C   UNL     1      34.834 -18.134 -23.896  0.00  0.00    +0.106 C 
ATOM      4  C   UNL     1      34.503 -17.327 -21.685  0.00  0.00    +0.069 C 
ATOM      5  C   UNL     1      34.702 -16.918 -24.447  0.00  0.00    +0.188 C 
ATOM      6  C   UNL     1      34.348 -16.056 -22.081  0.00  0.00    +0.061 C 
ATOM      7  C   UNL     1      34.431 -15.765 -23.539  0.00  0.00    +0.232 C 
ENDROOT
BRANCH   5   8
ATOM      8  O   UNL     1      34.811 -16.707 -25.800  0.00  0.00    -0.502 OA
ATOM      9  H   UNL     1      34.570 -15.879 -26.166  0.00  0.00    +0.292 HD
ENDBRANCH   5   8
BRANCH   2  10
ATOM     10  C   UNL     1      34.931 -19.747 -22.016  0.00  0.00    +0.085 C 
BRANCH  10  11
ATOM     11  CA  UNL     1      34.554 -19.876 -20.541  0.00  0.00    +0.061 C 
BRANCH  11  12
ATOM     12  N   UNL     1      35.687 -20.551 -19.831  0.00  0.00    +0.390 N 
ATOM     13  H1  UNL     1      35.851 -20.090 -18.937  0.00  0.00    -0.088 HD
ATOM     14  H2  UNL     1      36.529 -20.494 -20.403  0.00  0.00    -0.088 HD
ATOM     15  H3  UNL     1      35.452 -21.531 -19.670  0.00  0.00    -0.088 HD
ENDBRANCH  11  12
BRANCH  11  18
ATOM     16  O   UNL     1      33.152 -21.347 -19.295  0.00  0.00    -0.248 OA
ATOM     17  OXT UNL     1      32.254 -20.160 -21.024  0.00  0.00    -0.248 OA
ATOM     18  C   UNL     1      33.186 -20.522 -20.250  0.00  0.00    +0.346 C 
ENDBRANCH  11  18
ENDBRANCH  10  11
ENDBRANCH   2  10
TORSDOF 5
ENDMDL
MODEL 9
REMARK VINA RESULT:      -6.4      6.203      8.770
REMARK  Name = 6971294
REMARK  5 active torsions:
REMARK  status: ('A' for Active; 'I' for Inactive)
REMARK    1  A    between atoms: N_2  and  C_10
REMARK    2  A    between atoms: C_5  and  O_8
REMARK    3  A    between atoms: C_10  and  CA_11
REMARK    4  A    between atoms: CA_11  and  N_12
REMARK    5  A    between atoms: CA_11  and  C_18
REMARK                            x       y       z     vdW  Elec       q    Type
REMARK                         _______ _______ _______ _____ _____    ______ ____
ROOT
ATOM      1  O   UNL     1      30.724 -22.767 -16.866  0.00  0.00    -0.283 OA
ATOM      2  N   UNL     1      34.470 -23.826 -15.716  0.00  0.00    -0.284 N 
ATOM      3  C   UNL     1      34.226 -23.340 -16.993  0.00  0.00    +0.106 C 
ATOM      4  C   UNL     1      33.396 -23.905 -14.839  0.00  0.00    +0.069 C 
ATOM      5  C   UNL     1      33.021 -22.968 -17.450  0.00  0.00    +0.188 C 
ATOM      6  C   UNL     1      32.135 -23.574 -15.145  0.00  0.00    +0.061 C 
ATOM      7  C   UNL     1      31.858 -23.076 -16.521  0.00  0.00    +0.232 C 
ENDROOT
BRANCH   5   8
ATOM      8  O   UNL     1      32.831 -22.496 -18.726  0.00  0.00    -0.502 OA
ATOM      9  H   UNL     1      32.742 -23.096 -19.440  0.00  0.00    +0.292 HD
ENDBRANCH   5   8
BRANCH   2  10
ATOM     10  C   UNL     1      35.822 -24.166 -15.285  0.00  0.00    +0.085 C 
BRANCH  10  11
ATOM     11  CA  UNL     1      35.928 -25.581 -14.721  0.00  0.00    +0.061 C 
BRANCH  11  12
ATOM     12  N   UNL     1      36.083 -25.477 -13.235  0.00  0.00    +0.390 N 
ATOM     13  H1  UNL     1      37.020 -25.138 -13.014  0.00  0.00    -0.088 HD
ATOM     14  H2  UNL     1      35.944 -26.394 -12.813  0.00  0.00    -0.088 HD
ATOM     15  H3  UNL     1      35.391 -24.825 -12.866  0.00  0.00    -0.088 HD
ENDBRANCH  11  12
BRANCH  11  18
ATOM     16  O   UNL     1      36.553 -27.319 -16.227  0.00  0.00    -0.248 OA
ATOM     17  OXT UNL     1      38.166 -26.312 -14.967  0.00  0.00    -0.248 OA
ATOM     18  C   UNL     1      36.983 -26.490 -15.377  0.00  0.00    +0.346 C 
ENDBRANCH  11  18
ENDBRANCH  10  11
ENDBRANCH   2  10
TORSDOF 5
ENDMDL
