MODEL 1
REMARK VINA RESULT:     -11.4      0.000      0.000
REMARK  Name = 11267350
REMARK  6 active torsions:
REMARK  status: ('A' for Active; 'I' for Inactive)
REMARK    1  A    between atoms: CA_5  and  CB_11
REMARK    2  A    between atoms: CA_6  and  CB_20
REMARK    3  A    between atoms: CB_11  and  CG_12
REMARK    4  A    between atoms: CZ_17  and  OH_18
REMARK    5  A    between atoms: CB_20  and  CG_21
REMARK    6  A    between atoms: CZ_26  and  OH_27
REMARK                            x       y       z     vdW  Elec       q    Type
REMARK                         _______ _______ _______ _____ _____    ______ ____
ROOT
ATOM      1  O   TYR A   2      34.877 -16.757 -25.866  0.00  0.00    -0.273 OA
ATOM      2  O   TYR A   1      35.169 -16.044 -20.629  0.00  0.00    -0.273 OA
ATOM      3  N   TYR A   1      35.326 -17.587 -23.767  0.00  0.00    -0.297 N 
ATOM      4  N   TYR A   2      34.454 -15.331 -22.697  0.00  0.00    -0.297 N 
ATOM      5  CA  TYR A   1      34.891 -17.698 -22.382  0.00  0.00    +0.153 C 
ATOM      6  CA  TYR A   2      33.822 -15.690 -23.958  0.00  0.00    +0.153 C 
ATOM      7  C   TYR A   2      34.747 -16.686 -24.647  0.00  0.00    +0.241 C 
ATOM      8  C   TYR A   1      34.902 -16.291 -21.803  0.00  0.00    +0.241 C 
ATOM      9  H   TYR A   1      36.052 -18.169 -24.088  0.00  0.00    +0.150 HD
ATOM     10  H   TYR A   2      34.566 -14.379 -22.472  0.00  0.00    +0.150 HD
ENDROOT
BRANCH   5  11
ATOM     11  CB  TYR A   1      35.788 -18.643 -21.597  0.00  0.00    +0.055 C 
BRANCH  11  12
ATOM     12  CG  TYR A   1      34.990 -19.666 -20.830  0.00  0.00    -0.020 C 
ATOM     13  CD1 TYR A   1      35.652 -20.674 -20.144  0.00  0.00    -0.001 C 
ATOM     14  CD2 TYR A   1      33.605 -19.584 -20.822  0.00  0.00    -0.001 C 
ATOM     15  CE1 TYR A   1      34.913 -21.620 -19.435  0.00  0.00    +0.036 C 
ATOM     16  CE2 TYR A   1      32.866 -20.530 -20.112  0.00  0.00    +0.036 C 
ATOM     17  CZ  TYR A   1      33.521 -21.549 -19.418  0.00  0.00    +0.134 C 
BRANCH  17  18
ATOM     18  OH  TYR A   1      32.799 -22.473 -18.726  0.00  0.00    -0.506 OA
ATOM     19  HH  TYR A   1      33.120 -22.799 -17.907  0.00  0.00    +0.292 HD
ENDBRANCH  17  18
ENDBRANCH  11  12
ENDBRANCH   5  11
BRANCH   6  20
ATOM     20  CB  TYR A   2      33.569 -14.462 -24.818  0.00  0.00    +0.055 C 
BRANCH  20  21
ATOM     21  CG  TYR A   2      33.146 -13.276 -23.990  0.00  0.00    -0.020 C 
ATOM     22  CD1 TYR A   2      32.274 -13.462 -22.926  0.00  0.00    -0.001 C 
ATOM     23  CD2 TYR A   2      33.634 -12.017 -24.304  0.00  0.00    -0.001 C 
ATOM     24  CE1 TYR A   2      31.883 -12.364 -22.160  0.00  0.00    +0.036 C 
ATOM     25  CE2 TYR A   2      33.242 -10.919 -23.538  0.00  0.00    +0.036 C 
ATOM     26  CZ  TYR A   2      32.367 -11.093 -22.466  0.00  0.00    +0.134 C 
BRANCH  26  27
ATOM     27  OH  TYR A   2      31.983 -10.022 -21.718  0.00  0.00    -0.506 OA
ATOM     28  HH  TYR A   2      31.192  -9.565 -21.925  0.00  0.00    +0.292 HD
ENDBRANCH  26  27
ENDBRANCH  20  21
ENDBRANCH   6  20
TORSDOF 6
ENDMDL
MODEL 2
REMARK VINA RESULT:     -11.4      0.039      8.006
REMARK  Name = 11267350
REMARK  6 active torsions:
REMARK  status: ('A' for Active; 'I' for Inactive)
REMARK    1  A    between atoms: CA_5  and  CB_11
REMARK    2  A    between atoms: CA_6  and  CB_20
REMARK    3  A    between atoms: CB_11  and  CG_12
REMARK    4  A    between atoms: CZ_17  and  OH_18
REMARK    5  A    between atoms: CB_20  and  CG_21
REMARK    6  A    between atoms: CZ_26  and  OH_27
REMARK                            x       y       z     vdW  Elec       q    Type
REMARK                         _______ _______ _______ _____ _____    ______ ____
ROOT
ATOM      1  O   TYR A   2      35.160 -16.030 -20.640  0.00  0.00    -0.273 OA
ATOM      2  O   TYR A   1      34.924 -16.743 -25.880  0.00  0.00    -0.273 OA
ATOM      3  N   TYR A   1      34.462 -15.320 -22.715  0.00  0.00    -0.297 N 
ATOM      4  N   TYR A   2      35.357 -17.572 -23.777  0.00  0.00    -0.297 N 
ATOM      5  CA  TYR A   1      33.845 -15.683 -23.983  0.00  0.00    +0.153 C 
ATOM      6  CA  TYR A   2      34.909 -17.685 -22.396  0.00  0.00    +0.153 C 
ATOM      7  C   TYR A   2      34.907 -16.278 -21.816  0.00  0.00    +0.241 C 
ATOM      8  C   TYR A   1      34.782 -16.672 -24.661  0.00  0.00    +0.241 C 
ATOM      9  H   TYR A   1      34.567 -14.368 -22.489  0.00  0.00    +0.150 HD
ATOM     10  H   TYR A   2      36.089 -18.149 -24.091  0.00  0.00    +0.150 HD
ENDROOT
BRANCH   5  11
ATOM     11  CB  TYR A   1      33.593 -14.456 -24.844  0.00  0.00    +0.055 C 
BRANCH  11  12
ATOM     12  CG  TYR A   1      33.164 -13.270 -24.020  0.00  0.00    -0.020 C 
ATOM     13  CD1 TYR A   1      32.251 -13.449 -22.990  0.00  0.00    -0.001 C 
ATOM     14  CD2 TYR A   1      33.688 -12.017 -24.302  0.00  0.00    -0.001 C 
ATOM     15  CE1 TYR A   1      31.854 -12.351 -22.227  0.00  0.00    +0.036 C 
ATOM     16  CE2 TYR A   1      33.291 -10.919 -23.539  0.00  0.00    +0.036 C 
ATOM     17  CZ  TYR A   1      32.374 -11.086 -22.501  0.00  0.00    +0.134 C 
BRANCH  17  18
ATOM     18  OH  TYR A   1      31.986 -10.014 -21.756  0.00  0.00    -0.506 OA
ATOM     19  HH  TYR A   1      31.651 -10.143 -20.890  0.00  0.00    +0.292 HD
ENDBRANCH  17  18
ENDBRANCH  11  12
ENDBRANCH   5  11
BRANCH   6  20
ATOM     20  CB  TYR A   2      35.803 -18.625 -21.603  0.00  0.00    +0.055 C 
BRANCH  20  21
ATOM     21  CG  TYR A   2      35.003 -19.648 -20.838  0.00  0.00    -0.020 C 
ATOM     22  CD1 TYR A   2      33.617 -19.580 -20.853  0.00  0.00    -0.001 C 
ATOM     23  CD2 TYR A   2      35.664 -20.641 -20.132  0.00  0.00    -0.001 C 
ATOM     24  CE1 TYR A   2      32.876 -20.527 -20.145  0.00  0.00    +0.036 C 
ATOM     25  CE2 TYR A   2      34.923 -21.588 -19.424  0.00  0.00    +0.036 C 
ATOM     26  CZ  TYR A   2      33.530 -21.531 -19.431  0.00  0.00    +0.134 C 
BRANCH  26  27
ATOM     27  OH  TYR A   2      32.806 -22.454 -18.740  0.00  0.00    -0.506 OA
ATOM     28  HH  TYR A   2      32.164 -22.973 -19.182  0.00  0.00    +0.292 HD
ENDBRANCH  26  27
ENDBRANCH  20  21
ENDBRANCH   6  20
TORSDOF 6
ENDMDL
MODEL 3
REMARK VINA RESULT:     -10.7      1.149      7.996
REMARK  Name = 11267350
REMARK  6 active torsions:
REMARK  status: ('A' for Active; 'I' for Inactive)
REMARK    1  A    between atoms: CA_5  and  CB_11
REMARK    2  A    between atoms: CA_6  and  CB_20
REMARK    3  A    between atoms: CB_11  and  CG_12
REMARK    4  A    between atoms: CZ_17  and  OH_18
REMARK    5  A    between atoms: CB_20  and  CG_21
REMARK    6  A    between atoms: CZ_26  and  OH_27
REMARK                            x       y       z     vdW  Elec       q    Type
REMARK                         _______ _______ _______ _____ _____    ______ ____
ROOT
ATOM      1  O   TYR A   2      35.115 -15.664 -20.150  0.00  0.00    -0.273 OA
ATOM      2  O   TYR A   1      33.714 -15.380 -25.247  0.00  0.00    -0.273 OA
ATOM      3  N   TYR A   1      34.003 -14.583 -21.851  0.00  0.00    -0.297 N 
ATOM      4  N   TYR A   2      34.569 -16.586 -23.483  0.00  0.00    -0.297 N 
ATOM      5  CA  TYR A   1      33.112 -14.706 -22.995  0.00  0.00    +0.153 C 
ATOM      6  CA  TYR A   2      34.431 -16.962 -22.083  0.00  0.00    +0.153 C 
ATOM      7  C   TYR A   2      34.602 -15.689 -21.266  0.00  0.00    +0.241 C 
ATOM      8  C   TYR A   1      33.844 -15.542 -24.036  0.00  0.00    +0.241 C 
ATOM      9  H   TYR A   1      34.186 -13.689 -21.481  0.00  0.00    +0.150 HD
ATOM     10  H   TYR A   2      35.195 -17.088 -24.053  0.00  0.00    +0.150 HD
ENDROOT
BRANCH   5  11
ATOM     11  CB  TYR A   1      32.719 -13.341 -23.537  0.00  0.00    +0.055 C 
BRANCH  11  12
ATOM     12  CG  TYR A   1      32.313 -12.396 -22.436  0.00  0.00    -0.020 C 
ATOM     13  CD1 TYR A   1      31.975 -12.904 -21.190  0.00  0.00    -0.001 C 
ATOM     14  CD2 TYR A   1      32.286 -11.031 -22.684  0.00  0.00    -0.001 C 
ATOM     15  CE1 TYR A   1      31.600 -12.029 -20.171  0.00  0.00    +0.036 C 
ATOM     16  CE2 TYR A   1      31.910 -10.156 -21.664  0.00  0.00    +0.036 C 
ATOM     17  CZ  TYR A   1      31.568 -10.656 -20.408  0.00  0.00    +0.134 C 
BRANCH  17  18
ATOM     18  OH  TYR A   1      31.201  -9.801 -19.412  0.00  0.00    -0.506 OA
ATOM     19  HH  TYR A   1      30.298  -9.719 -19.175  0.00  0.00    +0.292 HD
ENDBRANCH  17  18
ENDBRANCH  11  12
ENDBRANCH   5  11
BRANCH   6  20
ATOM     20  CB  TYR A   2      35.445 -18.026 -21.696  0.00  0.00    +0.055 C 
BRANCH  20  21
ATOM     21  CG  TYR A   2      34.795 -19.191 -20.996  0.00  0.00    -0.020 C 
ATOM     22  CD1 TYR A   2      33.411 -19.266 -20.935  0.00  0.00    -0.001 C 
ATOM     23  CD2 TYR A   2      35.590 -20.172 -20.424  0.00  0.00    -0.001 C 
ATOM     24  CE1 TYR A   2      32.809 -20.345 -20.287  0.00  0.00    +0.036 C 
ATOM     25  CE2 TYR A   2      34.989 -21.252 -19.776  0.00  0.00    +0.036 C 
ATOM     26  CZ  TYR A   2      33.598 -21.338 -19.708  0.00  0.00    +0.134 C 
BRANCH  26  27
ATOM     27  OH  TYR A   2      33.010 -22.390 -19.075  0.00  0.00    -0.506 OA
ATOM     28  HH  TYR A   2      33.131 -23.260 -19.400  0.00  0.00    +0.292 HD
ENDBRANCH  26  27
ENDBRANCH  20  21
ENDBRANCH   6  20
TORSDOF 6
ENDMDL
MODEL 4
REMARK VINA RESULT:     -10.2      1.871      8.243
REMARK  Name = 11267350
REMARK  6 active torsions:
REMARK  status: ('A' for Active; 'I' for Inactive)
REMARK    1  A    between atoms: CA_5  and  CB_11
REMARK    2  A    between atoms: CA_6  and  CB_20
REMARK    3  A    between atoms: CB_11  and  CG_12
REMARK    4  A    between atoms: CZ_17  and  OH_18
REMARK    5  A    between atoms: CB_20  and  CG_21
REMARK    6  A    between atoms: CZ_26  and  OH_27
REMARK                            x       y       z     vdW  Elec       q    Type
REMARK                         _______ _______ _______ _____ _____    ______ ____
ROOT
ATOM      1  O   TYR A   2      33.801 -15.933 -26.238  0.00  0.00    -0.273 OA
ATOM      2  O   TYR A   1      32.847 -14.594 -21.206  0.00  0.00    -0.273 OA
ATOM      3  N   TYR A   1      33.107 -14.377 -24.690  0.00  0.00    -0.297 N 
ATOM      4  N   TYR A   2      33.804 -16.021 -22.738  0.00  0.00    -0.297 N 
ATOM      5  CA  TYR A   1      33.367 -13.729 -23.412  0.00  0.00    +0.153 C 
ATOM      6  CA  TYR A   2      34.593 -16.151 -23.954  0.00  0.00    +0.153 C 
ATOM      7  C   TYR A   2      33.777 -15.527 -25.079  0.00  0.00    +0.241 C 
ATOM      8  C   TYR A   1      33.262 -14.807 -22.343  0.00  0.00    +0.241 C 
ATOM      9  H   TYR A   1      32.436 -13.988 -25.296  0.00  0.00    +0.150 HD
ATOM     10  H   TYR A   2      33.649 -16.817 -22.180  0.00  0.00    +0.150 HD
ENDROOT
BRANCH   5  11
ATOM     11  CB  TYR A   1      32.395 -12.587 -23.166  0.00  0.00    +0.055 C 
BRANCH  11  12
ATOM     12  CG  TYR A   1      33.042 -11.243 -23.380  0.00  0.00    -0.020 C 
ATOM     13  CD1 TYR A   1      34.153 -11.144 -24.206  0.00  0.00    -0.001 C 
ATOM     14  CD2 TYR A   1      32.516 -10.125 -22.750  0.00  0.00    -0.001 C 
ATOM     15  CE1 TYR A   1      34.751  -9.900 -24.405  0.00  0.00    +0.036 C 
ATOM     16  CE2 TYR A   1      33.115  -8.881 -22.949  0.00  0.00    +0.036 C 
ATOM     17  CZ  TYR A   1      34.232  -8.769 -23.777  0.00  0.00    +0.134 C 
BRANCH  17  18
ATOM     18  OH  TYR A   1      34.817  -7.554 -23.971  0.00  0.00    -0.506 OA
ATOM     19  HH  TYR A   1      34.585  -7.037 -24.717  0.00  0.00    +0.292 HD
ENDBRANCH  17  18
ENDBRANCH  11  12
ENDBRANCH   5  11
BRANCH   6  20
ATOM     20  CB  TYR A   2      34.932 -17.606 -24.238  0.00  0.00    +0.055 C 
BRANCH  20  21
ATOM     21  CG  TYR A   2      35.200 -18.377 -22.971  0.00  0.00    -0.020 C 
ATOM     22  CD1 TYR A   2      34.219 -19.218 -22.464  0.00  0.00    -0.001 C 
ATOM     23  CD2 TYR A   2      36.421 -18.234 -22.332  0.00  0.00    -0.001 C 
ATOM     24  CE1 TYR A   2      34.468 -19.931 -21.291  0.00  0.00    +0.036 C 
ATOM     25  CE2 TYR A   2      36.670 -18.948 -21.160  0.00  0.00    +0.036 C 
ATOM     26  CZ  TYR A   2      35.693 -19.796 -20.639  0.00  0.00    +0.134 C 
BRANCH  26  27
ATOM     27  OH  TYR A   2      35.934 -20.492 -19.494  0.00  0.00    -0.506 OA
ATOM     28  HH  TYR A   2      36.632 -21.116 -19.463  0.00  0.00    +0.292 HD
ENDBRANCH  26  27
ENDBRANCH  20  21
ENDBRANCH   6  20
TORSDOF 6
ENDMDL
MODEL 5
REMARK VINA RESULT:     -10.2      1.880      3.408
REMARK  Name = 11267350
REMARK  6 active torsions:
REMARK  status: ('A' for Active; 'I' for Inactive)
REMARK    1  A    between atoms: CA_5  and  CB_11
REMARK    2  A    between atoms: CA_6  and  CB_20
REMARK    3  A    between atoms: CB_11  and  CG_12
REMARK    4  A    between atoms: CZ_17  and  OH_18
REMARK    5  A    between atoms: CB_20  and  CG_21
REMARK    6  A    between atoms: CZ_26  and  OH_27
REMARK                            x       y       z     vdW  Elec       q    Type
REMARK                         _______ _______ _______ _____ _____    ______ ____
ROOT
ATOM      1  O   TYR A   2      32.822 -14.607 -21.208  0.00  0.00    -0.273 OA
ATOM      2  O   TYR A   1      33.791 -15.934 -26.241  0.00  0.00    -0.273 OA
ATOM      3  N   TYR A   1      33.781 -16.032 -22.742  0.00  0.00    -0.297 N 
ATOM      4  N   TYR A   2      33.094 -14.381 -24.692  0.00  0.00    -0.297 N 
ATOM      5  CA  TYR A   1      34.575 -16.160 -23.955  0.00  0.00    +0.153 C 
ATOM      6  CA  TYR A   2      33.350 -13.737 -23.412  0.00  0.00    +0.153 C 
ATOM      7  C   TYR A   2      33.240 -14.818 -22.344  0.00  0.00    +0.241 C 
ATOM      8  C   TYR A   1      33.763 -15.532 -25.080  0.00  0.00    +0.241 C 
ATOM      9  H   TYR A   1      33.624 -16.829 -22.186  0.00  0.00    +0.150 HD
ATOM     10  H   TYR A   2      32.426 -13.990 -25.299  0.00  0.00    +0.150 HD
ENDROOT
BRANCH   5  11
ATOM     11  CB  TYR A   1      34.913 -17.614 -24.241  0.00  0.00    +0.055 C 
BRANCH  11  12
ATOM     12  CG  TYR A   1      35.206 -18.381 -22.978  0.00  0.00    -0.020 C 
ATOM     13  CD1 TYR A   1      34.233 -19.212 -22.442  0.00  0.00    -0.001 C 
ATOM     14  CD2 TYR A   1      36.445 -18.245 -22.370  0.00  0.00    -0.001 C 
ATOM     15  CE1 TYR A   1      34.505 -19.922 -21.273  0.00  0.00    +0.036 C 
ATOM     16  CE2 TYR A   1      36.717 -18.954 -21.200  0.00  0.00    +0.036 C 
ATOM     17  CZ  TYR A   1      35.747 -19.793 -20.652  0.00  0.00    +0.134 C 
BRANCH  17  18
ATOM     18  OH  TYR A   1      36.013 -20.486 -19.510  0.00  0.00    -0.506 OA
ATOM     19  HH  TYR A   1      36.825 -20.355 -19.062  0.00  0.00    +0.292 HD
ENDBRANCH  17  18
ENDBRANCH  11  12
ENDBRANCH   5  11
BRANCH   6  20
ATOM     20  CB  TYR A   2      32.379 -12.594 -23.165  0.00  0.00    +0.055 C 
BRANCH  20  21
ATOM     21  CG  TYR A   2      33.029 -11.251 -23.376  0.00  0.00    -0.020 C 
ATOM     22  CD1 TYR A   2      34.131 -11.150 -24.213  0.00  0.00    -0.001 C 
ATOM     23  CD2 TYR A   2      32.514 -10.136 -22.732  0.00  0.00    -0.001 C 
ATOM     24  CE1 TYR A   2      34.732  -9.906 -24.408  0.00  0.00    +0.036 C 
ATOM     25  CE2 TYR A   2      33.115  -8.893 -22.928  0.00  0.00    +0.036 C 
ATOM     26  CZ  TYR A   2      34.224  -8.778 -23.766  0.00  0.00    +0.134 C 
BRANCH  26  27
ATOM     27  OH  TYR A   2      34.812  -7.565 -23.956  0.00  0.00    -0.506 OA
ATOM     28  HH  TYR A   2      35.640  -7.378 -23.561  0.00  0.00    +0.292 HD
ENDBRANCH  26  27
ENDBRANCH  20  21
ENDBRANCH   6  20
TORSDOF 6
ENDMDL
MODEL 6
REMARK VINA RESULT:     -10.0      1.382      8.063
REMARK  Name = 11267350
REMARK  6 active torsions:
REMARK  status: ('A' for Active; 'I' for Inactive)
REMARK    1  A    between atoms: CA_5  and  CB_11
REMARK    2  A    between atoms: CA_6  and  CB_20
REMARK    3  A    between atoms: CB_11  and  CG_12
REMARK    4  A    between atoms: CZ_17  and  OH_18
REMARK    5  A    between atoms: CB_20  and  CG_21
REMARK    6  A    between atoms: CZ_26  and  OH_27
REMARK                            x       y       z     vdW  Elec       q    Type
REMARK                         _______ _______ _______ _____ _____    ______ ____
ROOT
ATOM      1  O   TYR A   2      34.874 -17.291 -24.797  0.00  0.00    -0.273 OA
ATOM      2  O   TYR A   1      32.851 -15.281 -20.337  0.00  0.00    -0.273 OA
ATOM      3  N   TYR A   1      33.645 -15.667 -23.724  0.00  0.00    -0.297 N 
ATOM      4  N   TYR A   2      34.306 -16.721 -21.390  0.00  0.00    -0.297 N 
ATOM      5  CA  TYR A   1      33.559 -14.750 -22.596  0.00  0.00    +0.153 C 
ATOM      6  CA  TYR A   2      35.298 -16.898 -22.440  0.00  0.00    +0.153 C 
ATOM      7  C   TYR A   2      34.579 -16.692 -23.766  0.00  0.00    +0.241 C 
ATOM      8  C   TYR A   1      33.484 -15.606 -21.339  0.00  0.00    +0.241 C 
ATOM      9  H   TYR A   1      33.024 -15.556 -24.479  0.00  0.00    +0.150 HD
ATOM     10  H   TYR A   2      34.215 -17.413 -20.696  0.00  0.00    +0.150 HD
ENDROOT
BRANCH   5  11
ATOM     11  CB  TYR A   1      32.358 -13.827 -22.728  0.00  0.00    +0.055 C 
BRANCH  11  12
ATOM     12  CG  TYR A   1      32.770 -12.417 -23.067  0.00  0.00    -0.020 C 
ATOM     13  CD1 TYR A   1      33.770 -12.205 -24.004  0.00  0.00    -0.001 C 
ATOM     14  CD2 TYR A   1      32.141 -11.353 -22.437  0.00  0.00    -0.001 C 
ATOM     15  CE1 TYR A   1      34.151 -10.900 -24.317  0.00  0.00    +0.036 C 
ATOM     16  CE2 TYR A   1      32.521 -10.049 -22.750  0.00  0.00    +0.036 C 
ATOM     17  CZ  TYR A   1      33.526  -9.822 -23.691  0.00  0.00    +0.134 C 
BRANCH  17  18
ATOM     18  OH  TYR A   1      33.898  -8.548 -23.997  0.00  0.00    -0.506 OA
ATOM     19  HH  TYR A   1      33.334  -7.832 -23.780  0.00  0.00    +0.292 HD
ENDBRANCH  17  18
ENDBRANCH  11  12
ENDBRANCH   5  11
BRANCH   6  20
ATOM     20  CB  TYR A   2      35.952 -18.268 -22.356  0.00  0.00    +0.055 C 
BRANCH  20  21
ATOM     21  CG  TYR A   2      35.146 -19.222 -21.513  0.00  0.00    -0.020 C 
ATOM     22  CD1 TYR A   2      35.794 -20.030 -20.588  0.00  0.00    -0.001 C 
ATOM     23  CD2 TYR A   2      33.771 -19.279 -21.674  0.00  0.00    -0.001 C 
ATOM     24  CE1 TYR A   2      35.047 -20.913 -19.808  0.00  0.00    +0.036 C 
ATOM     25  CE2 TYR A   2      33.024 -20.163 -20.893  0.00  0.00    +0.036 C 
ATOM     26  CZ  TYR A   2      33.663 -20.979 -19.961  0.00  0.00    +0.134 C 
BRANCH  26  27
ATOM     27  OH  TYR A   2      32.936 -21.843 -19.200  0.00  0.00    -0.506 OA
ATOM     28  HH  TYR A   2      32.660 -22.664 -19.556  0.00  0.00    +0.292 HD
ENDBRANCH  26  27
ENDBRANCH  20  21
ENDBRANCH   6  20
TORSDOF 6
ENDMDL
MODEL 7
REMARK VINA RESULT:      -9.7      1.950      7.855
REMARK  Name = 11267350
REMARK  6 active torsions:
REMARK  status: ('A' for Active; 'I' for Inactive)
REMARK    1  A    between atoms: CA_5  and  CB_11
REMARK    2  A    between atoms: CA_6  and  CB_20
REMARK    3  A    between atoms: CB_11  and  CG_12
REMARK    4  A    between atoms: CZ_17  and  OH_18
REMARK    5  A    between atoms: CB_20  and  CG_21
REMARK    6  A    between atoms: CZ_26  and  OH_27
REMARK                            x       y       z     vdW  Elec       q    Type
REMARK                         _______ _______ _______ _____ _____    ______ ____
ROOT
ATOM      1  O   TYR A   2      34.910 -19.127 -23.775  0.00  0.00    -0.273 OA
ATOM      2  O   TYR A   1      34.576 -15.499 -19.934  0.00  0.00    -0.273 OA
ATOM      3  N   TYR A   1      34.299 -17.021 -23.075  0.00  0.00    -0.297 N 
ATOM      4  N   TYR A   2      35.435 -17.481 -20.730  0.00  0.00    -0.297 N 
ATOM      5  CA  TYR A   1      34.678 -15.825 -22.337  0.00  0.00    +0.153 C 
ATOM      6  CA  TYR A   2      36.046 -18.181 -21.850  0.00  0.00    +0.153 C 
ATOM      7  C   TYR A   2      35.016 -18.204 -22.972  0.00  0.00    +0.241 C 
ATOM      8  C   TYR A   1      34.839 -16.238 -20.881  0.00  0.00    +0.241 C 
ATOM      9  H   TYR A   1      33.511 -16.990 -23.664  0.00  0.00    +0.150 HD
ATOM     10  H   TYR A   2      35.443 -17.902 -19.841  0.00  0.00    +0.150 HD
ENDROOT
BRANCH   5  11
ATOM     11  CB  TYR A   1      33.644 -14.723 -22.504  0.00  0.00    +0.055 C 
BRANCH  11  12
ATOM     12  CG  TYR A   1      33.547 -14.257 -23.934  0.00  0.00    -0.020 C 
ATOM     13  CD1 TYR A   1      33.300 -15.181 -24.938  0.00  0.00    -0.001 C 
ATOM     14  CD2 TYR A   1      33.706 -12.910 -24.224  0.00  0.00    -0.001 C 
ATOM     15  CE1 TYR A   1      33.211 -14.749 -26.262  0.00  0.00    +0.036 C 
ATOM     16  CE2 TYR A   1      33.617 -12.478 -25.547  0.00  0.00    +0.036 C 
ATOM     17  CZ  TYR A   1      33.368 -13.398 -26.566  0.00  0.00    +0.134 C 
BRANCH  17  18
ATOM     18  OH  TYR A   1      33.281 -12.976 -27.858  0.00  0.00    -0.506 OA
ATOM     19  HH  TYR A   1      33.959 -13.194 -28.468  0.00  0.00    +0.292 HD
ENDBRANCH  17  18
ENDBRANCH  11  12
ENDBRANCH   5  11
BRANCH   6  20
ATOM     20  CB  TYR A   2      36.482 -19.582 -21.452  0.00  0.00    +0.055 C 
BRANCH  20  21
ATOM     21  CG  TYR A   2      35.419 -20.297 -20.658  0.00  0.00    -0.020 C 
ATOM     22  CD1 TYR A   2      34.089 -19.935 -20.818  0.00  0.00    -0.001 C 
ATOM     23  CD2 TYR A   2      35.786 -21.304 -19.780  0.00  0.00    -0.001 C 
ATOM     24  CE1 TYR A   2      33.105 -20.596 -20.083  0.00  0.00    +0.036 C 
ATOM     25  CE2 TYR A   2      34.802 -21.966 -19.045  0.00  0.00    +0.036 C 
ATOM     26  CZ  TYR A   2      33.462 -21.612 -19.197  0.00  0.00    +0.134 C 
BRANCH  26  27
ATOM     27  OH  TYR A   2      32.501 -22.256 -18.479  0.00  0.00    -0.506 OA
ATOM     28  HH  TYR A   2      32.227 -21.915 -17.650  0.00  0.00    +0.292 HD
ENDBRANCH  26  27
ENDBRANCH  20  21
ENDBRANCH   6  20
TORSDOF 6
ENDMDL
MODEL 8
REMARK VINA RESULT:      -9.7      2.146      3.882
REMARK  Name = 11267350
REMARK  6 active torsions:
REMARK  status: ('A' for Active; 'I' for Inactive)
REMARK    1  A    between atoms: CA_5  and  CB_11
REMARK    2  A    between atoms: CA_6  and  CB_20
REMARK    3  A    between atoms: CB_11  and  CG_12
REMARK    4  A    between atoms: CZ_17  and  OH_18
REMARK    5  A    between atoms: CB_20  and  CG_21
REMARK    6  A    between atoms: CZ_26  and  OH_27
REMARK                            x       y       z     vdW  Elec       q    Type
REMARK                         _______ _______ _______ _____ _____    ______ ____
ROOT
ATOM      1  O   TYR A   2      32.341 -14.450 -20.539  0.00  0.00    -0.273 OA
ATOM      2  O   TYR A   1      33.250 -14.363 -25.753  0.00  0.00    -0.273 OA
ATOM      3  N   TYR A   1      33.508 -15.218 -22.369  0.00  0.00    -0.297 N 
ATOM      4  N   TYR A   2      32.306 -13.412 -23.882  0.00  0.00    -0.297 N 
ATOM      5  CA  TYR A   1      34.222 -14.874 -23.590  0.00  0.00    +0.153 C 
ATOM      6  CA  TYR A   2      32.487 -13.018 -22.493  0.00  0.00    +0.153 C 
ATOM      7  C   TYR A   2      32.718 -14.296 -21.698  0.00  0.00    +0.241 C 
ATOM      8  C   TYR A   1      33.207 -14.243 -24.531  0.00  0.00    +0.241 C 
ATOM      9  H   TYR A   1      33.588 -16.130 -22.008  0.00  0.00    +0.150 HD
ATOM     10  H   TYR A   2      31.522 -13.079 -24.375  0.00  0.00    +0.150 HD
ENDROOT
BRANCH   5  11
ATOM     11  CB  TYR A   1      34.883 -16.098 -24.204  0.00  0.00    +0.055 C 
BRANCH  11  12
ATOM     12  CG  TYR A   1      34.984 -17.234 -23.220  0.00  0.00    -0.020 C 
ATOM     13  CD1 TYR A   1      35.458 -16.989 -21.939  0.00  0.00    -0.001 C 
ATOM     14  CD2 TYR A   1      34.600 -18.509 -23.609  0.00  0.00    -0.001 C 
ATOM     15  CE1 TYR A   1      35.552 -18.041 -21.029  0.00  0.00    +0.036 C 
ATOM     16  CE2 TYR A   1      34.694 -19.562 -22.698  0.00  0.00    +0.036 C 
ATOM     17  CZ  TYR A   1      35.169 -19.327 -21.408  0.00  0.00    +0.134 C 
BRANCH  17  18
ATOM     18  OH  TYR A   1      35.260 -20.355 -20.518  0.00  0.00    -0.506 OA
ATOM     19  HH  TYR A   1      35.807 -21.092 -20.710  0.00  0.00    +0.292 HD
ENDBRANCH  17  18
ENDBRANCH  11  12
ENDBRANCH   5  11
BRANCH   6  20
ATOM     20  CB  TYR A   2      31.287 -12.239 -21.980  0.00  0.00    +0.055 C 
BRANCH  20  21
ATOM     21  CG  TYR A   2      31.695 -10.938 -21.337  0.00  0.00    -0.020 C 
ATOM     22  CD1 TYR A   2      31.622 -10.805 -19.958  0.00  0.00    -0.001 C 
ATOM     23  CD2 TYR A   2      32.138  -9.894 -22.134  0.00  0.00    -0.001 C 
ATOM     24  CE1 TYR A   2      32.000  -9.601 -19.364  0.00  0.00    +0.036 C 
ATOM     25  CE2 TYR A   2      32.516  -8.690 -21.541  0.00  0.00    +0.036 C 
ATOM     26  CZ  TYR A   2      32.448  -8.544 -20.155  0.00  0.00    +0.134 C 
BRANCH  26  27
ATOM     27  OH  TYR A   2      32.815  -7.369 -19.575  0.00  0.00    -0.506 OA
ATOM     28  HH  TYR A   2      32.525  -7.163 -18.708  0.00  0.00    +0.292 HD
ENDBRANCH  26  27
ENDBRANCH  20  21
ENDBRANCH   6  20
TORSDOF 6
ENDMDL
MODEL 9
REMARK VINA RESULT:      -9.7      2.162      8.050
REMARK  Name = 11267350
REMARK  6 active torsions:
REMARK  status: ('A' for Active; 'I' for Inactive)
REMARK    1  A    between atoms: CA_5  and  CB_11
REMARK    2  A    between atoms: CA_6  and  CB_20
REMARK    3  A    between atoms: CB_11  and  CG_12
REMARK    4  A    between atoms: CZ_17  and  OH_18
REMARK    5  A    between atoms: CB_20  and  CG_21
REMARK    6  A    between atoms: CZ_26  and  OH_27
REMARK                            x       y       z     vdW  Elec       q    Type
REMARK                         _______ _______ _______ _____ _____    ______ ____
ROOT
ATOM      1  O   TYR A   2      33.166 -14.348 -25.669  0.00  0.00    -0.273 OA
ATOM      2  O   TYR A   1      32.361 -14.567 -20.441  0.00  0.00    -0.273 OA
ATOM      3  N   TYR A   1      32.259 -13.444 -23.755  0.00  0.00    -0.297 N 
ATOM      4  N   TYR A   2      33.491 -15.288 -22.312  0.00  0.00    -0.297 N 
ATOM      5  CA  TYR A   1      32.469 -13.086 -22.360  0.00  0.00    +0.153 C 
ATOM      6  CA  TYR A   2      34.181 -14.914 -23.538  0.00  0.00    +0.153 C 
ATOM      7  C   TYR A   2      33.147 -14.258 -24.444  0.00  0.00    +0.241 C 
ATOM      8  C   TYR A   1      32.714 -14.384 -21.604  0.00  0.00    +0.241 C 
ATOM      9  H   TYR A   1      31.466 -13.099 -24.224  0.00  0.00    +0.150 HD
ATOM     10  H   TYR A   2      33.578 -16.209 -21.976  0.00  0.00    +0.150 HD
ENDROOT
BRANCH   5  11
ATOM     11  CB  TYR A   1      31.279 -12.320 -21.804  0.00  0.00    +0.055 C 
BRANCH  11  12
ATOM     12  CG  TYR A   1      31.690 -10.995 -21.216  0.00  0.00    -0.020 C 
ATOM     13  CD1 TYR A   1      31.679 -10.825 -19.840  0.00  0.00    -0.001 C 
ATOM     14  CD2 TYR A   1      32.074  -9.964 -22.062  0.00  0.00    -0.001 C 
ATOM     15  CE1 TYR A   1      32.059  -9.598 -19.297  0.00  0.00    +0.036 C 
ATOM     16  CE2 TYR A   1      32.454  -8.737 -21.519  0.00  0.00    +0.036 C 
ATOM     17  CZ  TYR A   1      32.447  -8.554 -20.136  0.00  0.00    +0.134 C 
BRANCH  17  18
ATOM     18  OH  TYR A   1      32.818  -7.356 -19.605  0.00  0.00    -0.506 OA
ATOM     19  HH  TYR A   1      33.225  -7.324 -18.762  0.00  0.00    +0.292 HD
ENDBRANCH  17  18
ENDBRANCH  11  12
ENDBRANCH   5  11
BRANCH   6  20
ATOM     20  CB  TYR A   2      34.828 -16.121 -24.197  0.00  0.00    +0.055 C 
BRANCH  20  21
ATOM     21  CG  TYR A   2      34.977 -17.272 -23.235  0.00  0.00    -0.020 C 
ATOM     22  CD1 TYR A   2      34.586 -18.545 -23.627  0.00  0.00    -0.001 C 
ATOM     23  CD2 TYR A   2      35.504 -17.041 -21.974  0.00  0.00    -0.001 C 
ATOM     24  CE1 TYR A   2      34.725 -19.609 -22.736  0.00  0.00    +0.036 C 
ATOM     25  CE2 TYR A   2      35.642 -18.106 -21.083  0.00  0.00    +0.036 C 
ATOM     26  CZ  TYR A   2      35.253 -19.390 -21.465  0.00  0.00    +0.134 C 
BRANCH  26  27
ATOM     27  OH  TYR A   2      35.386 -20.429 -20.596  0.00  0.00    -0.506 OA
ATOM     28  HH  TYR A   2      36.101 -21.027 -20.687  0.00  0.00    +0.292 HD
ENDBRANCH  26  27
ENDBRANCH  20  21
ENDBRANCH   6  20
TORSDOF 6
ENDMDL
