MODEL 1
REMARK VINA RESULT:     -10.1      0.000      0.000
REMARK  Name = 5463984
REMARK  10 active torsions:
REMARK  status: ('A' for Active; 'I' for Inactive)
REMARK    1  A    between atoms: N_2  and  C_29
REMARK    2  A    between atoms: C_3  and  N_13
REMARK    3  A    between atoms: N_13  and  CA_16
REMARK    4  A    between atoms: CA_16  and  C_18
REMARK    5  A    between atoms: CA_16  and  C_21
REMARK    6  A    between atoms: C_18  and  O_19
REMARK    7  A    between atoms: C_21  and  C_22
REMARK    8  A    between atoms: C_22  and  C_23
REMARK    9  A    between atoms: C_29  and  C_31
REMARK   10  A    between atoms: C_31  and  O_32
REMARK                            x       y       z     vdW  Elec       q    Type
REMARK                         _______ _______ _______ _____ _____    ______ ____
ROOT
ATOM      1  O   UNL     1      34.090 -24.143 -12.794  0.00  0.00    -0.277 OA
ATOM      2  N   UNL     1      36.315 -24.780 -13.045  0.00  0.00    -0.250 N 
ATOM      3  C   UNL     1      34.928 -24.288 -15.047  0.00  0.00    +0.018 C 
ATOM      4  C   UNL     1      35.518 -22.999 -15.608  0.00  0.00    -0.008 C 
ATOM      5  C   UNL     1      36.872 -22.638 -15.007  0.00  0.00    +0.026 C 
ATOM      6  C   UNL     1      35.058 -24.365 -13.527  0.00  0.00    +0.210 C 
ATOM      7  C   UNL     1      37.776 -23.829 -14.822  0.00  0.00    -0.009 C 
ATOM      8  C   UNL     1      37.515 -24.809 -13.837  0.00  0.00    +0.050 C 
ATOM      9  C   UNL     1      38.950 -23.911 -15.591  0.00  0.00    -0.003 C 
ATOM     10  C   UNL     1      38.479 -25.809 -13.613  0.00  0.00    +0.015 C 
ATOM     11  C   UNL     1      39.874 -24.930 -15.376  0.00  0.00    -0.000 C 
ATOM     12  C   UNL     1      39.643 -25.873 -14.382  0.00  0.00    +0.001 C 
ENDROOT
BRANCH   3  13
ATOM     13  N   UNL     1      33.510 -24.383 -15.403  0.00  0.00    +0.399 N 
ATOM     14  H1  UNL     1      32.982 -24.702 -14.590  0.00  0.00    -0.083 HD
ATOM     15  H2  UNL     1      33.410 -25.045 -16.172  0.00  0.00    -0.083 HD
BRANCH  13  16
ATOM     16  CA  UNL     1      32.999 -23.091 -15.829  0.00  0.00    +0.041 C 
BRANCH  16  18
ATOM     17  OXT UNL     1      30.623 -22.891 -15.340  0.00  0.00    -0.253 OA
ATOM     18  C   UNL     1      31.785 -22.789 -14.968  0.00  0.00    +0.293 C 
BRANCH  18  19
ATOM     19  O   UNL     1      32.122 -22.410 -13.709  0.00  0.00    -0.482 OA
ATOM     20  H   UNL     1      31.533 -22.571 -12.998  0.00  0.00    +0.295 HD
ENDBRANCH  18  19
ENDBRANCH  16  18
BRANCH  16  21
ATOM     21  C   UNL     1      32.622 -23.160 -17.315  0.00  0.00    -0.006 C 
BRANCH  21  22
ATOM     22  C   UNL     1      33.820 -23.258 -18.272  0.00  0.00    +0.025 C 
BRANCH  22  23
ATOM     23  C   UNL     1      34.040 -22.033 -19.126  0.00  0.00    -0.022 C 
ATOM     24  C   UNL     1      35.331 -21.671 -19.476  0.00  0.00    -0.004 C 
ATOM     25  C   UNL     1      32.946 -21.292 -19.546  0.00  0.00    -0.004 C 
ATOM     26  C   UNL     1      35.535 -20.539 -20.265  0.00  0.00    -0.000 C 
ATOM     27  C   UNL     1      33.151 -20.160 -20.336  0.00  0.00    -0.000 C 
ATOM     28  C   UNL     1      34.445 -19.784 -20.696  0.00  0.00    -0.000 C 
ENDBRANCH  22  23
ENDBRANCH  21  22
ENDBRANCH  16  21
ENDBRANCH  13  16
ENDBRANCH   3  13
BRANCH   2  29
ATOM     29  C   UNL     1      36.411 -25.236 -11.658  0.00  0.00    +0.208 C 
BRANCH  29  31
ATOM     30  O   UNL     1      37.039 -23.131 -10.675  0.00  0.00    -0.248 OA
ATOM     31  C   UNL     1      36.304 -24.110 -10.662  0.00  0.00    +0.335 C 
BRANCH  31  32
ATOM     32  O   UNL     1      35.319 -24.285  -9.750  0.00  0.00    -0.479 OA
ATOM     33  H   UNL     1      34.765 -25.039  -9.800  0.00  0.00    +0.295 HD
ENDBRANCH  31  32
ENDBRANCH  29  31
ENDBRANCH   2  29
TORSDOF 10
ENDMDL
MODEL 2
REMARK VINA RESULT:      -9.9     11.230     15.275
REMARK  Name = 5463984
REMARK  10 active torsions:
REMARK  status: ('A' for Active; 'I' for Inactive)
REMARK    1  A    between atoms: N_2  and  C_29
REMARK    2  A    between atoms: C_3  and  N_13
REMARK    3  A    between atoms: N_13  and  CA_16
REMARK    4  A    between atoms: CA_16  and  C_18
REMARK    5  A    between atoms: CA_16  and  C_21
REMARK    6  A    between atoms: C_18  and  O_19
REMARK    7  A    between atoms: C_21  and  C_22
REMARK    8  A    between atoms: C_22  and  C_23
REMARK    9  A    between atoms: C_29  and  C_31
REMARK   10  A    between atoms: C_31  and  O_32
REMARK                            x       y       z     vdW  Elec       q    Type
REMARK                         _______ _______ _______ _____ _____    ______ ____
ROOT
ATOM      1  O   UNL     1      32.610 -12.942 -20.972  0.00  0.00    -0.277 OA
ATOM      2  N   UNL     1      32.945 -13.832 -23.097  0.00  0.00    -0.250 N 
ATOM      3  C   UNL     1      31.992 -11.551 -22.838  0.00  0.00    +0.018 C 
ATOM      4  C   UNL     1      33.088 -10.624 -23.352  0.00  0.00    -0.008 C 
ATOM      5  C   UNL     1      34.192 -11.349 -24.112  0.00  0.00    +0.026 C 
ATOM      6  C   UNL     1      32.563 -12.816 -22.199  0.00  0.00    +0.210 C 
ATOM      7  C   UNL     1      33.673 -12.432 -25.023  0.00  0.00    -0.009 C 
ATOM      8  C   UNL     1      33.134 -13.633 -24.509  0.00  0.00    +0.050 C 
ATOM      9  C   UNL     1      33.817 -12.271 -26.412  0.00  0.00    -0.003 C 
ATOM     10  C   UNL     1      32.813 -14.664 -25.410  0.00  0.00    +0.015 C 
ATOM     11  C   UNL     1      33.459 -13.293 -27.289  0.00  0.00    -0.000 C 
ATOM     12  C   UNL     1      32.966 -14.491 -26.787  0.00  0.00    +0.001 C 
ENDROOT
BRANCH   3  13
ATOM     13  N   UNL     1      31.172 -10.852 -21.847  0.00  0.00    +0.399 N 
ATOM     14  H1  UNL     1      30.793 -11.532 -21.187  0.00  0.00    -0.083 HD
ATOM     15  H2  UNL     1      30.414 -10.369 -22.331  0.00  0.00    -0.083 HD
BRANCH  13  16
ATOM     16  CA  UNL     1      31.964  -9.872 -21.123  0.00  0.00    +0.041 C 
BRANCH  16  18
ATOM     17  OXT UNL     1      30.578 -10.463 -19.210  0.00  0.00    -0.253 OA
ATOM     18  C   UNL     1      31.642 -10.045 -19.648  0.00  0.00    +0.293 C 
BRANCH  18  19
ATOM     19  O   UNL     1      32.684  -9.707 -18.846  0.00  0.00    -0.482 OA
ATOM     20  H   UNL     1      33.548 -10.006 -19.050  0.00  0.00    +0.295 HD
ENDBRANCH  18  19
ENDBRANCH  16  18
BRANCH  16  21
ATOM     21  C   UNL     1      31.595  -8.464 -21.609  0.00  0.00    -0.006 C 
BRANCH  21  22
ATOM     22  C   UNL     1      32.765  -7.468 -21.622  0.00  0.00    +0.025 C 
BRANCH  22  23
ATOM     23  C   UNL     1      33.112  -6.929 -22.988  0.00  0.00    -0.022 C 
ATOM     24  C   UNL     1      32.212  -6.105 -23.644  0.00  0.00    -0.004 C 
ATOM     25  C   UNL     1      34.328  -7.267 -23.563  0.00  0.00    -0.004 C 
ATOM     26  C   UNL     1      32.533  -5.606 -24.906  0.00  0.00    -0.000 C 
ATOM     27  C   UNL     1      34.649  -6.768 -24.825  0.00  0.00    -0.000 C 
ATOM     28  C   UNL     1      33.752  -5.937 -25.497  0.00  0.00    -0.000 C 
ENDBRANCH  22  23
ENDBRANCH  21  22
ENDBRANCH  16  21
ENDBRANCH  13  16
ENDBRANCH   3  13
BRANCH   2  29
ATOM     29  C   UNL     1      33.141 -15.183 -22.573  0.00  0.00    +0.208 C 
BRANCH  29  31
ATOM     30  O   UNL     1      35.390 -15.944 -22.965  0.00  0.00    -0.248 OA
ATOM     31  C   UNL     1      34.571 -15.463 -22.191  0.00  0.00    +0.335 C 
BRANCH  31  32
ATOM     32  O   UNL     1      34.864 -15.135 -20.911  0.00  0.00    -0.479 OA
ATOM     33  H   UNL     1      34.254 -15.331 -20.227  0.00  0.00    +0.295 HD
ENDBRANCH  31  32
ENDBRANCH  29  31
ENDBRANCH   2  29
TORSDOF 10
ENDMDL
MODEL 3
REMARK VINA RESULT:      -9.8     11.379     15.513
REMARK  Name = 5463984
REMARK  10 active torsions:
REMARK  status: ('A' for Active; 'I' for Inactive)
REMARK    1  A    between atoms: N_2  and  C_29
REMARK    2  A    between atoms: C_3  and  N_13
REMARK    3  A    between atoms: N_13  and  CA_16
REMARK    4  A    between atoms: CA_16  and  C_18
REMARK    5  A    between atoms: CA_16  and  C_21
REMARK    6  A    between atoms: C_18  and  O_19
REMARK    7  A    between atoms: C_21  and  C_22
REMARK    8  A    between atoms: C_22  and  C_23
REMARK    9  A    between atoms: C_29  and  C_31
REMARK   10  A    between atoms: C_31  and  O_32
REMARK                            x       y       z     vdW  Elec       q    Type
REMARK                         _______ _______ _______ _____ _____    ______ ____
ROOT
ATOM      1  O   UNL     1      32.593 -12.697 -21.009  0.00  0.00    -0.277 OA
ATOM      2  N   UNL     1      32.919 -13.664 -23.101  0.00  0.00    -0.250 N 
ATOM      3  C   UNL     1      32.029 -11.350 -22.924  0.00  0.00    +0.018 C 
ATOM      4  C   UNL     1      33.154 -10.471 -23.459  0.00  0.00    -0.008 C 
ATOM      5  C   UNL     1      34.243 -11.252 -24.185  0.00  0.00    +0.026 C 
ATOM      6  C   UNL     1      32.559 -12.609 -22.240  0.00  0.00    +0.210 C 
ATOM      7  C   UNL     1      33.701 -12.348 -25.065  0.00  0.00    -0.009 C 
ATOM      8  C   UNL     1      33.124 -13.517 -24.517  0.00  0.00    +0.050 C 
ATOM      9  C   UNL     1      33.859 -12.237 -26.457  0.00  0.00    -0.003 C 
ATOM     10  C   UNL     1      32.780 -14.567 -25.388  0.00  0.00    +0.015 C 
ATOM     11  C   UNL     1      33.480 -13.276 -27.304  0.00  0.00    -0.000 C 
ATOM     12  C   UNL     1      32.948 -14.443 -26.768  0.00  0.00    +0.001 C 
ENDROOT
BRANCH   3  13
ATOM     13  N   UNL     1      31.221 -10.596 -21.963  0.00  0.00    +0.399 N 
ATOM     14  H1  UNL     1      30.897 -11.229 -21.230  0.00  0.00    -0.083 HD
ATOM     15  H2  UNL     1      30.426 -10.187 -22.454  0.00  0.00    -0.083 HD
BRANCH  13  16
ATOM     16  CA  UNL     1      32.001  -9.527 -21.362  0.00  0.00    +0.041 C 
BRANCH  16  18
ATOM     17  OXT UNL     1      31.958  -8.631 -19.099  0.00  0.00    -0.253 OA
ATOM     18  C   UNL     1      31.702  -9.544 -19.873  0.00  0.00    +0.293 C 
BRANCH  18  19
ATOM     19  O   UNL     1      31.085 -10.688 -19.480  0.00  0.00    -0.482 OA
ATOM     20  H   UNL     1      30.660 -11.232 -20.113  0.00  0.00    +0.295 HD
ENDBRANCH  18  19
ENDBRANCH  16  18
BRANCH  16  21
ATOM     21  C   UNL     1      31.596  -8.188 -21.994  0.00  0.00    -0.006 C 
BRANCH  21  22
ATOM     22  C   UNL     1      32.719  -7.142 -22.043  0.00  0.00    +0.025 C 
BRANCH  22  23
ATOM     23  C   UNL     1      32.989  -6.576 -23.416  0.00  0.00    -0.022 C 
ATOM     24  C   UNL     1      34.163  -6.910 -24.071  0.00  0.00    -0.004 C 
ATOM     25  C   UNL     1      32.055  -5.732 -23.998  0.00  0.00    -0.004 C 
ATOM     26  C   UNL     1      34.412  -6.387 -25.340  0.00  0.00    -0.000 C 
ATOM     27  C   UNL     1      32.304  -5.210 -25.267  0.00  0.00    -0.000 C 
ATOM     28  C   UNL     1      33.482  -5.537 -25.938  0.00  0.00    -0.000 C 
ENDBRANCH  22  23
ENDBRANCH  21  22
ENDBRANCH  16  21
ENDBRANCH  13  16
ENDBRANCH   3  13
BRANCH   2  29
ATOM     29  C   UNL     1      33.072 -15.003 -22.532  0.00  0.00    +0.208 C 
BRANCH  29  31
ATOM     30  O   UNL     1      35.304 -15.819 -22.914  0.00  0.00    -0.248 OA
ATOM     31  C   UNL     1      34.494 -15.316 -22.145  0.00  0.00    +0.335 C 
BRANCH  31  32
ATOM     32  O   UNL     1      34.790 -14.993 -20.865  0.00  0.00    -0.479 OA
ATOM     33  H   UNL     1      35.134 -15.644 -20.286  0.00  0.00    +0.295 HD
ENDBRANCH  31  32
ENDBRANCH  29  31
ENDBRANCH   2  29
TORSDOF 10
ENDMDL
MODEL 4
REMARK VINA RESULT:      -9.8      8.654     13.554
REMARK  Name = 5463984
REMARK  10 active torsions:
REMARK  status: ('A' for Active; 'I' for Inactive)
REMARK    1  A    between atoms: N_2  and  C_29
REMARK    2  A    between atoms: C_3  and  N_13
REMARK    3  A    between atoms: N_13  and  CA_16
REMARK    4  A    between atoms: CA_16  and  C_18
REMARK    5  A    between atoms: CA_16  and  C_21
REMARK    6  A    between atoms: C_18  and  O_19
REMARK    7  A    between atoms: C_21  and  C_22
REMARK    8  A    between atoms: C_22  and  C_23
REMARK    9  A    between atoms: C_29  and  C_31
REMARK   10  A    between atoms: C_31  and  O_32
REMARK                            x       y       z     vdW  Elec       q    Type
REMARK                         _______ _______ _______ _____ _____    ______ ____
ROOT
ATOM      1  O   UNL     1      32.052 -14.135 -22.136  0.00  0.00    -0.277 OA
ATOM      2  N   UNL     1      33.104 -12.298 -23.104  0.00  0.00    -0.250 N 
ATOM      3  C   UNL     1      33.687 -14.598 -23.842  0.00  0.00    +0.018 C 
ATOM      4  C   UNL     1      33.140 -14.688 -25.263  0.00  0.00    -0.008 C 
ATOM      5  C   UNL     1      32.744 -13.338 -25.849  0.00  0.00    +0.026 C 
ATOM      6  C   UNL     1      32.847 -13.675 -22.961  0.00  0.00    +0.210 C 
ATOM      7  C   UNL     1      33.718 -12.238 -25.516  0.00  0.00    -0.009 C 
ATOM      8  C   UNL     1      33.828 -11.721 -24.205  0.00  0.00    +0.050 C 
ATOM      9  C   UNL     1      34.463 -11.658 -26.558  0.00  0.00    -0.003 C 
ATOM     10  C   UNL     1      34.641 -10.592 -23.995  0.00  0.00    +0.015 C 
ATOM     11  C   UNL     1      35.289 -10.562 -26.320  0.00  0.00    -0.000 C 
ATOM     12  C   UNL     1      35.371 -10.025 -25.041  0.00  0.00    +0.001 C 
ENDROOT
BRANCH   3  13
ATOM     13  N   UNL     1      33.718 -15.930 -23.234  0.00  0.00    +0.399 N 
ATOM     14  H1  UNL     1      32.952 -16.489 -23.614  0.00  0.00    -0.083 HD
ATOM     15  H2  UNL     1      33.616 -15.832 -22.224  0.00  0.00    -0.083 HD
BRANCH  13  16
ATOM     16  CA  UNL     1      34.979 -16.594 -23.516  0.00  0.00    +0.041 C 
BRANCH  16  18
ATOM     17  OXT UNL     1      34.155 -18.468 -24.833  0.00  0.00    -0.253 OA
ATOM     18  C   UNL     1      34.776 -17.415 -24.777  0.00  0.00    +0.293 C 
BRANCH  18  19
ATOM     19  O   UNL     1      35.344 -16.839 -25.868  0.00  0.00    -0.482 OA
ATOM     20  H   UNL     1      36.239 -16.564 -25.840  0.00  0.00    +0.295 HD
ENDBRANCH  18  19
ENDBRANCH  16  18
BRANCH  16  21
ATOM     21  C   UNL     1      35.355 -17.490 -22.327  0.00  0.00    -0.006 C 
BRANCH  21  22
ATOM     22  C   UNL     1      34.158 -18.008 -21.517  0.00  0.00    +0.025 C 
BRANCH  22  23
ATOM     23  C   UNL     1      34.388 -19.337 -20.839  0.00  0.00    -0.022 C 
ATOM     24  C   UNL     1      35.681 -19.815 -20.699  0.00  0.00    -0.004 C 
ATOM     25  C   UNL     1      33.301 -20.056 -20.365  0.00  0.00    -0.004 C 
ATOM     26  C   UNL     1      35.894 -21.042 -20.073  0.00  0.00    -0.000 C 
ATOM     27  C   UNL     1      33.514 -21.283 -19.738  0.00  0.00    -0.000 C 
ATOM     28  C   UNL     1      34.811 -21.776 -19.591  0.00  0.00    -0.000 C 
ENDBRANCH  22  23
ENDBRANCH  21  22
ENDBRANCH  16  21
ENDBRANCH  13  16
ENDBRANCH   3  13
BRANCH   2  29
ATOM     29  C   UNL     1      32.631 -11.391 -22.058  0.00  0.00    +0.208 C 
BRANCH  29  31
ATOM     30  O   UNL     1      31.136  -9.725 -22.943  0.00  0.00    -0.248 OA
ATOM     31  C   UNL     1      31.281 -10.796 -22.365  0.00  0.00    +0.335 C 
BRANCH  31  32
ATOM     32  O   UNL     1      30.245 -11.554 -21.939  0.00  0.00    -0.479 OA
ATOM     33  H   UNL     1      29.793 -11.328 -21.150  0.00  0.00    +0.295 HD
ENDBRANCH  31  32
ENDBRANCH  29  31
ENDBRANCH   2  29
TORSDOF 10
ENDMDL
MODEL 5
REMARK VINA RESULT:      -9.4      8.598     13.330
REMARK  Name = 5463984
REMARK  10 active torsions:
REMARK  status: ('A' for Active; 'I' for Inactive)
REMARK    1  A    between atoms: N_2  and  C_29
REMARK    2  A    between atoms: C_3  and  N_13
REMARK    3  A    between atoms: N_13  and  CA_16
REMARK    4  A    between atoms: CA_16  and  C_18
REMARK    5  A    between atoms: CA_16  and  C_21
REMARK    6  A    between atoms: C_18  and  O_19
REMARK    7  A    between atoms: C_21  and  C_22
REMARK    8  A    between atoms: C_22  and  C_23
REMARK    9  A    between atoms: C_29  and  C_31
REMARK   10  A    between atoms: C_31  and  O_32
REMARK                            x       y       z     vdW  Elec       q    Type
REMARK                         _______ _______ _______ _____ _____    ______ ____
ROOT
ATOM      1  O   UNL     1      31.672 -12.949 -21.302  0.00  0.00    -0.277 OA
ATOM      2  N   UNL     1      32.545 -11.313 -22.710  0.00  0.00    -0.250 N 
ATOM      3  C   UNL     1      33.851 -13.373 -22.234  0.00  0.00    +0.018 C 
ATOM      4  C   UNL     1      33.859 -14.129 -23.558  0.00  0.00    -0.008 C 
ATOM      5  C   UNL     1      33.391 -13.290 -24.741  0.00  0.00    +0.026 C 
ATOM      6  C   UNL     1      32.574 -12.556 -22.047  0.00  0.00    +0.210 C 
ATOM      7  C   UNL     1      33.916 -11.877 -24.711  0.00  0.00    -0.009 C 
ATOM      8  C   UNL     1      33.450 -10.938 -23.763  0.00  0.00    +0.050 C 
ATOM      9  C   UNL     1      34.819 -11.471 -25.708  0.00  0.00    -0.003 C 
ATOM     10  C   UNL     1      33.863  -9.598 -23.887  0.00  0.00    +0.015 C 
ATOM     11  C   UNL     1      35.242 -10.147 -25.791  0.00  0.00    -0.000 C 
ATOM     12  C   UNL     1      34.758  -9.210 -24.887  0.00  0.00    +0.001 C 
ENDROOT
BRANCH   3  13
ATOM     13  N   UNL     1      33.975 -14.316 -21.121  0.00  0.00    +0.399 N 
ATOM     14  H1  UNL     1      33.405 -13.988 -20.340  0.00  0.00    -0.083 HD
ATOM     15  H2  UNL     1      34.955 -14.371 -20.845  0.00  0.00    -0.083 HD
BRANCH  13  16
ATOM     16  CA  UNL     1      33.525 -15.640 -21.516  0.00  0.00    +0.041 C 
BRANCH  16  18
ATOM     17  OXT UNL     1      31.512 -16.863 -20.899  0.00  0.00    -0.253 OA
ATOM     18  C   UNL     1      32.316 -15.972 -20.659  0.00  0.00    +0.293 C 
BRANCH  18  19
ATOM     19  O   UNL     1      32.226 -15.180 -19.559  0.00  0.00    -0.482 OA
ATOM     20  H   UNL     1      31.421 -14.745 -19.360  0.00  0.00    +0.295 HD
ENDBRANCH  18  19
ENDBRANCH  16  18
BRANCH  16  21
ATOM     21  C   UNL     1      34.659 -16.649 -21.289  0.00  0.00    -0.006 C 
BRANCH  21  22
ATOM     22  C   UNL     1      34.495 -17.973 -22.051  0.00  0.00    +0.025 C 
BRANCH  22  23
ATOM     23  C   UNL     1      34.517 -19.205 -21.179  0.00  0.00    -0.022 C 
ATOM     24  C   UNL     1      33.320 -19.762 -20.758  0.00  0.00    -0.004 C 
ATOM     25  C   UNL     1      35.735 -19.758 -20.815  0.00  0.00    -0.004 C 
ATOM     26  C   UNL     1      33.340 -20.900 -19.952  0.00  0.00    -0.000 C 
ATOM     27  C   UNL     1      35.755 -20.897 -20.010  0.00  0.00    -0.000 C 
ATOM     28  C   UNL     1      34.558 -21.468 -19.578  0.00  0.00    -0.000 C 
ENDBRANCH  22  23
ENDBRANCH  21  22
ENDBRANCH  16  21
ENDBRANCH  13  16
ENDBRANCH   3  13
BRANCH   2  29
ATOM     29  C   UNL     1      31.550 -10.327 -22.291  0.00  0.00    +0.208 C 
BRANCH  29  31
ATOM     30  O   UNL     1      32.572  -8.763 -20.774  0.00  0.00    -0.248 OA
ATOM     31  C   UNL     1      31.843  -9.735 -20.937  0.00  0.00    +0.335 C 
BRANCH  31  32
ATOM     32  O   UNL     1      31.228 -10.379 -19.919  0.00  0.00    -0.479 OA
ATOM     33  H   UNL     1      31.152 -11.313 -19.935  0.00  0.00    +0.295 HD
ENDBRANCH  31  32
ENDBRANCH  29  31
ENDBRANCH   2  29
TORSDOF 10
ENDMDL
MODEL 6
REMARK VINA RESULT:      -9.2      2.554      4.175
REMARK  Name = 5463984
REMARK  10 active torsions:
REMARK  status: ('A' for Active; 'I' for Inactive)
REMARK    1  A    between atoms: N_2  and  C_29
REMARK    2  A    between atoms: C_3  and  N_13
REMARK    3  A    between atoms: N_13  and  CA_16
REMARK    4  A    between atoms: CA_16  and  C_18
REMARK    5  A    between atoms: CA_16  and  C_21
REMARK    6  A    between atoms: C_18  and  O_19
REMARK    7  A    between atoms: C_21  and  C_22
REMARK    8  A    between atoms: C_22  and  C_23
REMARK    9  A    between atoms: C_29  and  C_31
REMARK   10  A    between atoms: C_31  and  O_32
REMARK                            x       y       z     vdW  Elec       q    Type
REMARK                         _______ _______ _______ _____ _____    ______ ____
ROOT
ATOM      1  O   UNL     1      32.912 -22.677 -17.163  0.00  0.00    -0.277 OA
ATOM      2  N   UNL     1      34.460 -23.878 -15.905  0.00  0.00    -0.250 N 
ATOM      3  C   UNL     1      35.141 -22.844 -18.060  0.00  0.00    +0.018 C 
ATOM      4  C   UNL     1      36.093 -21.724 -17.657  0.00  0.00    -0.008 C 
ATOM      5  C   UNL     1      36.548 -21.805 -16.205  0.00  0.00    +0.026 C 
ATOM      6  C   UNL     1      34.064 -23.091 -17.005  0.00  0.00    +0.210 C 
ATOM      7  C   UNL     1      36.854 -23.212 -15.757  0.00  0.00    -0.009 C 
ATOM      8  C   UNL     1      35.828 -24.165 -15.568  0.00  0.00    +0.050 C 
ATOM      9  C   UNL     1      38.182 -23.544 -15.437  0.00  0.00    -0.003 C 
ATOM     10  C   UNL     1      36.164 -25.408 -15.001  0.00  0.00    +0.015 C 
ATOM     11  C   UNL     1      38.496 -24.794 -14.909  0.00  0.00    -0.000 C 
ATOM     12  C   UNL     1      37.487 -25.722 -14.684  0.00  0.00    +0.001 C 
ENDROOT
BRANCH   3  13
ATOM     13  N   UNL     1      34.489 -22.512 -19.329  0.00  0.00    +0.399 N 
ATOM     14  H1  UNL     1      33.506 -22.783 -19.280  0.00  0.00    -0.083 HD
ATOM     15  H2  UNL     1      34.958 -23.018 -20.080  0.00  0.00    -0.083 HD
BRANCH  13  16
ATOM     16  CA  UNL     1      34.580 -21.087 -19.596  0.00  0.00    +0.041 C 
BRANCH  16  18
ATOM     17  OXT UNL     1      32.929 -20.110 -21.095  0.00  0.00    -0.253 OA
ATOM     18  C   UNL     1      33.196 -20.626 -20.017  0.00  0.00    +0.293 C 
BRANCH  18  19
ATOM     19  O   UNL     1      32.256 -20.870 -19.068  0.00  0.00    -0.482 OA
ATOM     20  H   UNL     1      32.466 -21.403 -18.327  0.00  0.00    +0.295 HD
ENDBRANCH  18  19
ENDBRANCH  16  18
BRANCH  16  21
ATOM     21  C   UNL     1      35.607 -20.845 -20.711  0.00  0.00    -0.006 C 
BRANCH  21  22
ATOM     22  C   UNL     1      36.296 -19.473 -20.656  0.00  0.00    +0.025 C 
BRANCH  22  23
ATOM     23  C   UNL     1      35.701 -18.436 -21.577  0.00  0.00    -0.022 C 
ATOM     24  C   UNL     1      35.692 -18.665 -22.944  0.00  0.00    -0.004 C 
ATOM     25  C   UNL     1      35.173 -17.273 -21.039  0.00  0.00    -0.004 C 
ATOM     26  C   UNL     1      35.142 -17.708 -23.795  0.00  0.00    -0.000 C 
ATOM     27  C   UNL     1      34.622 -16.315 -21.891  0.00  0.00    -0.000 C 
ATOM     28  C   UNL     1      34.606 -16.532 -23.269  0.00  0.00    -0.000 C 
ENDBRANCH  22  23
ENDBRANCH  21  22
ENDBRANCH  16  21
ENDBRANCH  13  16
ENDBRANCH   3  13
BRANCH   2  29
ATOM     29  C   UNL     1      33.418 -24.465 -15.062  0.00  0.00    +0.208 C 
BRANCH  29  31
ATOM     30  O   UNL     1      33.643 -23.949 -12.722  0.00  0.00    -0.248 OA
ATOM     31  C   UNL     1      33.158 -23.667 -13.811  0.00  0.00    +0.335 C 
BRANCH  31  32
ATOM     32  O   UNL     1      32.335 -22.610 -14.004  0.00  0.00    -0.479 OA
ATOM     33  H   UNL     1      31.736 -22.355 -13.330  0.00  0.00    +0.295 HD
ENDBRANCH  31  32
ENDBRANCH  29  31
ENDBRANCH   2  29
TORSDOF 10
ENDMDL
MODEL 7
REMARK VINA RESULT:      -8.9     15.472     19.301
REMARK  Name = 5463984
REMARK  10 active torsions:
REMARK  status: ('A' for Active; 'I' for Inactive)
REMARK    1  A    between atoms: N_2  and  C_29
REMARK    2  A    between atoms: C_3  and  N_13
REMARK    3  A    between atoms: N_13  and  CA_16
REMARK    4  A    between atoms: CA_16  and  C_18
REMARK    5  A    between atoms: CA_16  and  C_21
REMARK    6  A    between atoms: C_18  and  O_19
REMARK    7  A    between atoms: C_21  and  C_22
REMARK    8  A    between atoms: C_22  and  C_23
REMARK    9  A    between atoms: C_29  and  C_31
REMARK   10  A    between atoms: C_31  and  O_32
REMARK                            x       y       z     vdW  Elec       q    Type
REMARK                         _______ _______ _______ _____ _____    ______ ____
ROOT
ATOM      1  O   UNL     1      31.217  -6.577 -21.846  0.00  0.00    -0.277 OA
ATOM      2  N   UNL     1      32.173  -8.630 -22.385  0.00  0.00    -0.250 N 
ATOM      3  C   UNL     1      32.110  -6.805 -24.071  0.00  0.00    +0.018 C 
ATOM      4  C   UNL     1      33.568  -6.392 -24.235  0.00  0.00    -0.008 C 
ATOM      5  C   UNL     1      34.553  -7.377 -23.616  0.00  0.00    +0.026 C 
ATOM      6  C   UNL     1      31.808  -7.297 -22.657  0.00  0.00    +0.210 C 
ATOM      7  C   UNL     1      34.178  -8.818 -23.851  0.00  0.00    -0.009 C 
ATOM      8  C   UNL     1      33.067  -9.405 -23.203  0.00  0.00    +0.050 C 
ATOM      9  C   UNL     1      35.010  -9.609 -24.661  0.00  0.00    -0.003 C 
ATOM     10  C   UNL     1      32.864 -10.790 -23.343  0.00  0.00    +0.015 C 
ATOM     11  C   UNL     1      34.770 -10.972 -24.813  0.00  0.00    -0.000 C 
ATOM     12  C   UNL     1      33.703 -11.564 -24.149  0.00  0.00    +0.001 C 
ENDROOT
BRANCH   3  13
ATOM     13  N   UNL     1      31.233  -5.672 -24.373  0.00  0.00    +0.399 N 
ATOM     14  H1  UNL     1      30.550  -5.567 -23.621  0.00  0.00    -0.083 HD
ATOM     15  H2  UNL     1      30.760  -5.850 -25.258  0.00  0.00    -0.083 HD
BRANCH  13  16
ATOM     16  CA  UNL     1      32.003  -4.444 -24.493  0.00  0.00    +0.041 C 
BRANCH  16  18
ATOM     17  OXT UNL     1      31.885  -2.346 -23.264  0.00  0.00    -0.253 OA
ATOM     18  C   UNL     1      31.461  -3.479 -23.453  0.00  0.00    +0.293 C 
BRANCH  18  19
ATOM     19  O   UNL     1      30.420  -3.998 -22.754  0.00  0.00    -0.482 OA
ATOM     20  H   UNL     1      30.508  -4.165 -21.836  0.00  0.00    +0.295 HD
ENDBRANCH  18  19
ENDBRANCH  16  18
BRANCH  16  21
ATOM     21  C   UNL     1      31.839  -3.881 -25.911  0.00  0.00    -0.006 C 
BRANCH  21  22
ATOM     22  C   UNL     1      32.663  -4.609 -26.984  0.00  0.00    +0.025 C 
BRANCH  22  23
ATOM     23  C   UNL     1      34.025  -4.012 -27.239  0.00  0.00    -0.022 C 
ATOM     24  C   UNL     1      34.161  -2.636 -27.323  0.00  0.00    -0.004 C 
ATOM     25  C   UNL     1      35.119  -4.852 -27.385  0.00  0.00    -0.004 C 
ATOM     26  C   UNL     1      35.420  -2.084 -27.559  0.00  0.00    -0.000 C 
ATOM     27  C   UNL     1      36.378  -4.300 -27.620  0.00  0.00    -0.000 C 
ATOM     28  C   UNL     1      36.529  -2.916 -27.707  0.00  0.00    -0.000 C 
ENDBRANCH  22  23
ENDBRANCH  21  22
ENDBRANCH  16  21
ENDBRANCH  13  16
ENDBRANCH   3  13
BRANCH   2  29
ATOM     29  C   UNL     1      31.593  -9.283 -21.212  0.00  0.00    +0.208 C 
BRANCH  29  31
ATOM     30  O   UNL     1      32.418  -9.844 -19.021  0.00  0.00    -0.248 OA
ATOM     31  C   UNL     1      32.393  -9.052 -19.956  0.00  0.00    +0.335 C 
BRANCH  31  32
ATOM     32  O   UNL     1      33.079  -7.886 -19.958  0.00  0.00    -0.479 OA
ATOM     33  H   UNL     1      33.203  -7.418 -20.760  0.00  0.00    +0.295 HD
ENDBRANCH  31  32
ENDBRANCH  29  31
ENDBRANCH   2  29
TORSDOF 10
ENDMDL
MODEL 8
REMARK VINA RESULT:      -8.8      1.032      1.669
REMARK  Name = 5463984
REMARK  10 active torsions:
REMARK  status: ('A' for Active; 'I' for Inactive)
REMARK    1  A    between atoms: N_2  and  C_29
REMARK    2  A    between atoms: C_3  and  N_13
REMARK    3  A    between atoms: N_13  and  CA_16
REMARK    4  A    between atoms: CA_16  and  C_18
REMARK    5  A    between atoms: CA_16  and  C_21
REMARK    6  A    between atoms: C_18  and  O_19
REMARK    7  A    between atoms: C_21  and  C_22
REMARK    8  A    between atoms: C_22  and  C_23
REMARK    9  A    between atoms: C_29  and  C_31
REMARK   10  A    between atoms: C_31  and  O_32
REMARK                            x       y       z     vdW  Elec       q    Type
REMARK                         _______ _______ _______ _____ _____    ______ ____
ROOT
ATOM      1  O   UNL     1      33.572 -23.686 -14.015  0.00  0.00    -0.277 OA
ATOM      2  N   UNL     1      35.725 -24.416 -13.514  0.00  0.00    -0.250 N 
ATOM      3  C   UNL     1      35.008 -24.185 -15.882  0.00  0.00    +0.018 C 
ATOM      4  C   UNL     1      35.824 -23.011 -16.411  0.00  0.00    -0.008 C 
ATOM      5  C   UNL     1      36.970 -22.603 -15.492  0.00  0.00    +0.026 C 
ATOM      6  C   UNL     1      34.691 -24.041 -14.395  0.00  0.00    +0.210 C 
ATOM      7  C   UNL     1      37.698 -23.780 -14.894  0.00  0.00    -0.009 C 
ATOM      8  C   UNL     1      37.096 -24.595 -13.908  0.00  0.00    +0.050 C 
ATOM      9  C   UNL     1      39.034 -24.007 -15.266  0.00  0.00    -0.003 C 
ATOM     10  C   UNL     1      37.883 -25.578 -13.279  0.00  0.00    +0.015 C 
ATOM     11  C   UNL     1      39.784 -25.009 -14.654  0.00  0.00    -0.000 C 
ATOM     12  C   UNL     1      39.211 -25.788 -13.657  0.00  0.00    +0.001 C 
ENDROOT
BRANCH   3  13
ATOM     13  N   UNL     1      33.750 -24.292 -16.624  0.00  0.00    +0.399 N 
ATOM     14  H1  UNL     1      32.991 -24.487 -15.969  0.00  0.00    -0.083 HD
ATOM     15  H2  UNL     1      33.833 -25.048 -17.304  0.00  0.00    -0.083 HD
BRANCH  13  16
ATOM     16  CA  UNL     1      33.464 -23.055 -17.332  0.00  0.00    +0.041 C 
BRANCH  16  18
ATOM     17  OXT UNL     1      31.359 -21.881 -17.678  0.00  0.00    -0.253 OA
ATOM     18  C   UNL     1      32.008 -22.717 -17.062  0.00  0.00    +0.293 C 
BRANCH  18  19
ATOM     19  O   UNL     1      31.476 -23.469 -16.064  0.00  0.00    -0.482 OA
ATOM     20  H   UNL     1      31.846 -24.305 -15.859  0.00  0.00    +0.295 HD
ENDBRANCH  18  19
ENDBRANCH  16  18
BRANCH  16  21
ATOM     21  C   UNL     1      33.716 -23.260 -18.832  0.00  0.00    -0.006 C 
BRANCH  21  22
ATOM     22  C   UNL     1      34.902 -22.460 -19.392  0.00  0.00    +0.025 C 
BRANCH  22  23
ATOM     23  C   UNL     1      34.527 -21.138 -20.016  0.00  0.00    -0.022 C 
ATOM     24  C   UNL     1      33.188 -20.822 -20.188  0.00  0.00    -0.004 C 
ATOM     25  C   UNL     1      35.528 -20.261 -20.404  0.00  0.00    -0.004 C 
ATOM     26  C   UNL     1      32.841 -19.601 -20.764  0.00  0.00    -0.000 C 
ATOM     27  C   UNL     1      35.181 -19.039 -20.979  0.00  0.00    -0.000 C 
ATOM     28  C   UNL     1      33.838 -18.708 -21.159  0.00  0.00    -0.000 C 
ENDBRANCH  22  23
ENDBRANCH  21  22
ENDBRANCH  16  21
ENDBRANCH  13  16
ENDBRANCH   3  13
BRANCH   2  29
ATOM     29  C   UNL     1      35.386 -24.664 -12.113  0.00  0.00    +0.208 C 
BRANCH  29  31
ATOM     30  O   UNL     1      36.429 -24.199  -9.994  0.00  0.00    -0.248 OA
ATOM     31  C   UNL     1      36.228 -23.861 -11.155  0.00  0.00    +0.335 C 
BRANCH  31  32
ATOM     32  O   UNL     1      36.738 -22.731 -11.697  0.00  0.00    -0.479 OA
ATOM     33  H   UNL     1      37.575 -22.752 -12.117  0.00  0.00    +0.295 HD
ENDBRANCH  31  32
ENDBRANCH  29  31
ENDBRANCH   2  29
TORSDOF 10
ENDMDL
MODEL 9
REMARK VINA RESULT:      -8.8      7.161     11.980
REMARK  Name = 5463984
REMARK  10 active torsions:
REMARK  status: ('A' for Active; 'I' for Inactive)
REMARK    1  A    between atoms: N_2  and  C_29
REMARK    2  A    between atoms: C_3  and  N_13
REMARK    3  A    between atoms: N_13  and  CA_16
REMARK    4  A    between atoms: CA_16  and  C_18
REMARK    5  A    between atoms: CA_16  and  C_21
REMARK    6  A    between atoms: C_18  and  O_19
REMARK    7  A    between atoms: C_21  and  C_22
REMARK    8  A    between atoms: C_22  and  C_23
REMARK    9  A    between atoms: C_29  and  C_31
REMARK   10  A    between atoms: C_31  and  O_32
REMARK                            x       y       z     vdW  Elec       q    Type
REMARK                         _______ _______ _______ _____ _____    ______ ____
ROOT
ATOM      1  O   UNL     1      35.312 -16.289 -23.996  0.00  0.00    -0.277 OA
ATOM      2  N   UNL     1      33.912 -14.508 -23.458  0.00  0.00    -0.250 N 
ATOM      3  C   UNL     1      33.922 -16.554 -22.048  0.00  0.00    +0.018 C 
ATOM      4  C   UNL     1      34.547 -16.103 -20.733  0.00  0.00    -0.008 C 
ATOM      5  C   UNL     1      34.648 -14.589 -20.595  0.00  0.00    +0.026 C 
ATOM      6  C   UNL     1      34.476 -15.781 -23.243  0.00  0.00    +0.210 C 
ATOM      7  C   UNL     1      33.428 -13.864 -21.103  0.00  0.00    -0.009 C 
ATOM      8  C   UNL     1      33.132 -13.794 -22.483  0.00  0.00    +0.050 C 
ATOM      9  C   UNL     1      32.623 -13.170 -20.182  0.00  0.00    -0.003 C 
ATOM     10  C   UNL     1      32.068 -12.974 -22.901  0.00  0.00    +0.015 C 
ATOM     11  C   UNL     1      31.553 -12.391 -20.616  0.00  0.00    -0.000 C 
ATOM     12  C   UNL     1      31.281 -12.287 -21.974  0.00  0.00    +0.001 C 
ENDROOT
BRANCH   3  13
ATOM     13  N   UNL     1      34.171 -17.982 -22.255  0.00  0.00    +0.399 N 
ATOM     14  H1  UNL     1      34.688 -18.109 -23.126  0.00  0.00    -0.083 HD
ATOM     15  H2  UNL     1      33.275 -18.468 -22.302  0.00  0.00    -0.083 HD
BRANCH  13  16
ATOM     16  CA  UNL     1      34.945 -18.534 -21.155  0.00  0.00    +0.041 C 
BRANCH  16  18
ATOM     17  OXT UNL     1      37.310 -19.082 -20.984  0.00  0.00    -0.253 OA
ATOM     18  C   UNL     1      36.350 -18.772 -21.678  0.00  0.00    +0.293 C 
BRANCH  18  19
ATOM     19  O   UNL     1      36.435 -18.627 -23.025  0.00  0.00    -0.482 OA
ATOM     20  H   UNL     1      35.996 -17.916 -23.448  0.00  0.00    +0.295 HD
ENDBRANCH  18  19
ENDBRANCH  16  18
BRANCH  16  21
ATOM     21  C   UNL     1      34.298 -19.845 -20.688  0.00  0.00    -0.006 C 
BRANCH  21  22
ATOM     22  C   UNL     1      35.289 -20.995 -20.454  0.00  0.00    +0.025 C 
BRANCH  22  23
ATOM     23  C   UNL     1      35.121 -21.707 -19.134  0.00  0.00    -0.022 C 
ATOM     24  C   UNL     1      33.919 -22.333 -18.846  0.00  0.00    -0.004 C 
ATOM     25  C   UNL     1      36.174 -21.723 -18.231  0.00  0.00    -0.004 C 
ATOM     26  C   UNL     1      33.763 -22.991 -17.626  0.00  0.00    -0.000 C 
ATOM     27  C   UNL     1      36.019 -22.382 -17.012  0.00  0.00    -0.000 C 
ATOM     28  C   UNL     1      34.814 -23.016 -16.709  0.00  0.00    -0.000 C 
ENDBRANCH  22  23
ENDBRANCH  21  22
ENDBRANCH  16  21
ENDBRANCH  13  16
ENDBRANCH   3  13
BRANCH   2  29
ATOM     29  C   UNL     1      34.106 -13.875 -24.763  0.00  0.00    +0.208 C 
BRANCH  29  31
ATOM     30  O   UNL     1      32.278 -14.015 -26.323  0.00  0.00    -0.248 OA
ATOM     31  C   UNL     1      33.293 -14.519 -25.855  0.00  0.00    +0.335 C 
BRANCH  31  32
ATOM     32  O   UNL     1      33.788 -15.709 -26.269  0.00  0.00    -0.479 OA
ATOM     33  H   UNL     1      34.425 -15.735 -26.956  0.00  0.00    +0.295 HD
ENDBRANCH  31  32
ENDBRANCH  29  31
ENDBRANCH   2  29
TORSDOF 10
ENDMDL
