MODEL 1
REMARK VINA RESULT:      -2.6      0.000      0.000
REMARK  Name = 17754199
REMARK  2 active torsions:
REMARK  status: ('A' for Active; 'I' for Inactive)
REMARK    1  A    between atoms: C_1  and  N_3
REMARK    2  A    between atoms: C_2  and  S_6
REMARK                            x       y       z     vdW  Elec       q    Type
REMARK                         _______ _______ _______ _____ _____    ______ ____
ROOT
ATOM      1  C   UNL     1      41.312 -15.849 -15.686  0.00  0.00    +0.061 C 
ATOM      2  C   UNL     1      41.761 -15.732 -16.941  0.00  0.00    +0.042 C 
ENDROOT
BRANCH   1   3
ATOM      3  N   UNL     1      40.528 -14.971 -15.008  0.00  0.00    -0.356 N 
ATOM      4  H   UNL     1      40.284 -14.109 -15.419  0.00  0.00    +0.142 HD
ATOM      5  H   UNL     1      40.203 -15.195 -14.106  0.00  0.00    +0.142 HD
ENDBRANCH   1   3
BRANCH   2   6
ATOM      6  S   UNL     1      41.383 -14.369 -17.931  0.00  0.00    -0.140 S 
ATOM      7  H   UNL     1      42.312 -14.254 -18.919  0.00  0.00    +0.107 HD
ENDBRANCH   2   6
TORSDOF 2
ENDMDL
MODEL 2
REMARK VINA RESULT:      -2.5     11.772     11.821
REMARK  Name = 17754199
REMARK  2 active torsions:
REMARK  status: ('A' for Active; 'I' for Inactive)
REMARK    1  A    between atoms: C_1  and  N_3
REMARK    2  A    between atoms: C_2  and  S_6
REMARK                            x       y       z     vdW  Elec       q    Type
REMARK                         _______ _______ _______ _____ _____    ______ ____
ROOT
ATOM      1  C   UNL     1      32.489  -8.262 -20.728  0.00  0.00    +0.061 C 
ATOM      2  C   UNL     1      31.893  -9.459 -20.745  0.00  0.00    +0.042 C 
ENDROOT
BRANCH   1   3
ATOM      3  N   UNL     1      32.948  -7.586 -19.643  0.00  0.00    -0.356 N 
ATOM      4  H   UNL     1      32.733  -6.631 -19.531  0.00  0.00    +0.142 HD
ATOM      5  H   UNL     1      33.496  -8.050 -18.970  0.00  0.00    +0.142 HD
ENDBRANCH   1   3
BRANCH   2   6
ATOM      6  S   UNL     1      31.607 -10.366 -19.302  0.00  0.00    -0.140 S 
ATOM      7  H   UNL     1      30.947  -9.589 -18.401  0.00  0.00    +0.107 HD
ENDBRANCH   2   6
TORSDOF 2
ENDMDL
MODEL 3
REMARK VINA RESULT:      -2.5      9.895      9.920
REMARK  Name = 17754199
REMARK  2 active torsions:
REMARK  status: ('A' for Active; 'I' for Inactive)
REMARK    1  A    between atoms: C_1  and  N_3
REMARK    2  A    between atoms: C_2  and  S_6
REMARK                            x       y       z     vdW  Elec       q    Type
REMARK                         _______ _______ _______ _____ _____    ______ ____
ROOT
ATOM      1  C   UNL     1      33.052 -20.057 -20.545  0.00  0.00    +0.061 C 
ATOM      2  C   UNL     1      34.301 -19.852 -20.978  0.00  0.00    +0.042 C 
ENDROOT
BRANCH   1   3
ATOM      3  N   UNL     1      32.654 -20.878 -19.540  0.00  0.00    -0.356 N 
ATOM      4  H   UNL     1      32.092 -21.664 -19.739  0.00  0.00    +0.142 HD
ATOM      5  H   UNL     1      32.925 -20.690 -18.612  0.00  0.00    +0.142 HD
ENDBRANCH   1   3
BRANCH   2   6
ATOM      6  S   UNL     1      35.662 -20.651 -20.274  0.00  0.00    -0.140 S 
ATOM      7  H   UNL     1      36.643 -19.742 -20.027  0.00  0.00    +0.107 HD
ENDBRANCH   2   6
TORSDOF 2
ENDMDL
MODEL 4
REMARK VINA RESULT:      -2.5     12.186     12.308
REMARK  Name = 17754199
REMARK  2 active torsions:
REMARK  status: ('A' for Active; 'I' for Inactive)
REMARK    1  A    between atoms: C_1  and  N_3
REMARK    2  A    between atoms: C_2  and  S_6
REMARK                            x       y       z     vdW  Elec       q    Type
REMARK                         _______ _______ _______ _____ _____    ______ ____
ROOT
ATOM      1  C   UNL     1      37.218 -26.829 -14.285  0.00  0.00    +0.061 C 
ATOM      2  C   UNL     1      37.467 -26.150 -13.160  0.00  0.00    +0.042 C 
ENDROOT
BRANCH   1   3
ATOM      3  N   UNL     1      36.117 -26.737 -15.075  0.00  0.00    -0.356 N 
ATOM      4  H   UNL     1      35.462 -27.474 -15.094  0.00  0.00    +0.142 HD
ATOM      5  H   UNL     1      35.972 -25.936 -15.628  0.00  0.00    +0.142 HD
ENDBRANCH   1   3
BRANCH   2   6
ATOM      6  S   UNL     1      36.355 -24.994 -12.516  0.00  0.00    -0.140 S 
ATOM      7  H   UNL     1      36.052 -25.324 -11.232  0.00  0.00    +0.107 HD
ENDBRANCH   2   6
TORSDOF 2
ENDMDL
MODEL 5
REMARK VINA RESULT:      -2.5     11.507     11.646
REMARK  Name = 17754199
REMARK  2 active torsions:
REMARK  status: ('A' for Active; 'I' for Inactive)
REMARK    1  A    between atoms: C_1  and  N_3
REMARK    2  A    between atoms: C_2  and  S_6
REMARK                            x       y       z     vdW  Elec       q    Type
REMARK                         _______ _______ _______ _____ _____    ______ ____
ROOT
ATOM      1  C   UNL     1      37.544 -26.013 -12.927  0.00  0.00    +0.061 C 
ATOM      2  C   UNL     1      38.670 -25.311 -13.097  0.00  0.00    +0.042 C 
ENDROOT
BRANCH   1   3
ATOM      3  N   UNL     1      37.093 -27.042 -13.691  0.00  0.00    -0.356 N 
ATOM      4  H   UNL     1      37.585 -27.305 -14.503  0.00  0.00    +0.142 HD
ATOM      5  H   UNL     1      36.275 -27.525 -13.433  0.00  0.00    +0.142 HD
ENDBRANCH   1   3
BRANCH   2   6
ATOM      6  S   UNL     1      39.771 -25.634 -14.389  0.00  0.00    -0.140 S 
ATOM      7  H   UNL     1      40.779 -24.720 -14.364  0.00  0.00    +0.107 HD
ENDBRANCH   2   6
TORSDOF 2
ENDMDL
MODEL 6
REMARK VINA RESULT:      -2.4      9.963      9.966
REMARK  Name = 17754199
REMARK  2 active torsions:
REMARK  status: ('A' for Active; 'I' for Inactive)
REMARK    1  A    between atoms: C_1  and  N_3
REMARK    2  A    between atoms: C_2  and  S_6
REMARK                            x       y       z     vdW  Elec       q    Type
REMARK                         _______ _______ _______ _____ _____    ______ ____
ROOT
ATOM      1  C   UNL     1      33.508 -21.880 -19.177  0.00  0.00    +0.061 C 
ATOM      2  C   UNL     1      34.829 -22.091 -19.194  0.00  0.00    +0.042 C 
ENDROOT
BRANCH   1   3
ATOM      3  N   UNL     1      32.832 -20.846 -19.741  0.00  0.00    -0.356 N 
ATOM      4  H   UNL     1      32.794 -20.760 -20.722  0.00  0.00    +0.142 HD
ATOM      5  H   UNL     1      32.381 -20.182 -19.171  0.00  0.00    +0.142 HD
ENDBRANCH   1   3
BRANCH   2   6
ATOM      6  S   UNL     1      35.923 -21.011 -19.983  0.00  0.00    -0.140 S 
ATOM      7  H   UNL     1      35.765 -19.757 -19.479  0.00  0.00    +0.107 HD
ENDBRANCH   2   6
TORSDOF 2
ENDMDL
MODEL 7
REMARK VINA RESULT:      -2.4      9.142      9.229
REMARK  Name = 17754199
REMARK  2 active torsions:
REMARK  status: ('A' for Active; 'I' for Inactive)
REMARK    1  A    between atoms: C_1  and  N_3
REMARK    2  A    between atoms: C_2  and  S_6
REMARK                            x       y       z     vdW  Elec       q    Type
REMARK                         _______ _______ _______ _____ _____    ______ ____
ROOT
ATOM      1  C   UNL     1      35.526 -19.086 -21.309  0.00  0.00    +0.061 C 
ATOM      2  C   UNL     1      34.225 -19.301 -21.536  0.00  0.00    +0.042 C 
ENDROOT
BRANCH   1   3
ATOM      3  N   UNL     1      36.272 -19.565 -20.280  0.00  0.00    -0.356 N 
ATOM      4  H   UNL     1      35.988 -20.380 -19.804  0.00  0.00    +0.142 HD
ATOM      5  H   UNL     1      37.095 -19.098 -20.009  0.00  0.00    +0.142 HD
ENDBRANCH   1   3
BRANCH   2   6
ATOM      6  S   UNL     1      33.256 -20.275 -20.489  0.00  0.00    -0.140 S 
ATOM      7  H   UNL     1      33.147 -21.528 -21.008  0.00  0.00    +0.107 HD
ENDBRANCH   2   6
TORSDOF 2
ENDMDL
MODEL 8
REMARK VINA RESULT:      -2.4     11.996     12.039
REMARK  Name = 17754199
REMARK  2 active torsions:
REMARK  status: ('A' for Active; 'I' for Inactive)
REMARK    1  A    between atoms: C_1  and  N_3
REMARK    2  A    between atoms: C_2  and  S_6
REMARK                            x       y       z     vdW  Elec       q    Type
REMARK                         _______ _______ _______ _____ _____    ______ ____
ROOT
ATOM      1  C   UNL     1      32.371  -8.494 -20.554  0.00  0.00    +0.061 C 
ATOM      2  C   UNL     1      32.539  -8.627 -21.875  0.00  0.00    +0.042 C 
ENDROOT
BRANCH   1   3
ATOM      3  N   UNL     1      32.992  -7.609 -19.732  0.00  0.00    -0.356 N 
ATOM      4  H   UNL     1      33.588  -7.936 -19.018  0.00  0.00    +0.142 HD
ATOM      5  H   UNL     1      32.847  -6.643 -19.848  0.00  0.00    +0.142 HD
ENDBRANCH   1   3
BRANCH   2   6
ATOM      6  S   UNL     1      33.633  -7.634 -22.770  0.00  0.00    -0.140 S 
ATOM      7  H   UNL     1      32.984  -6.517 -23.197  0.00  0.00    +0.107 HD
ENDBRANCH   2   6
TORSDOF 2
ENDMDL
MODEL 9
REMARK VINA RESULT:      -2.4     10.110     10.258
REMARK  Name = 17754199
REMARK  2 active torsions:
REMARK  status: ('A' for Active; 'I' for Inactive)
REMARK    1  A    between atoms: C_1  and  N_3
REMARK    2  A    between atoms: C_2  and  S_6
REMARK                            x       y       z     vdW  Elec       q    Type
REMARK                         _______ _______ _______ _____ _____    ______ ____
ROOT
ATOM      1  C   UNL     1      35.316 -18.777 -23.618  0.00  0.00    +0.061 C 
ATOM      2  C   UNL     1      34.515 -18.357 -24.605  0.00  0.00    +0.042 C 
ENDROOT
BRANCH   1   3
ATOM      3  N   UNL     1      36.200 -18.034 -22.903  0.00  0.00    -0.356 N 
ATOM      4  H   UNL     1      35.909 -17.584 -22.076  0.00  0.00    +0.142 HD
ATOM      5  H   UNL     1      37.131 -17.945 -23.211  0.00  0.00    +0.142 HD
ENDBRANCH   1   3
BRANCH   2   6
ATOM      6  S   UNL     1      34.495 -16.713 -25.137  0.00  0.00    -0.140 S 
ATOM      7  H   UNL     1      33.684 -15.983 -24.324  0.00  0.00    +0.107 HD
ENDBRANCH   2   6
TORSDOF 2
ENDMDL
