MODEL 1
REMARK VINA RESULT:      -9.0      0.000      0.000
REMARK  Name = 5311167
REMARK  4 active torsions:
REMARK  status: ('A' for Active; 'I' for Inactive)
REMARK    1  A    between atoms: C_8  and  O_24
REMARK    2  A    between atoms: C_8  and  C_29
REMARK    3  A    between atoms: C_12  and  O_26
REMARK    4  A    between atoms: C_29  and  C_31
REMARK                            x       y       z     vdW  Elec       q    Type
REMARK                         _______ _______ _______ _____ _____    ______ ____
ROOT
ATOM      1  F   UNL     1      35.612 -25.546 -14.630  0.00  0.00    -0.237 F 
ATOM      2  F   UNL     1      38.215 -22.825 -16.787  0.00  0.00    -0.233 F 
ATOM      3  O   UNL     1      40.401 -26.330 -14.143  0.00  0.00    -0.287 OA
ATOM      4  C   UNL     1      32.557 -23.825 -14.395  0.00  0.00    +0.031 C 
ATOM      5  C   UNL     1      33.625 -23.727 -15.507  0.00  0.00    +0.005 C 
ATOM      6  C   UNL     1      35.006 -23.297 -14.989  0.00  0.00    +0.036 C 
ATOM      7  C   UNL     1      35.511 -24.346 -13.940  0.00  0.00    +0.165 C 
ATOM      8  C   UNL     1      31.307 -24.197 -15.252  0.00  0.00    +0.140 C 
ATOM      9  C   UNL     1      32.939 -22.874 -16.569  0.00  0.00    +0.003 C 
ATOM     10  C   UNL     1      33.035 -24.897 -13.394  0.00  0.00    +0.035 C 
ATOM     11  C   UNL     1      31.491 -23.427 -16.598  0.00  0.00    +0.031 C 
ATOM     12  C   UNL     1      34.449 -24.625 -12.833  0.00  0.00    +0.141 C 
ATOM     13  C   UNL     1      36.973 -24.025 -13.434  0.00  0.00    +0.066 C 
ATOM     14  C   UNL     1      35.998 -23.160 -16.157  0.00  0.00    +0.042 C 
ATOM     15  C   UNL     1      32.308 -22.477 -13.665  0.00  0.00    +0.003 C 
ATOM     16  C   UNL     1      37.411 -22.851 -15.685  0.00  0.00    +0.180 C 
ATOM     17  C   UNL     1      37.866 -23.874 -14.674  0.00  0.00    -0.003 C 
ATOM     18  C   UNL     1      30.493 -22.311 -16.893  0.00  0.00    +0.003 C 
ATOM     19  C   UNL     1      37.087 -22.719 -12.614  0.00  0.00    +0.011 C 
ATOM     20  C   UNL     1      37.471 -25.141 -12.528  0.00  0.00    -0.017 C 
ATOM     21  C   UNL     1      38.962 -24.618 -14.894  0.00  0.00    +0.036 C 
ATOM     22  C   UNL     1      38.560 -25.885 -12.745  0.00  0.00    +0.038 C 
ATOM     23  C   UNL     1      39.391 -25.664 -13.942  0.00  0.00    +0.195 C 
ENDROOT
BRANCH   8  24
ATOM     24  O   UNL     1      31.314 -25.601 -15.541  0.00  0.00    -0.380 OA
ATOM     25  H   UNL     1      30.421 -25.884 -15.795  0.00  0.00    +0.211 HD
ENDBRANCH   8  24
BRANCH  12  26
ATOM     26  O   UNL     1      34.368 -23.576 -11.880  0.00  0.00    -0.382 OA
ATOM     27  H   UNL     1      34.840 -22.798 -12.215  0.00  0.00    +0.210 HD
ENDBRANCH  12  26
BRANCH   8  29
ATOM     28  O   UNL     1      29.842 -23.151 -13.701  0.00  0.00    -0.292 OA
ATOM     29  C   UNL     1      29.993 -24.034 -14.546  0.00  0.00    +0.191 C 
BRANCH  29  31
ATOM     30 CL   UNL     1      28.155 -24.523 -16.466  0.00  0.00    -0.105 Cl
ATOM     31  C   UNL     1      28.909 -25.009 -14.941  0.00  0.00    +0.161 C 
ENDBRANCH  29  31
ENDBRANCH   8  29
TORSDOF 4
ENDMDL
MODEL 2
REMARK VINA RESULT:      -7.6     14.633     17.206
REMARK  Name = 5311167
REMARK  4 active torsions:
REMARK  status: ('A' for Active; 'I' for Inactive)
REMARK    1  A    between atoms: C_8  and  O_24
REMARK    2  A    between atoms: C_8  and  C_29
REMARK    3  A    between atoms: C_12  and  O_26
REMARK    4  A    between atoms: C_29  and  C_31
REMARK                            x       y       z     vdW  Elec       q    Type
REMARK                         _______ _______ _______ _____ _____    ______ ____
ROOT
ATOM      1  F   UNL     1      31.485  -9.429 -23.758  0.00  0.00    -0.237 F 
ATOM      2  F   UNL     1      31.314  -7.974 -19.673  0.00  0.00    -0.233 F 
ATOM      3  O   UNL     1      30.444  -4.695 -23.215  0.00  0.00    -0.287 OA
ATOM      4  C   UNL     1      33.363 -12.391 -23.549  0.00  0.00    +0.031 C 
ATOM      5  C   UNL     1      32.443 -11.767 -22.477  0.00  0.00    +0.005 C 
ATOM      6  C   UNL     1      32.857 -10.343 -22.074  0.00  0.00    +0.036 C 
ATOM      7  C   UNL     1      32.807  -9.417 -23.337  0.00  0.00    +0.165 C 
ATOM      8  C   UNL     1      32.723 -13.810 -23.662  0.00  0.00    +0.140 C 
ATOM      9  C   UNL     1      32.384 -12.848 -21.402  0.00  0.00    +0.003 C 
ATOM     10  C   UNL     1      33.269 -11.504 -24.808  0.00  0.00    +0.035 C 
ATOM     11  C   UNL     1      32.249 -14.161 -22.216  0.00  0.00    +0.031 C 
ATOM     12  C   UNL     1      33.600 -10.019 -24.536  0.00  0.00    +0.141 C 
ATOM     13  C   UNL     1      33.123  -7.909 -22.982  0.00  0.00    +0.066 C 
ATOM     14  C   UNL     1      31.937  -9.812 -20.962  0.00  0.00    +0.042 C 
ATOM     15  C   UNL     1      34.841 -12.519 -23.088  0.00  0.00    +0.003 C 
ATOM     16  C   UNL     1      32.230  -8.361 -20.609  0.00  0.00    +0.180 C 
ATOM     17  C   UNL     1      32.179  -7.496 -21.844  0.00  0.00    -0.003 C 
ATOM     18  C   UNL     1      32.971 -15.307 -21.515  0.00  0.00    +0.003 C 
ATOM     19  C   UNL     1      34.572  -7.663 -22.500  0.00  0.00    +0.011 C 
ATOM     20  C   UNL     1      32.927  -7.030 -24.208  0.00  0.00    -0.017 C 
ATOM     21  C   UNL     1      31.322  -6.466 -21.928  0.00  0.00    +0.036 C 
ATOM     22  C   UNL     1      32.074  -6.005 -24.296  0.00  0.00    +0.038 C 
ATOM     23  C   UNL     1      31.219  -5.643 -23.151  0.00  0.00    +0.195 C 
ENDROOT
BRANCH   8  24
ATOM     24  O   UNL     1      31.566 -13.757 -24.507  0.00  0.00    -0.380 OA
ATOM     25  H   UNL     1      31.268 -12.837 -24.591  0.00  0.00    +0.211 HD
ENDBRANCH   8  24
BRANCH  12  26
ATOM     26  O   UNL     1      35.004  -9.885 -24.382  0.00  0.00    -0.382 OA
ATOM     27  H   UNL     1      35.444 -10.682 -24.717  0.00  0.00    +0.210 HD
ENDBRANCH  12  26
BRANCH   8  29
ATOM     28  O   UNL     1      34.614 -15.237 -23.851  0.00  0.00    -0.292 OA
ATOM     29  C   UNL     1      33.574 -14.826 -24.366  0.00  0.00    +0.191 C 
BRANCH  29  31
ATOM     30 CL   UNL     1      33.448 -14.090 -26.964  0.00  0.00    -0.105 Cl
ATOM     31  C   UNL     1      33.069 -15.285 -25.714  0.00  0.00    +0.161 C 
ENDBRANCH  29  31
ENDBRANCH   8  29
TORSDOF 4
ENDMDL
MODEL 3
REMARK VINA RESULT:      -7.3     14.699     17.274
REMARK  Name = 5311167
REMARK  4 active torsions:
REMARK  status: ('A' for Active; 'I' for Inactive)
REMARK    1  A    between atoms: C_8  and  O_24
REMARK    2  A    between atoms: C_8  and  C_29
REMARK    3  A    between atoms: C_12  and  O_26
REMARK    4  A    between atoms: C_29  and  C_31
REMARK                            x       y       z     vdW  Elec       q    Type
REMARK                         _______ _______ _______ _____ _____    ______ ____
ROOT
ATOM      1  F   UNL     1      31.531  -9.276 -23.957  0.00  0.00    -0.237 F 
ATOM      2  F   UNL     1      31.289  -7.555 -19.981  0.00  0.00    -0.233 F 
ATOM      3  O   UNL     1      30.654  -4.483 -23.750  0.00  0.00    -0.287 OA
ATOM      4  C   UNL     1      33.287 -12.284 -23.498  0.00  0.00    +0.031 C 
ATOM      5  C   UNL     1      32.358 -11.559 -22.499  0.00  0.00    +0.005 C 
ATOM      6  C   UNL     1      32.813 -10.128 -22.174  0.00  0.00    +0.036 C 
ATOM      7  C   UNL     1      32.838  -9.284 -23.494  0.00  0.00    +0.165 C 
ATOM      8  C   UNL     1      32.597 -13.684 -23.543  0.00  0.00    +0.140 C 
ATOM      9  C   UNL     1      32.225 -12.566 -21.361  0.00  0.00    +0.003 C 
ATOM     10  C   UNL     1      33.266 -11.477 -24.813  0.00  0.00    +0.035 C 
ATOM     11  C   UNL     1      32.065 -13.923 -22.094  0.00  0.00    +0.031 C 
ATOM     12  C   UNL     1      33.645  -9.991 -24.625  0.00  0.00    +0.141 C 
ATOM     13  C   UNL     1      33.201  -7.770 -23.225  0.00  0.00    +0.066 C 
ATOM     14  C   UNL     1      31.880  -9.494 -21.129  0.00  0.00    +0.042 C 
ATOM     15  C   UNL     1      34.744 -12.436 -22.981  0.00  0.00    +0.003 C 
ATOM     16  C   UNL     1      32.218  -8.034 -20.859  0.00  0.00    +0.180 C 
ATOM     17  C   UNL     1      32.238  -7.250 -22.147  0.00  0.00    -0.003 C 
ATOM     18  C   UNL     1      32.722 -15.046 -21.298  0.00  0.00    +0.003 C 
ATOM     19  C   UNL     1      34.642  -7.545 -22.712  0.00  0.00    +0.011 C 
ATOM     20  C   UNL     1      33.076  -6.965 -24.510  0.00  0.00    -0.017 C 
ATOM     21  C   UNL     1      31.424  -6.197 -22.325  0.00  0.00    +0.036 C 
ATOM     22  C   UNL     1      32.266  -5.917 -24.691  0.00  0.00    +0.038 C 
ATOM     23  C   UNL     1      31.391  -5.452 -23.601  0.00  0.00    +0.195 C 
ENDROOT
BRANCH   8  24
ATOM     24  O   UNL     1      31.470 -13.644 -24.427  0.00  0.00    -0.380 OA
ATOM     25  H   UNL     1      31.290 -14.537 -24.764  0.00  0.00    +0.211 HD
ENDBRANCH   8  24
BRANCH  12  26
ATOM     26  O   UNL     1      35.048  -9.898 -24.433  0.00  0.00    -0.382 OA
ATOM     27  H   UNL     1      35.409  -9.212 -25.017  0.00  0.00    +0.210 HD
ENDBRANCH  12  26
BRANCH   8  29
ATOM     28  O   UNL     1      33.138 -15.245 -25.250  0.00  0.00    -0.292 OA
ATOM     29  C   UNL     1      33.430 -14.773 -24.152  0.00  0.00    +0.191 C 
BRANCH  29  31
ATOM     30 CL   UNL     1      35.087 -16.875 -23.779  0.00  0.00    -0.105 Cl
ATOM     31  C   UNL     1      34.615 -15.229 -23.333  0.00  0.00    +0.161 C 
ENDBRANCH  29  31
ENDBRANCH   8  29
TORSDOF 4
ENDMDL
MODEL 4
REMARK VINA RESULT:      -6.2     14.222     16.415
REMARK  Name = 5311167
REMARK  4 active torsions:
REMARK  status: ('A' for Active; 'I' for Inactive)
REMARK    1  A    between atoms: C_8  and  O_24
REMARK    2  A    between atoms: C_8  and  C_29
REMARK    3  A    between atoms: C_12  and  O_26
REMARK    4  A    between atoms: C_29  and  C_31
REMARK                            x       y       z     vdW  Elec       q    Type
REMARK                         _______ _______ _______ _____ _____    ______ ____
ROOT
ATOM      1  F   UNL     1      34.765 -12.261 -22.571  0.00  0.00    -0.237 F 
ATOM      2  F   UNL     1      31.781 -14.198 -20.086  0.00  0.00    -0.233 F 
ATOM      3  O   UNL     1      35.346 -17.052 -21.871  0.00  0.00    -0.287 OA
ATOM      4  C   UNL     1      33.215  -9.295 -23.640  0.00  0.00    +0.031 C 
ATOM      5  C   UNL     1      32.990 -10.068 -22.322  0.00  0.00    +0.005 C 
ATOM      6  C   UNL     1      32.530 -11.517 -22.538  0.00  0.00    +0.036 C 
ATOM      7  C   UNL     1      33.622 -12.287 -23.356  0.00  0.00    +0.165 C 
ATOM      8  C   UNL     1      33.588  -7.890 -23.070  0.00  0.00    +0.140 C 
ATOM      9  C   UNL     1      32.100  -9.125 -21.518  0.00  0.00    +0.003 C 
ATOM     10  C   UNL     1      34.328 -10.027 -24.417  0.00  0.00    +0.035 C 
ATOM     11  C   UNL     1      32.720  -7.728 -21.782  0.00  0.00    +0.031 C 
ATOM     12  C   UNL     1      34.026 -11.525 -24.654  0.00  0.00    +0.141 C 
ATOM     13  C   UNL     1      33.265 -13.817 -23.532  0.00  0.00    +0.066 C 
ATOM     14  C   UNL     1      32.265 -12.203 -21.186  0.00  0.00    +0.042 C 
ATOM     15  C   UNL     1      31.933  -9.182 -24.511  0.00  0.00    +0.003 C 
ATOM     16  C   UNL     1      31.920 -13.677 -21.340  0.00  0.00    +0.180 C 
ATOM     17  C   UNL     1      32.986 -14.389 -22.135  0.00  0.00    -0.003 C 
ATOM     18  C   UNL     1      31.636  -6.655 -21.815  0.00  0.00    +0.003 C 
ATOM     19  C   UNL     1      32.014 -14.079 -24.403  0.00  0.00    +0.011 C 
ATOM     20  C   UNL     1      34.415 -14.549 -24.209  0.00  0.00    -0.017 C 
ATOM     21  C   UNL     1      33.660 -15.425 -21.609  0.00  0.00    +0.036 C 
ATOM     22  C   UNL     1      35.088 -15.579 -23.688  0.00  0.00    +0.038 C 
ATOM     23  C   UNL     1      34.746 -16.098 -22.352  0.00  0.00    +0.195 C 
ENDROOT
BRANCH   8  24
ATOM     24  O   UNL     1      34.968  -7.873 -22.679  0.00  0.00    -0.380 OA
ATOM     25  H   UNL     1      35.495  -8.363 -23.331  0.00  0.00    +0.211 HD
ENDBRANCH   8  24
BRANCH  12  26
ATOM     26  O   UNL     1      33.050 -11.637 -25.678  0.00  0.00    -0.382 OA
ATOM     27  H   UNL     1      33.230 -10.981 -26.369  0.00  0.00    +0.210 HD
ENDBRANCH  12  26
BRANCH   8  29
ATOM     28  O   UNL     1      32.559  -6.030 -24.132  0.00  0.00    -0.292 OA
ATOM     29  C   UNL     1      33.537  -6.774 -24.073  0.00  0.00    +0.191 C 
BRANCH  29  31
ATOM     30 CL   UNL     1      34.407  -5.540 -26.314  0.00  0.00    -0.105 Cl
ATOM     31  C   UNL     1      34.743  -6.646 -24.974  0.00  0.00    +0.161 C 
ENDBRANCH  29  31
ENDBRANCH   8  29
TORSDOF 4
ENDMDL
MODEL 5
REMARK VINA RESULT:      -6.2     18.219     20.420
REMARK  Name = 5311167
REMARK  4 active torsions:
REMARK  status: ('A' for Active; 'I' for Inactive)
REMARK    1  A    between atoms: C_8  and  O_24
REMARK    2  A    between atoms: C_8  and  C_29
REMARK    3  A    between atoms: C_12  and  O_26
REMARK    4  A    between atoms: C_29  and  C_31
REMARK                            x       y       z     vdW  Elec       q    Type
REMARK                         _______ _______ _______ _____ _____    ______ ____
ROOT
ATOM      1  F   UNL     1      31.271  -8.080 -24.177  0.00  0.00    -0.237 F 
ATOM      2  F   UNL     1      35.345  -9.401 -24.881  0.00  0.00    -0.233 F 
ATOM      3  O   UNL     1      32.233 -12.733 -23.076  0.00  0.00    -0.287 OA
ATOM      4  C   UNL     1      31.510  -4.579 -23.999  0.00  0.00    +0.031 C 
ATOM      5  C   UNL     1      32.389  -5.556 -24.810  0.00  0.00    +0.005 C 
ATOM      6  C   UNL     1      33.094  -6.607 -23.939  0.00  0.00    +0.036 C 
ATOM      7  C   UNL     1      32.015  -7.458 -23.186  0.00  0.00    +0.165 C 
ATOM      8  C   UNL     1      31.023  -3.637 -25.144  0.00  0.00    +0.140 C 
ATOM      9  C   UNL     1      33.237  -4.622 -25.668  0.00  0.00    +0.003 C 
ATOM     10  C   UNL     1      30.418  -5.417 -23.302  0.00  0.00    +0.035 C 
ATOM     11  C   UNL     1      32.229  -3.541 -26.133  0.00  0.00    +0.031 C 
ATOM     12  C   UNL     1      30.985  -6.562 -22.433  0.00  0.00    +0.141 C 
ATOM     13  C   UNL     1      32.663  -8.629 -22.345  0.00  0.00    +0.066 C 
ATOM     14  C   UNL     1      33.999  -7.501 -24.805  0.00  0.00    +0.042 C 
ATOM     15  C   UNL     1      32.311  -3.758 -22.951  0.00  0.00    +0.003 C 
ATOM     16  C   UNL     1      34.629  -8.633 -24.008  0.00  0.00    +0.180 C 
ATOM     17  C   UNL     1      33.568  -9.430 -23.292  0.00  0.00    -0.003 C 
ATOM     18  C   UNL     1      32.912  -2.182 -26.252  0.00  0.00    +0.003 C 
ATOM     19  C   UNL     1      33.533  -8.151 -21.159  0.00  0.00    +0.011 C 
ATOM     20  C   UNL     1      31.574  -9.508 -21.746  0.00  0.00    -0.017 C 
ATOM     21  C   UNL     1      33.421 -10.745 -23.521  0.00  0.00    +0.036 C 
ATOM     22  C   UNL     1      31.424 -10.816 -21.974  0.00  0.00    +0.038 C 
ATOM     23  C   UNL     1      32.351 -11.530 -22.871  0.00  0.00    +0.195 C 
ENDROOT
BRANCH   8  24
ATOM     24  O   UNL     1      29.926  -4.242 -25.841  0.00  0.00    -0.380 OA
ATOM     25  H   UNL     1      30.207  -4.483 -26.739  0.00  0.00    +0.211 HD
ENDBRANCH   8  24
BRANCH  12  26
ATOM     26  O   UNL     1      31.514  -6.010 -21.238  0.00  0.00    -0.382 OA
ATOM     27  H   UNL     1      30.976  -5.250 -20.967  0.00  0.00    +0.210 HD
ENDBRANCH  12  26
BRANCH   8  29
ATOM     28  O   UNL     1      29.542  -1.789 -25.340  0.00  0.00    -0.292 OA
ATOM     29  C   UNL     1      30.418  -2.345 -24.678  0.00  0.00    +0.191 C 
BRANCH  29  31
ATOM     30 CL   UNL     1      29.693  -1.786 -22.135  0.00  0.00    -0.105 Cl
ATOM     31  C   UNL     1      30.956  -1.801 -23.375  0.00  0.00    +0.161 C 
ENDBRANCH  29  31
ENDBRANCH   8  29
TORSDOF 4
ENDMDL
MODEL 6
REMARK VINA RESULT:      -6.1     11.132     13.568
REMARK  Name = 5311167
REMARK  4 active torsions:
REMARK  status: ('A' for Active; 'I' for Inactive)
REMARK    1  A    between atoms: C_8  and  O_24
REMARK    2  A    between atoms: C_8  and  C_29
REMARK    3  A    between atoms: C_12  and  O_26
REMARK    4  A    between atoms: C_29  and  C_31
REMARK                            x       y       z     vdW  Elec       q    Type
REMARK                         _______ _______ _______ _____ _____    ______ ____
ROOT
ATOM      1  F   UNL     1      35.388 -14.007 -23.628  0.00  0.00    -0.237 F 
ATOM      2  F   UNL     1      33.285 -13.826 -27.420  0.00  0.00    -0.233 F 
ATOM      3  O   UNL     1      34.652  -9.546 -25.456  0.00  0.00    -0.287 OA
ATOM      4  C   UNL     1      34.565 -17.165 -22.327  0.00  0.00    +0.031 C 
ATOM      5  C   UNL     1      34.684 -16.745 -23.808  0.00  0.00    +0.005 C 
ATOM      6  C   UNL     1      33.741 -15.594 -24.191  0.00  0.00    +0.036 C 
ATOM      7  C   UNL     1      34.078 -14.339 -23.316  0.00  0.00    +0.165 C 
ATOM      8  C   UNL     1      35.569 -18.360 -22.303  0.00  0.00    +0.140 C 
ATOM      9  C   UNL     1      34.567 -18.071 -24.552  0.00  0.00    +0.003 C 
ATOM     10  C   UNL     1      34.950 -15.941 -21.470  0.00  0.00    +0.035 C 
ATOM     11  C   UNL     1      35.427 -19.041 -23.701  0.00  0.00    +0.031 C 
ATOM     12  C   UNL     1      34.117 -14.680 -21.796  0.00  0.00    +0.141 C 
ATOM     13  C   UNL     1      33.214 -13.080 -23.723  0.00  0.00    +0.066 C 
ATOM     14  C   UNL     1      33.868 -15.274 -25.691  0.00  0.00    +0.042 C 
ATOM     15  C   UNL     1      33.146 -17.667 -21.944  0.00  0.00    +0.003 C 
ATOM     16  C   UNL     1      33.041 -14.063 -26.098  0.00  0.00    +0.180 C 
ATOM     17  C   UNL     1      33.384 -12.874 -25.235  0.00  0.00    -0.003 C 
ATOM     18  C   UNL     1      34.834 -20.447 -23.723  0.00  0.00    +0.003 C 
ATOM     19  C   UNL     1      31.701 -13.232 -23.439  0.00  0.00    +0.011 C 
ATOM     20  C   UNL     1      33.673 -11.856 -22.944  0.00  0.00    -0.017 C 
ATOM     21  C   UNL     1      33.848 -11.738 -25.782  0.00  0.00    +0.036 C 
ATOM     22  C   UNL     1      34.136 -10.725 -23.485  0.00  0.00    +0.038 C 
ATOM     23  C   UNL     1      34.243 -10.584 -24.948  0.00  0.00    +0.195 C 
ENDROOT
BRANCH   8  24
ATOM     24  O   UNL     1      36.911 -17.868 -22.185  0.00  0.00    -0.380 OA
ATOM     25  H   UNL     1      37.348 -18.296 -21.432  0.00  0.00    +0.211 HD
ENDBRANCH   8  24
BRANCH  12  26
ATOM     26  O   UNL     1      32.821 -14.832 -21.238  0.00  0.00    -0.382 OA
ATOM     27  H   UNL     1      32.891 -14.902 -20.273  0.00  0.00    +0.210 HD
ENDBRANCH  12  26
BRANCH   8  29
ATOM     28  O   UNL     1      34.356 -19.546 -20.639  0.00  0.00    -0.292 OA
ATOM     29  C   UNL     1      35.459 -19.247 -21.097  0.00  0.00    +0.191 C 
BRANCH  29  31
ATOM     30 CL   UNL     1      36.538 -21.227 -19.608  0.00  0.00    -0.105 Cl
ATOM     31  C   UNL     1      36.767 -19.722 -20.510  0.00  0.00    +0.161 C 
ENDBRANCH  29  31
ENDBRANCH   8  29
TORSDOF 4
ENDMDL
