MODEL 1
REMARK VINA RESULT:      -8.1      0.000      0.000
REMARK  Name = 19646
REMARK  2 active torsions:
REMARK  status: ('A' for Active; 'I' for Inactive)
REMARK    1  A    between atoms: C_6  and  C_11
REMARK    2  A    between atoms: C_7  and  N_17
REMARK                            x       y       z     vdW  Elec       q    Type
REMARK                         _______ _______ _______ _____ _____    ______ ____
ROOT
ATOM      1  S   UNL     1      33.109 -20.638 -20.271  0.00  0.00    -0.027 S 
ATOM      2  O   UNL     1      36.478 -18.266 -22.327  0.00  0.00    -0.269 OA
ATOM      3  N   UNL     1      34.291 -18.924 -21.864  0.00  0.00    -0.260 N 
ATOM      4  N   UNL     1      35.664 -20.270 -20.412  0.00  0.00    -0.221 NA
ATOM      5  C   UNL     1      34.516 -19.895 -20.881  0.00  0.00    +0.167 C 
ATOM      6  C   UNL     1      35.250 -18.145 -22.552  0.00  0.00    +0.257 C 
ATOM      7  C   UNL     1      34.113 -21.582 -19.250  0.00  0.00    +0.194 C 
ATOM      8  C   UNL     1      35.434 -21.249 -19.464  0.00  0.00    +0.132 C 
ATOM      9  H   UNL     1      33.350 -18.762 -22.105  0.00  0.00    +0.157 HD
ENDROOT
BRANCH   6  11
ATOM     10  S   UNL     1      34.223 -15.661 -22.901  0.00  0.00    -0.082 S 
ATOM     11  C   UNL     1      34.729 -17.192 -23.477  0.00  0.00    +0.083 C 
ATOM     12  C   UNL     1      34.560 -17.313 -24.839  0.00  0.00    +0.012 C 
ATOM     13  C   UNL     1      34.007 -16.134 -25.417  0.00  0.00    +0.008 C 
ATOM     14  C   UNL     1      33.774 -15.156 -24.475  0.00  0.00    +0.036 C 
ENDBRANCH   6  11
BRANCH   7  17
ATOM     15  O   UNL     1      34.286 -23.390 -17.830  0.00  0.00    -0.126 OA
ATOM     16  O   UNL     1      32.310 -22.481 -18.129  0.00  0.00    -0.126 OA
ATOM     17  N   UNL     1      33.550 -22.517 -18.373  0.00  0.00    +0.065 N 
ENDBRANCH   7  17
TORSDOF 2
ENDMDL
MODEL 2
REMARK VINA RESULT:      -8.0      9.308     10.561
REMARK  Name = 19646
REMARK  2 active torsions:
REMARK  status: ('A' for Active; 'I' for Inactive)
REMARK    1  A    between atoms: C_6  and  C_11
REMARK    2  A    between atoms: C_7  and  N_17
REMARK                            x       y       z     vdW  Elec       q    Type
REMARK                         _______ _______ _______ _____ _____    ______ ____
ROOT
ATOM      1  S   UNL     1      37.522 -25.544 -14.996  0.00  0.00    -0.027 S 
ATOM      2  O   UNL     1      34.253 -23.859 -12.226  0.00  0.00    -0.269 OA
ATOM      3  N   UNL     1      35.151 -24.807 -14.155  0.00  0.00    -0.260 N 
ATOM      4  N   UNL     1      37.032 -24.505 -12.681  0.00  0.00    -0.221 NA
ATOM      5  C   UNL     1      36.503 -24.883 -13.801  0.00  0.00    +0.167 C 
ATOM      6  C   UNL     1      34.076 -24.310 -13.382  0.00  0.00    +0.257 C 
ATOM      7  C   UNL     1      38.841 -25.315 -13.924  0.00  0.00    +0.194 C 
ATOM      8  C   UNL     1      38.390 -24.755 -12.748  0.00  0.00    +0.132 C 
ATOM      9  H   UNL     1      34.920 -25.141 -15.053  0.00  0.00    +0.157 HD
ENDROOT
BRANCH   6  11
ATOM     10  S   UNL     1      32.454 -23.472 -15.386  0.00  0.00    -0.082 S 
ATOM     11  C   UNL     1      32.785 -24.397 -13.984  0.00  0.00    +0.083 C 
ATOM     12  C   UNL     1      31.700 -25.152 -13.595  0.00  0.00    +0.012 C 
ATOM     13  C   UNL     1      30.582 -24.967 -14.459  0.00  0.00    +0.008 C 
ATOM     14  C   UNL     1      30.855 -24.078 -15.475  0.00  0.00    +0.036 C 
ENDBRANCH   6  11
BRANCH   7  17
ATOM     15  O   UNL     1      40.406 -26.904 -14.511  0.00  0.00    -0.126 OA
ATOM     16  O   UNL     1      41.027 -24.799 -14.444  0.00  0.00    -0.126 OA
ATOM     17  N   UNL     1      40.136 -25.686 -14.306  0.00  0.00    +0.065 N 
ENDBRANCH   7  17
TORSDOF 2
ENDMDL
MODEL 3
REMARK VINA RESULT:      -7.7      4.151      6.257
REMARK  Name = 19646
REMARK  2 active torsions:
REMARK  status: ('A' for Active; 'I' for Inactive)
REMARK    1  A    between atoms: C_6  and  C_11
REMARK    2  A    between atoms: C_7  and  N_17
REMARK                            x       y       z     vdW  Elec       q    Type
REMARK                         _______ _______ _______ _____ _____    ______ ____
ROOT
ATOM      1  S   UNL     1      37.112 -22.697 -15.516  0.00  0.00    -0.027 S 
ATOM      2  O   UNL     1      33.573 -23.442 -18.366  0.00  0.00    -0.269 OA
ATOM      3  N   UNL     1      35.424 -22.332 -17.489  0.00  0.00    -0.260 N 
ATOM      4  N   UNL     1      35.156 -24.282 -16.099  0.00  0.00    -0.221 NA
ATOM      5  C   UNL     1      35.762 -23.186 -16.433  0.00  0.00    +0.167 C 
ATOM      6  C   UNL     1      34.364 -22.470 -18.415  0.00  0.00    +0.257 C 
ATOM      7  C   UNL     1      36.894 -24.093 -14.545  0.00  0.00    +0.194 C 
ATOM      8  C   UNL     1      35.811 -24.811 -15.004  0.00  0.00    +0.132 C 
ATOM      9  H   UNL     1      35.995 -21.537 -17.601  0.00  0.00    +0.157 HD
ENDROOT
BRANCH   6  11
ATOM     10  S   UNL     1      35.726 -20.864 -20.120  0.00  0.00    -0.082 S 
ATOM     11  C   UNL     1      34.283 -21.463 -19.422  0.00  0.00    +0.083 C 
ATOM     12  C   UNL     1      33.163 -20.863 -19.955  0.00  0.00    +0.012 C 
ATOM     13  C   UNL     1      33.495 -19.897 -20.949  0.00  0.00    +0.008 C 
ATOM     14  C   UNL     1      34.856 -19.796 -21.138  0.00  0.00    +0.036 C 
ENDBRANCH   6  11
BRANCH   7  17
ATOM     15  O   UNL     1      38.180 -25.528 -13.278  0.00  0.00    -0.126 OA
ATOM     16  O   UNL     1      38.113 -23.408 -12.712  0.00  0.00    -0.126 OA
ATOM     17  N   UNL     1      37.759 -24.352 -13.475  0.00  0.00    +0.065 N 
ENDBRANCH   7  17
TORSDOF 2
ENDMDL
MODEL 4
REMARK VINA RESULT:      -7.7      8.463      9.691
REMARK  Name = 19646
REMARK  2 active torsions:
REMARK  status: ('A' for Active; 'I' for Inactive)
REMARK    1  A    between atoms: C_6  and  C_11
REMARK    2  A    between atoms: C_7  and  N_17
REMARK                            x       y       z     vdW  Elec       q    Type
REMARK                         _______ _______ _______ _____ _____    ______ ____
ROOT
ATOM      1  S   UNL     1      35.142 -24.091 -12.421  0.00  0.00    -0.027 S 
ATOM      2  O   UNL     1      33.255 -23.185 -16.522  0.00  0.00    -0.269 OA
ATOM      3  N   UNL     1      33.322 -23.861 -14.294  0.00  0.00    -0.260 N 
ATOM      4  N   UNL     1      35.593 -23.259 -14.826  0.00  0.00    -0.221 NA
ATOM      5  C   UNL     1      34.682 -23.686 -14.010  0.00  0.00    +0.167 C 
ATOM      6  C   UNL     1      32.648 -23.613 -15.512  0.00  0.00    +0.257 C 
ATOM      7  C   UNL     1      36.749 -23.656 -12.831  0.00  0.00    +0.194 C 
ATOM      8  C   UNL     1      36.795 -23.240 -14.145  0.00  0.00    +0.132 C 
ATOM      9  H   UNL     1      32.766 -24.196 -13.553  0.00  0.00    +0.157 HD
ENDROOT
BRANCH   6  11
ATOM     10  S   UNL     1      30.601 -25.078 -14.506  0.00  0.00    -0.082 S 
ATOM     11  C   UNL     1      31.239 -23.839 -15.501  0.00  0.00    +0.083 C 
ATOM     12  C   UNL     1      30.254 -23.181 -16.204  0.00  0.00    +0.012 C 
ATOM     13  C   UNL     1      28.957 -23.701 -15.921  0.00  0.00    +0.008 C 
ATOM     14  C   UNL     1      29.002 -24.737 -15.013  0.00  0.00    +0.036 C 
ENDBRANCH   6  11
BRANCH   7  17
ATOM     15  O   UNL     1      38.515 -22.755 -11.653  0.00  0.00    -0.126 OA
ATOM     16  O   UNL     1      37.949 -24.839 -11.257  0.00  0.00    -0.126 OA
ATOM     17  N   UNL     1      37.773 -23.754 -11.881  0.00  0.00    +0.065 N 
ENDBRANCH   7  17
TORSDOF 2
ENDMDL
MODEL 5
REMARK VINA RESULT:      -7.7      3.314      7.084
REMARK  Name = 19646
REMARK  2 active torsions:
REMARK  status: ('A' for Active; 'I' for Inactive)
REMARK    1  A    between atoms: C_6  and  C_11
REMARK    2  A    between atoms: C_7  and  N_17
REMARK                            x       y       z     vdW  Elec       q    Type
REMARK                         _______ _______ _______ _____ _____    ______ ____
ROOT
ATOM      1  S   UNL     1      32.868 -15.389 -21.395  0.00  0.00    -0.027 S 
ATOM      2  O   UNL     1      35.770 -18.844 -22.316  0.00  0.00    -0.269 OA
ATOM      3  N   UNL     1      34.028 -17.735 -21.237  0.00  0.00    -0.260 N 
ATOM      4  N   UNL     1      34.837 -16.168 -22.878  0.00  0.00    -0.221 NA
ATOM      5  C   UNL     1      34.039 -16.512 -21.917  0.00  0.00    +0.167 C 
ATOM      6  C   UNL     1      34.871 -18.852 -21.442  0.00  0.00    +0.257 C 
ATOM      7  C   UNL     1      33.467 -14.296 -22.573  0.00  0.00    +0.194 C 
ATOM      8  C   UNL     1      34.508 -14.882 -23.261  0.00  0.00    +0.132 C 
ATOM      9  H   UNL     1      33.350 -17.829 -20.529  0.00  0.00    +0.157 HD
ENDROOT
BRANCH   6  11
ATOM     10  S   UNL     1      35.912 -20.937 -20.057  0.00  0.00    -0.082 S 
ATOM     11  C   UNL     1      34.603 -19.992 -20.626  0.00  0.00    +0.083 C 
ATOM     12  C   UNL     1      33.388 -20.480 -20.197  0.00  0.00    +0.012 C 
ATOM     13  C   UNL     1      33.534 -21.646 -19.391  0.00  0.00    +0.008 C 
ATOM     14  C   UNL     1      34.855 -22.005 -19.235  0.00  0.00    +0.036 C 
ENDBRANCH   6  11
BRANCH   7  17
ATOM     15  O   UNL     1      31.937 -12.681 -21.966  0.00  0.00    -0.126 OA
ATOM     16  O   UNL     1      33.344 -12.230 -23.590  0.00  0.00    -0.126 OA
ATOM     17  N   UNL     1      32.896 -13.026 -22.714  0.00  0.00    +0.065 N 
ENDBRANCH   7  17
TORSDOF 2
ENDMDL
MODEL 6
REMARK VINA RESULT:      -7.6      4.491      6.614
REMARK  Name = 19646
REMARK  2 active torsions:
REMARK  status: ('A' for Active; 'I' for Inactive)
REMARK    1  A    between atoms: C_6  and  C_11
REMARK    2  A    between atoms: C_7  and  N_17
REMARK                            x       y       z     vdW  Elec       q    Type
REMARK                         _______ _______ _______ _____ _____    ______ ____
ROOT
ATOM      1  S   UNL     1      34.594 -14.976 -21.803  0.00  0.00    -0.027 S 
ATOM      2  O   UNL     1      33.640 -12.441 -25.527  0.00  0.00    -0.269 OA
ATOM      3  N   UNL     1      34.155 -12.865 -23.294  0.00  0.00    -0.260 N 
ATOM      4  N   UNL     1      34.042 -15.038 -24.328  0.00  0.00    -0.221 NA
ATOM      5  C   UNL     1      34.227 -14.263 -23.306  0.00  0.00    +0.167 C 
ATOM      6  C   UNL     1      33.871 -11.999 -24.376  0.00  0.00    +0.257 C 
ATOM      7  C   UNL     1      34.505 -16.508 -22.567  0.00  0.00    +0.194 C 
ATOM      8  C   UNL     1      34.203 -16.343 -23.902  0.00  0.00    +0.132 C 
ATOM      9  H   UNL     1      34.324 -12.431 -22.426  0.00  0.00    +0.157 HD
ENDROOT
BRANCH   6  11
ATOM     10  S   UNL     1      32.617  -9.901 -23.206  0.00  0.00    -0.082 S 
ATOM     11  C   UNL     1      33.909 -10.603 -24.082  0.00  0.00    +0.083 C 
ATOM     12  C   UNL     1      34.876  -9.678 -24.409  0.00  0.00    +0.012 C 
ATOM     13  C   UNL     1      34.551  -8.374 -23.933  0.00  0.00    +0.008 C 
ATOM     14  C   UNL     1      33.348  -8.353 -23.262  0.00  0.00    +0.036 C 
ENDBRANCH   6  11
BRANCH   7  17
ATOM     15  O   UNL     1      35.302 -17.615 -20.708  0.00  0.00    -0.126 OA
ATOM     16  O   UNL     1      34.355 -18.794 -22.299  0.00  0.00    -0.126 OA
ATOM     17  N   UNL     1      34.729 -17.679 -21.833  0.00  0.00    +0.065 N 
ENDBRANCH   7  17
TORSDOF 2
ENDMDL
MODEL 7
REMARK VINA RESULT:      -7.6      8.699      9.936
REMARK  Name = 19646
REMARK  2 active torsions:
REMARK  status: ('A' for Active; 'I' for Inactive)
REMARK    1  A    between atoms: C_6  and  C_11
REMARK    2  A    between atoms: C_7  and  N_17
REMARK                            x       y       z     vdW  Elec       q    Type
REMARK                         _______ _______ _______ _____ _____    ______ ____
ROOT
ATOM      1  S   UNL     1      30.684 -22.783 -16.487  0.00  0.00    -0.027 S 
ATOM      2  O   UNL     1      32.692 -25.005 -12.990  0.00  0.00    -0.269 OA
ATOM      3  N   UNL     1      32.556 -23.602 -14.845  0.00  0.00    -0.260 N 
ATOM      4  N   UNL     1      30.309 -24.402 -14.508  0.00  0.00    -0.221 NA
ATOM      5  C   UNL     1      31.192 -23.698 -15.143  0.00  0.00    +0.167 C 
ATOM      6  C   UNL     1      33.265 -24.239 -13.801  0.00  0.00    +0.257 C 
ATOM      7  C   UNL     1      29.095 -23.371 -16.223  0.00  0.00    +0.194 C 
ATOM      8  C   UNL     1      29.090 -24.215 -15.132  0.00  0.00    +0.132 C 
ATOM      9  H   UNL     1      33.087 -23.018 -15.434  0.00  0.00    +0.157 HD
ENDROOT
BRANCH   6  11
ATOM     10  S   UNL     1      35.449 -24.097 -12.201  0.00  0.00    -0.082 S 
ATOM     11  C   UNL     1      34.653 -23.920 -13.706  0.00  0.00    +0.083 C 
ATOM     12  C   UNL     1      35.504 -23.467 -14.691  0.00  0.00    +0.012 C 
ATOM     13  C   UNL     1      36.827 -23.263 -14.202  0.00  0.00    +0.008 C 
ATOM     14  C   UNL     1      36.936 -23.566 -12.863  0.00  0.00    +0.036 C 
ENDBRANCH   6  11
BRANCH   7  17
ATOM     15  O   UNL     1      27.456 -23.835 -17.777  0.00  0.00    -0.126 OA
ATOM     16  O   UNL     1      27.693 -21.762 -17.094  0.00  0.00    -0.126 OA
ATOM     17  N   UNL     1      28.046 -22.976 -17.060  0.00  0.00    +0.065 N 
ENDBRANCH   7  17
TORSDOF 2
ENDMDL
MODEL 8
REMARK VINA RESULT:      -7.5      3.711      7.307
REMARK  Name = 19646
REMARK  2 active torsions:
REMARK  status: ('A' for Active; 'I' for Inactive)
REMARK    1  A    between atoms: C_6  and  C_11
REMARK    2  A    between atoms: C_7  and  N_17
REMARK                            x       y       z     vdW  Elec       q    Type
REMARK                         _______ _______ _______ _____ _____    ______ ____
ROOT
ATOM      1  S   UNL     1      32.624 -14.679 -21.552  0.00  0.00    -0.027 S 
ATOM      2  O   UNL     1      35.416 -18.136 -22.756  0.00  0.00    -0.269 OA
ATOM      3  N   UNL     1      33.760 -17.041 -21.537  0.00  0.00    -0.260 N 
ATOM      4  N   UNL     1      34.486 -15.434 -23.178  0.00  0.00    -0.221 NA
ATOM      5  C   UNL     1      33.744 -15.798 -22.180  0.00  0.00    +0.167 C 
ATOM      6  C   UNL     1      34.574 -18.161 -21.828  0.00  0.00    +0.257 C 
ATOM      7  C   UNL     1      33.163 -13.557 -22.731  0.00  0.00    +0.194 C 
ATOM      8  C   UNL     1      34.150 -14.133 -23.501  0.00  0.00    +0.132 C 
ATOM      9  H   UNL     1      33.127 -17.150 -20.791  0.00  0.00    +0.157 HD
ENDROOT
BRANCH   6  11
ATOM     10  S   UNL     1      35.680 -20.237 -20.482  0.00  0.00    -0.082 S 
ATOM     11  C   UNL     1      34.342 -19.322 -21.032  0.00  0.00    +0.083 C 
ATOM     12  C   UNL     1      33.143 -19.854 -20.609  0.00  0.00    +0.012 C 
ATOM     13  C   UNL     1      33.326 -21.029 -19.823  0.00  0.00    +0.008 C 
ATOM     14  C   UNL     1      34.658 -21.351 -19.677  0.00  0.00    +0.036 C 
ENDBRANCH   6  11
BRANCH   7  17
ATOM     15  O   UNL     1      33.134 -11.393 -23.529  0.00  0.00    -0.126 OA
ATOM     16  O   UNL     1      31.562 -12.011 -22.127  0.00  0.00    -0.126 OA
ATOM     17  N   UNL     1      32.601 -12.276 -22.798  0.00  0.00    +0.065 N 
ENDBRANCH   7  17
TORSDOF 2
ENDMDL
MODEL 9
REMARK VINA RESULT:      -7.5      8.900      9.913
REMARK  Name = 19646
REMARK  2 active torsions:
REMARK  status: ('A' for Active; 'I' for Inactive)
REMARK    1  A    between atoms: C_6  and  C_11
REMARK    2  A    between atoms: C_7  and  N_17
REMARK                            x       y       z     vdW  Elec       q    Type
REMARK                         _______ _______ _______ _____ _____    ______ ____
ROOT
ATOM      1  S   UNL     1      35.553 -24.764 -14.787  0.00  0.00    -0.027 S 
ATOM      2  O   UNL     1      31.617 -23.487 -12.767  0.00  0.00    -0.269 OA
ATOM      3  N   UNL     1      33.024 -24.130 -14.509  0.00  0.00    -0.260 N 
ATOM      4  N   UNL     1      34.432 -24.101 -12.554  0.00  0.00    -0.221 NA
ATOM      5  C   UNL     1      34.233 -24.285 -13.821  0.00  0.00    +0.167 C 
ATOM      6  C   UNL     1      31.769 -23.744 -13.985  0.00  0.00    +0.257 C 
ATOM      7  C   UNL     1      36.529 -24.733 -13.378  0.00  0.00    +0.194 C 
ATOM      8  C   UNL     1      35.764 -24.360 -12.293  0.00  0.00    +0.132 C 
ATOM      9  H   UNL     1      33.051 -24.312 -15.476  0.00  0.00    +0.157 HD
ENDROOT
BRANCH   6  11
ATOM     10  S   UNL     1      29.561 -24.998 -14.933  0.00  0.00    -0.082 S 
ATOM     11  C   UNL     1      30.689 -23.711 -14.917  0.00  0.00    +0.083 C 
ATOM     12  C   UNL     1      30.393 -22.752 -15.862  0.00  0.00    +0.012 C 
ATOM     13  C   UNL     1      29.223 -23.079 -16.608  0.00  0.00    +0.008 C 
ATOM     14  C   UNL     1      28.671 -24.276 -16.205  0.00  0.00    +0.036 C 
ENDBRANCH   6  11
BRANCH   7  17
ATOM     15  O   UNL     1      38.683 -24.304 -14.078  0.00  0.00    -0.126 OA
ATOM     16  O   UNL     1      38.311 -26.111 -12.888  0.00  0.00    -0.126 OA
ATOM     17  N   UNL     1      37.888 -25.061 -13.451  0.00  0.00    +0.065 N 
ENDBRANCH   7  17
TORSDOF 2
ENDMDL
