MODEL 1
REMARK VINA RESULT:      -6.9      0.000      0.000
REMARK  Name = 17753793
REMARK  10 active torsions:
REMARK  status: ('A' for Active; 'I' for Inactive)
REMARK    1  A    between atoms: C_3  and  C_18
REMARK    2  A    between atoms: C_5  and  S_7
REMARK    3  A    between atoms: S_7  and  C_8
REMARK    4  A    between atoms: C_8  and  C_9
REMARK    5  A    between atoms: C_9  and  N_10
REMARK    6  A    between atoms: C_9  and  C_15
REMARK    7  A    between atoms: C_15  and  O_16
REMARK    8  A    between atoms: C_18  and  N_19
REMARK    9  A    between atoms: C_18  and  C_24
REMARK   10  A    between atoms: C_24  and  O_25
REMARK                            x       y       z     vdW  Elec       q    Type
REMARK                         _______ _______ _______ _____ _____    ______ ____
ROOT
ATOM      1  O   UNK     1      37.982 -26.527 -13.632  0.00  0.00    -0.289 OA
ATOM      2  N   UNK     1      36.648 -26.353 -13.048  0.00  0.00    -0.181 NA
ATOM      3  C   UNK     1      38.823 -25.478 -13.144  0.00  0.00    +0.130 C 
ATOM      4  C   UNK     1      37.881 -24.426 -12.607  0.00  0.00    +0.059 C 
ATOM      5  C   UNK     1      36.784 -25.297 -12.045  0.00  0.00    +0.129 C 
ATOM      6  H   UNK     1      36.338 -27.220 -12.609  0.00  0.00    +0.156 HD
ENDROOT
BRANCH   5   7
ATOM      7  S   UNK     1      35.251 -24.375 -11.784  0.00  0.00    -0.125 S 
BRANCH   7   8
ATOM      8  C   UNK     1      35.296 -23.349 -13.273  0.00  0.00    +0.048 C 
BRANCH   8   9
ATOM      9  C   UNK     1      34.288 -23.820 -14.322  0.00  0.00    +0.047 C 
BRANCH   9  10
ATOM     10  N   UNK     1      33.597 -25.022 -13.849  0.00  0.00    +0.389 N 
ATOM     11  H   UNK     1      33.176 -25.506 -14.643  0.00  0.00    -0.088 HD
ATOM     12  H   UNK     1      32.867 -24.757 -13.187  0.00  0.00    -0.088 HD
ATOM     13  H   UNK     1      34.265 -25.640 -13.389  0.00  0.00    -0.088 HD
ENDBRANCH   9  10
BRANCH   9  15
ATOM     14  O   UNK     1      34.592 -23.704 -16.719  0.00  0.00    -0.253 OA
ATOM     15  C   UNK     1      34.951 -24.166 -15.642  0.00  0.00    +0.294 C 
BRANCH  15  16
ATOM     16  O   UNK     1      35.961 -25.066 -15.528  0.00  0.00    -0.482 OA
ATOM     17  H   UNK     1      36.710 -24.866 -15.004  0.00  0.00    +0.295 HD
ENDBRANCH  15  16
ENDBRANCH   9  15
ENDBRANCH   8   9
ENDBRANCH   7   8
ENDBRANCH   5   7
BRANCH   3  18
ATOM     18  C   UNK     1      39.714 -24.969 -14.261  0.00  0.00    +0.065 C 
BRANCH  18  19
ATOM     19  N   UNK     1      38.895 -24.517 -15.386  0.00  0.00    +0.390 N 
ATOM     20  H   UNK     1      39.425 -24.614 -16.253  0.00  0.00    -0.088 HD
ATOM     21  H   UNK     1      38.642 -23.539 -15.251  0.00  0.00    -0.088 HD
ATOM     22  H   UNK     1      38.049 -25.085 -15.441  0.00  0.00    -0.088 HD
ENDBRANCH  18  19
BRANCH  18  24
ATOM     23  O   UNK     1      41.291 -26.834 -14.080  0.00  0.00    -0.253 OA
ATOM     24  C   UNK     1      40.634 -26.063 -14.765  0.00  0.00    +0.295 C 
BRANCH  24  25
ATOM     25  O   UNK     1      40.636 -26.090 -16.124  0.00  0.00    -0.482 OA
ATOM     26  H   UNK     1      40.935 -25.344 -16.606  0.00  0.00    +0.295 HD
ENDBRANCH  24  25
ENDBRANCH  18  24
ENDBRANCH   3  18
TORSDOF 10
ENDMDL
MODEL 2
REMARK VINA RESULT:      -6.5      2.735      6.418
REMARK  Name = 17753793
REMARK  10 active torsions:
REMARK  status: ('A' for Active; 'I' for Inactive)
REMARK    1  A    between atoms: C_3  and  C_18
REMARK    2  A    between atoms: C_5  and  S_7
REMARK    3  A    between atoms: S_7  and  C_8
REMARK    4  A    between atoms: C_8  and  C_9
REMARK    5  A    between atoms: C_9  and  N_10
REMARK    6  A    between atoms: C_9  and  C_15
REMARK    7  A    between atoms: C_15  and  O_16
REMARK    8  A    between atoms: C_18  and  N_19
REMARK    9  A    between atoms: C_18  and  C_24
REMARK   10  A    between atoms: C_24  and  O_25
REMARK                            x       y       z     vdW  Elec       q    Type
REMARK                         _______ _______ _______ _____ _____    ______ ____
ROOT
ATOM      1  O   UNK     1      33.395 -24.834 -12.759  0.00  0.00    -0.289 OA
ATOM      2  N   UNK     1      34.786 -24.559 -12.387  0.00  0.00    -0.181 NA
ATOM      3  C   UNK     1      33.273 -24.678 -14.176  0.00  0.00    +0.130 C 
ATOM      4  C   UNK     1      34.490 -23.889 -14.598  0.00  0.00    +0.059 C 
ATOM      5  C   UNK     1      35.522 -24.440 -13.645  0.00  0.00    +0.129 C 
ATOM      6  H   UNK     1      35.162 -25.326 -11.829  0.00  0.00    +0.156 HD
ENDROOT
BRANCH   5   7
ATOM      7  S   UNK     1      36.969 -23.363 -13.514  0.00  0.00    -0.125 S 
BRANCH   7   8
ATOM      8  C   UNK     1      38.226 -24.634 -13.234  0.00  0.00    +0.048 C 
BRANCH   8   9
ATOM      9  C   UNK     1      38.553 -25.406 -14.513  0.00  0.00    +0.047 C 
BRANCH   9  10
ATOM     10  N   UNK     1      38.192 -26.816 -14.353  0.00  0.00    +0.389 N 
ATOM     11  H   UNK     1      38.879 -27.276 -13.755  0.00  0.00    -0.088 HD
ATOM     12  H   UNK     1      38.180 -27.270 -15.267  0.00  0.00    -0.088 HD
ATOM     13  H   UNK     1      37.268 -26.886 -13.927  0.00  0.00    -0.088 HD
ENDBRANCH   9  10
BRANCH   9  15
ATOM     14  O   UNK     1      40.866 -24.794 -14.153  0.00  0.00    -0.253 OA
ATOM     15  C   UNK     1      40.030 -25.349 -14.857  0.00  0.00    +0.294 C 
BRANCH  15  16
ATOM     16  O   UNK     1      40.339 -25.941 -16.039  0.00  0.00    -0.482 OA
ATOM     17  H   UNK     1      39.659 -26.287 -16.582  0.00  0.00    +0.295 HD
ENDBRANCH  15  16
ENDBRANCH   9  15
ENDBRANCH   8   9
ENDBRANCH   7   8
ENDBRANCH   5   7
BRANCH   3  18
ATOM     18  C   UNK     1      31.965 -23.984 -14.508  0.00  0.00    +0.065 C 
BRANCH  18  19
ATOM     19  N   UNK     1      31.882 -22.708 -13.795  0.00  0.00    +0.390 N 
ATOM     20  H   UNK     1      32.497 -22.732 -12.982  0.00  0.00    -0.088 HD
ATOM     21  H   UNK     1      30.922 -22.552 -13.491  0.00  0.00    -0.088 HD
ATOM     22  H   UNK     1      32.170 -21.952 -14.417  0.00  0.00    -0.088 HD
ENDBRANCH  18  19
BRANCH  18  24
ATOM     23  O   UNK     1      30.124 -25.571 -14.807  0.00  0.00    -0.253 OA
ATOM     24  C   UNK     1      30.779 -24.829 -14.089  0.00  0.00    +0.295 C 
BRANCH  24  25
ATOM     25  O   UNK     1      30.524 -24.662 -12.764  0.00  0.00    -0.482 OA
ATOM     26  H   UNK     1      31.137 -24.975 -12.127  0.00  0.00    +0.295 HD
ENDBRANCH  24  25
ENDBRANCH  18  24
ENDBRANCH   3  18
TORSDOF 10
ENDMDL
MODEL 3
REMARK VINA RESULT:      -6.5      3.923      7.969
REMARK  Name = 17753793
REMARK  10 active torsions:
REMARK  status: ('A' for Active; 'I' for Inactive)
REMARK    1  A    between atoms: C_3  and  C_18
REMARK    2  A    between atoms: C_5  and  S_7
REMARK    3  A    between atoms: S_7  and  C_8
REMARK    4  A    between atoms: C_8  and  C_9
REMARK    5  A    between atoms: C_9  and  N_10
REMARK    6  A    between atoms: C_9  and  C_15
REMARK    7  A    between atoms: C_15  and  O_16
REMARK    8  A    between atoms: C_18  and  N_19
REMARK    9  A    between atoms: C_18  and  C_24
REMARK   10  A    between atoms: C_24  and  O_25
REMARK                            x       y       z     vdW  Elec       q    Type
REMARK                         _______ _______ _______ _____ _____    ______ ____
ROOT
ATOM      1  O   UNK     1      31.040 -23.142 -16.497  0.00  0.00    -0.289 OA
ATOM      2  N   UNK     1      32.419 -23.476 -16.129  0.00  0.00    -0.181 NA
ATOM      3  C   UNK     1      30.311 -22.865 -15.298  0.00  0.00    +0.130 C 
ATOM      4  C   UNK     1      31.142 -23.454 -14.181  0.00  0.00    +0.059 C 
ATOM      5  C   UNK     1      32.534 -23.187 -14.700  0.00  0.00    +0.129 C 
ATOM      6  H   UNK     1      33.076 -22.903 -16.659  0.00  0.00    +0.156 HD
ENDROOT
BRANCH   5   7
ATOM      7  S   UNK     1      33.775 -24.209 -13.873  0.00  0.00    -0.125 S 
BRANCH   7   8
ATOM      8  C   UNK     1      34.959 -24.347 -15.233  0.00  0.00    +0.048 C 
BRANCH   8   9
ATOM      9  C   UNK     1      36.326 -24.838 -14.753  0.00  0.00    +0.047 C 
BRANCH   9  10
ATOM     10  N   UNK     1      37.391 -24.160 -15.494  0.00  0.00    +0.389 N 
ATOM     11  H   UNK     1      37.003 -23.744 -16.341  0.00  0.00    -0.088 HD
ATOM     12  H   UNK     1      38.112 -24.835 -15.748  0.00  0.00    -0.088 HD
ATOM     13  H   UNK     1      37.800 -23.429 -14.912  0.00  0.00    -0.088 HD
ENDBRANCH   9  10
BRANCH   9  15
ATOM     14  O   UNK     1      36.357 -26.885 -16.042  0.00  0.00    -0.253 OA
ATOM     15  C   UNK     1      36.506 -26.331 -14.959  0.00  0.00    +0.294 C 
BRANCH  15  16
ATOM     16  O   UNK     1      36.813 -27.007 -13.823  0.00  0.00    -0.482 OA
ATOM     17  H   UNK     1      37.301 -27.805 -13.870  0.00  0.00    +0.295 HD
ENDBRANCH  15  16
ENDBRANCH   9  15
ENDBRANCH   8   9
ENDBRANCH   7   8
ENDBRANCH   5   7
BRANCH   3  18
ATOM     18  C   UNK     1      28.920 -23.464 -15.388  0.00  0.00    +0.065 C 
BRANCH  18  19
ATOM     19  N   UNK     1      28.982 -24.907 -15.150  0.00  0.00    +0.390 N 
ATOM     20  H   UNK     1      28.060 -25.245 -14.874  0.00  0.00    -0.088 HD
ATOM     21  H   UNK     1      29.651 -25.100 -14.406  0.00  0.00    -0.088 HD
ATOM     22  H   UNK     1      29.276 -25.381 -16.005  0.00  0.00    -0.088 HD
ENDBRANCH  18  19
BRANCH  18  24
ATOM     23  O   UNK     1      27.812 -24.095 -17.479  0.00  0.00    -0.253 OA
ATOM     24  C   UNK     1      28.322 -23.245 -16.763  0.00  0.00    +0.295 C 
BRANCH  24  25
ATOM     25  O   UNK     1      28.417 -21.936 -17.116  0.00  0.00    -0.482 OA
ATOM     26  H   UNK     1      27.694 -21.358 -16.971  0.00  0.00    +0.295 HD
ENDBRANCH  24  25
ENDBRANCH  18  24
ENDBRANCH   3  18
TORSDOF 10
ENDMDL
MODEL 4
REMARK VINA RESULT:      -6.4      4.022      8.031
REMARK  Name = 17753793
REMARK  10 active torsions:
REMARK  status: ('A' for Active; 'I' for Inactive)
REMARK    1  A    between atoms: C_3  and  C_18
REMARK    2  A    between atoms: C_5  and  S_7
REMARK    3  A    between atoms: S_7  and  C_8
REMARK    4  A    between atoms: C_8  and  C_9
REMARK    5  A    between atoms: C_9  and  N_10
REMARK    6  A    between atoms: C_9  and  C_15
REMARK    7  A    between atoms: C_15  and  O_16
REMARK    8  A    between atoms: C_18  and  N_19
REMARK    9  A    between atoms: C_18  and  C_24
REMARK   10  A    between atoms: C_24  and  O_25
REMARK                            x       y       z     vdW  Elec       q    Type
REMARK                         _______ _______ _______ _____ _____    ______ ____
ROOT
ATOM      1  O   UNK     1      31.160 -22.880 -16.825  0.00  0.00    -0.289 OA
ATOM      2  N   UNK     1      32.595 -23.181 -16.792  0.00  0.00    -0.181 NA
ATOM      3  C   UNK     1      30.660 -22.942 -15.486  0.00  0.00    +0.130 C 
ATOM      4  C   UNK     1      31.704 -23.704 -14.704  0.00  0.00    +0.059 C 
ATOM      5  C   UNK     1      32.965 -23.218 -15.377  0.00  0.00    +0.129 C 
ATOM      6  H   UNK     1      33.121 -22.453 -17.276  0.00  0.00    +0.156 HD
ENDROOT
BRANCH   5   7
ATOM      7  S   UNK     1      34.373 -24.303 -15.047  0.00  0.00    -0.125 S 
BRANCH   7   8
ATOM      8  C   UNK     1      34.508 -24.034 -13.264  0.00  0.00    +0.048 C 
BRANCH   8   9
ATOM      9  C   UNK     1      35.890 -24.415 -12.731  0.00  0.00    +0.047 C 
BRANCH   9  10
ATOM     10  N   UNK     1      36.282 -25.728 -13.248  0.00  0.00    +0.389 N 
ATOM     11  H   UNK     1      35.787 -25.910 -14.122  0.00  0.00    -0.088 HD
ATOM     12  H   UNK     1      36.042 -26.448 -12.566  0.00  0.00    -0.088 HD
ATOM     13  H   UNK     1      37.287 -25.742 -13.417  0.00  0.00    -0.088 HD
ENDBRANCH   9  10
BRANCH   9  15
ATOM     14  O   UNK     1      35.159 -25.198 -10.562  0.00  0.00    -0.253 OA
ATOM     15  C   UNK     1      35.920 -24.495 -11.216  0.00  0.00    +0.294 C 
BRANCH  15  16
ATOM     16  O   UNK     1      36.848 -23.686 -10.644  0.00  0.00    -0.482 OA
ATOM     17  H   UNK     1      37.756 -23.801 -10.842  0.00  0.00    +0.295 HD
ENDBRANCH  15  16
ENDBRANCH   9  15
ENDBRANCH   8   9
ENDBRANCH   7   8
ENDBRANCH   5   7
BRANCH   3  18
ATOM     18  C   UNK     1      29.298 -23.611 -15.475  0.00  0.00    +0.065 C 
BRANCH  18  19
ATOM     19  N   UNK     1      29.456 -25.064 -15.410  0.00  0.00    +0.390 N 
ATOM     20  H   UNK     1      30.417 -25.312 -15.644  0.00  0.00    -0.088 HD
ATOM     21  H   UNK     1      28.820 -25.505 -16.073  0.00  0.00    -0.088 HD
ATOM     22  H   UNK     1      29.242 -25.388 -14.466  0.00  0.00    -0.088 HD
ENDBRANCH  18  19
BRANCH  18  24
ATOM     23  O   UNK     1      27.895 -24.071 -17.428  0.00  0.00    -0.253 OA
ATOM     24  C   UNK     1      28.520 -23.283 -16.733  0.00  0.00    +0.295 C 
BRANCH  24  25
ATOM     25  O   UNK     1      28.599 -21.953 -17.004  0.00  0.00    -0.482 OA
ATOM     26  H   UNK     1      27.954 -21.548 -17.550  0.00  0.00    +0.295 HD
ENDBRANCH  24  25
ENDBRANCH  18  24
ENDBRANCH   3  18
TORSDOF 10
ENDMDL
MODEL 5
REMARK VINA RESULT:      -6.3      3.712      4.468
REMARK  Name = 17753793
REMARK  10 active torsions:
REMARK  status: ('A' for Active; 'I' for Inactive)
REMARK    1  A    between atoms: C_3  and  C_18
REMARK    2  A    between atoms: C_5  and  S_7
REMARK    3  A    between atoms: S_7  and  C_8
REMARK    4  A    between atoms: C_8  and  C_9
REMARK    5  A    between atoms: C_9  and  N_10
REMARK    6  A    between atoms: C_9  and  C_15
REMARK    7  A    between atoms: C_15  and  O_16
REMARK    8  A    between atoms: C_18  and  N_19
REMARK    9  A    between atoms: C_18  and  C_24
REMARK   10  A    between atoms: C_24  and  O_25
REMARK                            x       y       z     vdW  Elec       q    Type
REMARK                         _______ _______ _______ _____ _____    ______ ____
ROOT
ATOM      1  O   UNK     1      36.271 -24.778 -15.203  0.00  0.00    -0.289 OA
ATOM      2  N   UNK     1      35.784 -23.726 -16.101  0.00  0.00    -0.181 NA
ATOM      3  C   UNK     1      37.603 -24.443 -14.803  0.00  0.00    +0.130 C 
ATOM      4  C   UNK     1      38.073 -23.411 -15.802  0.00  0.00    +0.059 C 
ATOM      5  C   UNK     1      36.787 -22.662 -16.054  0.00  0.00    +0.129 C 
ATOM      6  H   UNK     1      34.881 -23.376 -15.780  0.00  0.00    +0.156 HD
ENDROOT
BRANCH   5   7
ATOM      7  S   UNK     1      36.853 -21.690 -17.577  0.00  0.00    -0.125 S 
BRANCH   7   8
ATOM      8  C   UNK     1      35.260 -22.181 -18.279  0.00  0.00    +0.048 C 
BRANCH   8   9
ATOM      9  C   UNK     1      35.017 -21.541 -19.647  0.00  0.00    +0.047 C 
BRANCH   9  10
ATOM     10  N   UNK     1      35.884 -20.373 -19.815  0.00  0.00    +0.389 N 
ATOM     11  H   UNK     1      36.160 -20.020 -18.899  0.00  0.00    -0.088 HD
ATOM     12  H   UNK     1      35.380 -19.645 -20.322  0.00  0.00    -0.088 HD
ATOM     13  H   UNK     1      36.716 -20.639 -20.342  0.00  0.00    -0.088 HD
ENDBRANCH   9  10
BRANCH   9  15
ATOM     14  O   UNK     1      33.272 -20.071 -20.450  0.00  0.00    -0.253 OA
ATOM     15  C   UNK     1      33.584 -21.073 -19.816  0.00  0.00    +0.294 C 
BRANCH  15  16
ATOM     16  O   UNK     1      32.675 -21.847 -19.170  0.00  0.00    -0.482 OA
ATOM     17  H   UNK     1      31.857 -21.481 -18.898  0.00  0.00    +0.295 HD
ENDBRANCH  15  16
ENDBRANCH   9  15
ENDBRANCH   8   9
ENDBRANCH   7   8
ENDBRANCH   5   7
BRANCH   3  18
ATOM     18  C   UNK     1      38.465 -25.691 -14.782  0.00  0.00    +0.065 C 
BRANCH  18  19
ATOM     19  N   UNK     1      38.292 -26.396 -13.511  0.00  0.00    +0.390 N 
ATOM     20  H   UNK     1      38.535 -27.379 -13.632  0.00  0.00    -0.088 HD
ATOM     21  H   UNK     1      37.321 -26.320 -13.211  0.00  0.00    -0.088 HD
ATOM     22  H   UNK     1      38.900 -25.980 -12.806  0.00  0.00    -0.088 HD
ENDBRANCH  18  19
BRANCH  18  24
ATOM     23  O   UNK     1      40.614 -24.720 -14.120  0.00  0.00    -0.253 OA
ATOM     24  C   UNK     1      39.933 -25.341 -14.924  0.00  0.00    +0.295 C 
BRANCH  24  25
ATOM     25  O   UNK     1      40.422 -25.825 -16.096  0.00  0.00    -0.482 OA
ATOM     26  H   UNK     1      40.950 -26.600 -16.097  0.00  0.00    +0.295 HD
ENDBRANCH  24  25
ENDBRANCH  18  24
ENDBRANCH   3  18
TORSDOF 10
ENDMDL
MODEL 6
REMARK VINA RESULT:      -6.3      4.075      8.040
REMARK  Name = 17753793
REMARK  10 active torsions:
REMARK  status: ('A' for Active; 'I' for Inactive)
REMARK    1  A    between atoms: C_3  and  C_18
REMARK    2  A    between atoms: C_5  and  S_7
REMARK    3  A    between atoms: S_7  and  C_8
REMARK    4  A    between atoms: C_8  and  C_9
REMARK    5  A    between atoms: C_9  and  N_10
REMARK    6  A    between atoms: C_9  and  C_15
REMARK    7  A    between atoms: C_15  and  O_16
REMARK    8  A    between atoms: C_18  and  N_19
REMARK    9  A    between atoms: C_18  and  C_24
REMARK   10  A    between atoms: C_24  and  O_25
REMARK                            x       y       z     vdW  Elec       q    Type
REMARK                         _______ _______ _______ _____ _____    ______ ____
ROOT
ATOM      1  O   UNK     1      30.903 -22.981 -16.602  0.00  0.00    -0.289 OA
ATOM      2  N   UNK     1      32.300 -23.332 -16.329  0.00  0.00    -0.181 NA
ATOM      3  C   UNK     1      30.228 -22.827 -15.350  0.00  0.00    +0.130 C 
ATOM      4  C   UNK     1      31.113 -23.509 -14.332  0.00  0.00    +0.059 C 
ATOM      5  C   UNK     1      32.478 -23.178 -14.885  0.00  0.00    +0.129 C 
ATOM      6  H   UNK     1      32.928 -22.705 -16.831  0.00  0.00    +0.156 HD
ENDROOT
BRANCH   5   7
ATOM      7  S   UNK     1      33.762 -24.261 -14.216  0.00  0.00    -0.125 S 
BRANCH   7   8
ATOM      8  C   UNK     1      35.112 -23.796 -15.327  0.00  0.00    +0.048 C 
BRANCH   8   9
ATOM      9  C   UNK     1      36.369 -24.631 -15.080  0.00  0.00    +0.047 C 
BRANCH   9  10
ATOM     10  N   UNK     1      36.134 -25.581 -13.990  0.00  0.00    +0.389 N 
ATOM     11  H   UNK     1      36.914 -26.236 -13.936  0.00  0.00    -0.088 HD
ATOM     12  H   UNK     1      35.271 -26.096 -14.168  0.00  0.00    -0.088 HD
ATOM     13  H   UNK     1      36.052 -25.076 -13.109  0.00  0.00    -0.088 HD
ENDBRANCH   9  10
BRANCH   9  15
ATOM     14  O   UNK     1      37.637 -23.174 -13.624  0.00  0.00    -0.253 OA
ATOM     15  C   UNK     1      37.559 -23.776 -14.688  0.00  0.00    +0.294 C 
BRANCH  15  16
ATOM     16  O   UNK     1      38.522 -23.707 -15.644  0.00  0.00    -0.482 OA
ATOM     17  H   UNK     1      39.082 -22.958 -15.691  0.00  0.00    +0.295 HD
ENDBRANCH  15  16
ENDBRANCH   9  15
ENDBRANCH   8   9
ENDBRANCH   7   8
ENDBRANCH   5   7
BRANCH   3  18
ATOM     18  C   UNK     1      28.839 -23.431 -15.434  0.00  0.00    +0.065 C 
BRANCH  18  19
ATOM     19  N   UNK     1      28.905 -24.872 -15.191  0.00  0.00    +0.390 N 
ATOM     20  H   UNK     1      28.558 -25.075 -14.253  0.00  0.00    -0.088 HD
ATOM     21  H   UNK     1      29.871 -25.186 -15.271  0.00  0.00    -0.088 HD
ATOM     22  H   UNK     1      28.330 -25.360 -15.878  0.00  0.00    -0.088 HD
ENDBRANCH  18  19
BRANCH  18  24
ATOM     23  O   UNK     1      27.760 -24.078 -17.535  0.00  0.00    -0.253 OA
ATOM     24  C   UNK     1      28.236 -23.218 -16.808  0.00  0.00    +0.295 C 
BRANCH  24  25
ATOM     25  O   UNK     1      28.284 -21.902 -17.146  0.00  0.00    -0.482 OA
ATOM     26  H   UNK     1      27.510 -21.376 -17.088  0.00  0.00    +0.295 HD
ENDBRANCH  24  25
ENDBRANCH  18  24
ENDBRANCH   3  18
TORSDOF 10
ENDMDL
MODEL 7
REMARK VINA RESULT:      -6.3      3.988      5.387
REMARK  Name = 17753793
REMARK  10 active torsions:
REMARK  status: ('A' for Active; 'I' for Inactive)
REMARK    1  A    between atoms: C_3  and  C_18
REMARK    2  A    between atoms: C_5  and  S_7
REMARK    3  A    between atoms: S_7  and  C_8
REMARK    4  A    between atoms: C_8  and  C_9
REMARK    5  A    between atoms: C_9  and  N_10
REMARK    6  A    between atoms: C_9  and  C_15
REMARK    7  A    between atoms: C_15  and  O_16
REMARK    8  A    between atoms: C_18  and  N_19
REMARK    9  A    between atoms: C_18  and  C_24
REMARK   10  A    between atoms: C_24  and  O_25
REMARK                            x       y       z     vdW  Elec       q    Type
REMARK                         _______ _______ _______ _____ _____    ______ ____
ROOT
ATOM      1  O   UNK     1      33.945 -24.493 -12.696  0.00  0.00    -0.289 OA
ATOM      2  N   UNK     1      32.617 -24.355 -13.301  0.00  0.00    -0.181 NA
ATOM      3  C   UNK     1      34.899 -23.878 -13.566  0.00  0.00    +0.130 C 
ATOM      4  C   UNK     1      34.201 -23.751 -14.900  0.00  0.00    +0.059 C 
ATOM      5  C   UNK     1      32.790 -23.463 -14.448  0.00  0.00    +0.129 C 
ATOM      6  H   UNK     1      31.963 -23.948 -12.632  0.00  0.00    +0.156 HD
ENDROOT
BRANCH   5   7
ATOM      7  S   UNK     1      31.582 -23.762 -15.759  0.00  0.00    -0.125 S 
BRANCH   7   8
ATOM      8  C   UNK     1      30.207 -22.801 -15.083  0.00  0.00    +0.048 C 
BRANCH   8   9
ATOM      9  C   UNK     1      28.861 -23.489 -15.313  0.00  0.00    +0.047 C 
BRANCH   9  10
ATOM     10  N   UNK     1      29.006 -24.938 -15.158  0.00  0.00    +0.389 N 
ATOM     11  H   UNK     1      29.733 -25.276 -15.788  0.00  0.00    -0.088 HD
ATOM     12  H   UNK     1      28.122 -25.395 -15.384  0.00  0.00    -0.088 HD
ATOM     13  H   UNK     1      29.263 -25.154 -14.195  0.00  0.00    -0.088 HD
ENDBRANCH   9  10
BRANCH   9  15
ATOM     14  O   UNK     1      27.836 -24.110 -17.414  0.00  0.00    -0.253 OA
ATOM     15  C   UNK     1      28.313 -23.232 -16.705  0.00  0.00    +0.294 C 
BRANCH  15  16
ATOM     16  O   UNK     1      28.434 -21.942 -17.111  0.00  0.00    -0.482 OA
ATOM     17  H   UNK     1      29.254 -21.499 -17.025  0.00  0.00    +0.295 HD
ENDBRANCH  15  16
ENDBRANCH   9  15
ENDBRANCH   8   9
ENDBRANCH   7   8
ENDBRANCH   5   7
BRANCH   3  18
ATOM     18  C   UNK     1      36.159 -24.721 -13.628  0.00  0.00    +0.065 C 
BRANCH  18  19
ATOM     19  N   UNK     1      35.921 -25.915 -14.441  0.00  0.00    +0.390 N 
ATOM     20  H   UNK     1      36.027 -26.747 -13.861  0.00  0.00    -0.088 HD
ATOM     21  H   UNK     1      36.595 -25.945 -15.205  0.00  0.00    -0.088 HD
ATOM     22  H   UNK     1      34.975 -25.885 -14.822  0.00  0.00    -0.088 HD
ENDBRANCH  18  19
BRANCH  18  24
ATOM     23  O   UNK     1      36.871 -26.315 -11.911  0.00  0.00    -0.253 OA
ATOM     24  C   UNK     1      36.579 -25.175 -12.245  0.00  0.00    +0.295 C 
BRANCH  24  25
ATOM     25  O   UNK     1      36.600 -24.121 -11.388  0.00  0.00    -0.482 OA
ATOM     26  H   UNK     1      36.441 -23.254 -11.708  0.00  0.00    +0.295 HD
ENDBRANCH  24  25
ENDBRANCH  18  24
ENDBRANCH   3  18
TORSDOF 10
ENDMDL
MODEL 8
REMARK VINA RESULT:      -6.3      3.637      5.125
REMARK  Name = 17753793
REMARK  10 active torsions:
REMARK  status: ('A' for Active; 'I' for Inactive)
REMARK    1  A    between atoms: C_3  and  C_18
REMARK    2  A    between atoms: C_5  and  S_7
REMARK    3  A    between atoms: S_7  and  C_8
REMARK    4  A    between atoms: C_8  and  C_9
REMARK    5  A    between atoms: C_9  and  N_10
REMARK    6  A    between atoms: C_9  and  C_15
REMARK    7  A    between atoms: C_15  and  O_16
REMARK    8  A    between atoms: C_18  and  N_19
REMARK    9  A    between atoms: C_18  and  C_24
REMARK   10  A    between atoms: C_24  and  O_25
REMARK                            x       y       z     vdW  Elec       q    Type
REMARK                         _______ _______ _______ _____ _____    ______ ____
ROOT
ATOM      1  O   UNK     1      37.942 -23.931 -13.779  0.00  0.00    -0.289 OA
ATOM      2  N   UNK     1      38.210 -23.344 -15.096  0.00  0.00    -0.181 NA
ATOM      3  C   UNK     1      36.525 -23.968 -13.586  0.00  0.00    +0.130 C 
ATOM      4  C   UNK     1      35.957 -23.007 -14.605  0.00  0.00    +0.059 C 
ATOM      5  C   UNK     1      36.909 -23.228 -15.755  0.00  0.00    +0.129 C 
ATOM      6  H   UNK     1      38.827 -23.951 -15.635  0.00  0.00    +0.156 HD
ENDROOT
BRANCH   5   7
ATOM      7  S   UNK     1      36.848 -21.878 -16.957  0.00  0.00    -0.125 S 
BRANCH   7   8
ATOM      8  C   UNK     1      35.307 -22.329 -17.789  0.00  0.00    +0.048 C 
BRANCH   8   9
ATOM      9  C   UNK     1      35.266 -21.820 -19.231  0.00  0.00    +0.047 C 
BRANCH   9  10
ATOM     10  N   UNK     1      36.191 -20.696 -19.392  0.00  0.00    +0.389 N 
ATOM     11  H   UNK     1      36.972 -20.804 -18.745  0.00  0.00    -0.088 HD
ATOM     12  H   UNK     1      35.703 -19.823 -19.194  0.00  0.00    -0.088 HD
ATOM     13  H   UNK     1      36.543 -20.679 -20.350  0.00  0.00    -0.088 HD
ENDBRANCH   9  10
BRANCH   9  15
ATOM     14  O   UNK     1      33.691 -20.316 -20.284  0.00  0.00    -0.253 OA
ATOM     15  C   UNK     1      33.885 -21.334 -19.630  0.00  0.00    +0.294 C 
BRANCH  15  16
ATOM     16  O   UNK     1      32.875 -22.114 -19.166  0.00  0.00    -0.482 OA
ATOM     17  H   UNK     1      31.999 -21.784 -19.149  0.00  0.00    +0.295 HD
ENDBRANCH  15  16
ENDBRANCH   9  15
ENDBRANCH   8   9
ENDBRANCH   7   8
ENDBRANCH   5   7
BRANCH   3  18
ATOM     18  C   UNK     1      36.189 -23.590 -12.155  0.00  0.00    +0.065 C 
BRANCH  18  19
ATOM     19  N   UNK     1      37.321 -22.894 -11.543  0.00  0.00    +0.390 N 
ATOM     20  H   UNK     1      36.977 -22.128 -10.965  0.00  0.00    -0.088 HD
ATOM     21  H   UNK     1      37.927 -22.523 -12.274  0.00  0.00    -0.088 HD
ATOM     22  H   UNK     1      37.849 -23.547 -10.963  0.00  0.00    -0.088 HD
ENDBRANCH  18  19
BRANCH  18  24
ATOM     23  O   UNK     1      35.247 -24.861 -10.286  0.00  0.00    -0.253 OA
ATOM     24  C   UNK     1      35.894 -24.821 -11.323  0.00  0.00    +0.295 C 
BRANCH  24  25
ATOM     25  O   UNK     1      36.451 -25.922 -11.894  0.00  0.00    -0.482 OA
ATOM     26  H   UNK     1      36.128 -26.236 -12.716  0.00  0.00    +0.295 HD
ENDBRANCH  24  25
ENDBRANCH  18  24
ENDBRANCH   3  18
TORSDOF 10
ENDMDL
MODEL 9
REMARK VINA RESULT:      -6.2      3.117      6.620
REMARK  Name = 17753793
REMARK  10 active torsions:
REMARK  status: ('A' for Active; 'I' for Inactive)
REMARK    1  A    between atoms: C_3  and  C_18
REMARK    2  A    between atoms: C_5  and  S_7
REMARK    3  A    between atoms: S_7  and  C_8
REMARK    4  A    between atoms: C_8  and  C_9
REMARK    5  A    between atoms: C_9  and  N_10
REMARK    6  A    between atoms: C_9  and  C_15
REMARK    7  A    between atoms: C_15  and  O_16
REMARK    8  A    between atoms: C_18  and  N_19
REMARK    9  A    between atoms: C_18  and  C_24
REMARK   10  A    between atoms: C_24  and  O_25
REMARK                            x       y       z     vdW  Elec       q    Type
REMARK                         _______ _______ _______ _____ _____    ______ ____
ROOT
ATOM      1  O   UNK     1      33.136 -24.727 -13.009  0.00  0.00    -0.289 OA
ATOM      2  N   UNK     1      34.572 -24.502 -12.816  0.00  0.00    -0.181 NA
ATOM      3  C   UNK     1      32.839 -24.550 -14.397  0.00  0.00    +0.130 C 
ATOM      4  C   UNK     1      34.018 -23.796 -14.966  0.00  0.00    +0.059 C 
ATOM      5  C   UNK     1      35.145 -24.392 -14.157  0.00  0.00    +0.129 C 
ATOM      6  H   UNK     1      34.989 -25.287 -12.316  0.00  0.00    +0.156 HD
ENDROOT
BRANCH   5   7
ATOM      7  S   UNK     1      36.632 -23.365 -14.205  0.00  0.00    -0.125 S 
BRANCH   7   8
ATOM      8  C   UNK     1      37.869 -24.684 -14.233  0.00  0.00    +0.048 C 
BRANCH   8   9
ATOM      9  C   UNK     1      38.211 -25.178 -12.827  0.00  0.00    +0.047 C 
BRANCH   9  10
ATOM     10  N   UNK     1      37.309 -26.266 -12.444  0.00  0.00    +0.389 N 
ATOM     11  H   UNK     1      36.702 -25.953 -11.687  0.00  0.00    -0.088 HD
ATOM     12  H   UNK     1      37.856 -27.068 -12.131  0.00  0.00    -0.088 HD
ATOM     13  H   UNK     1      36.740 -26.535 -13.247  0.00  0.00    -0.088 HD
ENDBRANCH   9  10
BRANCH   9  15
ATOM     14  O   UNK     1      38.846 -23.136 -11.696  0.00  0.00    -0.253 OA
ATOM     15  C   UNK     1      38.074 -24.084 -11.784  0.00  0.00    +0.294 C 
BRANCH  15  16
ATOM     16  O   UNK     1      37.035 -24.269 -10.930  0.00  0.00    -0.482 OA
ATOM     17  H   UNK     1      36.580 -23.530 -10.579  0.00  0.00    +0.295 HD
ENDBRANCH  15  16
ENDBRANCH   9  15
ENDBRANCH   8   9
ENDBRANCH   7   8
ENDBRANCH   5   7
BRANCH   3  18
ATOM     18  C   UNK     1      31.524 -23.810 -14.553  0.00  0.00    +0.065 C 
BRANCH  18  19
ATOM     19  N   UNK     1      31.570 -22.549 -13.813  0.00  0.00    +0.390 N 
ATOM     20  H   UNK     1      32.464 -22.471 -13.328  0.00  0.00    -0.088 HD
ATOM     21  H   UNK     1      30.811 -22.527 -13.132  0.00  0.00    -0.088 HD
ATOM     22  H   UNK     1      31.467 -21.768 -14.462  0.00  0.00    -0.088 HD
ENDBRANCH  18  19
BRANCH  18  24
ATOM     23  O   UNK     1      29.483 -25.160 -14.660  0.00  0.00    -0.253 OA
ATOM     24  C   UNK     1      30.370 -24.628 -14.008  0.00  0.00    +0.295 C 
BRANCH  24  25
ATOM     25  O   UNK     1      30.448 -24.710 -12.653  0.00  0.00    -0.482 OA
ATOM     26  H   UNK     1      31.285 -24.696 -12.231  0.00  0.00    +0.295 HD
ENDBRANCH  24  25
ENDBRANCH  18  24
ENDBRANCH   3  18
TORSDOF 10
ENDMDL
