MODEL 1
REMARK VINA RESULT:      -8.8      0.000      0.000
REMARK  Name = 6914659
REMARK  10 active torsions:
REMARK  status: ('A' for Active; 'I' for Inactive)
REMARK    1  A    between atoms: C_1  and  C_3
REMARK    2  A    between atoms: C_1  and  C_7
REMARK    3  A    between atoms: C_1  and  C_10
REMARK    4  A    between atoms: C_1  and  C_23
REMARK    5  A    between atoms: C_3  and  O_4
REMARK    6  A    between atoms: C_7  and  O_8
REMARK    7  A    between atoms: C_10  and  C_11
REMARK    8  A    between atoms: C_16  and  N_17
REMARK    9  A    between atoms: N_17  and  S_19
REMARK   10  A    between atoms: C_23  and  C_24
REMARK                            x       y       z     vdW  Elec       q    Type
REMARK                         _______ _______ _______ _____ _____    ______ ____
ROOT
ATOM      1  C   UNL     1      35.256 -24.087 -14.362  0.00  0.00    +0.186 C 
ENDROOT
BRANCH   1   3
ATOM      2  O   UNL     1      34.869 -24.823 -12.046  0.00  0.00    -0.250 OA
ATOM      3  C   UNL     1      35.384 -24.024 -12.819  0.00  0.00    +0.327 C 
BRANCH   3   4
ATOM      4  O   UNL     1      36.108 -22.930 -12.436  0.00  0.00    -0.444 OA
ATOM      5  C   UNL     1      37.165 -23.179 -11.502  0.00  0.00    +0.256 C 
ENDBRANCH   3   4
ENDBRANCH   1   3
BRANCH   1   7
ATOM      6  O   UNL     1      37.654 -24.139 -14.872  0.00  0.00    -0.250 OA
ATOM      7  C   UNL     1      36.548 -24.653 -14.995  0.00  0.00    +0.327 C 
BRANCH   7   8
ATOM      8  O   UNL     1      36.285 -25.749 -15.765  0.00  0.00    -0.444 OA
ATOM      9  C   UNL     1      36.895 -26.972 -15.339  0.00  0.00    +0.256 C 
ENDBRANCH   7   8
ENDBRANCH   1   7
BRANCH   1  10
ATOM     10  C   UNL     1      33.998 -24.946 -14.702  0.00  0.00    +0.048 C 
BRANCH  10  11
ATOM     11  C   UNL     1      32.682 -24.197 -14.775  0.00  0.00    -0.021 C 
ATOM     12  C   UNL     1      31.964 -23.934 -13.608  0.00  0.00    -0.003 C 
ATOM     13  C   UNL     1      32.189 -23.772 -16.009  0.00  0.00    -0.003 C 
ATOM     14  C   UNL     1      30.753 -23.245 -13.675  0.00  0.00    +0.016 C 
ATOM     15  C   UNL     1      30.978 -23.083 -16.076  0.00  0.00    +0.016 C 
ATOM     16  C   UNL     1      30.260 -22.820 -14.910  0.00  0.00    +0.065 C 
BRANCH  16  17
ATOM     17  N   UNL     1      29.021 -22.115 -14.978  0.00  0.00    -0.213 N 
ATOM     18  H   UNL     1      28.829 -21.349 -14.389  0.00  0.00    +0.174 HD
BRANCH  17  19
ATOM     19  S   UNL     1      27.872 -22.672 -16.150  0.00  0.00    +0.091 S 
ATOM     20  O   UNL     1      26.420 -22.382 -15.468  0.00  0.00    -0.050 OA
ATOM     21  O   UNL     1      27.977 -21.842 -17.337  0.00  0.00    -0.050 OA
ATOM     22  O   UNL     1      28.012 -24.113 -16.260  0.00  0.00    -0.050 OA
ENDBRANCH  17  19
ENDBRANCH  16  17
ENDBRANCH  10  11
ENDBRANCH   1  10
BRANCH   1  23
ATOM     23  C   UNL     1      35.101 -22.612 -14.867  0.00  0.00    +0.048 C 
BRANCH  23  24
ATOM     24  C   UNL     1      35.472 -22.321 -16.303  0.00  0.00    -0.021 C 
ATOM     25  C   UNL     1      34.595 -22.661 -17.333  0.00  0.00    -0.004 C 
ATOM     26  C   UNL     1      36.691 -21.710 -16.599  0.00  0.00    -0.004 C 
ATOM     27  C   UNL     1      34.938 -22.392 -18.659  0.00  0.00    -0.000 C 
ATOM     28  C   UNL     1      37.032 -21.441 -17.924  0.00  0.00    -0.000 C 
ATOM     29  C   UNL     1      36.156 -21.782 -18.953  0.00  0.00    -0.000 C 
ENDBRANCH  23  24
ENDBRANCH   1  23
TORSDOF 10
ENDMDL
MODEL 2
REMARK VINA RESULT:      -8.4      3.648      5.940
REMARK  Name = 6914659
REMARK  10 active torsions:
REMARK  status: ('A' for Active; 'I' for Inactive)
REMARK    1  A    between atoms: C_1  and  C_3
REMARK    2  A    between atoms: C_1  and  C_7
REMARK    3  A    between atoms: C_1  and  C_10
REMARK    4  A    between atoms: C_1  and  C_23
REMARK    5  A    between atoms: C_3  and  O_4
REMARK    6  A    between atoms: C_7  and  O_8
REMARK    7  A    between atoms: C_10  and  C_11
REMARK    8  A    between atoms: C_16  and  N_17
REMARK    9  A    between atoms: N_17  and  S_19
REMARK   10  A    between atoms: C_23  and  C_24
REMARK                            x       y       z     vdW  Elec       q    Type
REMARK                         _______ _______ _______ _____ _____    ______ ____
ROOT
ATOM      1  C   UNL     1      35.837 -24.175 -14.418  0.00  0.00    +0.186 C 
ENDROOT
BRANCH   1   3
ATOM      2  O   UNL     1      36.978 -25.944 -15.692  0.00  0.00    -0.250 OA
ATOM      3  C   UNL     1      37.051 -24.907 -15.044  0.00  0.00    +0.327 C 
BRANCH   3   4
ATOM      4  O   UNL     1      38.218 -24.265 -14.733  0.00  0.00    -0.444 OA
ATOM      5  C   UNL     1      39.344 -25.111 -14.480  0.00  0.00    +0.256 C 
ENDBRANCH   3   4
ENDBRANCH   1   3
BRANCH   1   7
ATOM      6  O   UNL     1      35.652 -25.496 -12.360  0.00  0.00    -0.250 OA
ATOM      7  C   UNL     1      35.791 -24.399 -12.889  0.00  0.00    +0.327 C 
BRANCH   7   8
ATOM      8  O   UNL     1      35.852 -23.215 -12.212  0.00  0.00    -0.444 OA
ATOM      9  C   UNL     1      37.058 -22.976 -11.479  0.00  0.00    +0.256 C 
ENDBRANCH   7   8
ENDBRANCH   1   7
BRANCH   1  10
ATOM     10  C   UNL     1      35.941 -22.666 -14.799  0.00  0.00    +0.048 C 
BRANCH  10  11
ATOM     11  C   UNL     1      35.888 -22.348 -16.280  0.00  0.00    -0.021 C 
ATOM     12  C   UNL     1      36.958 -21.696 -16.893  0.00  0.00    -0.003 C 
ATOM     13  C   UNL     1      34.767 -22.707 -17.030  0.00  0.00    -0.003 C 
ATOM     14  C   UNL     1      36.908 -21.404 -18.256  0.00  0.00    +0.016 C 
ATOM     15  C   UNL     1      34.718 -22.415 -18.393  0.00  0.00    +0.016 C 
ATOM     16  C   UNL     1      35.788 -21.763 -19.006  0.00  0.00    +0.065 C 
BRANCH  16  17
ATOM     17  N   UNL     1      35.738 -21.464 -20.401  0.00  0.00    -0.213 N 
ATOM     18  H   UNL     1      36.069 -22.099 -21.077  0.00  0.00    +0.174 HD
BRANCH  17  19
ATOM     19  S   UNL     1      35.064 -19.930 -20.844  0.00  0.00    +0.091 S 
ATOM     20  O   UNL     1      35.070 -19.937 -22.474  0.00  0.00    -0.050 OA
ATOM     21  O   UNL     1      33.680 -19.884 -20.407  0.00  0.00    -0.050 OA
ATOM     22  O   UNL     1      35.992 -18.897 -20.418  0.00  0.00    -0.050 OA
ENDBRANCH  17  19
ENDBRANCH  16  17
ENDBRANCH  10  11
ENDBRANCH   1  10
BRANCH   1  23
ATOM     23  C   UNL     1      34.548 -24.833 -15.020  0.00  0.00    +0.048 C 
BRANCH  23  24
ATOM     24  C   UNL     1      33.211 -24.367 -14.491  0.00  0.00    -0.021 C 
ATOM     25  C   UNL     1      32.414 -25.237 -13.745  0.00  0.00    -0.004 C 
ATOM     26  C   UNL     1      32.774 -23.067 -14.746  0.00  0.00    -0.004 C 
ATOM     27  C   UNL     1      31.180 -24.807 -13.257  0.00  0.00    -0.000 C 
ATOM     28  C   UNL     1      31.541 -22.638 -14.257  0.00  0.00    -0.000 C 
ATOM     29  C   UNL     1      30.744 -23.507 -13.513  0.00  0.00    -0.000 C 
ENDBRANCH  23  24
ENDBRANCH   1  23
TORSDOF 10
ENDMDL
MODEL 3
REMARK VINA RESULT:      -8.1      1.454      3.918
REMARK  Name = 6914659
REMARK  10 active torsions:
REMARK  status: ('A' for Active; 'I' for Inactive)
REMARK    1  A    between atoms: C_1  and  C_3
REMARK    2  A    between atoms: C_1  and  C_7
REMARK    3  A    between atoms: C_1  and  C_10
REMARK    4  A    between atoms: C_1  and  C_23
REMARK    5  A    between atoms: C_3  and  O_4
REMARK    6  A    between atoms: C_7  and  O_8
REMARK    7  A    between atoms: C_10  and  C_11
REMARK    8  A    between atoms: C_16  and  N_17
REMARK    9  A    between atoms: N_17  and  S_19
REMARK   10  A    between atoms: C_23  and  C_24
REMARK                            x       y       z     vdW  Elec       q    Type
REMARK                         _______ _______ _______ _____ _____    ______ ____
ROOT
ATOM      1  C   UNL     1      36.013 -23.331 -15.781  0.00  0.00    +0.186 C 
ENDROOT
BRANCH   1   3
ATOM      2  O   UNL     1      38.361 -23.814 -15.223  0.00  0.00    -0.250 OA
ATOM      3  C   UNL     1      37.220 -24.225 -15.398  0.00  0.00    +0.327 C 
BRANCH   3   4
ATOM      4  O   UNL     1      36.849 -25.540 -15.330  0.00  0.00    -0.444 OA
ATOM      5  C   UNL     1      37.524 -26.326 -14.344  0.00  0.00    +0.256 C 
ENDBRANCH   3   4
ENDBRANCH   1   3
BRANCH   1   7
ATOM      6  O   UNL     1      37.140 -21.299 -16.567  0.00  0.00    -0.250 OA
ATOM      7  C   UNL     1      36.429 -22.266 -16.821  0.00  0.00    +0.327 C 
BRANCH   7   8
ATOM      8  O   UNL     1      35.847 -22.500 -18.033  0.00  0.00    -0.444 OA
ATOM      9  C   UNL     1      36.134 -21.545 -19.059  0.00  0.00    +0.256 C 
ENDBRANCH   7   8
ENDBRANCH   1   7
BRANCH   1  10
ATOM     10  C   UNL     1      34.876 -24.263 -16.302  0.00  0.00    +0.048 C 
BRANCH  10  11
ATOM     11  C   UNL     1      33.460 -23.758 -16.103  0.00  0.00    -0.021 C 
ATOM     12  C   UNL     1      32.796 -23.113 -17.147  0.00  0.00    -0.003 C 
ATOM     13  C   UNL     1      32.822 -23.937 -14.875  0.00  0.00    -0.003 C 
ATOM     14  C   UNL     1      31.494 -22.648 -16.963  0.00  0.00    +0.016 C 
ATOM     15  C   UNL     1      31.520 -23.473 -14.691  0.00  0.00    +0.016 C 
ATOM     16  C   UNL     1      30.856 -22.828 -15.735  0.00  0.00    +0.065 C 
BRANCH  16  17
ATOM     17  N   UNL     1      29.523 -22.352 -15.547  0.00  0.00    -0.213 N 
ATOM     18  H   UNL     1      29.338 -21.496 -15.099  0.00  0.00    +0.174 HD
BRANCH  17  19
ATOM     19  S   UNL     1      28.247 -23.358 -16.151  0.00  0.00    +0.091 S 
ATOM     20  O   UNL     1      26.878 -22.596 -15.697  0.00  0.00    -0.050 OA
ATOM     21  O   UNL     1      28.295 -23.353 -17.602  0.00  0.00    -0.050 OA
ATOM     22  O   UNL     1      28.293 -24.617 -15.430  0.00  0.00    -0.050 OA
ENDBRANCH  17  19
ENDBRANCH  16  17
ENDBRANCH  10  11
ENDBRANCH   1  10
BRANCH   1  23
ATOM     23  C   UNL     1      35.583 -22.566 -14.483  0.00  0.00    +0.048 C 
BRANCH  23  24
ATOM     24  C   UNL     1      35.871 -23.225 -13.153  0.00  0.00    -0.021 C 
ATOM     25  C   UNL     1      34.983 -24.168 -12.635  0.00  0.00    -0.004 C 
ATOM     26  C   UNL     1      37.024 -22.891 -12.444  0.00  0.00    -0.004 C 
ATOM     27  C   UNL     1      35.249 -24.776 -11.408  0.00  0.00    -0.000 C 
ATOM     28  C   UNL     1      37.290 -23.499 -11.218  0.00  0.00    -0.000 C 
ATOM     29  C   UNL     1      36.402 -24.441 -10.699  0.00  0.00    -0.000 C 
ENDBRANCH  23  24
ENDBRANCH   1  23
TORSDOF 10
ENDMDL
MODEL 4
REMARK VINA RESULT:      -7.7      4.112      7.614
REMARK  Name = 6914659
REMARK  10 active torsions:
REMARK  status: ('A' for Active; 'I' for Inactive)
REMARK    1  A    between atoms: C_1  and  C_3
REMARK    2  A    between atoms: C_1  and  C_7
REMARK    3  A    between atoms: C_1  and  C_10
REMARK    4  A    between atoms: C_1  and  C_23
REMARK    5  A    between atoms: C_3  and  O_4
REMARK    6  A    between atoms: C_7  and  O_8
REMARK    7  A    between atoms: C_10  and  C_11
REMARK    8  A    between atoms: C_16  and  N_17
REMARK    9  A    between atoms: N_17  and  S_19
REMARK   10  A    between atoms: C_23  and  C_24
REMARK                            x       y       z     vdW  Elec       q    Type
REMARK                         _______ _______ _______ _____ _____    ______ ____
ROOT
ATOM      1  C   UNL     1      33.798 -23.474 -16.223  0.00  0.00    +0.186 C 
ENDROOT
BRANCH   1   3
ATOM      2  O   UNL     1      35.373 -22.080 -14.947  0.00  0.00    -0.250 OA
ATOM      3  C   UNL     1      35.126 -22.719 -15.962  0.00  0.00    +0.327 C 
BRANCH   3   4
ATOM      4  O   UNL     1      35.964 -22.822 -17.038  0.00  0.00    -0.444 OA
ATOM      5  C   UNL     1      37.175 -22.065 -16.958  0.00  0.00    +0.256 C 
ENDBRANCH   3   4
ENDBRANCH   1   3
BRANCH   1   7
ATOM      6  O   UNL     1      33.702 -24.394 -18.495  0.00  0.00    -0.250 OA
ATOM      7  C   UNL     1      33.453 -23.468 -17.730  0.00  0.00    +0.327 C 
BRANCH   7   8
ATOM      8  O   UNL     1      32.906 -22.277 -18.111  0.00  0.00    -0.444 OA
ATOM      9  C   UNL     1      33.469 -21.676 -19.282  0.00  0.00    +0.256 C 
ENDBRANCH   7   8
ENDBRANCH   1   7
BRANCH   1  10
ATOM     10  C   UNL     1      33.949 -24.917 -15.651  0.00  0.00    +0.048 C 
BRANCH  10  11
ATOM     11  C   UNL     1      35.297 -25.253 -15.044  0.00  0.00    -0.021 C 
ATOM     12  C   UNL     1      36.143 -26.161 -15.682  0.00  0.00    -0.003 C 
ATOM     13  C   UNL     1      35.691 -24.657 -13.846  0.00  0.00    -0.003 C 
ATOM     14  C   UNL     1      37.383 -26.471 -15.123  0.00  0.00    +0.016 C 
ATOM     15  C   UNL     1      36.931 -24.966 -13.287  0.00  0.00    +0.016 C 
ATOM     16  C   UNL     1      37.777 -25.873 -13.925  0.00  0.00    +0.065 C 
BRANCH  16  17
ATOM     17  N   UNL     1      39.046 -26.190 -13.354  0.00  0.00    -0.213 N 
ATOM     18  H   UNL     1      39.124 -26.592 -12.459  0.00  0.00    +0.174 HD
BRANCH  17  19
ATOM     19  S   UNL     1      40.442 -25.833 -14.317  0.00  0.00    +0.091 S 
ATOM     20  O   UNL     1      41.534 -26.966 -13.888  0.00  0.00    -0.050 OA
ATOM     21  O   UNL     1      40.113 -26.043 -15.715  0.00  0.00    -0.050 OA
ATOM     22  O   UNL     1      40.966 -24.550 -13.883  0.00  0.00    -0.050 OA
ENDBRANCH  17  19
ENDBRANCH  16  17
ENDBRANCH  10  11
ENDBRANCH   1  10
BRANCH   1  23
ATOM     23  C   UNL     1      32.668 -22.677 -15.488  0.00  0.00    +0.048 C 
BRANCH  23  24
ATOM     24  C   UNL     1      31.360 -23.391 -15.232  0.00  0.00    -0.021 C 
ATOM     25  C   UNL     1      31.242 -24.264 -14.150  0.00  0.00    -0.004 C 
ATOM     26  C   UNL     1      30.270 -23.175 -16.076  0.00  0.00    -0.004 C 
ATOM     27  C   UNL     1      30.035 -24.922 -13.914  0.00  0.00    -0.000 C 
ATOM     28  C   UNL     1      29.064 -23.833 -15.838  0.00  0.00    -0.000 C 
ATOM     29  C   UNL     1      28.946 -24.707 -14.758  0.00  0.00    -0.000 C 
ENDBRANCH  23  24
ENDBRANCH   1  23
TORSDOF 10
ENDMDL
MODEL 5
REMARK VINA RESULT:      -7.6      4.128      6.156
REMARK  Name = 6914659
REMARK  10 active torsions:
REMARK  status: ('A' for Active; 'I' for Inactive)
REMARK    1  A    between atoms: C_1  and  C_3
REMARK    2  A    between atoms: C_1  and  C_7
REMARK    3  A    between atoms: C_1  and  C_10
REMARK    4  A    between atoms: C_1  and  C_23
REMARK    5  A    between atoms: C_3  and  O_4
REMARK    6  A    between atoms: C_7  and  O_8
REMARK    7  A    between atoms: C_10  and  C_11
REMARK    8  A    between atoms: C_16  and  N_17
REMARK    9  A    between atoms: N_17  and  S_19
REMARK   10  A    between atoms: C_23  and  C_24
REMARK                            x       y       z     vdW  Elec       q    Type
REMARK                         _______ _______ _______ _____ _____    ______ ____
ROOT
ATOM      1  C   UNL     1      34.738 -23.523 -15.969  0.00  0.00    +0.186 C 
ENDROOT
BRANCH   1   3
ATOM      2  O   UNL     1      35.242 -25.931 -15.918  0.00  0.00    -0.250 OA
ATOM      3  C   UNL     1      35.159 -24.865 -15.319  0.00  0.00    +0.327 C 
BRANCH   3   4
ATOM      4  O   UNL     1      35.377 -24.708 -13.978  0.00  0.00    -0.444 OA
ATOM      5  C   UNL     1      36.508 -25.406 -13.446  0.00  0.00    +0.256 C 
ENDBRANCH   3   4
ENDBRANCH   1   3
BRANCH   1   7
ATOM      6  O   UNL     1      35.871 -21.358 -15.760  0.00  0.00    -0.250 OA
ATOM      7  C   UNL     1      35.937 -22.550 -16.041  0.00  0.00    +0.327 C 
BRANCH   7   8
ATOM      8  O   UNL     1      37.052 -23.170 -16.523  0.00  0.00    -0.444 OA
ATOM      9  C   UNL     1      38.202 -23.142 -15.671  0.00  0.00    +0.256 C 
ENDBRANCH   7   8
ENDBRANCH   1   7
BRANCH   1  10
ATOM     10  C   UNL     1      34.141 -23.840 -17.375  0.00  0.00    +0.048 C 
BRANCH  10  11
ATOM     11  C   UNL     1      34.157 -22.701 -18.375  0.00  0.00    -0.021 C 
ATOM     12  C   UNL     1      32.989 -21.979 -18.629  0.00  0.00    -0.003 C 
ATOM     13  C   UNL     1      35.337 -22.375 -19.043  0.00  0.00    -0.003 C 
ATOM     14  C   UNL     1      33.004 -20.932 -19.550  0.00  0.00    +0.016 C 
ATOM     15  C   UNL     1      35.352 -21.327 -19.963  0.00  0.00    +0.016 C 
ATOM     16  C   UNL     1      34.186 -20.606 -20.217  0.00  0.00    +0.065 C 
BRANCH  16  17
ATOM     17  N   UNL     1      34.200 -19.533 -21.159  0.00  0.00    -0.213 N 
ATOM     18  H   UNL     1      33.467 -19.401 -21.803  0.00  0.00    +0.174 HD
BRANCH  17  19
ATOM     19  S   UNL     1      35.570 -18.473 -21.110  0.00  0.00    +0.091 S 
ATOM     20  O   UNL     1      36.018 -18.314 -22.670  0.00  0.00    -0.050 OA
ATOM     21  O   UNL     1      35.137 -17.170 -20.638  0.00  0.00    -0.050 OA
ATOM     22  O   UNL     1      36.646 -19.169 -20.427  0.00  0.00    -0.050 OA
ENDBRANCH  17  19
ENDBRANCH  16  17
ENDBRANCH  10  11
ENDBRANCH   1  10
BRANCH   1  23
ATOM     23  C   UNL     1      33.671 -22.873 -15.023  0.00  0.00    +0.048 C 
BRANCH  23  24
ATOM     24  C   UNL     1      32.287 -23.480 -15.005  0.00  0.00    -0.021 C 
ATOM     25  C   UNL     1      32.009 -24.557 -14.162  0.00  0.00    -0.004 C 
ATOM     26  C   UNL     1      31.287 -22.963 -15.828  0.00  0.00    -0.004 C 
ATOM     27  C   UNL     1      30.731 -25.117 -14.146  0.00  0.00    -0.000 C 
ATOM     28  C   UNL     1      30.010 -23.523 -15.810  0.00  0.00    -0.000 C 
ATOM     29  C   UNL     1      29.733 -24.600 -14.970  0.00  0.00    -0.000 C 
ENDBRANCH  23  24
ENDBRANCH   1  23
TORSDOF 10
ENDMDL
MODEL 6
REMARK VINA RESULT:      -7.4      1.919      3.973
REMARK  Name = 6914659
REMARK  10 active torsions:
REMARK  status: ('A' for Active; 'I' for Inactive)
REMARK    1  A    between atoms: C_1  and  C_3
REMARK    2  A    between atoms: C_1  and  C_7
REMARK    3  A    between atoms: C_1  and  C_10
REMARK    4  A    between atoms: C_1  and  C_23
REMARK    5  A    between atoms: C_3  and  O_4
REMARK    6  A    between atoms: C_7  and  O_8
REMARK    7  A    between atoms: C_10  and  C_11
REMARK    8  A    between atoms: C_16  and  N_17
REMARK    9  A    between atoms: N_17  and  S_19
REMARK   10  A    between atoms: C_23  and  C_24
REMARK                            x       y       z     vdW  Elec       q    Type
REMARK                         _______ _______ _______ _____ _____    ______ ____
ROOT
ATOM      1  C   UNL     1      34.929 -23.906 -15.357  0.00  0.00    +0.186 C 
ENDROOT
BRANCH   1   3
ATOM      2  O   UNL     1      33.753 -24.842 -17.305  0.00  0.00    -0.250 OA
ATOM      3  C   UNL     1      34.091 -23.858 -16.660  0.00  0.00    +0.327 C 
BRANCH   3   4
ATOM      4  O   UNL     1      33.822 -22.565 -17.017  0.00  0.00    -0.444 OA
ATOM      5  C   UNL     1      33.469 -22.360 -18.389  0.00  0.00    +0.256 C 
ENDBRANCH   3   4
ENDBRANCH   1   3
BRANCH   1   7
ATOM      6  O   UNL     1      36.498 -22.243 -14.469  0.00  0.00    -0.250 OA
ATOM      7  C   UNL     1      36.103 -22.903 -15.425  0.00  0.00    +0.327 C 
BRANCH   7   8
ATOM      8  O   UNL     1      36.592 -22.794 -16.694  0.00  0.00    -0.444 OA
ATOM      9  C   UNL     1      37.185 -21.535 -17.030  0.00  0.00    +0.256 C 
ENDBRANCH   7   8
ENDBRANCH   1   7
BRANCH   1  10
ATOM     10  C   UNL     1      33.968 -23.621 -14.161  0.00  0.00    +0.048 C 
BRANCH  10  11
ATOM     11  C   UNL     1      32.486 -23.705 -14.465  0.00  0.00    -0.021 C 
ATOM     12  C   UNL     1      31.748 -22.537 -14.666  0.00  0.00    -0.003 C 
ATOM     13  C   UNL     1      31.858 -24.948 -14.543  0.00  0.00    -0.003 C 
ATOM     14  C   UNL     1      30.384 -22.614 -14.945  0.00  0.00    +0.016 C 
ATOM     15  C   UNL     1      30.494 -25.025 -14.822  0.00  0.00    +0.016 C 
ATOM     16  C   UNL     1      29.757 -23.859 -15.023  0.00  0.00    +0.065 C 
BRANCH  16  17
ATOM     17  N   UNL     1      28.360 -23.937 -15.309  0.00  0.00    -0.213 N 
ATOM     18  H   UNL     1      27.746 -24.460 -14.746  0.00  0.00    +0.174 HD
BRANCH  17  19
ATOM     19  S   UNL     1      27.802 -23.063 -16.698  0.00  0.00    +0.091 S 
ATOM     20  O   UNL     1      26.407 -22.372 -16.211  0.00  0.00    -0.050 OA
ATOM     21  O   UNL     1      28.744 -21.998 -16.991  0.00  0.00    -0.050 OA
ATOM     22  O   UNL     1      27.462 -24.031 -17.726  0.00  0.00    -0.050 OA
ENDBRANCH  17  19
ENDBRANCH  16  17
ENDBRANCH  10  11
ENDBRANCH   1  10
BRANCH   1  23
ATOM     23  C   UNL     1      35.552 -25.341 -15.268  0.00  0.00    +0.048 C 
BRANCH  23  24
ATOM     24  C   UNL     1      36.853 -25.494 -14.514  0.00  0.00    -0.021 C 
ATOM     25  C   UNL     1      38.053 -25.626 -15.215  0.00  0.00    -0.004 C 
ATOM     26  C   UNL     1      36.855 -25.503 -13.120  0.00  0.00    -0.004 C 
ATOM     27  C   UNL     1      39.254 -25.768 -14.519  0.00  0.00    -0.000 C 
ATOM     28  C   UNL     1      38.056 -25.644 -12.425  0.00  0.00    -0.000 C 
ATOM     29  C   UNL     1      39.255 -25.777 -13.125  0.00  0.00    -0.000 C 
ENDBRANCH  23  24
ENDBRANCH   1  23
TORSDOF 10
ENDMDL
MODEL 7
REMARK VINA RESULT:      -7.3     10.834     13.661
REMARK  Name = 6914659
REMARK  10 active torsions:
REMARK  status: ('A' for Active; 'I' for Inactive)
REMARK    1  A    between atoms: C_1  and  C_3
REMARK    2  A    between atoms: C_1  and  C_7
REMARK    3  A    between atoms: C_1  and  C_10
REMARK    4  A    between atoms: C_1  and  C_23
REMARK    5  A    between atoms: C_3  and  O_4
REMARK    6  A    between atoms: C_7  and  O_8
REMARK    7  A    between atoms: C_10  and  C_11
REMARK    8  A    between atoms: C_16  and  N_17
REMARK    9  A    between atoms: N_17  and  S_19
REMARK   10  A    between atoms: C_23  and  C_24
REMARK                            x       y       z     vdW  Elec       q    Type
REMARK                         _______ _______ _______ _____ _____    ______ ____
ROOT
ATOM      1  C   UNL     1      33.169 -12.256 -23.697  0.00  0.00    +0.186 C 
ENDROOT
BRANCH   1   3
ATOM      2  O   UNL     1      32.745  -9.972 -24.508  0.00  0.00    -0.250 OA
ATOM      3  C   UNL     1      33.542 -10.806 -24.096  0.00  0.00    +0.327 C 
BRANCH   3   4
ATOM      4  O   UNL     1      34.888 -10.599 -23.972  0.00  0.00    -0.444 OA
ATOM      5  C   UNL     1      35.526  -9.969 -25.088  0.00  0.00    +0.256 C 
ENDBRANCH   3   4
ENDBRANCH   1   3
BRANCH   1   7
ATOM      6  O   UNL     1      32.313 -14.184 -24.948  0.00  0.00    -0.250 OA
ATOM      7  C   UNL     1      32.932 -13.126 -24.953  0.00  0.00    +0.327 C 
BRANCH   7   8
ATOM      8  O   UNL     1      33.560 -12.602 -26.046  0.00  0.00    -0.444 OA
ATOM      9  C   UNL     1      33.441 -13.357 -27.257  0.00  0.00    +0.256 C 
ENDBRANCH   7   8
ENDBRANCH   1   7
BRANCH   1  10
ATOM     10  C   UNL     1      34.314 -12.812 -22.794  0.00  0.00    +0.048 C 
BRANCH  10  11
ATOM     11  C   UNL     1      34.154 -14.245 -22.325  0.00  0.00    -0.021 C 
ATOM     12  C   UNL     1      33.490 -14.518 -21.129  0.00  0.00    -0.003 C 
ATOM     13  C   UNL     1      34.672 -15.290 -23.090  0.00  0.00    -0.003 C 
ATOM     14  C   UNL     1      33.344 -15.836 -20.698  0.00  0.00    +0.016 C 
ATOM     15  C   UNL     1      34.525 -16.609 -22.659  0.00  0.00    +0.016 C 
ATOM     16  C   UNL     1      33.862 -16.882 -21.464  0.00  0.00    +0.065 C 
BRANCH  16  17
ATOM     17  N   UNL     1      33.711 -18.231 -21.022  0.00  0.00    -0.213 N 
ATOM     18  H   UNL     1      32.868 -18.555 -20.628  0.00  0.00    +0.174 HD
BRANCH  17  19
ATOM     19  S   UNL     1      35.084 -19.271 -21.216  0.00  0.00    +0.091 S 
ATOM     20  O   UNL     1      34.761 -20.554 -20.263  0.00  0.00    -0.050 OA
ATOM     21  O   UNL     1      35.126 -19.739 -22.590  0.00  0.00    -0.050 OA
ATOM     22  O   UNL     1      36.237 -18.596 -20.646  0.00  0.00    -0.050 OA
ENDBRANCH  17  19
ENDBRANCH  16  17
ENDBRANCH  10  11
ENDBRANCH   1  10
BRANCH   1  23
ATOM     23  C   UNL     1      31.809 -12.181 -22.924  0.00  0.00    +0.048 C 
BRANCH  23  24
ATOM     24  C   UNL     1      31.768 -11.361 -21.654  0.00  0.00    -0.021 C 
ATOM     25  C   UNL     1      31.907  -9.974 -21.715  0.00  0.00    -0.004 C 
ATOM     26  C   UNL     1      31.590 -11.991 -20.423  0.00  0.00    -0.004 C 
ATOM     27  C   UNL     1      31.870  -9.218 -20.543  0.00  0.00    -0.000 C 
ATOM     28  C   UNL     1      31.552 -11.234 -19.252  0.00  0.00    -0.000 C 
ATOM     29  C   UNL     1      31.692  -9.848 -19.312  0.00  0.00    -0.000 C 
ENDBRANCH  23  24
ENDBRANCH   1  23
TORSDOF 10
ENDMDL
MODEL 8
REMARK VINA RESULT:      -7.3      1.927      3.038
REMARK  Name = 6914659
REMARK  10 active torsions:
REMARK  status: ('A' for Active; 'I' for Inactive)
REMARK    1  A    between atoms: C_1  and  C_3
REMARK    2  A    between atoms: C_1  and  C_7
REMARK    3  A    between atoms: C_1  and  C_10
REMARK    4  A    between atoms: C_1  and  C_23
REMARK    5  A    between atoms: C_3  and  O_4
REMARK    6  A    between atoms: C_7  and  O_8
REMARK    7  A    between atoms: C_10  and  C_11
REMARK    8  A    between atoms: C_16  and  N_17
REMARK    9  A    between atoms: N_17  and  S_19
REMARK   10  A    between atoms: C_23  and  C_24
REMARK                            x       y       z     vdW  Elec       q    Type
REMARK                         _______ _______ _______ _____ _____    ______ ____
ROOT
ATOM      1  C   UNL     1      35.356 -23.617 -14.194  0.00  0.00    +0.186 C 
ENDROOT
BRANCH   1   3
ATOM      2  O   UNL     1      33.858 -24.890 -12.714  0.00  0.00    -0.250 OA
ATOM      3  C   UNL     1      34.804 -24.121 -12.837  0.00  0.00    +0.327 C 
BRANCH   3   4
ATOM      4  O   UNL     1      35.485 -23.555 -11.795  0.00  0.00    -0.444 OA
ATOM      5  C   UNL     1      35.631 -24.373 -10.629  0.00  0.00    +0.256 C 
ENDBRANCH   3   4
ENDBRANCH   1   3
BRANCH   1   7
ATOM      6  O   UNL     1      35.366 -24.672 -16.408  0.00  0.00    -0.250 OA
ATOM      7  C   UNL     1      35.501 -24.786 -15.195  0.00  0.00    +0.327 C 
BRANCH   7   8
ATOM      8  O   UNL     1      35.724 -25.968 -14.549  0.00  0.00    -0.444 OA
ATOM      9  C   UNL     1      36.487 -26.940 -15.272  0.00  0.00    +0.256 C 
ENDBRANCH   7   8
ENDBRANCH   1   7
BRANCH   1  10
ATOM     10  C   UNL     1      34.397 -22.501 -14.714  0.00  0.00    +0.048 C 
BRANCH  10  11
ATOM     11  C   UNL     1      32.955 -22.915 -14.934  0.00  0.00    -0.021 C 
ATOM     12  C   UNL     1      32.036 -22.824 -13.888  0.00  0.00    -0.003 C 
ATOM     13  C   UNL     1      32.547 -23.388 -16.182  0.00  0.00    -0.003 C 
ATOM     14  C   UNL     1      30.709 -23.205 -14.090  0.00  0.00    +0.016 C 
ATOM     15  C   UNL     1      31.221 -23.769 -16.384  0.00  0.00    +0.016 C 
ATOM     16  C   UNL     1      30.302 -23.678 -15.339  0.00  0.00    +0.065 C 
BRANCH  16  17
ATOM     17  N   UNL     1      28.944 -24.067 -15.545  0.00  0.00    -0.213 N 
ATOM     18  H   UNL     1      28.586 -24.908 -15.178  0.00  0.00    +0.174 HD
BRANCH  17  19
ATOM     19  S   UNL     1      27.957 -22.985 -16.471  0.00  0.00    +0.091 S 
ATOM     20  O   UNL     1      27.476 -23.870 -17.754  0.00  0.00    -0.050 OA
ATOM     21  O   UNL     1      26.776 -22.650 -15.697  0.00  0.00    -0.050 OA
ATOM     22  O   UNL     1      28.813 -21.927 -16.979  0.00  0.00    -0.050 OA
ENDBRANCH  17  19
ENDBRANCH  16  17
ENDBRANCH  10  11
ENDBRANCH   1  10
BRANCH   1  23
ATOM     23  C   UNL     1      36.795 -23.060 -13.923  0.00  0.00    +0.048 C 
BRANCH  23  24
ATOM     24  C   UNL     1      37.957 -24.013 -14.081  0.00  0.00    -0.021 C 
ATOM     25  C   UNL     1      38.648 -24.076 -15.291  0.00  0.00    -0.004 C 
ATOM     26  C   UNL     1      38.340 -24.829 -13.016  0.00  0.00    -0.004 C 
ATOM     27  C   UNL     1      39.721 -24.956 -15.437  0.00  0.00    -0.000 C 
ATOM     28  C   UNL     1      39.412 -25.708 -13.162  0.00  0.00    -0.000 C 
ATOM     29  C   UNL     1      40.103 -25.772 -14.372  0.00  0.00    -0.000 C 
ENDBRANCH  23  24
ENDBRANCH   1  23
TORSDOF 10
ENDMDL
MODEL 9
REMARK VINA RESULT:      -7.1      3.871      7.075
REMARK  Name = 6914659
REMARK  10 active torsions:
REMARK  status: ('A' for Active; 'I' for Inactive)
REMARK    1  A    between atoms: C_1  and  C_3
REMARK    2  A    between atoms: C_1  and  C_7
REMARK    3  A    between atoms: C_1  and  C_10
REMARK    4  A    between atoms: C_1  and  C_23
REMARK    5  A    between atoms: C_3  and  O_4
REMARK    6  A    between atoms: C_7  and  O_8
REMARK    7  A    between atoms: C_10  and  C_11
REMARK    8  A    between atoms: C_16  and  N_17
REMARK    9  A    between atoms: N_17  and  S_19
REMARK   10  A    between atoms: C_23  and  C_24
REMARK                            x       y       z     vdW  Elec       q    Type
REMARK                         _______ _______ _______ _____ _____    ______ ____
ROOT
ATOM      1  C   UNL     1      33.113 -23.429 -15.035  0.00  0.00    +0.186 C 
ENDROOT
BRANCH   1   3
ATOM      2  O   UNL     1      33.289 -24.823 -13.015  0.00  0.00    -0.250 OA
ATOM      3  C   UNL     1      32.810 -24.649 -14.129  0.00  0.00    +0.327 C 
BRANCH   3   4
ATOM      4  O   UNL     1      31.975 -25.528 -14.761  0.00  0.00    -0.444 OA
ATOM      5  C   UNL     1      30.607 -25.500 -14.339  0.00  0.00    +0.256 C 
ENDBRANCH   3   4
ENDBRANCH   1   3
BRANCH   1   7
ATOM      6  O   UNL     1      31.645 -21.689 -14.121  0.00  0.00    -0.250 OA
ATOM      7  C   UNL     1      31.919 -22.446 -15.046  0.00  0.00    +0.327 C 
BRANCH   7   8
ATOM      8  O   UNL     1      31.174 -22.583 -16.181  0.00  0.00    -0.444 OA
ATOM      9  C   UNL     1      29.754 -22.563 -16.002  0.00  0.00    +0.256 C 
ENDBRANCH   7   8
ENDBRANCH   1   7
BRANCH   1  10
ATOM     10  C   UNL     1      34.427 -22.765 -14.518  0.00  0.00    +0.048 C 
BRANCH  10  11
ATOM     11  C   UNL     1      35.605 -23.698 -14.311  0.00  0.00    -0.021 C 
ATOM     12  C   UNL     1      35.798 -24.779 -15.172  0.00  0.00    -0.003 C 
ATOM     13  C   UNL     1      36.494 -23.476 -13.259  0.00  0.00    -0.003 C 
ATOM     14  C   UNL     1      36.881 -25.637 -14.980  0.00  0.00    +0.016 C 
ATOM     15  C   UNL     1      37.577 -24.333 -13.068  0.00  0.00    +0.016 C 
ATOM     16  C   UNL     1      37.770 -25.414 -13.928  0.00  0.00    +0.065 C 
BRANCH  16  17
ATOM     17  N   UNL     1      38.879 -26.292 -13.734  0.00  0.00    -0.213 N 
ATOM     18  H   UNL     1      38.797 -27.117 -13.203  0.00  0.00    +0.174 HD
BRANCH  17  19
ATOM     19  S   UNL     1      40.374 -25.834 -14.481  0.00  0.00    +0.091 S 
ATOM     20  O   UNL     1      41.443 -26.959 -13.978  0.00  0.00    -0.050 OA
ATOM     21  O   UNL     1      40.238 -25.965 -15.920  0.00  0.00    -0.050 OA
ATOM     22  O   UNL     1      40.788 -24.566 -13.906  0.00  0.00    -0.050 OA
ENDBRANCH  17  19
ENDBRANCH  16  17
ENDBRANCH  10  11
ENDBRANCH   1  10
BRANCH   1  23
ATOM     23  C   UNL     1      33.277 -23.973 -16.494  0.00  0.00    +0.048 C 
BRANCH  23  24
ATOM     24  C   UNL     1      33.838 -23.031 -17.535  0.00  0.00    -0.021 C 
ATOM     25  C   UNL     1      32.993 -22.466 -18.492  0.00  0.00    -0.004 C 
ATOM     26  C   UNL     1      35.198 -22.725 -17.539  0.00  0.00    -0.004 C 
ATOM     27  C   UNL     1      33.511 -21.597 -19.452  0.00  0.00    -0.000 C 
ATOM     28  C   UNL     1      35.715 -21.856 -18.499  0.00  0.00    -0.000 C 
ATOM     29  C   UNL     1      34.871 -21.292 -19.455  0.00  0.00    -0.000 C 
ENDBRANCH  23  24
ENDBRANCH   1  23
TORSDOF 10
ENDMDL
