MODEL 1
REMARK VINA RESULT:      -5.7      0.000      0.000
REMARK  Name = 7239
REMARK  0 active torsions:
REMARK  status: ('A' for Active; 'I' for Inactive)
REMARK                            x       y       z     vdW  Elec       q    Type
REMARK                         _______ _______ _______ _____ _____    ______ ____
ROOT
ATOM      1 CL   UNL     1      36.395 -18.669 -21.642  0.00  0.00    -0.081 Cl
ATOM      2 CL   UNL     1      36.974 -21.289 -19.835  0.00  0.00    -0.081 Cl
ATOM      3  C   UNL     1      35.122 -19.587 -20.919  0.00  0.00    +0.068 C 
ATOM      4  C   UNL     1      35.371 -20.718 -20.142  0.00  0.00    +0.068 C 
ATOM      5  C   UNL     1      33.810 -19.164 -21.135  0.00  0.00    +0.012 C 
ATOM      6  C   UNL     1      34.309 -21.427 -19.581  0.00  0.00    +0.012 C 
ATOM      7  C   UNL     1      32.748 -19.873 -20.574  0.00  0.00    +0.001 C 
ATOM      8  C   UNL     1      32.997 -21.004 -19.797  0.00  0.00    +0.001 C 
ENDROOT
TORSDOF 0
ENDMDL
MODEL 2
REMARK VINA RESULT:      -5.7      0.029      2.353
REMARK  Name = 7239
REMARK  0 active torsions:
REMARK  status: ('A' for Active; 'I' for Inactive)
REMARK                            x       y       z     vdW  Elec       q    Type
REMARK                         _______ _______ _______ _____ _____    ______ ____
ROOT
ATOM      1 CL   UNL     1      36.971 -21.275 -19.861  0.00  0.00    -0.081 Cl
ATOM      2 CL   UNL     1      36.392 -18.631 -21.633  0.00  0.00    -0.081 Cl
ATOM      3  C   UNL     1      35.369 -20.701 -20.160  0.00  0.00    +0.068 C 
ATOM      4  C   UNL     1      35.118 -19.560 -20.922  0.00  0.00    +0.068 C 
ATOM      5  C   UNL     1      34.307 -21.419 -19.611  0.00  0.00    +0.012 C 
ATOM      6  C   UNL     1      33.807 -19.136 -21.135  0.00  0.00    +0.012 C 
ATOM      7  C   UNL     1      32.994 -20.995 -19.823  0.00  0.00    +0.001 C 
ATOM      8  C   UNL     1      32.744 -19.854 -20.585  0.00  0.00    +0.001 C 
ENDROOT
TORSDOF 0
ENDMDL
MODEL 3
REMARK VINA RESULT:      -5.6      1.166      2.498
REMARK  Name = 7239
REMARK  0 active torsions:
REMARK  status: ('A' for Active; 'I' for Inactive)
REMARK                            x       y       z     vdW  Elec       q    Type
REMARK                         _______ _______ _______ _____ _____    ______ ____
ROOT
ATOM      1 CL   UNL     1      37.105 -19.464 -20.802  0.00  0.00    -0.081 Cl
ATOM      2 CL   UNL     1      34.168 -18.423 -21.673  0.00  0.00    -0.081 Cl
ATOM      3  C   UNL     1      35.659 -20.272 -20.308  0.00  0.00    +0.068 C 
ATOM      4  C   UNL     1      34.393 -19.822 -20.682  0.00  0.00    +0.068 C 
ATOM      5  C   UNL     1      35.788 -21.408 -19.510  0.00  0.00    +0.012 C 
ATOM      6  C   UNL     1      33.255 -20.508 -20.257  0.00  0.00    +0.012 C 
ATOM      7  C   UNL     1      34.650 -22.095 -19.085  0.00  0.00    +0.001 C 
ATOM      8  C   UNL     1      33.384 -21.645 -19.458  0.00  0.00    +0.001 C 
ENDROOT
TORSDOF 0
ENDMDL
MODEL 4
REMARK VINA RESULT:      -5.6      1.390      2.671
REMARK  Name = 7239
REMARK  0 active torsions:
REMARK  status: ('A' for Active; 'I' for Inactive)
REMARK                            x       y       z     vdW  Elec       q    Type
REMARK                         _______ _______ _______ _____ _____    ______ ____
ROOT
ATOM      1 CL   UNL     1      33.878 -22.687 -18.368  0.00  0.00    -0.081 Cl
ATOM      2 CL   UNL     1      36.777 -21.572 -19.273  0.00  0.00    -0.081 Cl
ATOM      3  C   UNL     1      34.053 -21.380 -19.486  0.00  0.00    +0.068 C 
ATOM      4  C   UNL     1      35.303 -20.898 -19.875  0.00  0.00    +0.068 C 
ATOM      5  C   UNL     1      32.892 -20.805 -20.002  0.00  0.00    +0.012 C 
ATOM      6  C   UNL     1      35.392 -19.841 -20.779  0.00  0.00    +0.012 C 
ATOM      7  C   UNL     1      32.981 -19.747 -20.908  0.00  0.00    +0.001 C 
ATOM      8  C   UNL     1      34.231 -19.265 -21.296  0.00  0.00    +0.001 C 
ENDROOT
TORSDOF 0
ENDMDL
MODEL 5
REMARK VINA RESULT:      -5.5      1.408      2.379
REMARK  Name = 7239
REMARK  0 active torsions:
REMARK  status: ('A' for Active; 'I' for Inactive)
REMARK                            x       y       z     vdW  Elec       q    Type
REMARK                         _______ _______ _______ _____ _____    ______ ____
ROOT
ATOM      1 CL   UNL     1      36.788 -21.590 -19.224  0.00  0.00    -0.081 Cl
ATOM      2 CL   UNL     1      33.898 -22.729 -18.321  0.00  0.00    -0.081 Cl
ATOM      3  C   UNL     1      35.310 -20.936 -19.836  0.00  0.00    +0.068 C 
ATOM      4  C   UNL     1      34.063 -21.429 -19.449  0.00  0.00    +0.068 C 
ATOM      5  C   UNL     1      35.390 -19.883 -20.747  0.00  0.00    +0.012 C 
ATOM      6  C   UNL     1      32.898 -20.869 -19.971  0.00  0.00    +0.012 C 
ATOM      7  C   UNL     1      34.225 -19.322 -21.270  0.00  0.00    +0.001 C 
ATOM      8  C   UNL     1      32.979 -19.815 -20.883  0.00  0.00    +0.001 C 
ENDROOT
TORSDOF 0
ENDMDL
MODEL 6
REMARK VINA RESULT:      -5.5      0.990      1.426
REMARK  Name = 7239
REMARK  0 active torsions:
REMARK  status: ('A' for Active; 'I' for Inactive)
REMARK                            x       y       z     vdW  Elec       q    Type
REMARK                         _______ _______ _______ _____ _____    ______ ____
ROOT
ATOM      1 CL   UNL     1      34.512 -17.853 -21.981  0.00  0.00    -0.081 Cl
ATOM      2 CL   UNL     1      37.148 -19.371 -20.878  0.00  0.00    -0.081 Cl
ATOM      3  C   UNL     1      34.414 -19.290 -21.026  0.00  0.00    +0.068 C 
ATOM      4  C   UNL     1      35.550 -19.946 -20.552  0.00  0.00    +0.068 C 
ATOM      5  C   UNL     1      33.146 -19.792 -20.732  0.00  0.00    +0.012 C 
ATOM      6  C   UNL     1      35.419 -21.103 -19.785  0.00  0.00    +0.012 C 
ATOM      7  C   UNL     1      33.014 -20.949 -19.965  0.00  0.00    +0.001 C 
ATOM      8  C   UNL     1      34.150 -21.606 -19.491  0.00  0.00    +0.001 C 
ENDROOT
TORSDOF 0
ENDMDL
MODEL 7
REMARK VINA RESULT:      -5.5      1.780      3.071
REMARK  Name = 7239
REMARK  0 active torsions:
REMARK  status: ('A' for Active; 'I' for Inactive)
REMARK                            x       y       z     vdW  Elec       q    Type
REMARK                         _______ _______ _______ _____ _____    ______ ____
ROOT
ATOM      1 CL   UNL     1      32.558 -19.900 -20.912  0.00  0.00    -0.081 Cl
ATOM      2 CL   UNL     1      35.352 -18.608 -21.906  0.00  0.00    -0.081 Cl
ATOM      3  C   UNL     1      34.086 -20.449 -20.321  0.00  0.00    +0.068 C 
ATOM      4  C   UNL     1      35.292 -19.894 -20.751  0.00  0.00    +0.068 C 
ATOM      5  C   UNL     1      34.090 -21.483 -19.384  0.00  0.00    +0.012 C 
ATOM      6  C   UNL     1      36.500 -20.371 -20.245  0.00  0.00    +0.012 C 
ATOM      7  C   UNL     1      35.299 -21.961 -18.878  0.00  0.00    +0.001 C 
ATOM      8  C   UNL     1      36.504 -21.405 -19.308  0.00  0.00    +0.001 C 
ENDROOT
TORSDOF 0
ENDMDL
MODEL 8
REMARK VINA RESULT:      -5.4      2.118      3.673
REMARK  Name = 7239
REMARK  0 active torsions:
REMARK  status: ('A' for Active; 'I' for Inactive)
REMARK                            x       y       z     vdW  Elec       q    Type
REMARK                         _______ _______ _______ _____ _____    ______ ____
ROOT
ATOM      1 CL   UNL     1      34.156 -22.418 -19.148  0.00  0.00    -0.081 Cl
ATOM      2 CL   UNL     1      32.530 -20.115 -20.735  0.00  0.00    -0.081 Cl
ATOM      3  C   UNL     1      34.952 -21.073 -19.886  0.00  0.00    +0.068 C 
ATOM      4  C   UNL     1      34.251 -20.081 -20.572  0.00  0.00    +0.068 C 
ATOM      5  C   UNL     1      36.340 -20.999 -19.779  0.00  0.00    +0.012 C 
ATOM      6  C   UNL     1      34.939 -19.015 -21.151  0.00  0.00    +0.012 C 
ATOM      7  C   UNL     1      37.029 -19.932 -20.358  0.00  0.00    +0.001 C 
ATOM      8  C   UNL     1      36.328 -18.940 -21.045  0.00  0.00    +0.001 C 
ENDROOT
TORSDOF 0
ENDMDL
MODEL 9
REMARK VINA RESULT:      -5.4      2.127      2.877
REMARK  Name = 7239
REMARK  0 active torsions:
REMARK  status: ('A' for Active; 'I' for Inactive)
REMARK                            x       y       z     vdW  Elec       q    Type
REMARK                         _______ _______ _______ _____ _____    ______ ____
ROOT
ATOM      1 CL   UNL     1      32.514 -20.124 -20.820  0.00  0.00    -0.081 Cl
ATOM      2 CL   UNL     1      34.069 -22.386 -19.108  0.00  0.00    -0.081 Cl
ATOM      3  C   UNL     1      34.228 -20.096 -20.603  0.00  0.00    +0.068 C 
ATOM      4  C   UNL     1      34.899 -21.070 -19.863  0.00  0.00    +0.068 C 
ATOM      5  C   UNL     1      34.943 -19.056 -21.196  0.00  0.00    +0.012 C 
ATOM      6  C   UNL     1      36.283 -21.004 -19.716  0.00  0.00    +0.012 C 
ATOM      7  C   UNL     1      36.329 -18.989 -21.049  0.00  0.00    +0.001 C 
ATOM      8  C   UNL     1      36.999 -19.963 -20.309  0.00  0.00    +0.001 C 
ENDROOT
TORSDOF 0
ENDMDL
