MODEL 1
REMARK VINA RESULT:      -9.1      0.000      0.000
REMARK  Name = 10107393
REMARK  3 active torsions:
REMARK  status: ('A' for Active; 'I' for Inactive)
REMARK    1  A    between atoms: C_3  and  C_11
REMARK    2  A    between atoms: C_8  and  O_20
REMARK    3  A    between atoms: C_14  and  N_17
REMARK                            x       y       z     vdW  Elec       q    Type
REMARK                         _______ _______ _______ _____ _____    ______ ____
ROOT
ATOM      1  S   UNL     1      34.552 -17.924 -24.181  0.00  0.00    -0.053 S 
ATOM      2  N   UNL     1      34.305 -16.398 -22.116  0.00  0.00    -0.399 NA
ATOM      3  C   UNL     1      34.626 -17.611 -22.502  0.00  0.00    +0.161 C 
ATOM      4  C   UNL     1      34.043 -16.299 -24.451  0.00  0.00    +0.061 C 
ATOM      5  C   UNL     1      33.967 -15.634 -23.223  0.00  0.00    +0.120 C 
ATOM      6  C   UNL     1      33.732 -15.658 -25.662  0.00  0.00    +0.045 C 
ATOM      7  C   UNL     1      33.566 -14.280 -23.210  0.00  0.00    +0.089 C 
ATOM      8  C   UNL     1      33.339 -14.319 -25.620  0.00  0.00    +0.130 C 
ATOM      9  C   UNL     1      33.257 -13.637 -24.411  0.00  0.00    +0.018 C 
ENDROOT
BRANCH   3  11
ATOM     10  F   UNL     1      33.539 -21.437 -19.778  0.00  0.00    -0.203 F 
ATOM     11  C   UNL     1      35.030 -18.678 -21.616  0.00  0.00    +0.038 C 
ATOM     12  C   UNL     1      34.076 -19.562 -21.113  0.00  0.00    +0.034 C 
ATOM     13  C   UNL     1      36.371 -18.823 -21.265  0.00  0.00    +0.004 C 
ATOM     14  C   UNL     1      35.807 -20.738 -19.905  0.00  0.00    +0.073 C 
ATOM     15  C   UNL     1      34.464 -20.593 -20.256  0.00  0.00    +0.153 C 
ATOM     16  C   UNL     1      36.760 -19.854 -20.409  0.00  0.00    +0.017 C 
BRANCH  14  17
ATOM     17  N   UNL     1      36.202 -21.779 -19.040  0.00  0.00    -0.330 N 
ATOM     18  C   UNL     1      36.769 -21.542 -17.748  0.00  0.00    +0.109 C 
ATOM     19  H   UNL     1      36.083 -22.710 -19.338  0.00  0.00    +0.147 HD
ENDBRANCH  14  17
ENDBRANCH   3  11
BRANCH   8  20
ATOM     20  O   UNL     1      33.031 -13.674 -26.781  0.00  0.00    -0.506 OA
ATOM     21  H   UNL     1      33.454 -12.865 -26.994  0.00  0.00    +0.292 HD
ENDBRANCH   8  20
TORSDOF 3
ENDMDL
MODEL 2
REMARK VINA RESULT:      -9.1      4.010      7.613
REMARK  Name = 10107393
REMARK  3 active torsions:
REMARK  status: ('A' for Active; 'I' for Inactive)
REMARK    1  A    between atoms: C_3  and  C_11
REMARK    2  A    between atoms: C_8  and  O_20
REMARK    3  A    between atoms: C_14  and  N_17
REMARK                            x       y       z     vdW  Elec       q    Type
REMARK                         _______ _______ _______ _____ _____    ______ ____
ROOT
ATOM      1  S   UNL     1      33.263 -20.047 -21.030  0.00  0.00    -0.053 S 
ATOM      2  N   UNL     1      35.809 -19.632 -21.021  0.00  0.00    -0.399 NA
ATOM      3  C   UNL     1      34.684 -19.291 -21.606  0.00  0.00    +0.161 C 
ATOM      4  C   UNL     1      34.207 -20.924 -19.884  0.00  0.00    +0.061 C 
ATOM      5  C   UNL     1      35.551 -20.568 -20.031  0.00  0.00    +0.120 C 
ATOM      6  C   UNL     1      33.788 -21.860 -18.924  0.00  0.00    +0.045 C 
ATOM      7  C   UNL     1      36.508 -21.172 -19.186  0.00  0.00    +0.089 C 
ATOM      8  C   UNL     1      34.755 -22.442 -18.101  0.00  0.00    +0.130 C 
ATOM      9  C   UNL     1      36.097 -22.104 -18.229  0.00  0.00    +0.018 C 
ENDROOT
BRANCH   3  11
ATOM     10  F   UNL     1      34.413 -14.738 -23.165  0.00  0.00    -0.203 F 
ATOM     11  C   UNL     1      34.573 -18.337 -22.685  0.00  0.00    +0.038 C 
ATOM     12  C   UNL     1      34.547 -16.971 -22.404  0.00  0.00    +0.034 C 
ATOM     13  C   UNL     1      34.492 -18.781 -24.003  0.00  0.00    +0.004 C 
ATOM     14  C   UNL     1      34.357 -16.493 -24.765  0.00  0.00    +0.073 C 
ATOM     15  C   UNL     1      34.438 -16.048 -23.445  0.00  0.00    +0.153 C 
ATOM     16  C   UNL     1      34.385 -17.859 -25.044  0.00  0.00    +0.017 C 
BRANCH  14  17
ATOM     17  N   UNL     1      34.248 -15.562 -25.819  0.00  0.00    -0.330 N 
ATOM     18  C   UNL     1      32.998 -15.008 -26.239  0.00  0.00    +0.109 C 
ATOM     19  H   UNL     1      35.068 -15.282 -26.287  0.00  0.00    +0.147 HD
ENDBRANCH  14  17
ENDBRANCH   3  11
BRANCH   8  20
ATOM     20  O   UNL     1      34.375 -23.354 -17.161  0.00  0.00    -0.506 OA
ATOM     21  H   UNL     1      33.473 -23.597 -17.081  0.00  0.00    +0.292 HD
ENDBRANCH   8  20
TORSDOF 3
ENDMDL
MODEL 3
REMARK VINA RESULT:      -9.0      4.053      7.606
REMARK  Name = 10107393
REMARK  3 active torsions:
REMARK  status: ('A' for Active; 'I' for Inactive)
REMARK    1  A    between atoms: C_3  and  C_11
REMARK    2  A    between atoms: C_8  and  O_20
REMARK    3  A    between atoms: C_14  and  N_17
REMARK                            x       y       z     vdW  Elec       q    Type
REMARK                         _______ _______ _______ _____ _____    ______ ____
ROOT
ATOM      1  S   UNL     1      36.399 -19.255 -21.027  0.00  0.00    -0.053 S 
ATOM      2  N   UNL     1      33.912 -19.897 -21.260  0.00  0.00    -0.399 NA
ATOM      3  C   UNL     1      34.854 -19.123 -21.747  0.00  0.00    +0.161 C 
ATOM      4  C   UNL     1      35.786 -20.457 -19.954  0.00  0.00    +0.061 C 
ATOM      5  C   UNL     1      34.431 -20.668 -20.230  0.00  0.00    +0.120 C 
ATOM      6  C   UNL     1      36.454 -21.161 -18.939  0.00  0.00    +0.045 C 
ATOM      7  C   UNL     1      33.724 -21.619 -19.463  0.00  0.00    +0.089 C 
ATOM      8  C   UNL     1      35.731 -22.096 -18.196  0.00  0.00    +0.130 C 
ATOM      9  C   UNL     1      34.384 -22.324 -18.453  0.00  0.00    +0.018 C 
ENDROOT
BRANCH   3  11
ATOM     10  F   UNL     1      34.570 -14.592 -23.366  0.00  0.00    -0.203 F 
ATOM     11  C   UNL     1      34.672 -18.186 -22.830  0.00  0.00    +0.038 C 
ATOM     12  C   UNL     1      34.710 -16.815 -22.576  0.00  0.00    +0.034 C 
ATOM     13  C   UNL     1      34.460 -18.651 -24.127  0.00  0.00    +0.004 C 
ATOM     14  C   UNL     1      34.321 -16.373 -24.920  0.00  0.00    +0.073 C 
ATOM     15  C   UNL     1      34.533 -15.908 -23.621  0.00  0.00    +0.153 C 
ATOM     16  C   UNL     1      34.285 -17.744 -25.173  0.00  0.00    +0.017 C 
BRANCH  14  17
ATOM     17  N   UNL     1      34.143 -15.458 -25.978  0.00  0.00    -0.330 N 
ATOM     18  C   UNL     1      32.871 -14.894 -26.312  0.00  0.00    +0.109 C 
ATOM     19  H   UNL     1      34.928 -15.196 -26.511  0.00  0.00    +0.147 HD
ENDBRANCH  14  17
ENDBRANCH   3  11
BRANCH   8  20
ATOM     20  O   UNL     1      36.356 -22.794 -17.205  0.00  0.00    -0.506 OA
ATOM     21  H   UNL     1      36.341 -22.474 -16.324  0.00  0.00    +0.292 HD
ENDBRANCH   8  20
TORSDOF 3
ENDMDL
MODEL 4
REMARK VINA RESULT:      -8.9      1.669      2.170
REMARK  Name = 10107393
REMARK  3 active torsions:
REMARK  status: ('A' for Active; 'I' for Inactive)
REMARK    1  A    between atoms: C_3  and  C_11
REMARK    2  A    between atoms: C_8  and  O_20
REMARK    3  A    between atoms: C_14  and  N_17
REMARK                            x       y       z     vdW  Elec       q    Type
REMARK                         _______ _______ _______ _____ _____    ______ ____
ROOT
ATOM      1  S   UNL     1      34.782 -17.114 -23.092  0.00  0.00    -0.053 S 
ATOM      2  N   UNL     1      33.214 -16.486 -21.142  0.00  0.00    -0.399 NA
ATOM      3  C   UNL     1      33.957 -17.451 -21.633  0.00  0.00    +0.161 C 
ATOM      4  C   UNL     1      34.102 -15.529 -23.098  0.00  0.00    +0.061 C 
ATOM      5  C   UNL     1      33.287 -15.377 -21.972  0.00  0.00    +0.120 C 
ATOM      6  C   UNL     1      34.277 -14.495 -24.033  0.00  0.00    +0.045 C 
ATOM      7  C   UNL     1      32.625 -14.145 -21.777  0.00  0.00    +0.089 C 
ATOM      8  C   UNL     1      33.611 -13.287 -23.815  0.00  0.00    +0.130 C 
ATOM      9  C   UNL     1      32.796 -13.112 -22.703  0.00  0.00    +0.018 C 
ENDROOT
BRANCH   3  11
ATOM     10  F   UNL     1      36.785 -21.050 -20.122  0.00  0.00    -0.203 F 
ATOM     11  C   UNL     1      34.118 -18.754 -21.031  0.00  0.00    +0.038 C 
ATOM     12  C   UNL     1      35.396 -19.287 -20.861  0.00  0.00    +0.034 C 
ATOM     13  C   UNL     1      32.999 -19.476 -20.620  0.00  0.00    +0.004 C 
ATOM     14  C   UNL     1      34.433 -21.269 -19.869  0.00  0.00    +0.073 C 
ATOM     15  C   UNL     1      35.553 -20.546 -20.280  0.00  0.00    +0.153 C 
ATOM     16  C   UNL     1      33.156 -20.734 -20.039  0.00  0.00    +0.017 C 
BRANCH  14  17
ATOM     17  N   UNL     1      34.589 -22.542 -19.282  0.00  0.00    -0.330 N 
ATOM     18  C   UNL     1      33.780 -23.001 -18.195  0.00  0.00    +0.109 C 
ATOM     19  H   UNL     1      35.286 -23.141 -19.636  0.00  0.00    +0.147 HD
ENDBRANCH  14  17
ENDBRANCH   3  11
BRANCH   8  20
ATOM     20  O   UNL     1      33.764 -12.267 -24.707  0.00  0.00    -0.506 OA
ATOM     21  H   UNL     1      34.015 -11.415 -24.407  0.00  0.00    +0.292 HD
ENDBRANCH   8  20
TORSDOF 3
ENDMDL
MODEL 5
REMARK VINA RESULT:      -8.9      3.914      7.461
REMARK  Name = 10107393
REMARK  3 active torsions:
REMARK  status: ('A' for Active; 'I' for Inactive)
REMARK    1  A    between atoms: C_3  and  C_11
REMARK    2  A    between atoms: C_8  and  O_20
REMARK    3  A    between atoms: C_14  and  N_17
REMARK                            x       y       z     vdW  Elec       q    Type
REMARK                         _______ _______ _______ _____ _____    ______ ____
ROOT
ATOM      1  S   UNL     1      33.065 -19.048 -21.011  0.00  0.00    -0.053 S 
ATOM      2  N   UNL     1      35.624 -18.741 -20.907  0.00  0.00    -0.399 NA
ATOM      3  C   UNL     1      34.508 -18.180 -21.311  0.00  0.00    +0.161 C 
ATOM      4  C   UNL     1      33.986 -20.302 -20.269  0.00  0.00    +0.061 C 
ATOM      5  C   UNL     1      35.340 -19.959 -20.307  0.00  0.00    +0.120 C 
ATOM      6  C   UNL     1      33.541 -21.504 -19.694  0.00  0.00    +0.045 C 
ATOM      7  C   UNL     1      36.281 -20.852 -19.750  0.00  0.00    +0.089 C 
ATOM      8  C   UNL     1      34.493 -22.369 -19.150  0.00  0.00    +0.130 C 
ATOM      9  C   UNL     1      35.845 -22.049 -19.176  0.00  0.00    +0.018 C 
ENDROOT
BRANCH   3  11
ATOM     10  F   UNL     1      34.194 -15.580 -25.358  0.00  0.00    -0.203 F 
ATOM     11  C   UNL     1      34.422 -16.903 -21.980  0.00  0.00    +0.038 C 
ATOM     12  C   UNL     1      34.347 -16.852 -23.372  0.00  0.00    +0.034 C 
ATOM     13  C   UNL     1      34.413 -15.725 -21.235  0.00  0.00    +0.004 C 
ATOM     14  C   UNL     1      34.256 -14.439 -23.275  0.00  0.00    +0.073 C 
ATOM     15  C   UNL     1      34.265 -15.619 -24.020  0.00  0.00    +0.153 C 
ATOM     16  C   UNL     1      34.330 -14.492 -21.883  0.00  0.00    +0.017 C 
BRANCH  14  17
ATOM     17  N   UNL     1      34.173 -13.192 -23.927  0.00  0.00    -0.330 N 
ATOM     18  C   UNL     1      33.263 -12.164 -23.525  0.00  0.00    +0.109 C 
ATOM     19  H   UNL     1      34.767 -13.021 -24.694  0.00  0.00    +0.147 HD
ENDBRANCH  14  17
ENDBRANCH   3  11
BRANCH   8  20
ATOM     20  O   UNL     1      34.087 -23.543 -18.586  0.00  0.00    -0.506 OA
ATOM     21  H   UNL     1      33.734 -24.224 -19.123  0.00  0.00    +0.292 HD
ENDBRANCH   8  20
TORSDOF 3
ENDMDL
MODEL 6
REMARK VINA RESULT:      -8.9      1.598      2.084
REMARK  Name = 10107393
REMARK  3 active torsions:
REMARK  status: ('A' for Active; 'I' for Inactive)
REMARK    1  A    between atoms: C_3  and  C_11
REMARK    2  A    between atoms: C_8  and  O_20
REMARK    3  A    between atoms: C_14  and  N_17
REMARK                            x       y       z     vdW  Elec       q    Type
REMARK                         _______ _______ _______ _____ _____    ______ ____
ROOT
ATOM      1  S   UNL     1      34.575 -19.153 -23.648  0.00  0.00    -0.053 S 
ATOM      2  N   UNL     1      34.103 -17.462 -21.757  0.00  0.00    -0.399 NA
ATOM      3  C   UNL     1      34.368 -18.723 -22.005  0.00  0.00    +0.161 C 
ATOM      4  C   UNL     1      34.290 -17.514 -24.101  0.00  0.00    +0.061 C 
ATOM      5  C   UNL     1      34.055 -16.755 -22.950  0.00  0.00    +0.120 C 
ATOM      6  C   UNL     1      34.274 -16.941 -25.383  0.00  0.00    +0.045 C 
ATOM      7  C   UNL     1      33.796 -15.374 -23.090  0.00  0.00    +0.089 C 
ATOM      8  C   UNL     1      34.016 -15.572 -25.494  0.00  0.00    +0.130 C 
ATOM      9  C   UNL     1      33.780 -14.798 -24.364  0.00  0.00    +0.018 C 
ENDROOT
BRANCH   3  11
ATOM     10  F   UNL     1      37.098 -21.596 -19.261  0.00  0.00    -0.203 F 
ATOM     11  C   UNL     1      34.492 -19.752 -20.999  0.00  0.00    +0.038 C 
ATOM     12  C   UNL     1      35.757 -20.188 -20.604  0.00  0.00    +0.034 C 
ATOM     13  C   UNL     1      33.350 -20.307 -20.424  0.00  0.00    +0.004 C 
ATOM     14  C   UNL     1      34.735 -21.738 -19.057  0.00  0.00    +0.073 C 
ATOM     15  C   UNL     1      35.878 -21.183 -19.633  0.00  0.00    +0.153 C 
ATOM     16  C   UNL     1      33.472 -21.301 -19.452  0.00  0.00    +0.017 C 
BRANCH  14  17
ATOM     17  N   UNL     1      34.856 -22.743 -18.076  0.00  0.00    -0.330 N 
ATOM     18  C   UNL     1      33.768 -23.145 -17.238  0.00  0.00    +0.109 C 
ATOM     19  H   UNL     1      35.726 -23.188 -17.961  0.00  0.00    +0.147 HD
ENDBRANCH  14  17
ENDBRANCH   3  11
BRANCH   8  20
ATOM     20  O   UNL     1      33.995 -14.991 -26.727  0.00  0.00    -0.506 OA
ATOM     21  H   UNL     1      34.381 -14.147 -26.854  0.00  0.00    +0.292 HD
ENDBRANCH   8  20
TORSDOF 3
ENDMDL
MODEL 7
REMARK VINA RESULT:      -8.8      6.321      9.518
REMARK  Name = 10107393
REMARK  3 active torsions:
REMARK  status: ('A' for Active; 'I' for Inactive)
REMARK    1  A    between atoms: C_3  and  C_11
REMARK    2  A    between atoms: C_8  and  O_20
REMARK    3  A    between atoms: C_14  and  N_17
REMARK                            x       y       z     vdW  Elec       q    Type
REMARK                         _______ _______ _______ _____ _____    ______ ____
ROOT
ATOM      1  S   UNL     1      33.908 -23.161 -16.506  0.00  0.00    -0.053 S 
ATOM      2  N   UNL     1      31.638 -22.556 -17.569  0.00  0.00    -0.399 NA
ATOM      3  C   UNL     1      32.937 -22.436 -17.712  0.00  0.00    +0.161 C 
ATOM      4  C   UNL     1      32.484 -23.699 -15.697  0.00  0.00    +0.061 C 
ATOM      5  C   UNL     1      31.362 -23.278 -16.417  0.00  0.00    +0.120 C 
ATOM      6  C   UNL     1      32.367 -24.439 -14.508  0.00  0.00    +0.045 C 
ATOM      7  C   UNL     1      30.080 -23.611 -15.930  0.00  0.00    +0.089 C 
ATOM      8  C   UNL     1      31.087 -24.756 -14.049  0.00  0.00    +0.130 C 
ATOM      9  C   UNL     1      29.957 -24.349 -14.749  0.00  0.00    +0.018 C 
ENDROOT
BRANCH   3  11
ATOM     10  F   UNL     1      36.890 -21.442 -20.285  0.00  0.00    -0.203 F 
ATOM     11  C   UNL     1      33.586 -21.743 -18.800  0.00  0.00    +0.038 C 
ATOM     12  C   UNL     1      34.950 -21.928 -19.026  0.00  0.00    +0.034 C 
ATOM     13  C   UNL     1      32.850 -20.893 -19.624  0.00  0.00    +0.004 C 
ATOM     14  C   UNL     1      34.842 -20.407 -20.901  0.00  0.00    +0.073 C 
ATOM     15  C   UNL     1      35.579 -21.259 -20.077  0.00  0.00    +0.153 C 
ATOM     16  C   UNL     1      33.479 -20.225 -20.675  0.00  0.00    +0.017 C 
BRANCH  14  17
ATOM     17  N   UNL     1      35.475 -19.730 -21.963  0.00  0.00    -0.330 N 
ATOM     18  C   UNL     1      36.106 -18.456 -21.806  0.00  0.00    +0.109 C 
ATOM     19  H   UNL     1      35.483 -20.152 -22.853  0.00  0.00    +0.147 HD
ENDBRANCH  14  17
ENDBRANCH   3  11
BRANCH   8  20
ATOM     20  O   UNL     1      30.946 -25.473 -12.898  0.00  0.00    -0.506 OA
ATOM     21  H   UNL     1      30.231 -25.296 -12.319  0.00  0.00    +0.292 HD
ENDBRANCH   8  20
TORSDOF 3
ENDMDL
MODEL 8
REMARK VINA RESULT:      -8.7     10.076     12.048
REMARK  Name = 10107393
REMARK  3 active torsions:
REMARK  status: ('A' for Active; 'I' for Inactive)
REMARK    1  A    between atoms: C_3  and  C_11
REMARK    2  A    between atoms: C_8  and  O_20
REMARK    3  A    between atoms: C_14  and  N_17
REMARK                            x       y       z     vdW  Elec       q    Type
REMARK                         _______ _______ _______ _____ _____    ______ ____
ROOT
ATOM      1  S   UNL     1      34.624 -23.817 -15.394  0.00  0.00    -0.053 S 
ATOM      2  N   UNL     1      33.557 -24.207 -13.079  0.00  0.00    -0.399 NA
ATOM      3  C   UNL     1      33.286 -23.992 -14.345  0.00  0.00    +0.161 C 
ATOM      4  C   UNL     1      35.689 -24.047 -14.058  0.00  0.00    +0.061 C 
ATOM      5  C   UNL     1      34.932 -24.241 -12.898  0.00  0.00    +0.120 C 
ATOM      6  C   UNL     1      37.094 -24.053 -14.037  0.00  0.00    +0.045 C 
ATOM      7  C   UNL     1      35.607 -24.450 -11.676  0.00  0.00    +0.089 C 
ATOM      8  C   UNL     1      37.736 -24.263 -12.814  0.00  0.00    +0.130 C 
ATOM      9  C   UNL     1      37.005 -24.459 -11.649  0.00  0.00    +0.018 C 
ENDROOT
BRANCH   3  11
ATOM     10  F   UNL     1      28.656 -25.333 -14.389  0.00  0.00    -0.203 F 
ATOM     11  C   UNL     1      31.955 -23.894 -14.897  0.00  0.00    +0.038 C 
ATOM     12  C   UNL     1      30.925 -24.672 -14.370  0.00  0.00    +0.034 C 
ATOM     13  C   UNL     1      31.701 -23.021 -15.954  0.00  0.00    +0.004 C 
ATOM     14  C   UNL     1      29.384 -23.706 -15.961  0.00  0.00    +0.073 C 
ATOM     15  C   UNL     1      29.639 -24.579 -14.902  0.00  0.00    +0.153 C 
ATOM     16  C   UNL     1      30.415 -22.927 -16.486  0.00  0.00    +0.017 C 
BRANCH  14  17
ATOM     17  N   UNL     1      28.085 -23.610 -16.501  0.00  0.00    -0.330 N 
ATOM     18  C   UNL     1      27.440 -22.359 -16.756  0.00  0.00    +0.109 C 
ATOM     19  H   UNL     1      27.600 -24.441 -16.711  0.00  0.00    +0.147 HD
ENDBRANCH  14  17
ENDBRANCH   3  11
BRANCH   8  20
ATOM     20  O   UNL     1      39.099 -24.274 -12.767  0.00  0.00    -0.506 OA
ATOM     21  H   UNL     1      39.539 -24.684 -12.048  0.00  0.00    +0.292 HD
ENDBRANCH   8  20
TORSDOF 3
ENDMDL
MODEL 9
REMARK VINA RESULT:      -8.7      2.352      2.982
REMARK  Name = 10107393
REMARK  3 active torsions:
REMARK  status: ('A' for Active; 'I' for Inactive)
REMARK    1  A    between atoms: C_3  and  C_11
REMARK    2  A    between atoms: C_8  and  O_20
REMARK    3  A    between atoms: C_14  and  N_17
REMARK                            x       y       z     vdW  Elec       q    Type
REMARK                         _______ _______ _______ _____ _____    ______ ____
ROOT
ATOM      1  S   UNL     1      32.745 -15.539 -20.717  0.00  0.00    -0.053 S 
ATOM      2  N   UNL     1      34.393 -15.605 -22.700  0.00  0.00    -0.399 NA
ATOM      3  C   UNL     1      33.947 -16.291 -21.674  0.00  0.00    +0.161 C 
ATOM      4  C   UNL     1      32.802 -14.159 -21.748  0.00  0.00    +0.061 C 
ATOM      5  C   UNL     1      33.746 -14.379 -22.756  0.00  0.00    +0.120 C 
ATOM      6  C   UNL     1      32.065 -12.965 -21.671  0.00  0.00    +0.045 C 
ATOM      7  C   UNL     1      33.959 -13.369 -23.718  0.00  0.00    +0.089 C 
ATOM      8  C   UNL     1      32.294 -11.982 -22.636  0.00  0.00    +0.130 C 
ATOM      9  C   UNL     1      33.227 -12.180 -23.647  0.00  0.00    +0.018 C 
ENDROOT
BRANCH   3  11
ATOM     10  F   UNL     1      37.514 -19.420 -20.827  0.00  0.00    -0.203 F 
ATOM     11  C   UNL     1      34.397 -17.613 -21.307  0.00  0.00    +0.038 C 
ATOM     12  C   UNL     1      35.763 -17.888 -21.240  0.00  0.00    +0.034 C 
ATOM     13  C   UNL     1      33.468 -18.612 -21.019  0.00  0.00    +0.004 C 
ATOM     14  C   UNL     1      35.270 -20.165 -20.599  0.00  0.00    +0.073 C 
ATOM     15  C   UNL     1      36.200 -19.166 -20.887  0.00  0.00    +0.153 C 
ATOM     16  C   UNL     1      33.905 -19.889 -20.665  0.00  0.00    +0.017 C 
BRANCH  14  17
ATOM     17  N   UNL     1      35.709 -21.457 -20.242  0.00  0.00    -0.330 N 
ATOM     18  C   UNL     1      35.804 -21.897 -18.884  0.00  0.00    +0.109 C 
ATOM     19  H   UNL     1      35.961 -22.083 -20.958  0.00  0.00    +0.147 HD
ENDBRANCH  14  17
ENDBRANCH   3  11
BRANCH   8  20
ATOM     20  O   UNL     1      31.592 -10.815 -22.583  0.00  0.00    -0.506 OA
ATOM     21  H   UNL     1      30.737 -10.764 -22.962  0.00  0.00    +0.292 HD
ENDBRANCH   8  20
TORSDOF 3
ENDMDL
