MODEL 1
REMARK VINA RESULT:     -10.5      0.000      0.000
REMARK  Name = 24756910
REMARK  12 active torsions:
REMARK  status: ('A' for Active; 'I' for Inactive)
REMARK    1  A    between atoms: N_1  and  C_13
REMARK    2  A    between atoms: C_4  and  O_23
REMARK    3  A    between atoms: C_7  and  O_21
REMARK    4  A    between atoms: C_16  and  C_19
REMARK    5  A    between atoms: O_23  and  C_24
REMARK    6  A    between atoms: C_24  and  C_25
REMARK    7  A    between atoms: C_25  and  C_26
REMARK    8  A    between atoms: C_26  and  C_27
REMARK    9  A    between atoms: C_27  and  C_28
REMARK   10  A    between atoms: C_28  and  C_29
REMARK   11  A    between atoms: C_29  and  C_32
REMARK   12  A    between atoms: N_31  and  O_34
REMARK                            x       y       z     vdW  Elec       q    Type
REMARK                         _______ _______ _______ _____ _____    ______ ____
ROOT
ATOM      1  N   UNL     1      33.843 -12.877 -23.609  0.00  0.00    -0.298 N 
ATOM      2  N   UNL     1      33.166 -15.653 -26.604  0.00  0.00    -0.248 NA
ATOM      3  N   UNL     1      32.987 -13.412 -25.734  0.00  0.00    -0.230 NA
ATOM      4  C   UNL     1      35.118 -16.896 -23.136  0.00  0.00    +0.169 C 
ATOM      5  C   UNL     1      34.052 -15.149 -24.433  0.00  0.00    +0.048 C 
ATOM      6  C   UNL     1      34.710 -15.572 -23.265  0.00  0.00    +0.044 C 
ATOM      7  C   UNL     1      34.869 -17.794 -24.169  0.00  0.00    +0.156 C 
ATOM      8  C   UNL     1      33.796 -16.046 -25.483  0.00  0.00    +0.066 C 
ATOM      9  C   UNL     1      34.214 -17.365 -25.327  0.00  0.00    +0.112 C 
ATOM     10  C   UNL     1      33.619 -13.840 -24.625  0.00  0.00    +0.131 C 
ATOM     11  C   UNL     1      32.796 -14.358 -26.668  0.00  0.00    +0.252 C 
ATOM     12  H   UNL     1      34.651 -13.047 -23.072  0.00  0.00    +0.154 HD
ENDROOT
BRANCH   1  13
ATOM     13  C   UNL     1      33.136 -11.729 -23.219  0.00  0.00    +0.050 C 
ATOM     14  C   UNL     1      33.567 -10.470 -23.637  0.00  0.00    +0.023 C 
ATOM     15  C   UNL     1      32.003 -11.847 -22.415  0.00  0.00    +0.015 C 
ATOM     16  C   UNL     1      32.865  -9.328 -23.250  0.00  0.00    +0.044 C 
ATOM     17  C   UNL     1      31.301 -10.706 -22.028  0.00  0.00    +0.002 C 
ATOM     18  C   UNL     1      31.731  -9.447 -22.446  0.00  0.00    +0.008 C 
BRANCH  16  19
ATOM     19  C   UNL     1      33.306  -8.038 -23.678  0.00  0.00    -0.051 C 
ATOM     20  C   UNL     1      33.677  -6.955 -24.039  0.00  0.00    -0.009 C 
ENDBRANCH  16  19
ENDBRANCH   1  13
BRANCH   7  21
ATOM     21  O   UNL     1      35.260 -19.095 -24.065  0.00  0.00    -0.472 OA
ATOM     22  C   UNL     1      34.819 -19.988 -25.085  0.00  0.00    +0.252 C 
ENDBRANCH   7  21
BRANCH   4  23
ATOM     23  O   UNL     1      35.761 -17.301 -21.995  0.00  0.00    -0.473 OA
BRANCH  23  24
ATOM     24  C   UNL     1      34.980 -17.368 -20.809  0.00  0.00    +0.206 C 
BRANCH  24  25
ATOM     25  C   UNL     1      33.867 -18.392 -20.981  0.00  0.00    +0.047 C 
BRANCH  25  26
ATOM     26  C   UNL     1      34.364 -19.814 -20.726  0.00  0.00    +0.004 C 
BRANCH  26  27
ATOM     27  C   UNL     1      33.243 -20.705 -20.188  0.00  0.00    +0.001 C 
BRANCH  27  28
ATOM     28  C   UNL     1      33.799 -21.840 -19.328  0.00  0.00    +0.010 C 
BRANCH  28  29
ATOM     29  C   UNL     1      35.324 -21.888 -19.390  0.00  0.00    +0.087 C 
BRANCH  29  32
ATOM     30  O   UNL     1      35.501 -22.723 -17.148  0.00  0.00    -0.273 OA
ATOM     31  N   UNL     1      36.930 -21.031 -17.817  0.00  0.00    -0.197 N 
ATOM     32  C   UNL     1      35.920 -21.942 -18.000  0.00  0.00    +0.244 C 
ATOM     33  H   UNL     1      37.226 -20.429 -18.537  0.00  0.00    +0.182 HD
BRANCH  31  34
ATOM     34  O   UNL     1      37.513 -21.011 -16.543  0.00  0.00    -0.295 OA
ATOM     35  H   UNL     1      38.075 -20.226 -16.457  0.00  0.00    +0.241 HD
ENDBRANCH  31  34
ENDBRANCH  29  32
ENDBRANCH  28  29
ENDBRANCH  27  28
ENDBRANCH  26  27
ENDBRANCH  25  26
ENDBRANCH  24  25
ENDBRANCH  23  24
ENDBRANCH   4  23
TORSDOF 12
ENDMDL
MODEL 2
REMARK VINA RESULT:     -10.5      3.455      9.551
REMARK  Name = 24756910
REMARK  12 active torsions:
REMARK  status: ('A' for Active; 'I' for Inactive)
REMARK    1  A    between atoms: N_1  and  C_13
REMARK    2  A    between atoms: C_4  and  O_23
REMARK    3  A    between atoms: C_7  and  O_21
REMARK    4  A    between atoms: C_16  and  C_19
REMARK    5  A    between atoms: O_23  and  C_24
REMARK    6  A    between atoms: C_24  and  C_25
REMARK    7  A    between atoms: C_25  and  C_26
REMARK    8  A    between atoms: C_26  and  C_27
REMARK    9  A    between atoms: C_27  and  C_28
REMARK   10  A    between atoms: C_28  and  C_29
REMARK   11  A    between atoms: C_29  and  C_32
REMARK   12  A    between atoms: N_31  and  O_34
REMARK                            x       y       z     vdW  Elec       q    Type
REMARK                         _______ _______ _______ _____ _____    ______ ____
ROOT
ATOM      1  N   UNL     1      34.327 -18.335 -21.702  0.00  0.00    -0.298 N 
ATOM      2  N   UNL     1      34.416 -17.486 -25.752  0.00  0.00    -0.248 NA
ATOM      3  N   UNL     1      34.602 -19.049 -23.926  0.00  0.00    -0.230 NA
ATOM      4  C   UNL     1      33.653 -14.379 -23.078  0.00  0.00    +0.169 C 
ATOM      5  C   UNL     1      34.129 -16.717 -23.498  0.00  0.00    +0.048 C 
ATOM      6  C   UNL     1      33.871 -15.668 -22.600  0.00  0.00    +0.044 C 
ATOM      7  C   UNL     1      33.692 -14.140 -24.448  0.00  0.00    +0.156 C 
ATOM      8  C   UNL     1      34.170 -16.489 -24.883  0.00  0.00    +0.066 C 
ATOM      9  C   UNL     1      33.949 -15.191 -25.335  0.00  0.00    +0.112 C 
ATOM     10  C   UNL     1      34.354 -18.027 -23.085  0.00  0.00    +0.131 C 
ATOM     11  C   UNL     1      34.619 -18.711 -25.226  0.00  0.00    +0.252 C 
ATOM     12  H   UNL     1      33.723 -17.759 -21.178  0.00  0.00    +0.154 HD
ENDROOT
BRANCH   1  13
ATOM     13  C   UNL     1      34.994 -19.302 -20.932  0.00  0.00    +0.050 C 
ATOM     14  C   UNL     1      34.266 -20.298 -20.282  0.00  0.00    +0.023 C 
ATOM     15  C   UNL     1      36.383 -19.266 -20.820  0.00  0.00    +0.015 C 
ATOM     16  C   UNL     1      34.929 -21.259 -19.518  0.00  0.00    +0.044 C 
ATOM     17  C   UNL     1      37.046 -20.226 -20.056  0.00  0.00    +0.002 C 
ATOM     18  C   UNL     1      36.318 -21.223 -19.405  0.00  0.00    +0.008 C 
BRANCH  16  19
ATOM     19  C   UNL     1      34.184 -22.280 -18.851  0.00  0.00    -0.051 C 
ATOM     20  C   UNL     1      33.558 -23.138 -18.290  0.00  0.00    -0.009 C 
ENDBRANCH  16  19
ENDBRANCH   1  13
BRANCH   7  21
ATOM     21  O   UNL     1      33.481 -12.887 -24.939  0.00  0.00    -0.472 OA
ATOM     22  C   UNL     1      33.409 -12.751 -26.357  0.00  0.00    +0.252 C 
ENDBRANCH   7  21
BRANCH   4  23
ATOM     23  O   UNL     1      33.401 -13.360 -22.197  0.00  0.00    -0.473 OA
BRANCH  23  24
ATOM     24  C   UNL     1      32.036 -13.083 -21.911  0.00  0.00    +0.206 C 
BRANCH  24  25
ATOM     25  C   UNL     1      31.926 -12.360 -20.575  0.00  0.00    +0.047 C 
BRANCH  25  26
ATOM     26  C   UNL     1      31.131 -11.062 -20.701  0.00  0.00    +0.004 C 
BRANCH  26  27
ATOM     27  C   UNL     1      31.901  -9.880 -20.111  0.00  0.00    +0.001 C 
BRANCH  27  28
ATOM     28  C   UNL     1      31.964  -8.710 -21.093  0.00  0.00    +0.010 C 
BRANCH  28  29
ATOM     29  C   UNL     1      31.931  -9.197 -22.539  0.00  0.00    +0.087 C 
BRANCH  29  32
ATOM     30  O   UNL     1      33.942  -8.131 -23.300  0.00  0.00    -0.273 OA
ATOM     31  N   UNL     1      33.758 -10.428 -23.507  0.00  0.00    -0.197 N 
ATOM     32  C   UNL     1      33.318  -9.179 -23.146  0.00  0.00    +0.244 C 
ATOM     33  H   UNL     1      33.214 -11.235 -23.360  0.00  0.00    +0.182 HD
BRANCH  31  34
ATOM     34  O   UNL     1      35.027 -10.483 -24.097  0.00  0.00    -0.295 OA
ATOM     35  H   UNL     1      35.704 -10.317 -23.423  0.00  0.00    +0.241 HD
ENDBRANCH  31  34
ENDBRANCH  29  32
ENDBRANCH  28  29
ENDBRANCH  27  28
ENDBRANCH  26  27
ENDBRANCH  25  26
ENDBRANCH  24  25
ENDBRANCH  23  24
ENDBRANCH   4  23
TORSDOF 12
ENDMDL
MODEL 3
REMARK VINA RESULT:     -10.4      1.373      1.668
REMARK  Name = 24756910
REMARK  12 active torsions:
REMARK  status: ('A' for Active; 'I' for Inactive)
REMARK    1  A    between atoms: N_1  and  C_13
REMARK    2  A    between atoms: C_4  and  O_23
REMARK    3  A    between atoms: C_7  and  O_21
REMARK    4  A    between atoms: C_16  and  C_19
REMARK    5  A    between atoms: O_23  and  C_24
REMARK    6  A    between atoms: C_24  and  C_25
REMARK    7  A    between atoms: C_25  and  C_26
REMARK    8  A    between atoms: C_26  and  C_27
REMARK    9  A    between atoms: C_27  and  C_28
REMARK   10  A    between atoms: C_28  and  C_29
REMARK   11  A    between atoms: C_29  and  C_32
REMARK   12  A    between atoms: N_31  and  O_34
REMARK                            x       y       z     vdW  Elec       q    Type
REMARK                         _______ _______ _______ _____ _____    ______ ____
ROOT
ATOM      1  N   UNL     1      33.847 -12.712 -23.605  0.00  0.00    -0.298 N 
ATOM      2  N   UNL     1      33.204 -15.555 -26.544  0.00  0.00    -0.248 NA
ATOM      3  N   UNL     1      32.986 -13.303 -25.713  0.00  0.00    -0.230 NA
ATOM      4  C   UNL     1      35.206 -16.694 -23.069  0.00  0.00    +0.169 C 
ATOM      5  C   UNL     1      34.095 -14.994 -24.389  0.00  0.00    +0.048 C 
ATOM      6  C   UNL     1      34.771 -15.381 -23.219  0.00  0.00    +0.044 C 
ATOM      7  C   UNL     1      34.968 -17.616 -24.083  0.00  0.00    +0.156 C 
ATOM      8  C   UNL     1      33.850 -15.915 -25.420  0.00  0.00    +0.066 C 
ATOM      9  C   UNL     1      34.295 -17.222 -25.244  0.00  0.00    +0.112 C 
ATOM     10  C   UNL     1      33.635 -13.697 -24.602  0.00  0.00    +0.131 C 
ATOM     11  C   UNL     1      32.807 -14.269 -26.629  0.00  0.00    +0.252 C 
ATOM     12  H   UNL     1      34.662 -12.855 -23.072  0.00  0.00    +0.154 HD
ENDROOT
BRANCH   1  13
ATOM     13  C   UNL     1      33.120 -11.570 -23.231  0.00  0.00    +0.050 C 
ATOM     14  C   UNL     1      33.532 -10.309 -23.661  0.00  0.00    +0.023 C 
ATOM     15  C   UNL     1      31.985 -11.698 -22.431  0.00  0.00    +0.015 C 
ATOM     16  C   UNL     1      32.809  -9.175 -23.289  0.00  0.00    +0.044 C 
ATOM     17  C   UNL     1      31.263 -10.565 -22.059  0.00  0.00    +0.002 C 
ATOM     18  C   UNL     1      31.675  -9.303 -22.489  0.00  0.00    +0.008 C 
BRANCH  16  19
ATOM     19  C   UNL     1      33.231  -7.883 -23.730  0.00  0.00    -0.051 C 
ATOM     20  C   UNL     1      33.587  -6.797 -24.099  0.00  0.00    -0.009 C 
ENDBRANCH  16  19
ENDBRANCH   1  13
BRANCH   7  21
ATOM     21  O   UNL     1      35.386 -18.906 -23.958  0.00  0.00    -0.472 OA
ATOM     22  C   UNL     1      34.681 -19.892 -24.711  0.00  0.00    +0.252 C 
ENDBRANCH   7  21
BRANCH   4  23
ATOM     23  O   UNL     1      35.866 -17.066 -21.926  0.00  0.00    -0.473 OA
BRANCH  23  24
ATOM     24  C   UNL     1      35.179 -17.946 -21.047  0.00  0.00    +0.206 C 
BRANCH  24  25
ATOM     25  C   UNL     1      36.074 -19.126 -20.695  0.00  0.00    +0.047 C 
BRANCH  25  26
ATOM     26  C   UNL     1      35.290 -20.436 -20.653  0.00  0.00    +0.004 C 
BRANCH  26  27
ATOM     27  C   UNL     1      33.782 -20.181 -20.661  0.00  0.00    +0.001 C 
BRANCH  27  28
ATOM     28  C   UNL     1      33.069 -21.026 -19.604  0.00  0.00    +0.010 C 
BRANCH  28  29
ATOM     29  C   UNL     1      33.857 -22.293 -19.283  0.00  0.00    +0.087 C 
BRANCH  29  32
ATOM     30  O   UNL     1      34.125 -23.593 -17.284  0.00  0.00    -0.273 OA
ATOM     31  N   UNL     1      32.064 -22.634 -17.714  0.00  0.00    -0.197 N 
ATOM     32  C   UNL     1      33.382 -22.909 -17.984  0.00  0.00    +0.244 C 
ATOM     33  H   UNL     1      31.514 -22.079 -18.312  0.00  0.00    +0.182 HD
BRANCH  31  34
ATOM     34  O   UNL     1      31.551 -23.192 -16.536  0.00  0.00    -0.295 OA
ATOM     35  H   UNL     1      30.688 -23.595 -16.719  0.00  0.00    +0.241 HD
ENDBRANCH  31  34
ENDBRANCH  29  32
ENDBRANCH  28  29
ENDBRANCH  27  28
ENDBRANCH  26  27
ENDBRANCH  25  26
ENDBRANCH  24  25
ENDBRANCH  23  24
ENDBRANCH   4  23
TORSDOF 12
ENDMDL
MODEL 4
REMARK VINA RESULT:      -9.9      4.298     10.420
REMARK  Name = 24756910
REMARK  12 active torsions:
REMARK  status: ('A' for Active; 'I' for Inactive)
REMARK    1  A    between atoms: N_1  and  C_13
REMARK    2  A    between atoms: C_4  and  O_23
REMARK    3  A    between atoms: C_7  and  O_21
REMARK    4  A    between atoms: C_16  and  C_19
REMARK    5  A    between atoms: O_23  and  C_24
REMARK    6  A    between atoms: C_24  and  C_25
REMARK    7  A    between atoms: C_25  and  C_26
REMARK    8  A    between atoms: C_26  and  C_27
REMARK    9  A    between atoms: C_27  and  C_28
REMARK   10  A    between atoms: C_28  and  C_29
REMARK   11  A    between atoms: C_29  and  C_32
REMARK   12  A    between atoms: N_31  and  O_34
REMARK                            x       y       z     vdW  Elec       q    Type
REMARK                         _______ _______ _______ _____ _____    ______ ____
ROOT
ATOM      1  N   UNL     1      34.244 -17.924 -21.622  0.00  0.00    -0.298 N 
ATOM      2  N   UNL     1      34.373 -16.386 -25.463  0.00  0.00    -0.248 NA
ATOM      3  N   UNL     1      34.619 -18.226 -23.925  0.00  0.00    -0.230 NA
ATOM      4  C   UNL     1      33.341 -13.839 -22.327  0.00  0.00    +0.169 C 
ATOM      5  C   UNL     1      33.981 -16.036 -23.123  0.00  0.00    +0.048 C 
ATOM      6  C   UNL     1      33.632 -15.175 -22.068  0.00  0.00    +0.044 C 
ATOM      7  C   UNL     1      33.397 -13.366 -23.634  0.00  0.00    +0.156 C 
ATOM      8  C   UNL     1      34.040 -15.571 -24.446  0.00  0.00    +0.066 C 
ATOM      9  C   UNL     1      33.745 -14.230 -24.678  0.00  0.00    +0.112 C 
ATOM     10  C   UNL     1      34.283 -17.382 -22.931  0.00  0.00    +0.131 C 
ATOM     11  C   UNL     1      34.645 -17.669 -25.147  0.00  0.00    +0.252 C 
ATOM     12  H   UNL     1      33.591 -17.485 -21.030  0.00  0.00    +0.154 HD
ENDROOT
BRANCH   1  13
ATOM     13  C   UNL     1      34.955 -18.966 -21.006  0.00  0.00    +0.050 C 
ATOM     14  C   UNL     1      34.266 -20.019 -20.405  0.00  0.00    +0.023 C 
ATOM     15  C   UNL     1      36.349 -18.948 -20.997  0.00  0.00    +0.015 C 
ATOM     16  C   UNL     1      34.973 -21.055 -19.792  0.00  0.00    +0.044 C 
ATOM     17  C   UNL     1      37.055 -19.983 -20.385  0.00  0.00    +0.002 C 
ATOM     18  C   UNL     1      36.367 -21.037 -19.783  0.00  0.00    +0.008 C 
BRANCH  16  19
ATOM     19  C   UNL     1      34.268 -22.135 -19.176  0.00  0.00    -0.051 C 
ATOM     20  C   UNL     1      33.676 -23.041 -18.657  0.00  0.00    -0.009 C 
ENDBRANCH  16  19
ENDBRANCH   1  13
BRANCH   7  21
ATOM     21  O   UNL     1      33.115 -12.063 -23.912  0.00  0.00    -0.472 OA
ATOM     22  C   UNL     1      34.041 -11.361 -24.739  0.00  0.00    +0.252 C 
ENDBRANCH   7  21
BRANCH   4  23
ATOM     23  O   UNL     1      33.001 -13.005 -21.295  0.00  0.00    -0.473 OA
BRANCH  23  24
ATOM     24  C   UNL     1      31.647 -12.573 -21.239  0.00  0.00    +0.206 C 
BRANCH  24  25
ATOM     25  C   UNL     1      31.462 -11.605 -20.078  0.00  0.00    +0.047 C 
BRANCH  25  26
ATOM     26  C   UNL     1      32.094 -10.246 -20.371  0.00  0.00    +0.004 C 
BRANCH  26  27
ATOM     27  C   UNL     1      31.711  -9.745 -21.764  0.00  0.00    +0.001 C 
BRANCH  27  28
ATOM     28  C   UNL     1      32.488  -8.481 -22.133  0.00  0.00    +0.010 C 
BRANCH  28  29
ATOM     29  C   UNL     1      32.083  -7.303 -21.250  0.00  0.00    +0.087 C 
BRANCH  29  32
ATOM     30  O   UNL     1      30.893  -6.524 -23.183  0.00  0.00    -0.273 OA
ATOM     31  N   UNL     1      31.010  -5.151 -21.325  0.00  0.00    -0.197 N 
ATOM     32  C   UNL     1      31.261  -6.300 -22.032  0.00  0.00    +0.244 C 
ATOM     33  H   UNL     1      31.329  -5.025 -20.402  0.00  0.00    +0.182 HD
BRANCH  31  34
ATOM     34  O   UNL     1      30.271  -4.168 -21.996  0.00  0.00    -0.295 OA
ATOM     35  H   UNL     1      29.405  -4.067 -21.571  0.00  0.00    +0.241 HD
ENDBRANCH  31  34
ENDBRANCH  29  32
ENDBRANCH  28  29
ENDBRANCH  27  28
ENDBRANCH  26  27
ENDBRANCH  25  26
ENDBRANCH  24  25
ENDBRANCH  23  24
ENDBRANCH   4  23
TORSDOF 12
ENDMDL
MODEL 5
REMARK VINA RESULT:      -9.7      1.442      2.409
REMARK  Name = 24756910
REMARK  12 active torsions:
REMARK  status: ('A' for Active; 'I' for Inactive)
REMARK    1  A    between atoms: N_1  and  C_13
REMARK    2  A    between atoms: C_4  and  O_23
REMARK    3  A    between atoms: C_7  and  O_21
REMARK    4  A    between atoms: C_16  and  C_19
REMARK    5  A    between atoms: O_23  and  C_24
REMARK    6  A    between atoms: C_24  and  C_25
REMARK    7  A    between atoms: C_25  and  C_26
REMARK    8  A    between atoms: C_26  and  C_27
REMARK    9  A    between atoms: C_27  and  C_28
REMARK   10  A    between atoms: C_28  and  C_29
REMARK   11  A    between atoms: C_29  and  C_32
REMARK   12  A    between atoms: N_31  and  O_34
REMARK                            x       y       z     vdW  Elec       q    Type
REMARK                         _______ _______ _______ _____ _____    ______ ____
ROOT
ATOM      1  N   UNL     1      33.919 -12.959 -23.490  0.00  0.00    -0.298 N 
ATOM      2  N   UNL     1      33.254 -15.641 -26.572  0.00  0.00    -0.248 NA
ATOM      3  N   UNL     1      33.100 -13.421 -25.647  0.00  0.00    -0.230 NA
ATOM      4  C   UNL     1      35.103 -17.014 -23.097  0.00  0.00    +0.169 C 
ATOM      5  C   UNL     1      34.100 -15.213 -24.370  0.00  0.00    +0.048 C 
ATOM      6  C   UNL     1      34.725 -15.679 -23.200  0.00  0.00    +0.044 C 
ATOM      7  C   UNL     1      34.859 -17.880 -24.158  0.00  0.00    +0.156 C 
ATOM      8  C   UNL     1      33.850 -16.076 -25.448  0.00  0.00    +0.066 C 
ATOM      9  C   UNL     1      34.238 -17.407 -25.319  0.00  0.00    +0.112 C 
ATOM     10  C   UNL     1      33.699 -13.890 -24.536  0.00  0.00    +0.131 C 
ATOM     11  C   UNL     1      32.910 -14.338 -26.610  0.00  0.00    +0.252 C 
ATOM     12  H   UNL     1      34.712 -13.159 -22.941  0.00  0.00    +0.154 HD
ENDROOT
BRANCH   1  13
ATOM     13  C   UNL     1      33.226 -11.807 -23.086  0.00  0.00    +0.050 C 
ATOM     14  C   UNL     1      32.536 -11.798 -21.874  0.00  0.00    +0.023 C 
ATOM     15  C   UNL     1      33.231 -10.672 -23.896  0.00  0.00    +0.015 C 
ATOM     16  C   UNL     1      31.847 -10.652 -21.473  0.00  0.00    +0.044 C 
ATOM     17  C   UNL     1      32.543  -9.527 -23.494  0.00  0.00    +0.002 C 
ATOM     18  C   UNL     1      31.851  -9.517 -22.282  0.00  0.00    +0.008 C 
BRANCH  16  19
ATOM     19  C   UNL     1      31.139 -10.643 -20.231  0.00  0.00    -0.051 C 
ATOM     20  C   UNL     1      30.545 -10.636 -19.188  0.00  0.00    -0.009 C 
ENDBRANCH  16  19
ENDBRANCH   1  13
BRANCH   7  21
ATOM     21  O   UNL     1      35.222 -19.190 -24.080  0.00  0.00    -0.472 OA
ATOM     22  C   UNL     1      34.716 -20.064 -25.087  0.00  0.00    +0.252 C 
ENDBRANCH   7  21
BRANCH   4  23
ATOM     23  O   UNL     1      35.712 -17.462 -21.953  0.00  0.00    -0.473 OA
BRANCH  23  24
ATOM     24  C   UNL     1      34.860 -17.859 -20.887  0.00  0.00    +0.206 C 
BRANCH  24  25
ATOM     25  C   UNL     1      34.870 -19.376 -20.757  0.00  0.00    +0.047 C 
BRANCH  25  26
ATOM     26  C   UNL     1      36.286 -19.917 -20.565  0.00  0.00    +0.004 C 
BRANCH  26  27
ATOM     27  C   UNL     1      36.270 -21.413 -20.248  0.00  0.00    +0.001 C 
BRANCH  27  28
ATOM     28  C   UNL     1      35.504 -21.700 -18.957  0.00  0.00    +0.010 C 
BRANCH  28  29
ATOM     29  C   UNL     1      34.193 -22.429 -19.240  0.00  0.00    +0.087 C 
BRANCH  29  32
ATOM     30  O   UNL     1      34.209 -23.572 -17.130  0.00  0.00    -0.273 OA
ATOM     31  N   UNL     1      32.235 -22.605 -17.852  0.00  0.00    -0.197 N 
ATOM     32  C   UNL     1      33.565 -22.929 -17.957  0.00  0.00    +0.244 C 
ATOM     33  H   UNL     1      31.769 -22.087 -18.547  0.00  0.00    +0.182 HD
BRANCH  31  34
ATOM     34  O   UNL     1      31.584 -23.056 -16.697  0.00  0.00    -0.295 OA
ATOM     35  H   UNL     1      30.656 -22.774 -16.718  0.00  0.00    +0.241 HD
ENDBRANCH  31  34
ENDBRANCH  29  32
ENDBRANCH  28  29
ENDBRANCH  27  28
ENDBRANCH  26  27
ENDBRANCH  25  26
ENDBRANCH  24  25
ENDBRANCH  23  24
ENDBRANCH   4  23
TORSDOF 12
ENDMDL
MODEL 6
REMARK VINA RESULT:      -9.5      2.672      4.231
REMARK  Name = 24756910
REMARK  12 active torsions:
REMARK  status: ('A' for Active; 'I' for Inactive)
REMARK    1  A    between atoms: N_1  and  C_13
REMARK    2  A    between atoms: C_4  and  O_23
REMARK    3  A    between atoms: C_7  and  O_21
REMARK    4  A    between atoms: C_16  and  C_19
REMARK    5  A    between atoms: O_23  and  C_24
REMARK    6  A    between atoms: C_24  and  C_25
REMARK    7  A    between atoms: C_25  and  C_26
REMARK    8  A    between atoms: C_26  and  C_27
REMARK    9  A    between atoms: C_27  and  C_28
REMARK   10  A    between atoms: C_28  and  C_29
REMARK   11  A    between atoms: C_29  and  C_32
REMARK   12  A    between atoms: N_31  and  O_34
REMARK                            x       y       z     vdW  Elec       q    Type
REMARK                         _______ _______ _______ _____ _____    ______ ____
ROOT
ATOM      1  N   UNL     1      33.043  -9.195 -22.437  0.00  0.00    -0.298 N 
ATOM      2  N   UNL     1      34.863 -10.999 -25.687  0.00  0.00    -0.248 NA
ATOM      3  N   UNL     1      34.365  -9.038 -24.376  0.00  0.00    -0.230 NA
ATOM      4  C   UNL     1      32.661 -13.373 -23.062  0.00  0.00    +0.169 C 
ATOM      5  C   UNL     1      33.511 -11.201 -23.717  0.00  0.00    +0.048 C 
ATOM      6  C   UNL     1      32.770 -12.005 -22.834  0.00  0.00    +0.044 C 
ATOM      7  C   UNL     1      33.289 -13.936 -24.168  0.00  0.00    +0.156 C 
ATOM      8  C   UNL     1      34.152 -11.758 -24.836  0.00  0.00    +0.066 C 
ATOM      9  C   UNL     1      34.026 -13.129 -25.042  0.00  0.00    +0.112 C 
ATOM     10  C   UNL     1      33.660  -9.828 -23.545  0.00  0.00    +0.131 C 
ATOM     11  C   UNL     1      34.931  -9.680 -25.412  0.00  0.00    +0.252 C 
ATOM     12  H   UNL     1      32.955  -9.775 -21.646  0.00  0.00    +0.154 HD
ENDROOT
BRANCH   1  13
ATOM     13  C   UNL     1      32.534  -7.900 -22.248  0.00  0.00    +0.050 C 
ATOM     14  C   UNL     1      32.236  -7.100 -23.351  0.00  0.00    +0.023 C 
ATOM     15  C   UNL     1      32.326  -7.415 -20.957  0.00  0.00    +0.015 C 
ATOM     16  C   UNL     1      31.731  -5.813 -23.163  0.00  0.00    +0.044 C 
ATOM     17  C   UNL     1      31.820  -6.129 -20.769  0.00  0.00    +0.002 C 
ATOM     18  C   UNL     1      31.522  -5.328 -21.872  0.00  0.00    +0.008 C 
BRANCH  16  19
ATOM     19  C   UNL     1      31.425  -4.993 -24.293  0.00  0.00    -0.051 C 
ATOM     20  C   UNL     1      31.169  -4.306 -25.243  0.00  0.00    -0.009 C 
ENDBRANCH  16  19
ENDBRANCH   1  13
BRANCH   7  21
ATOM     21  O   UNL     1      33.197 -15.273 -24.411  0.00  0.00    -0.472 OA
ATOM     22  C   UNL     1      33.597 -15.726 -25.703  0.00  0.00    +0.252 C 
ENDBRANCH   7  21
BRANCH   4  23
ATOM     23  O   UNL     1      31.937 -14.152 -22.197  0.00  0.00    -0.473 OA
BRANCH  23  24
ATOM     24  C   UNL     1      32.511 -14.393 -20.919  0.00  0.00    +0.206 C 
BRANCH  24  25
ATOM     25  C   UNL     1      33.031 -15.823 -20.850  0.00  0.00    +0.047 C 
BRANCH  25  26
ATOM     26  C   UNL     1      34.555 -15.874 -20.931  0.00  0.00    +0.004 C 
BRANCH  26  27
ATOM     27  C   UNL     1      35.024 -16.985 -21.872  0.00  0.00    +0.001 C 
BRANCH  27  28
ATOM     28  C   UNL     1      35.258 -18.293 -21.116  0.00  0.00    +0.010 C 
BRANCH  28  29
ATOM     29  C   UNL     1      34.129 -19.289 -21.369  0.00  0.00    +0.087 C 
BRANCH  29  32
ATOM     30  O   UNL     1      35.148 -20.680 -19.700  0.00  0.00    -0.273 OA
ATOM     31  N   UNL     1      32.908 -20.991 -20.185  0.00  0.00    -0.197 N 
ATOM     32  C   UNL     1      34.131 -20.384 -20.324  0.00  0.00    +0.244 C 
ATOM     33  H   UNL     1      32.125 -20.712 -20.712  0.00  0.00    +0.182 HD
BRANCH  31  34
ATOM     34  O   UNL     1      32.842 -22.030 -19.248  0.00  0.00    -0.295 OA
ATOM     35  H   UNL     1      32.587 -22.852 -19.695  0.00  0.00    +0.241 HD
ENDBRANCH  31  34
ENDBRANCH  29  32
ENDBRANCH  28  29
ENDBRANCH  27  28
ENDBRANCH  26  27
ENDBRANCH  25  26
ENDBRANCH  24  25
ENDBRANCH  23  24
ENDBRANCH   4  23
TORSDOF 12
ENDMDL
MODEL 7
REMARK VINA RESULT:      -9.5      2.556      4.532
REMARK  Name = 24756910
REMARK  12 active torsions:
REMARK  status: ('A' for Active; 'I' for Inactive)
REMARK    1  A    between atoms: N_1  and  C_13
REMARK    2  A    between atoms: C_4  and  O_23
REMARK    3  A    between atoms: C_7  and  O_21
REMARK    4  A    between atoms: C_16  and  C_19
REMARK    5  A    between atoms: O_23  and  C_24
REMARK    6  A    between atoms: C_24  and  C_25
REMARK    7  A    between atoms: C_25  and  C_26
REMARK    8  A    between atoms: C_26  and  C_27
REMARK    9  A    between atoms: C_27  and  C_28
REMARK   10  A    between atoms: C_28  and  C_29
REMARK   11  A    between atoms: C_29  and  C_32
REMARK   12  A    between atoms: N_31  and  O_34
REMARK                            x       y       z     vdW  Elec       q    Type
REMARK                         _______ _______ _______ _____ _____    ______ ____
ROOT
ATOM      1  N   UNL     1      32.457 -10.100 -23.361  0.00  0.00    -0.298 N 
ATOM      2  N   UNL     1      31.674 -11.741 -19.643  0.00  0.00    -0.248 NA
ATOM      3  N   UNL     1      31.784  -9.841 -21.122  0.00  0.00    -0.230 NA
ATOM      4  C   UNL     1      32.942 -14.264 -22.709  0.00  0.00    +0.169 C 
ATOM      5  C   UNL     1      32.364 -12.048 -21.918  0.00  0.00    +0.048 C 
ATOM      6  C   UNL     1      32.791 -12.902 -22.950  0.00  0.00    +0.044 C 
ATOM      7  C   UNL     1      32.667 -14.771 -21.443  0.00  0.00    +0.156 C 
ATOM      8  C   UNL     1      32.083 -12.548 -20.637  0.00  0.00    +0.066 C 
ATOM      9  C   UNL     1      32.242 -13.915 -20.423  0.00  0.00    +0.112 C 
ATOM     10  C   UNL     1      32.192 -10.678 -22.094  0.00  0.00    +0.131 C 
ATOM     11  C   UNL     1      31.548 -10.431 -19.939  0.00  0.00    +0.252 C 
ATOM     12  H   UNL     1      32.293 -10.710 -24.117  0.00  0.00    +0.154 HD
ENDROOT
BRANCH   1  13
ATOM     13  C   UNL     1      32.906  -8.828 -23.748  0.00  0.00    +0.050 C 
ATOM     14  C   UNL     1      31.988  -7.800 -23.964  0.00  0.00    +0.023 C 
ATOM     15  C   UNL     1      34.270  -8.592 -23.915  0.00  0.00    +0.015 C 
ATOM     16  C   UNL     1      32.434  -6.535 -24.348  0.00  0.00    +0.044 C 
ATOM     17  C   UNL     1      34.717  -7.327 -24.299  0.00  0.00    +0.002 C 
ATOM     18  C   UNL     1      33.798  -6.299 -24.515  0.00  0.00    +0.008 C 
BRANCH  16  19
ATOM     19  C   UNL     1      31.494  -5.482 -24.569  0.00  0.00    -0.051 C 
ATOM     20  C   UNL     1      30.703  -4.599 -24.755  0.00  0.00    -0.009 C 
ENDBRANCH  16  19
ENDBRANCH   1  13
BRANCH   7  21
ATOM     21  O   UNL     1      32.807 -16.101 -21.185  0.00  0.00    -0.472 OA
ATOM     22  C   UNL     1      31.691 -16.768 -20.598  0.00  0.00    +0.252 C 
ENDBRANCH   7  21
BRANCH   4  23
ATOM     23  O   UNL     1      33.358 -15.092 -23.720  0.00  0.00    -0.473 OA
BRANCH  23  24
ATOM     24  C   UNL     1      34.719 -15.499 -23.695  0.00  0.00    +0.206 C 
BRANCH  24  25
ATOM     25  C   UNL     1      34.816 -16.993 -23.974  0.00  0.00    +0.047 C 
BRANCH  25  26
ATOM     26  C   UNL     1      35.503 -17.738 -22.831  0.00  0.00    +0.004 C 
BRANCH  26  27
ATOM     27  C   UNL     1      34.789 -19.054 -22.518  0.00  0.00    +0.001 C 
BRANCH  27  28
ATOM     28  C   UNL     1      34.568 -19.223 -21.015  0.00  0.00    +0.010 C 
BRANCH  28  29
ATOM     29  C   UNL     1      33.336 -20.078 -20.728  0.00  0.00    +0.087 C 
BRANCH  29  32
ATOM     30  O   UNL     1      34.812 -21.674 -19.712  0.00  0.00    -0.273 OA
ATOM     31  N   UNL     1      32.589 -21.656 -19.072  0.00  0.00    -0.197 N 
ATOM     32  C   UNL     1      33.675 -21.213 -19.786  0.00  0.00    +0.244 C 
ATOM     33  H   UNL     1      31.699 -21.248 -19.171  0.00  0.00    +0.182 HD
BRANCH  31  34
ATOM     34  O   UNL     1      32.826 -22.722 -18.195  0.00  0.00    -0.295 OA
ATOM     35  H   UNL     1      32.883 -23.548 -18.698  0.00  0.00    +0.241 HD
ENDBRANCH  31  34
ENDBRANCH  29  32
ENDBRANCH  28  29
ENDBRANCH  27  28
ENDBRANCH  26  27
ENDBRANCH  25  26
ENDBRANCH  24  25
ENDBRANCH  23  24
ENDBRANCH   4  23
TORSDOF 12
ENDMDL
MODEL 8
REMARK VINA RESULT:      -9.3      5.172     11.709
REMARK  Name = 24756910
REMARK  12 active torsions:
REMARK  status: ('A' for Active; 'I' for Inactive)
REMARK    1  A    between atoms: N_1  and  C_13
REMARK    2  A    between atoms: C_4  and  O_23
REMARK    3  A    between atoms: C_7  and  O_21
REMARK    4  A    between atoms: C_16  and  C_19
REMARK    5  A    between atoms: O_23  and  C_24
REMARK    6  A    between atoms: C_24  and  C_25
REMARK    7  A    between atoms: C_25  and  C_26
REMARK    8  A    between atoms: C_26  and  C_27
REMARK    9  A    between atoms: C_27  and  C_28
REMARK   10  A    between atoms: C_28  and  C_29
REMARK   11  A    between atoms: C_29  and  C_32
REMARK   12  A    between atoms: N_31  and  O_34
REMARK                            x       y       z     vdW  Elec       q    Type
REMARK                         _______ _______ _______ _____ _____    ______ ____
ROOT
ATOM      1  N   UNL     1      29.975 -23.402 -16.350  0.00  0.00    -0.298 N 
ATOM      2  N   UNL     1      32.441 -24.678 -13.280  0.00  0.00    -0.248 NA
ATOM      3  N   UNL     1      30.242 -24.305 -14.194  0.00  0.00    -0.230 NA
ATOM      4  C   UNL     1      34.193 -23.209 -16.766  0.00  0.00    +0.169 C 
ATOM      5  C   UNL     1      32.213 -23.756 -15.482  0.00  0.00    +0.048 C 
ATOM      6  C   UNL     1      32.806 -23.262 -16.656  0.00  0.00    +0.044 C 
ATOM      7  C   UNL     1      34.982 -23.649 -15.709  0.00  0.00    +0.156 C 
ATOM      8  C   UNL     1      32.999 -24.204 -14.408  0.00  0.00    +0.066 C 
ATOM      9  C   UNL     1      34.383 -24.140 -14.544  0.00  0.00    +0.112 C 
ATOM     10  C   UNL     1      30.834 -23.836 -15.308  0.00  0.00    +0.131 C 
ATOM     11  C   UNL     1      31.094 -24.702 -13.234  0.00  0.00    +0.252 C 
ATOM     12  H   UNL     1      30.357 -23.512 -17.251  0.00  0.00    +0.154 HD
ENDROOT
BRANCH   1  13
ATOM     13  C   UNL     1      28.686 -22.847 -16.346  0.00  0.00    +0.050 C 
ATOM     14  C   UNL     1      28.051 -22.551 -17.552  0.00  0.00    +0.023 C 
ATOM     15  C   UNL     1      28.040 -22.593 -15.136  0.00  0.00    +0.015 C 
ATOM     16  C   UNL     1      26.769 -22.000 -17.548  0.00  0.00    +0.044 C 
ATOM     17  C   UNL     1      26.759 -22.042 -15.132  0.00  0.00    +0.002 C 
ATOM     18  C   UNL     1      26.123 -21.746 -16.338  0.00  0.00    +0.008 C 
BRANCH  16  19
ATOM     19  C   UNL     1      26.118 -21.696 -18.784  0.00  0.00    -0.051 C 
ATOM     20  C   UNL     1      25.571 -21.440 -19.821  0.00  0.00    -0.009 C 
ENDBRANCH  16  19
ENDBRANCH   1  13
BRANCH   7  21
ATOM     21  O   UNL     1      36.341 -23.608 -15.795  0.00  0.00    -0.472 OA
ATOM     22  C   UNL     1      37.066 -24.610 -15.085  0.00  0.00    +0.252 C 
ENDBRANCH   7  21
BRANCH   4  23
ATOM     23  O   UNL     1      34.766 -22.727 -17.914  0.00  0.00    -0.473 OA
BRANCH  23  24
ATOM     24  C   UNL     1      33.926 -22.629 -19.057  0.00  0.00    +0.206 C 
BRANCH  24  25
ATOM     25  C   UNL     1      34.093 -21.260 -19.703  0.00  0.00    +0.047 C 
BRANCH  25  26
ATOM     26  C   UNL     1      35.526 -21.031 -20.179  0.00  0.00    +0.004 C 
BRANCH  26  27
ATOM     27  C   UNL     1      35.744 -19.578 -20.605  0.00  0.00    +0.001 C 
BRANCH  27  28
ATOM     28  C   UNL     1      34.611 -19.088 -21.508  0.00  0.00    +0.010 C 
BRANCH  28  29
ATOM     29  C   UNL     1      34.898 -19.397 -22.975  0.00  0.00    +0.087 C 
BRANCH  29  32
ATOM     30  O   UNL     1      34.320 -18.071 -24.890  0.00  0.00    -0.273 OA
ATOM     31  N   UNL     1      35.603 -17.110 -23.222  0.00  0.00    -0.197 N 
ATOM     32  C   UNL     1      34.894 -18.131 -23.804  0.00  0.00    +0.244 C 
ATOM     33  H   UNL     1      36.044 -17.213 -22.348  0.00  0.00    +0.182 HD
BRANCH  31  34
ATOM     34  O   UNL     1      35.660 -15.912 -23.946  0.00  0.00    -0.295 OA
ATOM     35  H   UNL     1      36.147 -16.056 -24.772  0.00  0.00    +0.241 HD
ENDBRANCH  31  34
ENDBRANCH  29  32
ENDBRANCH  28  29
ENDBRANCH  27  28
ENDBRANCH  26  27
ENDBRANCH  25  26
ENDBRANCH  24  25
ENDBRANCH  23  24
ENDBRANCH   4  23
TORSDOF 12
ENDMDL
MODEL 9
REMARK VINA RESULT:      -9.2      3.796     10.540
REMARK  Name = 24756910
REMARK  12 active torsions:
REMARK  status: ('A' for Active; 'I' for Inactive)
REMARK    1  A    between atoms: N_1  and  C_13
REMARK    2  A    between atoms: C_4  and  O_23
REMARK    3  A    between atoms: C_7  and  O_21
REMARK    4  A    between atoms: C_16  and  C_19
REMARK    5  A    between atoms: O_23  and  C_24
REMARK    6  A    between atoms: C_24  and  C_25
REMARK    7  A    between atoms: C_25  and  C_26
REMARK    8  A    between atoms: C_26  and  C_27
REMARK    9  A    between atoms: C_27  and  C_28
REMARK   10  A    between atoms: C_28  and  C_29
REMARK   11  A    between atoms: C_29  and  C_32
REMARK   12  A    between atoms: N_31  and  O_34
REMARK                            x       y       z     vdW  Elec       q    Type
REMARK                         _______ _______ _______ _____ _____    ______ ____
ROOT
ATOM      1  N   UNL     1      32.335 -22.868 -17.593  0.00  0.00    -0.298 N 
ATOM      2  N   UNL     1      36.448 -22.402 -17.648  0.00  0.00    -0.248 NA
ATOM      3  N   UNL     1      34.452 -23.347 -16.683  0.00  0.00    -0.230 NA
ATOM      4  C   UNL     1      34.177 -20.428 -20.534  0.00  0.00    +0.169 C 
ATOM      5  C   UNL     1      34.310 -21.889 -18.606  0.00  0.00    +0.048 C 
ATOM      6  C   UNL     1      33.548 -21.223 -19.580  0.00  0.00    +0.044 C 
ATOM      7  C   UNL     1      35.562 -20.300 -20.514  0.00  0.00    +0.156 C 
ATOM      8  C   UNL     1      35.709 -21.769 -18.576  0.00  0.00    +0.066 C 
ATOM      9  C   UNL     1      36.313 -20.968 -19.541  0.00  0.00    +0.112 C 
ATOM     10  C   UNL     1      33.742 -22.699 -17.626  0.00  0.00    +0.131 C 
ATOM     11  C   UNL     1      35.779 -23.156 -16.752  0.00  0.00    +0.252 C 
ATOM     12  H   UNL     1      31.907 -22.806 -18.477  0.00  0.00    +0.154 HD
ENDROOT
BRANCH   1  13
ATOM     13  C   UNL     1      31.434 -23.109 -16.543  0.00  0.00    +0.050 C 
ATOM     14  C   UNL     1      30.112 -22.679 -16.648  0.00  0.00    +0.023 C 
ATOM     15  C   UNL     1      31.862 -23.778 -15.397  0.00  0.00    +0.015 C 
ATOM     16  C   UNL     1      29.216 -22.918 -15.605  0.00  0.00    +0.044 C 
ATOM     17  C   UNL     1      30.967 -24.018 -14.355  0.00  0.00    +0.002 C 
ATOM     18  C   UNL     1      29.644 -23.588 -14.459  0.00  0.00    +0.008 C 
BRANCH  16  19
ATOM     19  C   UNL     1      27.861 -22.478 -15.712  0.00  0.00    -0.051 C 
ATOM     20  C   UNL     1      26.722 -22.108 -15.803  0.00  0.00    -0.009 C 
ENDBRANCH  16  19
ENDBRANCH   1  13
BRANCH   7  21
ATOM     21  O   UNL     1      36.200 -19.529 -21.438  0.00  0.00    -0.472 OA
ATOM     22  C   UNL     1      37.545 -19.152 -21.150  0.00  0.00    +0.252 C 
ENDBRANCH   7  21
BRANCH   4  23
ATOM     23  O   UNL     1      33.428 -19.781 -21.482  0.00  0.00    -0.473 OA
BRANCH  23  24
ATOM     24  C   UNL     1      32.735 -18.613 -21.064  0.00  0.00    +0.206 C 
BRANCH  24  25
ATOM     25  C   UNL     1      33.719 -17.463 -20.895  0.00  0.00    +0.047 C 
BRANCH  25  26
ATOM     26  C   UNL     1      33.031 -16.106 -21.037  0.00  0.00    +0.004 C 
BRANCH  26  27
ATOM     27  C   UNL     1      33.878 -15.138 -21.864  0.00  0.00    +0.001 C 
BRANCH  27  28
ATOM     28  C   UNL     1      33.651 -15.341 -23.362  0.00  0.00    +0.010 C 
BRANCH  28  29
ATOM     29  C   UNL     1      34.901 -15.895 -24.042  0.00  0.00    +0.087 C 
BRANCH  29  32
ATOM     30  O   UNL     1      34.060 -17.488 -25.628  0.00  0.00    -0.273 OA
ATOM     31  N   UNL     1      35.137 -18.270 -23.735  0.00  0.00    -0.197 N 
ATOM     32  C   UNL     1      34.653 -17.292 -24.569  0.00  0.00    +0.244 C 
ATOM     33  H   UNL     1      35.605 -18.056 -22.897  0.00  0.00    +0.182 HD
BRANCH  31  34
ATOM     34  O   UNL     1      34.923 -19.591 -24.151  0.00  0.00    -0.295 OA
ATOM     35  H   UNL     1      33.978 -19.726 -24.325  0.00  0.00    +0.241 HD
ENDBRANCH  31  34
ENDBRANCH  29  32
ENDBRANCH  28  29
ENDBRANCH  27  28
ENDBRANCH  26  27
ENDBRANCH  25  26
ENDBRANCH  24  25
ENDBRANCH  23  24
ENDBRANCH   4  23
TORSDOF 12
ENDMDL
