MODEL 1
REMARK VINA RESULT:     -11.3      0.000      0.000
REMARK  Name = 11711595
REMARK  10 active torsions:
REMARK  status: ('A' for Active; 'I' for Inactive)
REMARK    1  A    between atoms: C_1  and  C_9
REMARK    2  A    between atoms: C_3  and  C_17
REMARK    3  A    between atoms: C_5  and  O_7
REMARK    4  A    between atoms: C_9  and  C_10
REMARK    5  A    between atoms: C_10  and  C_12
REMARK    6  A    between atoms: C_10  and  C_15
REMARK    7  A    between atoms: C_12  and  O_13
REMARK    8  A    between atoms: C_17  and  N_19
REMARK    9  A    between atoms: C_20  and  C_23
REMARK   10  A    between atoms: C_26  and  C_32
REMARK                            x       y       z     vdW  Elec       q    Type
REMARK                         _______ _______ _______ _____ _____    ______ ____
ROOT
ATOM      1  C   UNL     1      35.024 -23.991 -14.829  0.00  0.00    -0.022 C 
ATOM      2  C   UNL     1      34.245 -23.744 -15.961  0.00  0.00    -0.004 C 
ATOM      3  C   UNL     1      32.869 -23.557 -15.833  0.00  0.00    +0.031 C 
ATOM      4  C   UNL     1      34.425 -24.051 -13.571  0.00  0.00    -0.001 C 
ATOM      5  C   UNL     1      32.270 -23.618 -14.574  0.00  0.00    +0.136 C 
ATOM      6  C   UNL     1      33.048 -23.864 -13.443  0.00  0.00    +0.036 C 
ENDROOT
BRANCH   5   7
ATOM      7  O   UNL     1      30.927 -23.438 -14.432  0.00  0.00    -0.472 OA
ATOM      8  C   UNL     1      30.144 -24.599 -14.161  0.00  0.00    +0.252 C 
ENDBRANCH   5   7
BRANCH   1   9
ATOM      9  C   UNL     1      36.514 -24.193 -14.967  0.00  0.00    +0.037 C 
BRANCH   9  10
ATOM     10  C   UNL     1      37.051 -25.355 -14.110  0.00  0.00    +0.103 C 
BRANCH  10  12
ATOM     11  O   UNL     1      36.453 -26.984 -15.818  0.00  0.00    -0.250 OA
ATOM     12  C   UNL     1      37.260 -26.580 -14.990  0.00  0.00    +0.314 C 
BRANCH  12  13
ATOM     13  O   UNL     1      38.460 -27.177 -14.779  0.00  0.00    -0.480 OA
ATOM     14  H   UNL     1      39.252 -26.728 -14.999  0.00  0.00    +0.295 HD
ENDBRANCH  12  13
ENDBRANCH  10  12
BRANCH  10  15
ATOM     15  C   UNL     1      38.377 -24.952 -13.439  0.00  0.00    +0.011 C 
ATOM     16  C   UNL     1      38.173 -24.321 -12.067  0.00  0.00    +0.001 C 
ENDBRANCH  10  15
ENDBRANCH   9  10
ENDBRANCH   1   9
BRANCH   3  17
ATOM     17  C   UNL     1      32.052 -23.295 -17.055  0.00  0.00    +0.120 C 
BRANCH  17  19
ATOM     18  O   UNL     1      33.806 -23.713 -19.288  0.00  0.00    -0.270 OA
ATOM     19  N   UNL     1      32.635 -22.278 -17.892  0.00  0.00    -0.297 N 
ATOM     20  C   UNL     1      33.477 -22.577 -18.955  0.00  0.00    +0.248 C 
ATOM     21  H   UNL     1      32.430 -21.334 -17.703  0.00  0.00    +0.150 HD
BRANCH  20  23
ATOM     22  F   UNL     1      36.243 -22.052 -19.172  0.00  0.00    -0.204 F 
ATOM     23  C   UNL     1      34.018 -21.415 -19.706  0.00  0.00    +0.081 C 
ATOM     24  C   UNL     1      35.395 -21.208 -19.778  0.00  0.00    +0.144 C 
ATOM     25  C   UNL     1      33.145 -20.531 -20.340  0.00  0.00    +0.007 C 
ATOM     26  C   UNL     1      35.029 -19.233 -21.119  0.00  0.00    +0.074 C 
ATOM     27  C   UNL     1      35.901 -20.118 -20.484  0.00  0.00    +0.034 C 
ATOM     28  C   UNL     1      33.651 -19.440 -21.046  0.00  0.00    +0.004 C 
BRANCH  26  32
ATOM     29  F   UNL     1      35.481 -16.885 -21.194  0.00  0.00    -0.166 F 
ATOM     30  F   UNL     1      36.889 -18.191 -22.201  0.00  0.00    -0.166 F 
ATOM     31  F   UNL     1      34.918 -17.859 -23.056  0.00  0.00    -0.166 F 
ATOM     32  C   UNL     1      35.569 -18.067 -21.875  0.00  0.00    +0.419 C 
ENDBRANCH  26  32
ENDBRANCH  20  23
ENDBRANCH  17  19
ENDBRANCH   3  17
TORSDOF 10
ENDMDL
MODEL 2
REMARK VINA RESULT:     -10.4      3.924      9.152
REMARK  Name = 11711595
REMARK  10 active torsions:
REMARK  status: ('A' for Active; 'I' for Inactive)
REMARK    1  A    between atoms: C_1  and  C_9
REMARK    2  A    between atoms: C_3  and  C_17
REMARK    3  A    between atoms: C_5  and  O_7
REMARK    4  A    between atoms: C_9  and  C_10
REMARK    5  A    between atoms: C_10  and  C_12
REMARK    6  A    between atoms: C_10  and  C_15
REMARK    7  A    between atoms: C_12  and  O_13
REMARK    8  A    between atoms: C_17  and  N_19
REMARK    9  A    between atoms: C_20  and  C_23
REMARK   10  A    between atoms: C_26  and  C_32
REMARK                            x       y       z     vdW  Elec       q    Type
REMARK                         _______ _______ _______ _____ _____    ______ ____
ROOT
ATOM      1  C   UNL     1      33.881 -19.299 -20.875  0.00  0.00    -0.022 C 
ATOM      2  C   UNL     1      35.168 -19.706 -20.522  0.00  0.00    -0.004 C 
ATOM      3  C   UNL     1      35.356 -20.900 -19.825  0.00  0.00    +0.031 C 
ATOM      4  C   UNL     1      32.782 -20.087 -20.531  0.00  0.00    -0.001 C 
ATOM      5  C   UNL     1      34.256 -21.688 -19.482  0.00  0.00    +0.136 C 
ATOM      6  C   UNL     1      32.970 -21.281 -19.835  0.00  0.00    +0.036 C 
ENDROOT
BRANCH   5   7
ATOM      7  O   UNL     1      34.422 -22.856 -18.801  0.00  0.00    -0.472 OA
ATOM      8  C   UNL     1      33.371 -23.247 -17.920  0.00  0.00    +0.252 C 
ENDBRANCH   5   7
BRANCH   1   9
ATOM      9  C   UNL     1      33.678 -18.007 -21.629  0.00  0.00    +0.037 C 
BRANCH   9  10
ATOM     10  C   UNL     1      34.894 -17.065 -21.559  0.00  0.00    +0.103 C 
BRANCH  10  12
ATOM     11  O   UNL     1      35.290 -15.511 -23.391  0.00  0.00    -0.250 OA
ATOM     12  C   UNL     1      35.305 -16.660 -22.968  0.00  0.00    +0.314 C 
BRANCH  12  13
ATOM     13  O   UNL     1      35.718 -17.715 -23.716  0.00  0.00    -0.480 OA
ATOM     14  H   UNL     1      36.328 -18.331 -23.361  0.00  0.00    +0.295 HD
ENDBRANCH  12  13
ENDBRANCH  10  12
BRANCH  10  15
ATOM     15  C   UNL     1      34.552 -15.815 -20.727  0.00  0.00    +0.011 C 
ATOM     16  C   UNL     1      33.069 -15.469 -20.772  0.00  0.00    +0.001 C 
ENDBRANCH  10  15
ENDBRANCH   9  10
ENDBRANCH   1   9
BRANCH   3  17
ATOM     17  C   UNL     1      36.740 -21.319 -19.456  0.00  0.00    +0.120 C 
BRANCH  17  19
ATOM     18  O   UNL     1      37.545 -20.571 -16.803  0.00  0.00    -0.270 OA
ATOM     19  N   UNL     1      36.761 -22.168 -18.292  0.00  0.00    -0.297 N 
ATOM     20  C   UNL     1      37.169 -21.716 -17.044  0.00  0.00    +0.248 C 
ATOM     21  H   UNL     1      36.476 -23.105 -18.385  0.00  0.00    +0.150 HD
BRANCH  20  23
ATOM     22  F   UNL     1      34.955 -22.088 -15.330  0.00  0.00    -0.204 F 
ATOM     23  C   UNL     1      37.159 -22.721 -15.951  0.00  0.00    +0.081 C 
ATOM     24  C   UNL     1      36.035 -22.859 -15.137  0.00  0.00    +0.144 C 
ATOM     25  C   UNL     1      38.276 -23.529 -15.740  0.00  0.00    +0.007 C 
ATOM     26  C   UNL     1      37.145 -24.613 -13.901  0.00  0.00    +0.074 C 
ATOM     27  C   UNL     1      36.027 -23.805 -14.112  0.00  0.00    +0.034 C 
ATOM     28  C   UNL     1      38.270 -24.474 -14.715  0.00  0.00    +0.004 C 
BRANCH  26  32
ATOM     29  F   UNL     1      37.053 -26.914 -13.251  0.00  0.00    -0.166 F 
ATOM     30  F   UNL     1      38.255 -25.591 -12.022  0.00  0.00    -0.166 F 
ATOM     31  F   UNL     1      36.086 -25.463 -11.950  0.00  0.00    -0.166 F 
ATOM     32  C   UNL     1      37.137 -25.625 -12.805  0.00  0.00    +0.419 C 
ENDBRANCH  26  32
ENDBRANCH  20  23
ENDBRANCH  17  19
ENDBRANCH   3  17
TORSDOF 10
ENDMDL
MODEL 3
REMARK VINA RESULT:     -10.3      8.685     12.371
REMARK  Name = 11711595
REMARK  10 active torsions:
REMARK  status: ('A' for Active; 'I' for Inactive)
REMARK    1  A    between atoms: C_1  and  C_9
REMARK    2  A    between atoms: C_3  and  C_17
REMARK    3  A    between atoms: C_5  and  O_7
REMARK    4  A    between atoms: C_9  and  C_10
REMARK    5  A    between atoms: C_10  and  C_12
REMARK    6  A    between atoms: C_10  and  C_15
REMARK    7  A    between atoms: C_12  and  O_13
REMARK    8  A    between atoms: C_17  and  N_19
REMARK    9  A    between atoms: C_20  and  C_23
REMARK   10  A    between atoms: C_26  and  C_32
REMARK                            x       y       z     vdW  Elec       q    Type
REMARK                         _______ _______ _______ _____ _____    ______ ____
ROOT
ATOM      1  C   UNL     1      34.210 -15.921 -21.424  0.00  0.00    -0.022 C 
ATOM      2  C   UNL     1      34.388 -15.069 -22.515  0.00  0.00    -0.004 C 
ATOM      3  C   UNL     1      33.593 -13.931 -22.649  0.00  0.00    +0.031 C 
ATOM      4  C   UNL     1      33.237 -15.633 -20.467  0.00  0.00    -0.001 C 
ATOM      5  C   UNL     1      32.619 -13.644 -21.691  0.00  0.00    +0.136 C 
ATOM      6  C   UNL     1      32.441 -14.495 -20.601  0.00  0.00    +0.036 C 
ENDROOT
BRANCH   5   7
ATOM      7  O   UNL     1      31.834 -12.537 -21.807  0.00  0.00    -0.472 OA
ATOM      8  C   UNL     1      31.524 -11.834 -20.605  0.00  0.00    +0.252 C 
ENDBRANCH   5   7
BRANCH   1   9
ATOM      9  C   UNL     1      35.071 -17.153 -21.279  0.00  0.00    +0.037 C 
BRANCH   9  10
ATOM     10  C   UNL     1      34.445 -18.409 -21.913  0.00  0.00    +0.103 C 
BRANCH  10  12
ATOM     11  O   UNL     1      34.738 -19.424 -24.107  0.00  0.00    -0.250 OA
ATOM     12  C   UNL     1      35.203 -18.768 -23.183  0.00  0.00    +0.314 C 
BRANCH  12  13
ATOM     13  O   UNL     1      36.462 -18.260 -23.203  0.00  0.00    -0.480 OA
ATOM     14  H   UNL     1      36.761 -17.721 -22.497  0.00  0.00    +0.295 HD
ENDBRANCH  12  13
ENDBRANCH  10  12
BRANCH  10  15
ATOM     15  C   UNL     1      34.489 -19.585 -20.920  0.00  0.00    +0.011 C 
ATOM     16  C   UNL     1      33.101 -20.099 -20.558  0.00  0.00    +0.001 C 
ENDBRANCH  10  15
ENDBRANCH   9  10
ENDBRANCH   1   9
BRANCH   3  17
ATOM     17  C   UNL     1      33.797 -13.032 -23.822  0.00  0.00    +0.120 C 
BRANCH  17  19
ATOM     18  O   UNL     1      34.926 -10.553 -24.729  0.00  0.00    -0.270 OA
ATOM     19  N   UNL     1      33.266 -11.712 -23.597  0.00  0.00    -0.297 N 
ATOM     20  C   UNL     1      33.886 -10.565 -24.077  0.00  0.00    +0.248 C 
ATOM     21  H   UNL     1      32.433 -11.619 -23.083  0.00  0.00    +0.150 HD
BRANCH  20  23
ATOM     22  F   UNL     1      35.327  -8.168 -23.688  0.00  0.00    -0.204 F 
ATOM     23  C   UNL     1      33.227  -9.278 -23.737  0.00  0.00    +0.081 C 
ATOM     24  C   UNL     1      33.993  -8.126 -23.558  0.00  0.00    +0.144 C 
ATOM     25  C   UNL     1      31.841  -9.222 -23.599  0.00  0.00    +0.007 C 
ATOM     26  C   UNL     1      31.986  -6.863 -23.102  0.00  0.00    +0.074 C 
ATOM     27  C   UNL     1      33.373  -6.918 -23.240  0.00  0.00    +0.034 C 
ATOM     28  C   UNL     1      31.220  -8.015 -23.281  0.00  0.00    +0.004 C 
BRANCH  26  32
ATOM     29  F   UNL     1      32.037  -4.800 -21.889  0.00  0.00    -0.166 F 
ATOM     30  F   UNL     1      31.100  -4.769 -23.845  0.00  0.00    -0.166 F 
ATOM     31  F   UNL     1      30.100  -5.746 -22.180  0.00  0.00    -0.166 F 
ATOM     32  C   UNL     1      31.322  -5.571 -22.762  0.00  0.00    +0.419 C 
ENDBRANCH  26  32
ENDBRANCH  20  23
ENDBRANCH  17  19
ENDBRANCH   3  17
TORSDOF 10
ENDMDL
MODEL 4
REMARK VINA RESULT:     -10.2      6.495     11.915
REMARK  Name = 11711595
REMARK  10 active torsions:
REMARK  status: ('A' for Active; 'I' for Inactive)
REMARK    1  A    between atoms: C_1  and  C_9
REMARK    2  A    between atoms: C_3  and  C_17
REMARK    3  A    between atoms: C_5  and  O_7
REMARK    4  A    between atoms: C_9  and  C_10
REMARK    5  A    between atoms: C_10  and  C_12
REMARK    6  A    between atoms: C_10  and  C_15
REMARK    7  A    between atoms: C_12  and  O_13
REMARK    8  A    between atoms: C_17  and  N_19
REMARK    9  A    between atoms: C_20  and  C_23
REMARK   10  A    between atoms: C_26  and  C_32
REMARK                            x       y       z     vdW  Elec       q    Type
REMARK                         _______ _______ _______ _____ _____    ______ ____
ROOT
ATOM      1  C   UNL     1      33.303 -12.606 -23.534  0.00  0.00    -0.022 C 
ATOM      2  C   UNL     1      34.195 -13.663 -23.719  0.00  0.00    -0.004 C 
ATOM      3  C   UNL     1      34.100 -14.804 -22.922  0.00  0.00    +0.031 C 
ATOM      4  C   UNL     1      32.316 -12.691 -22.552  0.00  0.00    -0.001 C 
ATOM      5  C   UNL     1      33.112 -14.888 -21.940  0.00  0.00    +0.136 C 
ATOM      6  C   UNL     1      32.221 -13.832 -21.755  0.00  0.00    +0.036 C 
ENDROOT
BRANCH   5   7
ATOM      7  O   UNL     1      33.006 -15.995 -21.152  0.00  0.00    -0.472 OA
ATOM      8  C   UNL     1      31.848 -16.092 -20.325  0.00  0.00    +0.252 C 
ENDBRANCH   5   7
BRANCH   1   9
ATOM      9  C   UNL     1      33.406 -11.371 -24.397  0.00  0.00    +0.037 C 
BRANCH   9  10
ATOM     10  C   UNL     1      33.598 -10.077 -23.585  0.00  0.00    +0.103 C 
BRANCH  10  12
ATOM     11  O   UNL     1      34.895  -8.074 -24.068  0.00  0.00    -0.250 OA
ATOM     12  C   UNL     1      34.769  -9.289 -24.155  0.00  0.00    +0.314 C 
BRANCH  12  13
ATOM     13  O   UNL     1      35.688 -10.083 -24.761  0.00  0.00    -0.480 OA
ATOM     14  H   UNL     1      35.562 -11.011 -24.788  0.00  0.00    +0.295 HD
ENDBRANCH  12  13
ENDBRANCH  10  12
BRANCH  10  15
ATOM     15  C   UNL     1      32.315  -9.226 -23.628  0.00  0.00    +0.011 C 
ATOM     16  C   UNL     1      31.755  -8.938 -22.240  0.00  0.00    +0.001 C 
ENDBRANCH  10  15
ENDBRANCH   9  10
ENDBRANCH   1   9
BRANCH   3  17
ATOM     17  C   UNL     1      35.063 -15.925 -23.134  0.00  0.00    +0.120 C 
BRANCH  17  19
ATOM     18  O   UNL     1      35.753 -18.675 -23.582  0.00  0.00    -0.270 OA
ATOM     19  N   UNL     1      34.821 -17.029 -22.241  0.00  0.00    -0.297 N 
ATOM     20  C   UNL     1      35.192 -18.331 -22.545  0.00  0.00    +0.248 C 
ATOM     21  H   UNL     1      34.374 -16.853 -21.382  0.00  0.00    +0.150 HD
BRANCH  20  23
ATOM     22  F   UNL     1      37.139 -19.631 -20.964  0.00  0.00    -0.204 F 
ATOM     23  C   UNL     1      34.847 -19.361 -21.531  0.00  0.00    +0.081 C 
ATOM     24  C   UNL     1      35.853 -19.968 -20.780  0.00  0.00    +0.144 C 
ATOM     25  C   UNL     1      33.514 -19.720 -21.331  0.00  0.00    +0.007 C 
ATOM     26  C   UNL     1      34.195 -21.292 -19.627  0.00  0.00    +0.074 C 
ATOM     27  C   UNL     1      35.527 -20.933 -19.827  0.00  0.00    +0.034 C 
ATOM     28  C   UNL     1      33.188 -20.686 -20.380  0.00  0.00    +0.004 C 
BRANCH  26  32
ATOM     29  F   UNL     1      34.748 -22.412 -17.586  0.00  0.00    -0.166 F 
ATOM     30  F   UNL     1      32.641 -22.110 -18.003  0.00  0.00    -0.166 F 
ATOM     31  F   UNL     1      33.770 -23.580 -19.139  0.00  0.00    -0.166 F 
ATOM     32  C   UNL     1      33.845 -22.325 -18.609  0.00  0.00    +0.419 C 
ENDBRANCH  26  32
ENDBRANCH  20  23
ENDBRANCH  17  19
ENDBRANCH   3  17
TORSDOF 10
ENDMDL
MODEL 5
REMARK VINA RESULT:     -10.1      8.750     14.092
REMARK  Name = 11711595
REMARK  10 active torsions:
REMARK  status: ('A' for Active; 'I' for Inactive)
REMARK    1  A    between atoms: C_1  and  C_9
REMARK    2  A    between atoms: C_3  and  C_17
REMARK    3  A    between atoms: C_5  and  O_7
REMARK    4  A    between atoms: C_9  and  C_10
REMARK    5  A    between atoms: C_10  and  C_12
REMARK    6  A    between atoms: C_10  and  C_15
REMARK    7  A    between atoms: C_12  and  O_13
REMARK    8  A    between atoms: C_17  and  N_19
REMARK    9  A    between atoms: C_20  and  C_23
REMARK   10  A    between atoms: C_26  and  C_32
REMARK                            x       y       z     vdW  Elec       q    Type
REMARK                         _______ _______ _______ _____ _____    ______ ____
ROOT
ATOM      1  C   UNL     1      33.563  -8.579 -22.999  0.00  0.00    -0.022 C 
ATOM      2  C   UNL     1      32.671  -9.632 -22.791  0.00  0.00    -0.004 C 
ATOM      3  C   UNL     1      32.848 -10.839 -23.468  0.00  0.00    +0.031 C 
ATOM      4  C   UNL     1      34.631  -8.734 -23.883  0.00  0.00    -0.001 C 
ATOM      5  C   UNL     1      33.916 -10.993 -24.352  0.00  0.00    +0.136 C 
ATOM      6  C   UNL     1      34.807  -9.941 -24.560  0.00  0.00    +0.036 C 
ENDROOT
BRANCH   5   7
ATOM      7  O   UNL     1      34.102 -12.165 -25.022  0.00  0.00    -0.472 OA
ATOM      8  C   UNL     1      33.722 -12.193 -26.396  0.00  0.00    +0.252 C 
ENDBRANCH   5   7
BRANCH   1   9
ATOM      9  C   UNL     1      33.373  -7.272 -22.266  0.00  0.00    +0.037 C 
BRANCH   9  10
ATOM     10  C   UNL     1      32.062  -7.214 -21.460  0.00  0.00    +0.103 C 
BRANCH  10  12
ATOM     11  O   UNL     1      31.816  -8.610 -19.480  0.00  0.00    -0.250 OA
ATOM     12  C   UNL     1      32.331  -7.641 -20.023  0.00  0.00    +0.314 C 
BRANCH  12  13
ATOM     13  O   UNL     1      33.234  -6.842 -19.400  0.00  0.00    -0.480 OA
ATOM     14  H   UNL     1      34.090  -7.167 -19.201  0.00  0.00    +0.295 HD
ENDBRANCH  12  13
ENDBRANCH  10  12
BRANCH  10  15
ATOM     15  C   UNL     1      31.482  -5.788 -21.488  0.00  0.00    +0.011 C 
ATOM     16  C   UNL     1      31.424  -5.206 -22.896  0.00  0.00    +0.001 C 
ENDBRANCH  10  15
ENDBRANCH   9  10
ENDBRANCH   1   9
BRANCH   3  17
ATOM     17  C   UNL     1      31.884 -11.954 -23.234  0.00  0.00    +0.120 C 
BRANCH  17  19
ATOM     18  O   UNL     1      32.432 -13.287 -20.750  0.00  0.00    -0.270 OA
ATOM     19  N   UNL     1      32.547 -13.222 -23.066  0.00  0.00    -0.297 N 
ATOM     20  C   UNL     1      32.769 -13.790 -21.819  0.00  0.00    +0.248 C 
ATOM     21  H   UNL     1      32.855 -13.704 -23.867  0.00  0.00    +0.150 HD
BRANCH  20  23
ATOM     22  F   UNL     1      31.993 -15.962 -20.188  0.00  0.00    -0.204 F 
ATOM     23  C   UNL     1      33.490 -15.089 -21.813  0.00  0.00    +0.081 C 
ATOM     24  C   UNL     1      33.059 -16.126 -20.986  0.00  0.00    +0.144 C 
ATOM     25  C   UNL     1      34.599 -15.271 -22.638  0.00  0.00    +0.007 C 
ATOM     26  C   UNL     1      34.846 -17.526 -21.808  0.00  0.00    +0.074 C 
ATOM     27  C   UNL     1      33.736 -17.344 -20.983  0.00  0.00    +0.034 C 
ATOM     28  C   UNL     1      35.278 -16.489 -22.636  0.00  0.00    +0.004 C 
BRANCH  26  32
ATOM     29  F   UNL     1      36.923 -18.704 -21.958  0.00  0.00    -0.166 F 
ATOM     30  F   UNL     1      35.407 -19.544 -20.654  0.00  0.00    -0.166 F 
ATOM     31  F   UNL     1      35.164 -19.658 -22.812  0.00  0.00    -0.166 F 
ATOM     32  C   UNL     1      35.571 -18.830 -21.806  0.00  0.00    +0.419 C 
ENDBRANCH  26  32
ENDBRANCH  20  23
ENDBRANCH  17  19
ENDBRANCH   3  17
TORSDOF 10
ENDMDL
MODEL 6
REMARK VINA RESULT:     -10.1      1.719      2.175
REMARK  Name = 11711595
REMARK  10 active torsions:
REMARK  status: ('A' for Active; 'I' for Inactive)
REMARK    1  A    between atoms: C_1  and  C_9
REMARK    2  A    between atoms: C_3  and  C_17
REMARK    3  A    between atoms: C_5  and  O_7
REMARK    4  A    between atoms: C_9  and  C_10
REMARK    5  A    between atoms: C_10  and  C_12
REMARK    6  A    between atoms: C_10  and  C_15
REMARK    7  A    between atoms: C_12  and  O_13
REMARK    8  A    between atoms: C_17  and  N_19
REMARK    9  A    between atoms: C_20  and  C_23
REMARK   10  A    between atoms: C_26  and  C_32
REMARK                            x       y       z     vdW  Elec       q    Type
REMARK                         _______ _______ _______ _____ _____    ______ ____
ROOT
ATOM      1  C   UNL     1      36.424 -23.745 -14.728  0.00  0.00    -0.022 C 
ATOM      2  C   UNL     1      35.709 -23.696 -15.925  0.00  0.00    -0.004 C 
ATOM      3  C   UNL     1      34.314 -23.660 -15.903  0.00  0.00    +0.031 C 
ATOM      4  C   UNL     1      35.744 -23.759 -13.510  0.00  0.00    -0.001 C 
ATOM      5  C   UNL     1      33.635 -23.674 -14.684  0.00  0.00    +0.136 C 
ATOM      6  C   UNL     1      34.350 -23.723 -13.488  0.00  0.00    +0.036 C 
ENDROOT
BRANCH   5   7
ATOM      7  O   UNL     1      32.274 -23.640 -14.645  0.00  0.00    -0.472 OA
ATOM      8  C   UNL     1      31.624 -24.623 -13.841  0.00  0.00    +0.252 C 
ENDBRANCH   5   7
BRANCH   1   9
ATOM      9  C   UNL     1      37.933 -23.784 -14.751  0.00  0.00    +0.037 C 
BRANCH   9  10
ATOM     10  C   UNL     1      38.504 -25.214 -14.748  0.00  0.00    +0.103 C 
BRANCH  10  12
ATOM     11  O   UNL     1      40.797 -24.575 -14.234  0.00  0.00    -0.250 OA
ATOM     12  C   UNL     1      40.010 -25.161 -14.967  0.00  0.00    +0.314 C 
BRANCH  12  13
ATOM     13  O   UNL     1      40.405 -25.858 -16.063  0.00  0.00    -0.480 OA
ATOM     14  H   UNL     1      40.087 -25.618 -16.911  0.00  0.00    +0.295 HD
ENDBRANCH  12  13
ENDBRANCH  10  12
BRANCH  10  15
ATOM     15  C   UNL     1      38.188 -25.910 -13.411  0.00  0.00    +0.011 C 
ATOM     16  C   UNL     1      37.101 -26.970 -13.543  0.00  0.00    +0.001 C 
ENDBRANCH  10  15
ENDBRANCH   9  10
ENDBRANCH   1   9
BRANCH   3  17
ATOM     17  C   UNL     1      33.566 -23.608 -17.193  0.00  0.00    +0.120 C 
BRANCH  17  19
ATOM     18  O   UNL     1      32.142 -21.763 -18.871  0.00  0.00    -0.270 OA
ATOM     19  N   UNL     1      34.142 -22.668 -18.121  0.00  0.00    -0.297 N 
ATOM     20  C   UNL     1      33.369 -21.812 -18.894  0.00  0.00    +0.248 C 
ATOM     21  H   UNL     1      35.121 -22.632 -18.211  0.00  0.00    +0.150 HD
BRANCH  20  23
ATOM     22  F   UNL     1      32.084 -20.207 -20.831  0.00  0.00    -0.204 F 
ATOM     23  C   UNL     1      34.113 -20.921 -19.822  0.00  0.00    +0.081 C 
ATOM     24  C   UNL     1      33.422 -20.152 -20.758  0.00  0.00    +0.144 C 
ATOM     25  C   UNL     1      35.504 -20.855 -19.755  0.00  0.00    +0.007 C 
ATOM     26  C   UNL     1      35.514 -19.249 -21.560  0.00  0.00    +0.074 C 
ATOM     27  C   UNL     1      34.122 -19.315 -21.627  0.00  0.00    +0.034 C 
ATOM     28  C   UNL     1      36.205 -20.020 -20.624  0.00  0.00    +0.004 C 
BRANCH  26  32
ATOM     29  F   UNL     1      35.951 -17.032 -22.346  0.00  0.00    -0.166 F 
ATOM     30  F   UNL     1      37.618 -18.419 -22.336  0.00  0.00    -0.166 F 
ATOM     31  F   UNL     1      36.028 -18.647 -23.802  0.00  0.00    -0.166 F 
ATOM     32  C   UNL     1      36.263 -18.355 -22.489  0.00  0.00    +0.419 C 
ENDBRANCH  26  32
ENDBRANCH  20  23
ENDBRANCH  17  19
ENDBRANCH   3  17
TORSDOF 10
ENDMDL
MODEL 7
REMARK VINA RESULT:     -10.1      9.926     14.888
REMARK  Name = 11711595
REMARK  10 active torsions:
REMARK  status: ('A' for Active; 'I' for Inactive)
REMARK    1  A    between atoms: C_1  and  C_9
REMARK    2  A    between atoms: C_3  and  C_17
REMARK    3  A    between atoms: C_5  and  O_7
REMARK    4  A    between atoms: C_9  and  C_10
REMARK    5  A    between atoms: C_10  and  C_12
REMARK    6  A    between atoms: C_10  and  C_15
REMARK    7  A    between atoms: C_12  and  O_13
REMARK    8  A    between atoms: C_17  and  N_19
REMARK    9  A    between atoms: C_20  and  C_23
REMARK   10  A    between atoms: C_26  and  C_32
REMARK                            x       y       z     vdW  Elec       q    Type
REMARK                         _______ _______ _______ _____ _____    ______ ____
ROOT
ATOM      1  C   UNL     1      32.449  -7.791 -22.039  0.00  0.00    -0.022 C 
ATOM      2  C   UNL     1      31.867  -8.898 -22.659  0.00  0.00    -0.004 C 
ATOM      3  C   UNL     1      31.500 -10.010 -21.901  0.00  0.00    +0.031 C 
ATOM      4  C   UNL     1      32.662  -7.797 -20.660  0.00  0.00    -0.001 C 
ATOM      5  C   UNL     1      31.715 -10.015 -20.522  0.00  0.00    +0.136 C 
ATOM      6  C   UNL     1      32.295  -8.909 -19.902  0.00  0.00    +0.036 C 
ENDROOT
BRANCH   5   7
ATOM      7  O   UNL     1      31.363 -11.093 -19.767  0.00  0.00    -0.472 OA
ATOM      8  C   UNL     1      31.346 -10.915 -18.352  0.00  0.00    +0.252 C 
ENDBRANCH   5   7
BRANCH   1   9
ATOM      9  C   UNL     1      32.846  -6.587 -22.859  0.00  0.00    +0.037 C 
BRANCH   9  10
ATOM     10  C   UNL     1      31.661  -5.937 -23.597  0.00  0.00    +0.103 C 
BRANCH  10  12
ATOM     11  O   UNL     1      30.018  -5.200 -21.957  0.00  0.00    -0.250 OA
ATOM     12  C   UNL     1      30.976  -4.938 -22.675  0.00  0.00    +0.314 C 
BRANCH  12  13
ATOM     13  O   UNL     1      31.556  -3.711 -22.708  0.00  0.00    -0.480 OA
ATOM     14  H   UNL     1      31.031  -2.949 -22.854  0.00  0.00    +0.295 HD
ENDBRANCH  12  13
ENDBRANCH  10  12
BRANCH  10  15
ATOM     15  C   UNL     1      32.152  -5.229 -24.873  0.00  0.00    +0.011 C 
ATOM     16  C   UNL     1      33.466  -5.800 -25.392  0.00  0.00    +0.001 C 
ENDBRANCH  10  15
ENDBRANCH   9  10
ENDBRANCH   1   9
BRANCH   3  17
ATOM     17  C   UNL     1      30.881 -11.184 -22.582  0.00  0.00    +0.120 C 
BRANCH  17  19
ATOM     18  O   UNL     1      33.383 -11.889 -23.799  0.00  0.00    -0.270 OA
ATOM     19  N   UNL     1      31.629 -12.396 -22.369  0.00  0.00    -0.297 N 
ATOM     20  C   UNL     1      32.836 -12.651 -23.006  0.00  0.00    +0.248 C 
ATOM     21  H   UNL     1      31.271 -13.071 -21.748  0.00  0.00    +0.150 HD
BRANCH  20  23
ATOM     22  F   UNL     1      32.952 -13.721 -20.394  0.00  0.00    -0.204 F 
ATOM     23  C   UNL     1      33.472 -13.959 -22.700  0.00  0.00    +0.081 C 
ATOM     24  C   UNL     1      33.498 -14.436 -21.390  0.00  0.00    +0.144 C 
ATOM     25  C   UNL     1      34.042 -14.710 -23.728  0.00  0.00    +0.007 C 
ATOM     26  C   UNL     1      34.663 -16.416 -22.134  0.00  0.00    +0.074 C 
ATOM     27  C   UNL     1      34.093 -15.664 -21.106  0.00  0.00    +0.034 C 
ATOM     28  C   UNL     1      34.638 -15.939 -23.444  0.00  0.00    +0.004 C 
BRANCH  26  32
ATOM     29  F   UNL     1      35.853 -17.796 -20.582  0.00  0.00    -0.166 F 
ATOM     30  F   UNL     1      34.435 -18.784 -21.892  0.00  0.00    -0.166 F 
ATOM     31  F   UNL     1      36.312 -18.035 -22.695  0.00  0.00    -0.166 F 
ATOM     32  C   UNL     1      35.301 -17.730 -21.830  0.00  0.00    +0.419 C 
ENDBRANCH  26  32
ENDBRANCH  20  23
ENDBRANCH  17  19
ENDBRANCH   3  17
TORSDOF 10
ENDMDL
MODEL 8
REMARK VINA RESULT:     -10.1      9.197     14.449
REMARK  Name = 11711595
REMARK  10 active torsions:
REMARK  status: ('A' for Active; 'I' for Inactive)
REMARK    1  A    between atoms: C_1  and  C_9
REMARK    2  A    between atoms: C_3  and  C_17
REMARK    3  A    between atoms: C_5  and  O_7
REMARK    4  A    between atoms: C_9  and  C_10
REMARK    5  A    between atoms: C_10  and  C_12
REMARK    6  A    between atoms: C_10  and  C_15
REMARK    7  A    between atoms: C_12  and  O_13
REMARK    8  A    between atoms: C_17  and  N_19
REMARK    9  A    between atoms: C_20  and  C_23
REMARK   10  A    between atoms: C_26  and  C_32
REMARK                            x       y       z     vdW  Elec       q    Type
REMARK                         _______ _______ _______ _____ _____    ______ ____
ROOT
ATOM      1  C   UNL     1      32.723  -8.599 -22.708  0.00  0.00    -0.022 C 
ATOM      2  C   UNL     1      33.301  -9.499 -23.605  0.00  0.00    -0.004 C 
ATOM      3  C   UNL     1      33.048 -10.866 -23.482  0.00  0.00    +0.031 C 
ATOM      4  C   UNL     1      31.894  -9.066 -21.689  0.00  0.00    -0.001 C 
ATOM      5  C   UNL     1      32.218 -11.332 -22.461  0.00  0.00    +0.136 C 
ATOM      6  C   UNL     1      31.641 -10.433 -21.565  0.00  0.00    +0.036 C 
ENDROOT
BRANCH   5   7
ATOM      7  O   UNL     1      31.961 -12.663 -22.326  0.00  0.00    -0.472 OA
ATOM      8  C   UNL     1      31.963 -13.192 -21.001  0.00  0.00    +0.252 C 
ENDBRANCH   5   7
BRANCH   1   9
ATOM      9  C   UNL     1      32.997  -7.120 -22.842  0.00  0.00    +0.037 C 
BRANCH   9  10
ATOM     10  C   UNL     1      31.792  -6.326 -23.379  0.00  0.00    +0.103 C 
BRANCH  10  12
ATOM     11  O   UNL     1      30.160  -4.849 -22.336  0.00  0.00    -0.250 OA
ATOM     12  C   UNL     1      31.222  -5.456 -22.266  0.00  0.00    +0.314 C 
BRANCH  12  13
ATOM     13  O   UNL     1      32.008  -5.439 -21.160  0.00  0.00    -0.480 OA
ATOM     14  H   UNL     1      31.657  -5.699 -20.331  0.00  0.00    +0.295 HD
ENDBRANCH  12  13
ENDBRANCH  10  12
BRANCH  10  15
ATOM     15  C   UNL     1      32.220  -5.449 -24.570  0.00  0.00    +0.011 C 
ATOM     16  C   UNL     1      33.522  -5.919 -25.206  0.00  0.00    +0.001 C 
ENDBRANCH  10  15
ENDBRANCH   9  10
ENDBRANCH   1   9
BRANCH   3  17
ATOM     17  C   UNL     1      33.674 -11.814 -24.450  0.00  0.00    +0.120 C 
BRANCH  17  19
ATOM     18  O   UNL     1      33.160 -14.449 -25.467  0.00  0.00    -0.270 OA
ATOM     19  N   UNL     1      34.041 -13.062 -23.831  0.00  0.00    -0.297 N 
ATOM     20  C   UNL     1      33.748 -14.294 -24.401  0.00  0.00    +0.248 C 
ATOM     21  H   UNL     1      34.518 -13.041 -22.970  0.00  0.00    +0.150 HD
BRANCH  20  23
ATOM     22  F   UNL     1      34.728 -16.643 -25.624  0.00  0.00    -0.204 F 
ATOM     23  C   UNL     1      34.170 -15.488 -23.625  0.00  0.00    +0.081 C 
ATOM     24  C   UNL     1      34.647 -16.620 -24.285  0.00  0.00    +0.144 C 
ATOM     25  C   UNL     1      34.090 -15.475 -22.232  0.00  0.00    +0.007 C 
ATOM     26  C   UNL     1      34.964 -17.727 -22.163  0.00  0.00    +0.074 C 
ATOM     27  C   UNL     1      35.044 -17.739 -23.555  0.00  0.00    +0.034 C 
ATOM     28  C   UNL     1      34.487 -16.595 -21.501  0.00  0.00    +0.004 C 
BRANCH  26  32
ATOM     29  F   UNL     1      36.602 -18.776 -20.769  0.00  0.00    -0.166 F 
ATOM     30  F   UNL     1      34.523 -19.258 -20.379  0.00  0.00    -0.166 F 
ATOM     31  F   UNL     1      35.503 -20.043 -22.155  0.00  0.00    -0.166 F 
ATOM     32  C   UNL     1      35.389 -18.924 -21.381  0.00  0.00    +0.419 C 
ENDBRANCH  26  32
ENDBRANCH  20  23
ENDBRANCH  17  19
ENDBRANCH   3  17
TORSDOF 10
ENDMDL
MODEL 9
REMARK VINA RESULT:     -10.0      4.135      9.310
REMARK  Name = 11711595
REMARK  10 active torsions:
REMARK  status: ('A' for Active; 'I' for Inactive)
REMARK    1  A    between atoms: C_1  and  C_9
REMARK    2  A    between atoms: C_3  and  C_17
REMARK    3  A    between atoms: C_5  and  O_7
REMARK    4  A    between atoms: C_9  and  C_10
REMARK    5  A    between atoms: C_10  and  C_12
REMARK    6  A    between atoms: C_10  and  C_15
REMARK    7  A    between atoms: C_12  and  O_13
REMARK    8  A    between atoms: C_17  and  N_19
REMARK    9  A    between atoms: C_20  and  C_23
REMARK   10  A    between atoms: C_26  and  C_32
REMARK                            x       y       z     vdW  Elec       q    Type
REMARK                         _______ _______ _______ _____ _____    ______ ____
ROOT
ATOM      1  C   UNL     1      34.688 -19.417 -21.158  0.00  0.00    -0.022 C 
ATOM      2  C   UNL     1      33.878 -20.354 -20.514  0.00  0.00    -0.004 C 
ATOM      3  C   UNL     1      34.441 -21.266 -19.621  0.00  0.00    +0.031 C 
ATOM      4  C   UNL     1      36.060 -19.394 -20.909  0.00  0.00    -0.001 C 
ATOM      5  C   UNL     1      35.814 -21.242 -19.373  0.00  0.00    +0.136 C 
ATOM      6  C   UNL     1      36.623 -20.306 -20.017  0.00  0.00    +0.036 C 
ENDROOT
BRANCH   5   7
ATOM      7  O   UNL     1      36.381 -22.126 -18.505  0.00  0.00    -0.472 OA
ATOM      8  C   UNL     1      37.133 -21.580 -17.423  0.00  0.00    +0.252 C 
ENDBRANCH   5   7
BRANCH   1   9
ATOM      9  C   UNL     1      34.078 -18.430 -22.124  0.00  0.00    +0.037 C 
BRANCH   9  10
ATOM     10  C   UNL     1      35.111 -17.786 -23.067  0.00  0.00    +0.103 C 
BRANCH  10  12
ATOM     11  O   UNL     1      34.721 -17.421 -25.443  0.00  0.00    -0.250 OA
ATOM     12  C   UNL     1      34.815 -18.200 -24.502  0.00  0.00    +0.314 C 
BRANCH  12  13
ATOM     13  O   UNL     1      34.687 -19.544 -24.644  0.00  0.00    -0.480 OA
ATOM     14  H   UNL     1      33.840 -19.941 -24.604  0.00  0.00    +0.295 HD
ENDBRANCH  12  13
ENDBRANCH  10  12
BRANCH  10  15
ATOM     15  C   UNL     1      35.066 -16.252 -22.939  0.00  0.00    +0.011 C 
ATOM     16  C   UNL     1      34.642 -15.792 -21.549  0.00  0.00    +0.001 C 
ENDBRANCH  10  15
ENDBRANCH   9  10
ENDBRANCH   1   9
BRANCH   3  17
ATOM     17  C   UNL     1      33.560 -22.261 -18.942  0.00  0.00    +0.120 C 
BRANCH  17  19
ATOM     18  O   UNL     1      32.126 -23.416 -16.739  0.00  0.00    -0.270 OA
ATOM     19  N   UNL     1      34.122 -22.730 -17.701  0.00  0.00    -0.297 N 
ATOM     20  C   UNL     1      33.345 -23.276 -16.688  0.00  0.00    +0.248 C 
ATOM     21  H   UNL     1      35.094 -22.660 -17.566  0.00  0.00    +0.150 HD
BRANCH  20  23
ATOM     22  F   UNL     1      32.130 -23.327 -14.139  0.00  0.00    -0.204 F 
ATOM     23  C   UNL     1      34.072 -23.687 -15.459  0.00  0.00    +0.081 C 
ATOM     24  C   UNL     1      33.417 -23.693 -14.228  0.00  0.00    +0.144 C 
ATOM     25  C   UNL     1      35.411 -24.069 -15.539  0.00  0.00    +0.007 C 
ATOM     26  C   UNL     1      35.440 -24.463 -13.156  0.00  0.00    +0.074 C 
ATOM     27  C   UNL     1      34.101 -24.081 -13.076  0.00  0.00    +0.034 C 
ATOM     28  C   UNL     1      36.095 -24.456 -14.387  0.00  0.00    +0.004 C 
BRANCH  26  32
ATOM     29  F   UNL     1      35.358 -25.066 -10.841  0.00  0.00    -0.166 F 
ATOM     30  F   UNL     1      36.855 -26.052 -12.063  0.00  0.00    -0.166 F 
ATOM     31  F   UNL     1      37.099 -23.958 -11.529  0.00  0.00    -0.166 F 
ATOM     32  C   UNL     1      36.171 -24.878 -11.924  0.00  0.00    +0.419 C 
ENDBRANCH  26  32
ENDBRANCH  20  23
ENDBRANCH  17  19
ENDBRANCH   3  17
TORSDOF 10
ENDMDL
