MODEL 1
REMARK VINA RESULT:      -9.2      0.000      0.000
REMARK  Name = 25227436
REMARK  7 active torsions:
REMARK  status: ('A' for Active; 'I' for Inactive)
REMARK    1  A    between atoms: C_5  and  C_19
REMARK    2  A    between atoms: C_5  and  N_33
REMARK    3  A    between atoms: N_18  and  C_21
REMARK    4  A    between atoms: C_21  and  C_23
REMARK    5  A    between atoms: C_21  and  C_29
REMARK    6  A    between atoms: C_29  and  C_30
REMARK    7  A    between atoms: C_30  and  O_31
REMARK                            x       y       z     vdW  Elec       q    Type
REMARK                         _______ _______ _______ _____ _____    ______ ____
ROOT
ATOM      1  N   UNL     1      32.821 -10.727 -22.997  0.00  0.00    -0.296 N 
ATOM      2  N   UNL     1      33.443 -12.283 -24.690  0.00  0.00    -0.233 NA
ATOM      3  N   UNL     1      32.858 -15.292 -22.059  0.00  0.00    -0.300 N 
ATOM      4  N   UNL     1      33.495 -14.686 -24.304  0.00  0.00    -0.233 NA
ATOM      5  C   UNL     1      32.374  -7.966 -22.216  0.00  0.00    +0.025 C 
ATOM      6  C   UNL     1      31.588  -9.124 -21.590  0.00  0.00    +0.010 C 
ATOM      7  C   UNL     1      33.741  -8.457 -22.710  0.00  0.00    +0.010 C 
ATOM      8  C   UNL     1      31.491 -10.337 -22.520  0.00  0.00    +0.090 C 
ATOM      9  C   UNL     1      33.622  -9.672 -23.632  0.00  0.00    +0.090 C 
ATOM     10  C   UNL     1      33.041 -12.044 -23.420  0.00  0.00    +0.116 C 
ATOM     11  C   UNL     1      32.852 -13.114 -22.547  0.00  0.00    +0.131 C 
ATOM     12  C   UNL     1      33.095 -14.384 -23.057  0.00  0.00    +0.117 C 
ATOM     13  C   UNL     1      32.454 -13.280 -21.196  0.00  0.00    +0.004 C 
ATOM     14  C   UNL     1      33.643 -13.571 -25.048  0.00  0.00    +0.252 C 
ATOM     15  C   UNL     1      32.468 -14.631 -20.922  0.00  0.00    +0.059 C 
ATOM     16  H   UNL     1      32.951 -16.268 -22.145  0.00  0.00    +0.153 HD
ENDROOT
BRANCH   5  19
ATOM     17  O   UNL     1      30.508  -7.786 -23.704  0.00  0.00    -0.277 OA
ATOM     18  N   UNL     1      32.241  -6.242 -23.880  0.00  0.00    -0.304 N 
ATOM     19  C   UNL     1      31.590  -7.335 -23.335  0.00  0.00    +0.204 C 
ATOM     20  H   UNL     1      33.108  -5.974 -23.497  0.00  0.00    +0.150 HD
BRANCH  18  21
ATOM     21  C   UNL     1      31.711  -5.474 -24.983  0.00  0.00    +0.096 C 
BRANCH  21  23
ATOM     22 CL   UNL     1      36.136  -3.927 -28.768  0.00  0.00    -0.082 Cl
ATOM     23  C   UNL     1      32.823  -5.085 -25.935  0.00  0.00    -0.004 C 
ATOM     24  C   UNL     1      32.621  -4.066 -26.865  0.00  0.00    -0.002 C 
ATOM     25  C   UNL     1      34.050  -5.746 -25.881  0.00  0.00    -0.002 C 
ATOM     26  C   UNL     1      33.645  -3.707 -27.741  0.00  0.00    +0.011 C 
ATOM     27  C   UNL     1      35.075  -5.388 -26.757  0.00  0.00    +0.011 C 
ATOM     28  C   UNL     1      34.872  -4.368 -27.687  0.00  0.00    +0.058 C 
ENDBRANCH  21  23
BRANCH  21  29
ATOM     29  C   UNL     1      30.901  -4.277 -24.460  0.00  0.00    +0.056 C 
BRANCH  29  30
ATOM     30  C   UNL     1      31.347  -3.805 -23.080  0.00  0.00    +0.139 C 
BRANCH  30  31
ATOM     31  O   UNL     1      30.493  -4.385 -22.103  0.00  0.00    -0.382 OA
ATOM     32  H   UNL     1      31.030  -4.835 -21.430  0.00  0.00    +0.210 HD
ENDBRANCH  30  31
ENDBRANCH  29  30
ENDBRANCH  21  29
ENDBRANCH  18  21
ENDBRANCH   5  19
BRANCH   5  33
ATOM     33  N   UNL     1      32.542  -6.896 -21.231  0.00  0.00    +0.388 N 
ATOM     34  H   UNL     1      33.152  -7.217 -20.480  0.00  0.00    -0.088 HD
ATOM     35  H   UNL     1      31.632  -6.643 -20.845  0.00  0.00    -0.088 HD
ATOM     36  H   UNL     1      32.958  -6.081 -21.682  0.00  0.00    -0.088 HD
ENDBRANCH   5  33
TORSDOF 7
ENDMDL
MODEL 2
REMARK VINA RESULT:      -8.8      4.734      7.886
REMARK  Name = 25227436
REMARK  7 active torsions:
REMARK  status: ('A' for Active; 'I' for Inactive)
REMARK    1  A    between atoms: C_5  and  C_19
REMARK    2  A    between atoms: C_5  and  N_33
REMARK    3  A    between atoms: N_18  and  C_21
REMARK    4  A    between atoms: C_21  and  C_23
REMARK    5  A    between atoms: C_21  and  C_29
REMARK    6  A    between atoms: C_29  and  C_30
REMARK    7  A    between atoms: C_30  and  O_31
REMARK                            x       y       z     vdW  Elec       q    Type
REMARK                         _______ _______ _______ _____ _____    ______ ____
ROOT
ATOM      1  N   UNL     1      34.631 -17.742 -20.995  0.00  0.00    -0.296 N 
ATOM      2  N   UNL     1      36.618 -19.024 -20.707  0.00  0.00    -0.233 NA
ATOM      3  N   UNL     1      34.350 -22.185 -19.616  0.00  0.00    -0.300 N 
ATOM      4  N   UNL     1      36.581 -21.350 -19.991  0.00  0.00    -0.233 NA
ATOM      5  C   UNL     1      33.400 -15.214 -21.723  0.00  0.00    +0.025 C 
ATOM      6  C   UNL     1      32.694 -16.556 -21.951  0.00  0.00    +0.010 C 
ATOM      7  C   UNL     1      34.392 -15.327 -20.558  0.00  0.00    +0.010 C 
ATOM      8  C   UNL     1      33.680 -17.717 -22.111  0.00  0.00    +0.090 C 
ATOM      9  C   UNL     1      35.363 -16.496 -20.733  0.00  0.00    +0.090 C 
ATOM     10  C   UNL     1      35.267 -18.944 -20.661  0.00  0.00    +0.116 C 
ATOM     11  C   UNL     1      34.526 -20.060 -20.278  0.00  0.00    +0.131 C 
ATOM     12  C   UNL     1      35.244 -21.208 -19.965  0.00  0.00    +0.117 C 
ATOM     13  C   UNL     1      33.153 -20.374 -20.110  0.00  0.00    +0.004 C 
ATOM     14  C   UNL     1      37.182 -20.206 -20.373  0.00  0.00    +0.252 C 
ATOM     15  C   UNL     1      33.074 -21.688 -19.700  0.00  0.00    +0.059 C 
ATOM     16  H   UNL     1      34.585 -23.102 -19.348  0.00  0.00    +0.153 HD
ENDROOT
BRANCH   5  19
ATOM     17  O   UNL     1      35.162 -15.241 -23.343  0.00  0.00    -0.277 OA
ATOM     18  N   UNL     1      33.400 -13.745 -23.621  0.00  0.00    -0.304 N 
ATOM     19  C   UNL     1      34.093 -14.757 -22.979  0.00  0.00    +0.204 C 
ATOM     20  H   UNL     1      32.548 -13.440 -23.231  0.00  0.00    +0.150 HD
BRANCH  18  21
ATOM     21  C   UNL     1      33.864 -13.116 -24.836  0.00  0.00    +0.096 C 
BRANCH  21  23
ATOM     22 CL   UNL     1      34.641  -7.206 -23.962  0.00  0.00    -0.082 Cl
ATOM     23  C   UNL     1      34.059 -11.631 -24.617  0.00  0.00    -0.004 C 
ATOM     24  C   UNL     1      34.978 -10.925 -25.393  0.00  0.00    -0.002 C 
ATOM     25  C   UNL     1      33.320 -10.966 -23.638  0.00  0.00    -0.002 C 
ATOM     26  C   UNL     1      35.158  -9.557 -25.192  0.00  0.00    +0.011 C 
ATOM     27  C   UNL     1      33.498  -9.598 -23.436  0.00  0.00    +0.011 C 
ATOM     28  C   UNL     1      34.418  -8.893 -24.213  0.00  0.00    +0.058 C 
ENDBRANCH  21  23
BRANCH  21  29
ATOM     29  C   UNL     1      32.919 -13.447 -26.003  0.00  0.00    +0.056 C 
BRANCH  29  30
ATOM     30  C   UNL     1      32.741 -14.945 -26.227  0.00  0.00    +0.139 C 
BRANCH  30  31
ATOM     31  O   UNL     1      34.023 -15.558 -26.247  0.00  0.00    -0.382 OA
ATOM     32  H   UNL     1      34.632 -15.020 -26.779  0.00  0.00    +0.210 HD
ENDBRANCH  30  31
ENDBRANCH  29  30
ENDBRANCH  21  29
ENDBRANCH  18  21
ENDBRANCH   5  19
BRANCH   5  33
ATOM     33  N   UNL     1      32.406 -14.175 -21.447  0.00  0.00    +0.388 N 
ATOM     34  H   UNL     1      31.957 -13.894 -22.319  0.00  0.00    -0.088 HD
ATOM     35  H   UNL     1      32.866 -13.368 -21.027  0.00  0.00    -0.088 HD
ATOM     36  H   UNL     1      31.704 -14.538 -20.804  0.00  0.00    -0.088 HD
ENDBRANCH   5  33
TORSDOF 7
ENDMDL
MODEL 3
REMARK VINA RESULT:      -7.7      2.636      4.308
REMARK  Name = 25227436
REMARK  7 active torsions:
REMARK  status: ('A' for Active; 'I' for Inactive)
REMARK    1  A    between atoms: C_5  and  C_19
REMARK    2  A    between atoms: C_5  and  N_33
REMARK    3  A    between atoms: N_18  and  C_21
REMARK    4  A    between atoms: C_21  and  C_23
REMARK    5  A    between atoms: C_21  and  C_29
REMARK    6  A    between atoms: C_29  and  C_30
REMARK    7  A    between atoms: C_30  and  O_31
REMARK                            x       y       z     vdW  Elec       q    Type
REMARK                         _______ _______ _______ _____ _____    ______ ____
ROOT
ATOM      1  N   UNL     1      32.921 -13.227 -22.137  0.00  0.00    -0.296 N 
ATOM      2  N   UNL     1      34.230 -14.568 -20.668  0.00  0.00    -0.233 NA
ATOM      3  N   UNL     1      34.723 -17.251 -23.649  0.00  0.00    -0.300 N 
ATOM      4  N   UNL     1      35.216 -16.685 -21.357  0.00  0.00    -0.233 NA
ATOM      5  C   UNL     1      31.376 -10.805 -22.563  0.00  0.00    +0.025 C 
ATOM      6  C   UNL     1      32.149 -11.485 -23.699  0.00  0.00    +0.010 C 
ATOM      7  C   UNL     1      30.991 -11.833 -21.492  0.00  0.00    +0.010 C 
ATOM      8  C   UNL     1      33.342 -12.299 -23.192  0.00  0.00    +0.090 C 
ATOM      9  C   UNL     1      32.196 -12.640 -21.002  0.00  0.00    +0.090 C 
ATOM     10  C   UNL     1      33.681 -14.377 -21.890  0.00  0.00    +0.116 C 
ATOM     11  C   UNL     1      33.877 -15.330 -22.888  0.00  0.00    +0.131 C 
ATOM     12  C   UNL     1      34.645 -16.438 -22.549  0.00  0.00    +0.117 C 
ATOM     13  C   UNL     1      33.489 -15.496 -24.242  0.00  0.00    +0.004 C 
ATOM     14  C   UNL     1      34.953 -15.695 -20.480  0.00  0.00    +0.252 C 
ATOM     15  C   UNL     1      34.022 -16.687 -24.684  0.00  0.00    +0.059 C 
ATOM     16  H   UNL     1      35.207 -18.106 -23.690  0.00  0.00    +0.153 HD
ENDROOT
BRANCH   5  19
ATOM     17  O   UNL     1      32.371  -9.589 -20.756  0.00  0.00    -0.277 OA
ATOM     18  N   UNL     1      32.644  -8.799 -22.929  0.00  0.00    -0.304 N 
ATOM     19  C   UNL     1      32.184  -9.682 -21.967  0.00  0.00    +0.204 C 
ATOM     20  H   UNL     1      32.429  -8.981 -23.873  0.00  0.00    +0.150 HD
BRANCH  18  21
ATOM     21  C   UNL     1      33.424  -7.624 -22.617  0.00  0.00    +0.096 C 
BRANCH  21  23
ATOM     22 CL   UNL     1      30.520  -2.653 -24.392  0.00  0.00    -0.082 Cl
ATOM     23  C   UNL     1      32.694  -6.375 -23.063  0.00  0.00    -0.004 C 
ATOM     24  C   UNL     1      32.775  -5.957 -24.391  0.00  0.00    -0.002 C 
ATOM     25  C   UNL     1      31.941  -5.642 -22.146  0.00  0.00    -0.002 C 
ATOM     26  C   UNL     1      32.102  -4.806 -24.803  0.00  0.00    +0.011 C 
ATOM     27  C   UNL     1      31.268  -4.492 -22.557  0.00  0.00    +0.011 C 
ATOM     28  C   UNL     1      31.349  -4.073 -23.886  0.00  0.00    +0.058 C 
ENDBRANCH  21  23
BRANCH  21  29
ATOM     29  C   UNL     1      34.840  -7.752 -23.200  0.00  0.00    +0.056 C 
BRANCH  29  30
ATOM     30  C   UNL     1      34.922  -8.722 -24.374  0.00  0.00    +0.139 C 
BRANCH  30  31
ATOM     31  O   UNL     1      35.420  -9.967 -23.903  0.00  0.00    -0.382 OA
ATOM     32  H   UNL     1      34.698 -10.472 -23.495  0.00  0.00    +0.210 HD
ENDBRANCH  30  31
ENDBRANCH  29  30
ENDBRANCH  21  29
ENDBRANCH  18  21
ENDBRANCH   5  19
BRANCH   5  33
ATOM     33  N   UNL     1      30.179 -10.156 -23.099  0.00  0.00    +0.388 N 
ATOM     34  H   UNL     1      30.292 -10.009 -24.102  0.00  0.00    -0.088 HD
ATOM     35  H   UNL     1      30.044  -9.257 -22.638  0.00  0.00    -0.088 HD
ATOM     36  H   UNL     1      29.366 -10.749 -22.931  0.00  0.00    -0.088 HD
ENDBRANCH   5  33
TORSDOF 7
ENDMDL
MODEL 4
REMARK VINA RESULT:      -7.7      8.551     14.488
REMARK  Name = 25227436
REMARK  7 active torsions:
REMARK  status: ('A' for Active; 'I' for Inactive)
REMARK    1  A    between atoms: C_5  and  C_19
REMARK    2  A    between atoms: C_5  and  N_33
REMARK    3  A    between atoms: N_18  and  C_21
REMARK    4  A    between atoms: C_21  and  C_23
REMARK    5  A    between atoms: C_21  and  C_29
REMARK    6  A    between atoms: C_29  and  C_30
REMARK    7  A    between atoms: C_30  and  O_31
REMARK                            x       y       z     vdW  Elec       q    Type
REMARK                         _______ _______ _______ _____ _____    ______ ____
ROOT
ATOM      1  N   UNL     1      34.248 -17.063 -22.197  0.00  0.00    -0.296 N 
ATOM      2  N   UNL     1      33.074 -15.068 -21.635  0.00  0.00    -0.233 NA
ATOM      3  N   UNL     1      33.173 -13.984 -25.526  0.00  0.00    -0.300 N 
ATOM      4  N   UNL     1      32.465 -13.396 -23.296  0.00  0.00    -0.233 NA
ATOM      5  C   UNL     1      35.426 -19.570 -21.327  0.00  0.00    +0.025 C 
ATOM      6  C   UNL     1      34.835 -19.396 -22.730  0.00  0.00    +0.010 C 
ATOM      7  C   UNL     1      35.900 -18.219 -20.778  0.00  0.00    +0.010 C 
ATOM      8  C   UNL     1      33.752 -18.314 -22.780  0.00  0.00    +0.090 C 
ATOM      9  C   UNL     1      34.806 -17.150 -20.841  0.00  0.00    +0.090 C 
ATOM     10  C   UNL     1      33.659 -15.849 -22.573  0.00  0.00    +0.116 C 
ATOM     11  C   UNL     1      33.669 -15.434 -23.904  0.00  0.00    +0.131 C 
ATOM     12  C   UNL     1      33.061 -14.216 -24.180  0.00  0.00    +0.117 C 
ATOM     13  C   UNL     1      34.157 -15.941 -25.135  0.00  0.00    +0.004 C 
ATOM     14  C   UNL     1      32.522 -13.906 -22.050  0.00  0.00    +0.252 C 
ATOM     15  C   UNL     1      33.839 -15.027 -26.116  0.00  0.00    +0.059 C 
ATOM     16  H   UNL     1      32.828 -13.191 -25.996  0.00  0.00    +0.153 HD
ENDROOT
BRANCH   5  19
ATOM     17  O   UNL     1      33.260 -19.816 -20.339  0.00  0.00    -0.277 OA
ATOM     18  N   UNL     1      34.977 -21.229 -19.650  0.00  0.00    -0.304 N 
ATOM     19  C   UNL     1      34.423 -20.207 -20.401  0.00  0.00    +0.204 C 
ATOM     20  H   UNL     1      35.926 -21.452 -19.791  0.00  0.00    +0.150 HD
BRANCH  18  21
ATOM     21  C   UNL     1      34.231 -21.985 -18.671  0.00  0.00    +0.096 C 
BRANCH  21  23
ATOM     22 CL   UNL     1      37.801 -23.561 -14.080  0.00  0.00    -0.082 Cl
ATOM     23  C   UNL     1      35.129 -22.381 -17.518  0.00  0.00    -0.004 C 
ATOM     24  C   UNL     1      36.459 -21.962 -17.492  0.00  0.00    -0.002 C 
ATOM     25  C   UNL     1      34.625 -23.165 -16.479  0.00  0.00    -0.002 C 
ATOM     26  C   UNL     1      37.285 -22.326 -16.429  0.00  0.00    +0.011 C 
ATOM     27  C   UNL     1      35.451 -23.529 -15.416  0.00  0.00    +0.011 C 
ATOM     28  C   UNL     1      36.782 -23.110 -15.391  0.00  0.00    +0.058 C 
ENDBRANCH  21  23
BRANCH  21  29
ATOM     29  C   UNL     1      33.526 -23.176 -19.339  0.00  0.00    +0.056 C 
BRANCH  29  30
ATOM     30  C   UNL     1      34.439 -23.974 -20.264  0.00  0.00    +0.139 C 
BRANCH  30  31
ATOM     31  O   UNL     1      33.975 -25.317 -20.315  0.00  0.00    -0.382 OA
ATOM     32  H   UNL     1      34.558 -25.840 -20.889  0.00  0.00    +0.210 HD
ENDBRANCH  30  31
ENDBRANCH  29  30
ENDBRANCH  21  29
ENDBRANCH  18  21
ENDBRANCH   5  19
BRANCH   5  33
ATOM     33  N   UNL     1      36.540 -20.519 -21.375  0.00  0.00    +0.388 N 
ATOM     34  H   UNL     1      37.413 -20.030 -21.179  0.00  0.00    -0.088 HD
ATOM     35  H   UNL     1      36.588 -20.941 -22.303  0.00  0.00    -0.088 HD
ATOM     36  H   UNL     1      36.396 -21.250 -20.678  0.00  0.00    -0.088 HD
ENDBRANCH   5  33
TORSDOF 7
ENDMDL
MODEL 5
REMARK VINA RESULT:      -7.5      9.513     15.299
REMARK  Name = 25227436
REMARK  7 active torsions:
REMARK  status: ('A' for Active; 'I' for Inactive)
REMARK    1  A    between atoms: C_5  and  C_19
REMARK    2  A    between atoms: C_5  and  N_33
REMARK    3  A    between atoms: N_18  and  C_21
REMARK    4  A    between atoms: C_21  and  C_23
REMARK    5  A    between atoms: C_21  and  C_29
REMARK    6  A    between atoms: C_29  and  C_30
REMARK    7  A    between atoms: C_30  and  O_31
REMARK                            x       y       z     vdW  Elec       q    Type
REMARK                         _______ _______ _______ _____ _____    ______ ____
ROOT
ATOM      1  N   UNL     1      35.051 -18.226 -21.431  0.00  0.00    -0.296 N 
ATOM      2  N   UNL     1      34.608 -15.970 -20.810  0.00  0.00    -0.233 NA
ATOM      3  N   UNL     1      34.165 -15.042 -24.717  0.00  0.00    -0.300 N 
ATOM      4  N   UNL     1      34.134 -14.231 -22.446  0.00  0.00    -0.233 NA
ATOM      5  C   UNL     1      35.666 -20.944 -20.613  0.00  0.00    +0.025 C 
ATOM      6  C   UNL     1      34.859 -20.641 -21.881  0.00  0.00    +0.010 C 
ATOM      7  C   UNL     1      36.593 -19.768 -20.280  0.00  0.00    +0.010 C 
ATOM      8  C   UNL     1      34.124 -19.300 -21.802  0.00  0.00    +0.090 C 
ATOM      9  C   UNL     1      35.841 -18.437 -20.211  0.00  0.00    +0.090 C 
ATOM     10  C   UNL     1      34.746 -16.904 -21.779  0.00  0.00    +0.116 C 
ATOM     11  C   UNL     1      34.584 -16.538 -23.114  0.00  0.00    +0.131 C 
ATOM     12  C   UNL     1      34.283 -15.204 -23.362  0.00  0.00    +0.117 C 
ATOM     13  C   UNL     1      34.644 -17.188 -24.373  0.00  0.00    +0.004 C 
ATOM     14  C   UNL     1      34.315 -14.709 -21.199  0.00  0.00    +0.252 C 
ATOM     15  C   UNL     1      34.383 -16.243 -25.342  0.00  0.00    +0.059 C 
ATOM     16  H   UNL     1      33.955 -14.195 -25.172  0.00  0.00    +0.153 HD
ENDROOT
BRANCH   5  19
ATOM     17  O   UNL     1      33.614 -20.786 -19.391  0.00  0.00    -0.277 OA
ATOM     18  N   UNL     1      35.345 -22.077 -18.521  0.00  0.00    -0.304 N 
ATOM     19  C   UNL     1      34.749 -21.253 -19.460  0.00  0.00    +0.204 C 
ATOM     20  H   UNL     1      36.265 -22.389 -18.689  0.00  0.00    +0.150 HD
BRANCH  18  21
ATOM     21  C   UNL     1      34.686 -22.503 -17.309  0.00  0.00    +0.096 C 
BRANCH  21  23
ATOM     22 CL   UNL     1      38.693 -24.799 -13.441  0.00  0.00    -0.082 Cl
ATOM     23  C   UNL     1      35.693 -23.079 -16.337  0.00  0.00    -0.004 C 
ATOM     24  C   UNL     1      37.019 -22.646 -16.366  0.00  0.00    -0.002 C 
ATOM     25  C   UNL     1      35.296 -24.045 -15.411  0.00  0.00    -0.002 C 
ATOM     26  C   UNL     1      37.947 -23.178 -15.470  0.00  0.00    +0.011 C 
ATOM     27  C   UNL     1      36.223 -24.576 -14.515  0.00  0.00    +0.011 C 
ATOM     28  C   UNL     1      37.549 -24.143 -14.545  0.00  0.00    +0.058 C 
ENDBRANCH  21  23
BRANCH  21  29
ATOM     29  C   UNL     1      33.530 -23.461 -17.638  0.00  0.00    +0.056 C 
BRANCH  29  30
ATOM     30  C   UNL     1      32.262 -23.172 -16.841  0.00  0.00    +0.139 C 
BRANCH  30  31
ATOM     31  O   UNL     1      31.486 -22.216 -17.551  0.00  0.00    -0.382 OA
ATOM     32  H   UNL     1      31.608 -21.339 -17.152  0.00  0.00    +0.210 HD
ENDBRANCH  30  31
ENDBRANCH  29  30
ENDBRANCH  21  29
ENDBRANCH  18  21
ENDBRANCH   5  19
BRANCH   5  33
ATOM     33  N   UNL     1      36.445 -22.168 -20.806  0.00  0.00    +0.388 N 
ATOM     34  H   UNL     1      37.260 -22.153 -20.193  0.00  0.00    -0.088 HD
ATOM     35  H   UNL     1      36.752 -22.227 -21.777  0.00  0.00    -0.088 HD
ATOM     36  H   UNL     1      35.867 -22.978 -20.583  0.00  0.00    -0.088 HD
ENDBRANCH   5  33
TORSDOF 7
ENDMDL
MODEL 6
REMARK VINA RESULT:      -7.4      1.635      2.089
REMARK  Name = 25227436
REMARK  7 active torsions:
REMARK  status: ('A' for Active; 'I' for Inactive)
REMARK    1  A    between atoms: C_5  and  C_19
REMARK    2  A    between atoms: C_5  and  N_33
REMARK    3  A    between atoms: N_18  and  C_21
REMARK    4  A    between atoms: C_21  and  C_23
REMARK    5  A    between atoms: C_21  and  C_29
REMARK    6  A    between atoms: C_29  and  C_30
REMARK    7  A    between atoms: C_30  and  O_31
REMARK                            x       y       z     vdW  Elec       q    Type
REMARK                         _______ _______ _______ _____ _____    ______ ____
ROOT
ATOM      1  N   UNL     1      32.552  -8.822 -23.477  0.00  0.00    -0.296 N 
ATOM      2  N   UNL     1      33.574 -10.581 -24.715  0.00  0.00    -0.233 NA
ATOM      3  N   UNL     1      32.241 -13.216 -21.958  0.00  0.00    -0.300 N 
ATOM      4  N   UNL     1      33.471 -12.908 -24.009  0.00  0.00    -0.233 NA
ATOM      5  C   UNL     1      31.968  -5.988 -23.225  0.00  0.00    +0.025 C 
ATOM      6  C   UNL     1      31.019  -7.063 -22.683  0.00  0.00    +0.010 C 
ATOM      7  C   UNL     1      33.407  -6.518 -23.262  0.00  0.00    +0.010 C 
ATOM      8  C   UNL     1      31.151  -8.392 -23.433  0.00  0.00    +0.090 C 
ATOM      9  C   UNL     1      33.516  -7.849 -24.010  0.00  0.00    +0.090 C 
ATOM     10  C   UNL     1      32.851 -10.180 -23.644  0.00  0.00    +0.116 C 
ATOM     11  C   UNL     1      32.412 -11.124 -22.718  0.00  0.00    +0.131 C 
ATOM     12  C   UNL     1      32.757 -12.447 -22.968  0.00  0.00    +0.117 C 
ATOM     13  C   UNL     1      31.662 -11.113 -21.515  0.00  0.00    +0.004 C 
ATOM     14  C   UNL     1      33.836 -11.903 -24.829  0.00  0.00    +0.252 C 
ATOM     15  C   UNL     1      31.574 -12.414 -21.068  0.00  0.00    +0.059 C 
ATOM     16  H   UNL     1      32.335 -14.193 -21.883  0.00  0.00    +0.153 HD
ENDROOT
BRANCH   5  19
ATOM     17  O   UNL     1      30.543  -6.005 -25.148  0.00  0.00    -0.277 OA
ATOM     18  N   UNL     1      32.363  -4.553 -25.109  0.00  0.00    -0.304 N 
ATOM     19  C   UNL     1      31.527  -5.527 -24.589  0.00  0.00    +0.204 C 
ATOM     20  H   UNL     1      33.124  -4.249 -24.563  0.00  0.00    +0.150 HD
BRANCH  18  21
ATOM     21  C   UNL     1      32.172  -3.962 -26.413  0.00  0.00    +0.096 C 
BRANCH  21  23
ATOM     22 CL   UNL     1      37.233  -4.380 -29.656  0.00  0.00    -0.082 Cl
ATOM     23  C   UNL     1      33.443  -4.066 -27.228  0.00  0.00    -0.004 C 
ATOM     24  C   UNL     1      33.566  -3.360 -28.424  0.00  0.00    -0.002 C 
ATOM     25  C   UNL     1      34.494  -4.870 -26.783  0.00  0.00    -0.002 C 
ATOM     26  C   UNL     1      34.738  -3.456 -29.175  0.00  0.00    +0.011 C 
ATOM     27  C   UNL     1      35.665  -4.966 -27.533  0.00  0.00    +0.011 C 
ATOM     28  C   UNL     1      35.787  -4.260 -28.730  0.00  0.00    +0.058 C 
ENDBRANCH  21  23
BRANCH  21  29
ATOM     29  C   UNL     1      31.646  -2.524 -26.275  0.00  0.00    +0.056 C 
BRANCH  29  30
ATOM     30  C   UNL     1      32.206  -1.791 -25.061  0.00  0.00    +0.139 C 
BRANCH  30  31
ATOM     31  O   UNL     1      31.452  -2.163 -23.915  0.00  0.00    -0.382 OA
ATOM     32  H   UNL     1      30.741  -1.518 -23.772  0.00  0.00    +0.210 HD
ENDBRANCH  30  31
ENDBRANCH  29  30
ENDBRANCH  21  29
ENDBRANCH  18  21
ENDBRANCH   5  19
BRANCH   5  33
ATOM     33  N   UNL     1      31.888  -4.791 -22.385  0.00  0.00    +0.388 N 
ATOM     34  H   UNL     1      31.962  -5.059 -21.404  0.00  0.00    -0.088 HD
ATOM     35  H   UNL     1      30.995  -4.324 -22.544  0.00  0.00    -0.088 HD
ATOM     36  H   UNL     1      32.649  -4.156 -22.624  0.00  0.00    -0.088 HD
ENDBRANCH   5  33
TORSDOF 7
ENDMDL
MODEL 7
REMARK VINA RESULT:      -7.0      3.901      6.534
REMARK  Name = 25227436
REMARK  7 active torsions:
REMARK  status: ('A' for Active; 'I' for Inactive)
REMARK    1  A    between atoms: C_5  and  C_19
REMARK    2  A    between atoms: C_5  and  N_33
REMARK    3  A    between atoms: N_18  and  C_21
REMARK    4  A    between atoms: C_21  and  C_23
REMARK    5  A    between atoms: C_21  and  C_29
REMARK    6  A    between atoms: C_29  and  C_30
REMARK    7  A    between atoms: C_30  and  O_31
REMARK                            x       y       z     vdW  Elec       q    Type
REMARK                         _______ _______ _______ _____ _____    ______ ____
ROOT
ATOM      1  N   UNL     1      34.194 -16.567 -21.181  0.00  0.00    -0.296 N 
ATOM      2  N   UNL     1      36.189 -17.863 -21.066  0.00  0.00    -0.233 NA
ATOM      3  N   UNL     1      33.940 -21.165 -20.462  0.00  0.00    -0.300 N 
ATOM      4  N   UNL     1      36.166 -20.269 -20.695  0.00  0.00    -0.233 NA
ATOM      5  C   UNL     1      32.947 -13.970 -21.545  0.00  0.00    +0.025 C 
ATOM      6  C   UNL     1      32.253 -15.269 -21.971  0.00  0.00    +0.010 C 
ATOM      7  C   UNL     1      33.931 -14.243 -20.400  0.00  0.00    +0.010 C 
ATOM      8  C   UNL     1      33.250 -16.388 -22.289  0.00  0.00    +0.090 C 
ATOM      9  C   UNL     1      34.914 -15.367 -20.736  0.00  0.00    +0.090 C 
ATOM     10  C   UNL     1      34.837 -17.801 -21.019  0.00  0.00    +0.116 C 
ATOM     11  C   UNL     1      34.103 -18.966 -20.808  0.00  0.00    +0.131 C 
ATOM     12  C   UNL     1      34.829 -20.141 -20.659  0.00  0.00    +0.117 C 
ATOM     13  C   UNL     1      32.731 -19.310 -20.698  0.00  0.00    +0.004 C 
ATOM     14  C   UNL     1      36.761 -19.077 -20.903  0.00  0.00    +0.252 C 
ATOM     15  C   UNL     1      32.661 -20.670 -20.484  0.00  0.00    +0.059 C 
ATOM     16  H   UNL     1      34.181 -22.109 -20.328  0.00  0.00    +0.153 HD
ENDROOT
BRANCH   5  19
ATOM     17  O   UNL     1      34.434 -13.954 -23.420  0.00  0.00    -0.277 OA
ATOM     18  N   UNL     1      33.303 -11.996 -22.864  0.00  0.00    -0.304 N 
ATOM     19  C   UNL     1      33.644 -13.330 -22.716  0.00  0.00    +0.204 C 
ATOM     20  H   UNL     1      32.655 -11.606 -22.235  0.00  0.00    +0.150 HD
BRANCH  18  21
ATOM     21  C   UNL     1      33.852 -11.150 -23.898  0.00  0.00    +0.096 C 
BRANCH  21  23
ATOM     22 CL   UNL     1      32.065  -5.451 -23.107  0.00  0.00    -0.082 Cl
ATOM     23  C   UNL     1      33.403  -9.718 -23.699  0.00  0.00    -0.004 C 
ATOM     24  C   UNL     1      32.052  -9.432 -23.502  0.00  0.00    -0.002 C 
ATOM     25  C   UNL     1      34.340  -8.684 -23.713  0.00  0.00    -0.002 C 
ATOM     26  C   UNL     1      31.638  -8.112 -23.318  0.00  0.00    +0.011 C 
ATOM     27  C   UNL     1      33.926  -7.365 -23.529  0.00  0.00    +0.011 C 
ATOM     28  C   UNL     1      32.575  -7.079 -23.332  0.00  0.00    +0.058 C 
ENDBRANCH  21  23
BRANCH  21  29
ATOM     29  C   UNL     1      33.513 -11.715 -25.287  0.00  0.00    +0.056 C 
BRANCH  29  30
ATOM     30  C   UNL     1      34.651 -11.566 -26.292  0.00  0.00    +0.139 C 
BRANCH  30  31
ATOM     31  O   UNL     1      35.628 -10.689 -25.748  0.00  0.00    -0.382 OA
ATOM     32  H   UNL     1      35.631  -9.857 -26.248  0.00  0.00    +0.210 HD
ENDBRANCH  30  31
ENDBRANCH  29  30
ENDBRANCH  21  29
ENDBRANCH  18  21
ENDBRANCH   5  19
BRANCH   5  33
ATOM     33  N   UNL     1      31.942 -12.989 -21.130  0.00  0.00    +0.388 N 
ATOM     34  H   UNL     1      32.381 -12.282 -20.538  0.00  0.00    -0.088 HD
ATOM     35  H   UNL     1      31.204 -13.459 -20.606  0.00  0.00    -0.088 HD
ATOM     36  H   UNL     1      31.542 -12.542 -21.954  0.00  0.00    -0.088 HD
ENDBRANCH   5  33
TORSDOF 7
ENDMDL
MODEL 8
REMARK VINA RESULT:      -6.8     11.029     16.155
REMARK  Name = 25227436
REMARK  7 active torsions:
REMARK  status: ('A' for Active; 'I' for Inactive)
REMARK    1  A    between atoms: C_5  and  C_19
REMARK    2  A    between atoms: C_5  and  N_33
REMARK    3  A    between atoms: N_18  and  C_21
REMARK    4  A    between atoms: C_21  and  C_23
REMARK    5  A    between atoms: C_21  and  C_29
REMARK    6  A    between atoms: C_29  and  C_30
REMARK    7  A    between atoms: C_30  and  O_31
REMARK                            x       y       z     vdW  Elec       q    Type
REMARK                         _______ _______ _______ _____ _____    ______ ____
ROOT
ATOM      1  N   UNL     1      34.512 -20.064 -20.806  0.00  0.00    -0.296 N 
ATOM      2  N   UNL     1      35.194 -17.796 -20.553  0.00  0.00    -0.233 NA
ATOM      3  N   UNL     1      34.654 -17.253 -24.520  0.00  0.00    -0.300 N 
ATOM      4  N   UNL     1      35.303 -16.247 -22.427  0.00  0.00    -0.233 NA
ATOM      5  C   UNL     1      33.984 -22.642 -19.577  0.00  0.00    +0.025 C 
ATOM      6  C   UNL     1      33.221 -22.163 -20.817  0.00  0.00    +0.010 C 
ATOM      7  C   UNL     1      35.369 -21.985 -19.518  0.00  0.00    +0.010 C 
ATOM      8  C   UNL     1      33.167 -20.636 -20.918  0.00  0.00    +0.090 C 
ATOM      9  C   UNL     1      35.293 -20.461 -19.627  0.00  0.00    +0.090 C 
ATOM     10  C   UNL     1      34.771 -18.802 -21.354  0.00  0.00    +0.116 C 
ATOM     11  C   UNL     1      34.599 -18.568 -22.717  0.00  0.00    +0.131 C 
ATOM     12  C   UNL     1      34.880 -17.285 -23.169  0.00  0.00    +0.117 C 
ATOM     13  C   UNL     1      34.189 -19.323 -23.846  0.00  0.00    +0.004 C 
ATOM     14  C   UNL     1      35.431 -16.598 -21.132  0.00  0.00    +0.252 C 
ATOM     15  C   UNL     1      34.234 -18.489 -24.942  0.00  0.00    +0.059 C 
ATOM     16  H   UNL     1      34.774 -16.466 -25.098  0.00  0.00    +0.153 HD
ENDROOT
BRANCH   5  19
ATOM     17  O   UNL     1      32.266 -21.556 -18.312  0.00  0.00    -0.277 OA
ATOM     18  N   UNL     1      33.666 -23.073 -17.236  0.00  0.00    -0.304 N 
ATOM     19  C   UNL     1      33.198 -22.357 -18.325  0.00  0.00    +0.204 C 
ATOM     20  H   UNL     1      34.423 -23.689 -17.372  0.00  0.00    +0.150 HD
BRANCH  18  21
ATOM     21  C   UNL     1      33.099 -22.962 -15.913  0.00  0.00    +0.096 C 
BRANCH  21  23
ATOM     22 CL   UNL     1      37.245 -24.281 -11.745  0.00  0.00    -0.082 Cl
ATOM     23  C   UNL     1      34.141 -23.293 -14.865  0.00  0.00    -0.004 C 
ATOM     24  C   UNL     1      33.770 -23.966 -13.701  0.00  0.00    -0.002 C 
ATOM     25  C   UNL     1      35.472 -22.927 -15.064  0.00  0.00    -0.002 C 
ATOM     26  C   UNL     1      34.730 -24.272 -12.736  0.00  0.00    +0.011 C 
ATOM     27  C   UNL     1      36.432 -23.232 -14.101  0.00  0.00    +0.011 C 
ATOM     28  C   UNL     1      36.061 -23.905 -12.936  0.00  0.00    +0.058 C 
ENDBRANCH  21  23
BRANCH  21  29
ATOM     29  C   UNL     1      31.824 -23.814 -15.805  0.00  0.00    +0.056 C 
BRANCH  29  30
ATOM     30  C   UNL     1      30.562 -22.984 -15.592  0.00  0.00    +0.139 C 
BRANCH  30  31
ATOM     31  O   UNL     1      30.010 -22.661 -16.862  0.00  0.00    -0.382 OA
ATOM     32  H   UNL     1      29.125 -22.279 -16.743  0.00  0.00    +0.210 HD
ENDBRANCH  30  31
ENDBRANCH  29  30
ENDBRANCH  21  29
ENDBRANCH  18  21
ENDBRANCH   5  19
BRANCH   5  33
ATOM     33  N   UNL     1      34.113 -24.100 -19.610  0.00  0.00    +0.388 N 
ATOM     34  H   UNL     1      34.456 -24.432 -18.708  0.00  0.00    -0.088 HD
ATOM     35  H   UNL     1      34.771 -24.367 -20.342  0.00  0.00    -0.088 HD
ATOM     36  H   UNL     1      33.203 -24.518 -19.803  0.00  0.00    -0.088 HD
ENDBRANCH   5  33
TORSDOF 7
ENDMDL
MODEL 9
REMARK VINA RESULT:      -6.7      3.840      6.692
REMARK  Name = 25227436
REMARK  7 active torsions:
REMARK  status: ('A' for Active; 'I' for Inactive)
REMARK    1  A    between atoms: C_5  and  C_19
REMARK    2  A    between atoms: C_5  and  N_33
REMARK    3  A    between atoms: N_18  and  C_21
REMARK    4  A    between atoms: C_21  and  C_23
REMARK    5  A    between atoms: C_21  and  C_29
REMARK    6  A    between atoms: C_29  and  C_30
REMARK    7  A    between atoms: C_30  and  O_31
REMARK                            x       y       z     vdW  Elec       q    Type
REMARK                         _______ _______ _______ _____ _____    ______ ____
ROOT
ATOM      1  N   UNL     1      33.985 -16.918 -21.703  0.00  0.00    -0.296 N 
ATOM      2  N   UNL     1      32.740 -18.837 -21.039  0.00  0.00    -0.233 NA
ATOM      3  N   UNL     1      36.207 -20.703 -20.136  0.00  0.00    -0.300 N 
ATOM      4  N   UNL     1      33.802 -20.863 -20.208  0.00  0.00    -0.233 NA
ATOM      5  C   UNL     1      33.987 -14.199 -22.723  0.00  0.00    +0.025 C 
ATOM      6  C   UNL     1      35.077 -14.710 -21.774  0.00  0.00    +0.010 C 
ATOM      7  C   UNL     1      33.388 -15.364 -23.522  0.00  0.00    +0.010 C 
ATOM      8  C   UNL     1      34.591 -15.860 -20.888  0.00  0.00    +0.090 C 
ATOM      9  C   UNL     1      32.914 -16.504 -22.619  0.00  0.00    +0.090 C 
ATOM     10  C   UNL     1      33.936 -18.227 -21.206  0.00  0.00    +0.116 C 
ATOM     11  C   UNL     1      35.107 -18.909 -20.881  0.00  0.00    +0.131 C 
ATOM     12  C   UNL     1      34.959 -20.203 -20.395  0.00  0.00    +0.117 C 
ATOM     13  C   UNL     1      36.498 -18.636 -20.908  0.00  0.00    +0.004 C 
ATOM     14  C   UNL     1      32.748 -20.100 -20.558  0.00  0.00    +0.252 C 
ATOM     15  C   UNL     1      37.152 -19.758 -20.446  0.00  0.00    +0.059 C 
ATOM     16  H   UNL     1      36.398 -21.601 -19.782  0.00  0.00    +0.153 HD
ENDROOT
BRANCH   5  19
ATOM     17  O   UNL     1      32.330 -13.977 -21.010  0.00  0.00    -0.277 OA
ATOM     18  N   UNL     1      32.688 -12.197 -22.467  0.00  0.00    -0.304 N 
ATOM     19  C   UNL     1      32.918 -13.464 -21.959  0.00  0.00    +0.204 C 
ATOM     20  H   UNL     1      33.226 -11.895 -23.234  0.00  0.00    +0.150 HD
BRANCH  18  21
ATOM     21  C   UNL     1      31.696 -11.296 -21.927  0.00  0.00    +0.096 C 
BRANCH  21  23
ATOM     22 CL   UNL     1      32.326  -5.806 -24.325  0.00  0.00    -0.082 Cl
ATOM     23  C   UNL     1      31.855  -9.917 -22.529  0.00  0.00    -0.004 C 
ATOM     24  C   UNL     1      33.128  -9.402 -22.770  0.00  0.00    -0.002 C 
ATOM     25  C   UNL     1      30.726  -9.159 -22.845  0.00  0.00    -0.002 C 
ATOM     26  C   UNL     1      33.275  -8.131 -23.325  0.00  0.00    +0.011 C 
ATOM     27  C   UNL     1      30.871  -7.888 -23.400  0.00  0.00    +0.011 C 
ATOM     28  C   UNL     1      32.146  -7.374 -23.640  0.00  0.00    +0.058 C 
ENDBRANCH  21  23
BRANCH  21  29
ATOM     29  C   UNL     1      31.745 -11.306 -20.390  0.00  0.00    +0.056 C 
BRANCH  29  30
ATOM     30  C   UNL     1      31.511  -9.932 -19.771  0.00  0.00    +0.139 C 
BRANCH  30  31
ATOM     31  O   UNL     1      32.692  -9.532 -19.089  0.00  0.00    -0.382 OA
ATOM     32  H   UNL     1      32.532  -8.692 -18.629  0.00  0.00    +0.210 HD
ENDBRANCH  30  31
ENDBRANCH  29  30
ENDBRANCH  21  29
ENDBRANCH  18  21
ENDBRANCH   5  19
BRANCH   5  33
ATOM     33  N   UNL     1      34.551 -13.197 -23.629  0.00  0.00    +0.388 N 
ATOM     34  H   UNL     1      34.175 -12.278 -23.397  0.00  0.00    -0.088 HD
ATOM     35  H   UNL     1      34.306 -13.431 -24.591  0.00  0.00    -0.088 HD
ATOM     36  H   UNL     1      35.567 -13.184 -23.531  0.00  0.00    -0.088 HD
ENDBRANCH   5  33
TORSDOF 7
ENDMDL
