MODEL 1
REMARK VINA RESULT:      -7.0      0.000      0.000
REMARK  Name = 5276854
REMARK  6 active torsions:
REMARK  status: ('A' for Active; 'I' for Inactive)
REMARK    1  A    between atoms: C_1  and  N_11
REMARK    2  A    between atoms: C_2  and  N_10
REMARK    3  A    between atoms: N_11  and  C_13
REMARK    4  A    between atoms: C_13  and  C_14
REMARK    5  A    between atoms: C_14  and  C_15
REMARK    6  A    between atoms: C_15  and  N_16
REMARK                            x       y       z     vdW  Elec       q    Type
REMARK                         _______ _______ _______ _____ _____    ______ ____
ROOT
ATOM      1  C   UNL     1      35.016 -16.781 -22.372  0.00  0.00    +0.067 C 
ATOM      2  C   UNL     1      34.403 -16.426 -23.591  0.00  0.00    +0.156 C 
ATOM      3  C   UNL     1      34.772 -15.970 -21.247  0.00  0.00    +0.016 C 
ATOM      4  C   UNL     1      33.351 -14.516 -22.552  0.00  0.00    -0.020 C 
ATOM      5  C   UNL     1      33.579 -15.304 -23.679  0.00  0.00    +0.021 C 
ATOM      6  C   UNL     1      33.948 -14.848 -21.336  0.00  0.00    -0.003 C 
ATOM      7  C   UNL     1      32.471 -13.314 -22.646  0.00  0.00    +0.031 C 
ENDROOT
BRANCH   2  10
ATOM      8  O   UNL     1      34.471 -18.455 -24.683  0.00  0.00    -0.126 OA
ATOM      9  O   UNL     1      34.950 -16.639 -25.820  0.00  0.00    -0.126 OA
ATOM     10  N   UNL     1      34.619 -17.213 -24.757  0.00  0.00    +0.059 N 
ENDBRANCH   2  10
BRANCH   1  11
ATOM     11  N   UNL     1      35.839 -17.891 -22.258  0.00  0.00    -0.331 N 
ATOM     12  H   UNL     1      36.554 -18.008 -22.924  0.00  0.00    +0.147 HD
BRANCH  11  13
ATOM     13  C   UNL     1      35.705 -18.884 -21.220  0.00  0.00    +0.085 C 
BRANCH  13  14
ATOM     14  C   UNL     1      34.384 -19.639 -21.352  0.00  0.00    -0.003 C 
BRANCH  14  15
ATOM     15  C   UNL     1      34.134 -20.589 -20.179  0.00  0.00    -0.084 C 
BRANCH  15  16
ATOM     16  N   UNL     1      32.709 -20.645 -19.871  0.00  0.00    +0.380 N 
ATOM     17  H   UNL     1      32.263 -19.774 -20.161  0.00  0.00    -0.089 HD
ATOM     18  H   UNL     1      32.582 -20.774 -18.867  0.00  0.00    -0.089 HD
ATOM     19  H   UNL     1      32.284 -21.426 -20.370  0.00  0.00    -0.089 HD
ENDBRANCH  15  16
ENDBRANCH  14  15
ENDBRANCH  13  14
ENDBRANCH  11  13
ENDBRANCH   1  11
TORSDOF 6
ENDMDL
MODEL 2
REMARK VINA RESULT:      -7.0      1.305      1.428
REMARK  Name = 5276854
REMARK  6 active torsions:
REMARK  status: ('A' for Active; 'I' for Inactive)
REMARK    1  A    between atoms: C_1  and  N_11
REMARK    2  A    between atoms: C_2  and  N_10
REMARK    3  A    between atoms: N_11  and  C_13
REMARK    4  A    between atoms: C_13  and  C_14
REMARK    5  A    between atoms: C_14  and  C_15
REMARK    6  A    between atoms: C_15  and  N_16
REMARK                            x       y       z     vdW  Elec       q    Type
REMARK                         _______ _______ _______ _____ _____    ______ ____
ROOT
ATOM      1  C   UNL     1      34.798 -16.151 -23.227  0.00  0.00    +0.067 C 
ATOM      2  C   UNL     1      33.892 -15.605 -24.159  0.00  0.00    +0.156 C 
ATOM      3  C   UNL     1      34.803 -15.623 -21.921  0.00  0.00    +0.016 C 
ATOM      4  C   UNL     1      33.050 -14.065 -22.499  0.00  0.00    -0.020 C 
ATOM      5  C   UNL     1      33.027 -14.572 -23.798  0.00  0.00    +0.021 C 
ATOM      6  C   UNL     1      33.938 -14.590 -21.561  0.00  0.00    -0.003 C 
ATOM      7  C   UNL     1      32.126 -12.959 -22.113  0.00  0.00    +0.031 C 
ENDROOT
BRANCH   2  10
ATOM      8  O   UNL     1      33.837 -17.344 -25.672  0.00  0.00    -0.126 OA
ATOM      9  O   UNL     1      33.821 -15.288 -26.441  0.00  0.00    -0.126 OA
ATOM     10  N   UNL     1      33.848 -16.104 -25.491  0.00  0.00    +0.059 N 
ENDBRANCH   2  10
BRANCH   1  11
ATOM     11  N   UNL     1      35.667 -17.178 -23.560  0.00  0.00    -0.331 N 
ATOM     12  H   UNL     1      36.169 -17.105 -24.404  0.00  0.00    +0.147 HD
BRANCH  11  13
ATOM     13  C   UNL     1      35.877 -18.347 -22.742  0.00  0.00    +0.085 C 
BRANCH  13  14
ATOM     14  C   UNL     1      34.618 -19.211 -22.688  0.00  0.00    -0.003 C 
BRANCH  14  15
ATOM     15  C   UNL     1      34.195 -19.538 -21.255  0.00  0.00    -0.084 C 
BRANCH  15  16
ATOM     16  N   UNL     1      35.371 -19.780 -20.425  0.00  0.00    +0.380 N 
ATOM     17  H   UNL     1      35.206 -19.416 -19.487  0.00  0.00    -0.089 HD
ATOM     18  H   UNL     1      36.179 -19.313 -20.835  0.00  0.00    -0.089 HD
ATOM     19  H   UNL     1      35.550 -20.783 -20.373  0.00  0.00    -0.089 HD
ENDBRANCH  15  16
ENDBRANCH  14  15
ENDBRANCH  13  14
ENDBRANCH  11  13
ENDBRANCH   1  11
TORSDOF 6
ENDMDL
MODEL 3
REMARK VINA RESULT:      -6.9      2.447      2.986
REMARK  Name = 5276854
REMARK  6 active torsions:
REMARK  status: ('A' for Active; 'I' for Inactive)
REMARK    1  A    between atoms: C_1  and  N_11
REMARK    2  A    between atoms: C_2  and  N_10
REMARK    3  A    between atoms: N_11  and  C_13
REMARK    4  A    between atoms: C_13  and  C_14
REMARK    5  A    between atoms: C_14  and  C_15
REMARK    6  A    between atoms: C_15  and  N_16
REMARK                            x       y       z     vdW  Elec       q    Type
REMARK                         _______ _______ _______ _____ _____    ______ ____
ROOT
ATOM      1  C   UNL     1      34.787 -16.864 -22.672  0.00  0.00    +0.067 C 
ATOM      2  C   UNL     1      34.071 -15.653 -22.587  0.00  0.00    +0.156 C 
ATOM      3  C   UNL     1      34.970 -17.438 -23.945  0.00  0.00    +0.016 C 
ATOM      4  C   UNL     1      33.753 -15.627 -24.982  0.00  0.00    -0.020 C 
ATOM      5  C   UNL     1      33.560 -15.040 -23.731  0.00  0.00    +0.021 C 
ATOM      6  C   UNL     1      34.458 -16.826 -25.089  0.00  0.00    -0.003 C 
ATOM      7  C   UNL     1      33.205 -14.973 -26.206  0.00  0.00    +0.031 C 
ENDROOT
BRANCH   2  10
ATOM      8  O   UNL     1      32.709 -14.633 -21.032  0.00  0.00    -0.126 OA
ATOM      9  O   UNL     1      34.831 -14.908 -20.542  0.00  0.00    -0.126 OA
ATOM     10  N   UNL     1      33.860 -15.033 -21.324  0.00  0.00    +0.059 N 
ENDBRANCH   2  10
BRANCH   1  11
ATOM     11  N   UNL     1      35.305 -17.493 -21.550  0.00  0.00    -0.331 N 
ATOM     12  H   UNL     1      35.698 -16.931 -20.844  0.00  0.00    +0.147 HD
BRANCH  11  13
ATOM     13  C   UNL     1      35.301 -18.923 -21.360  0.00  0.00    +0.085 C 
BRANCH  13  14
ATOM     14  C   UNL     1      33.909 -19.420 -20.975  0.00  0.00    -0.003 C 
BRANCH  14  15
ATOM     15  C   UNL     1      33.958 -20.684 -20.113  0.00  0.00    -0.084 C 
BRANCH  15  16
ATOM     16  N   UNL     1      32.652 -20.934 -19.513  0.00  0.00    +0.380 N 
ATOM     17  H   UNL     1      32.752 -21.011 -18.500  0.00  0.00    -0.089 HD
ATOM     18  H   UNL     1      32.268 -21.803 -19.883  0.00  0.00    -0.089 HD
ATOM     19  H   UNL     1      32.022 -20.163 -19.735  0.00  0.00    -0.089 HD
ENDBRANCH  15  16
ENDBRANCH  14  15
ENDBRANCH  13  14
ENDBRANCH  11  13
ENDBRANCH   1  11
TORSDOF 6
ENDMDL
MODEL 4
REMARK VINA RESULT:      -6.9      2.122      4.972
REMARK  Name = 5276854
REMARK  6 active torsions:
REMARK  status: ('A' for Active; 'I' for Inactive)
REMARK    1  A    between atoms: C_1  and  N_11
REMARK    2  A    between atoms: C_2  and  N_10
REMARK    3  A    between atoms: N_11  and  C_13
REMARK    4  A    between atoms: C_13  and  C_14
REMARK    5  A    between atoms: C_14  and  C_15
REMARK    6  A    between atoms: C_15  and  N_16
REMARK                            x       y       z     vdW  Elec       q    Type
REMARK                         _______ _______ _______ _____ _____    ______ ____
ROOT
ATOM      1  C   UNL     1      34.706 -16.315 -23.023  0.00  0.00    +0.067 C 
ATOM      2  C   UNL     1      34.681 -17.533 -23.732  0.00  0.00    +0.156 C 
ATOM      3  C   UNL     1      34.928 -16.361 -21.633  0.00  0.00    +0.016 C 
ATOM      4  C   UNL     1      35.089 -18.771 -21.698  0.00  0.00    -0.020 C 
ATOM      5  C   UNL     1      34.871 -18.749 -23.076  0.00  0.00    +0.021 C 
ATOM      6  C   UNL     1      35.117 -17.578 -20.977  0.00  0.00    -0.003 C 
ATOM      7  C   UNL     1      35.291 -20.071 -20.995  0.00  0.00    +0.031 C 
ENDROOT
BRANCH   2  10
ATOM      8  O   UNL     1      35.093 -16.726 -25.852  0.00  0.00    -0.126 OA
ATOM      9  O   UNL     1      33.640 -18.356 -25.617  0.00  0.00    -0.126 OA
ATOM     10  N   UNL     1      34.461 -17.538 -25.138  0.00  0.00    +0.059 N 
ENDBRANCH   2  10
BRANCH   1  11
ATOM     11  N   UNL     1      34.520 -15.093 -23.652  0.00  0.00    -0.331 N 
ATOM     12  H   UNL     1      35.316 -14.609 -23.969  0.00  0.00    +0.147 HD
BRANCH  11  13
ATOM     13  C   UNL     1      33.226 -14.492 -23.868  0.00  0.00    +0.085 C 
BRANCH  13  14
ATOM     14  C   UNL     1      33.327 -13.305 -24.824  0.00  0.00    -0.003 C 
BRANCH  14  15
ATOM     15  C   UNL     1      33.223 -13.727 -26.292  0.00  0.00    -0.084 C 
BRANCH  15  16
ATOM     16  N   UNL     1      32.456 -14.962 -26.408  0.00  0.00    +0.380 N 
ATOM     17  H   UNL     1      32.725 -15.451 -27.262  0.00  0.00    -0.089 HD
ATOM     18  H   UNL     1      31.461 -14.743 -26.440  0.00  0.00    -0.089 HD
ATOM     19  H   UNL     1      32.646 -15.558 -25.602  0.00  0.00    -0.089 HD
ENDBRANCH  15  16
ENDBRANCH  14  15
ENDBRANCH  13  14
ENDBRANCH  11  13
ENDBRANCH   1  11
TORSDOF 6
ENDMDL
MODEL 5
REMARK VINA RESULT:      -6.8      4.493      5.964
REMARK  Name = 5276854
REMARK  6 active torsions:
REMARK  status: ('A' for Active; 'I' for Inactive)
REMARK    1  A    between atoms: C_1  and  N_11
REMARK    2  A    between atoms: C_2  and  N_10
REMARK    3  A    between atoms: N_11  and  C_13
REMARK    4  A    between atoms: C_13  and  C_14
REMARK    5  A    between atoms: C_14  and  C_15
REMARK    6  A    between atoms: C_15  and  N_16
REMARK                            x       y       z     vdW  Elec       q    Type
REMARK                         _______ _______ _______ _____ _____    ______ ____
ROOT
ATOM      1  C   UNL     1      35.997 -21.060 -19.443  0.00  0.00    +0.067 C 
ATOM      2  C   UNL     1      34.646 -21.112 -19.844  0.00  0.00    +0.156 C 
ATOM      3  C   UNL     1      36.819 -20.069 -20.012  0.00  0.00    +0.016 C 
ATOM      4  C   UNL     1      34.973 -19.235 -21.328  0.00  0.00    -0.020 C 
ATOM      5  C   UNL     1      34.140 -20.208 -20.777  0.00  0.00    +0.021 C 
ATOM      6  C   UNL     1      36.312 -19.165 -20.946  0.00  0.00    -0.003 C 
ATOM      7  C   UNL     1      34.432 -18.268 -22.328  0.00  0.00    +0.031 C 
ENDROOT
BRANCH   2  10
ATOM      8  O   UNL     1      34.079 -23.306 -19.414  0.00  0.00    -0.126 OA
ATOM      9  O   UNL     1      32.729 -21.722 -18.716  0.00  0.00    -0.126 OA
ATOM     10  N   UNL     1      33.775 -22.096 -19.297  0.00  0.00    +0.059 N 
ENDBRANCH   2  10
BRANCH   1  11
ATOM     11  N   UNL     1      36.524 -21.947 -18.516  0.00  0.00    -0.331 N 
ATOM     12  H   UNL     1      36.672 -22.878 -18.798  0.00  0.00    +0.147 HD
BRANCH  11  13
ATOM     13  C   UNL     1      36.866 -21.582 -17.163  0.00  0.00    +0.085 C 
BRANCH  13  14
ATOM     14  C   UNL     1      36.669 -22.761 -16.212  0.00  0.00    -0.003 C 
BRANCH  14  15
ATOM     15  C   UNL     1      35.331 -22.699 -15.473  0.00  0.00    -0.084 C 
BRANCH  15  16
ATOM     16  N   UNL     1      34.282 -23.317 -16.277  0.00  0.00    +0.380 N 
ATOM     17  H   UNL     1      33.384 -23.212 -15.803  0.00  0.00    -0.089 HD
ATOM     18  H   UNL     1      34.487 -24.308 -16.401  0.00  0.00    -0.089 HD
ATOM     19  H   UNL     1      34.240 -22.861 -17.188  0.00  0.00    -0.089 HD
ENDBRANCH  15  16
ENDBRANCH  14  15
ENDBRANCH  13  14
ENDBRANCH  11  13
ENDBRANCH   1  11
TORSDOF 6
ENDMDL
MODEL 6
REMARK VINA RESULT:      -6.8      2.143      4.750
REMARK  Name = 5276854
REMARK  6 active torsions:
REMARK  status: ('A' for Active; 'I' for Inactive)
REMARK    1  A    between atoms: C_1  and  N_11
REMARK    2  A    between atoms: C_2  and  N_10
REMARK    3  A    between atoms: N_11  and  C_13
REMARK    4  A    between atoms: C_13  and  C_14
REMARK    5  A    between atoms: C_14  and  C_15
REMARK    6  A    between atoms: C_15  and  N_16
REMARK                            x       y       z     vdW  Elec       q    Type
REMARK                         _______ _______ _______ _____ _____    ______ ____
ROOT
ATOM      1  C   UNL     1      34.582 -16.184 -23.046  0.00  0.00    +0.067 C 
ATOM      2  C   UNL     1      34.673 -17.423 -23.712  0.00  0.00    +0.156 C 
ATOM      3  C   UNL     1      34.803 -16.162 -21.655  0.00  0.00    +0.016 C 
ATOM      4  C   UNL     1      35.188 -18.546 -21.636  0.00  0.00    -0.020 C 
ATOM      5  C   UNL     1      34.973 -18.593 -23.013  0.00  0.00    +0.021 C 
ATOM      6  C   UNL     1      35.102 -17.331 -20.957  0.00  0.00    -0.003 C 
ATOM      7  C   UNL     1      35.507 -19.797 -20.888  0.00  0.00    +0.031 C 
ENDROOT
BRANCH   2  10
ATOM      8  O   UNL     1      33.709 -18.396 -25.567  0.00  0.00    -0.126 OA
ATOM      9  O   UNL     1      35.026 -16.664 -25.860  0.00  0.00    -0.126 OA
ATOM     10  N   UNL     1      34.458 -17.498 -25.117  0.00  0.00    +0.059 N 
ENDBRANCH   2  10
BRANCH   1  11
ATOM     11  N   UNL     1      34.285 -15.008 -23.717  0.00  0.00    -0.331 N 
ATOM     12  H   UNL     1      34.246 -15.033 -24.701  0.00  0.00    +0.147 HD
BRANCH  11  13
ATOM     13  C   UNL     1      34.033 -13.750 -23.057  0.00  0.00    +0.085 C 
BRANCH  13  14
ATOM     14  C   UNL     1      32.540 -13.427 -23.046  0.00  0.00    -0.003 C 
BRANCH  14  15
ATOM     15  C   UNL     1      32.059 -12.930 -21.681  0.00  0.00    -0.084 C 
BRANCH  15  16
ATOM     16  N   UNL     1      31.055 -11.885 -21.851  0.00  0.00    +0.380 N 
ATOM     17  H   UNL     1      31.118 -11.224 -21.076  0.00  0.00    -0.089 HD
ATOM     18  H   UNL     1      30.126 -12.305 -21.866  0.00  0.00    -0.089 HD
ATOM     19  H   UNL     1      31.220 -11.394 -22.730  0.00  0.00    -0.089 HD
ENDBRANCH  15  16
ENDBRANCH  14  15
ENDBRANCH  13  14
ENDBRANCH  11  13
ENDBRANCH   1  11
TORSDOF 6
ENDMDL
MODEL 7
REMARK VINA RESULT:      -6.8      2.260      5.463
REMARK  Name = 5276854
REMARK  6 active torsions:
REMARK  status: ('A' for Active; 'I' for Inactive)
REMARK    1  A    between atoms: C_1  and  N_11
REMARK    2  A    between atoms: C_2  and  N_10
REMARK    3  A    between atoms: N_11  and  C_13
REMARK    4  A    between atoms: C_13  and  C_14
REMARK    5  A    between atoms: C_14  and  C_15
REMARK    6  A    between atoms: C_15  and  N_16
REMARK                            x       y       z     vdW  Elec       q    Type
REMARK                         _______ _______ _______ _____ _____    ______ ____
ROOT
ATOM      1  C   UNL     1      34.280 -15.946 -23.055  0.00  0.00    +0.067 C 
ATOM      2  C   UNL     1      34.658 -17.128 -23.725  0.00  0.00    +0.156 C 
ATOM      3  C   UNL     1      34.509 -15.870 -21.668  0.00  0.00    +0.016 C 
ATOM      4  C   UNL     1      35.457 -18.091 -21.659  0.00  0.00    -0.020 C 
ATOM      5  C   UNL     1      35.240 -18.190 -23.033  0.00  0.00    +0.021 C 
ATOM      6  C   UNL     1      35.091 -16.932 -20.976  0.00  0.00    -0.003 C 
ATOM      7  C   UNL     1      36.078 -19.228 -20.918  0.00  0.00    +0.031 C 
ENDROOT
BRANCH   2  10
ATOM      8  O   UNL     1      34.922 -16.383 -25.891  0.00  0.00    -0.126 OA
ATOM      9  O   UNL     1      33.794 -18.235 -25.554  0.00  0.00    -0.126 OA
ATOM     10  N   UNL     1      34.447 -17.255 -25.127  0.00  0.00    +0.059 N 
ENDBRANCH   2  10
BRANCH   1  11
ATOM     11  N   UNL     1      33.700 -14.877 -23.720  0.00  0.00    -0.331 N 
ATOM     12  H   UNL     1      33.154 -15.068 -24.517  0.00  0.00    +0.147 HD
BRANCH  11  13
ATOM     13  C   UNL     1      33.851 -13.502 -23.311  0.00  0.00    +0.085 C 
BRANCH  13  14
ATOM     14  C   UNL     1      33.721 -12.558 -24.505  0.00  0.00    -0.003 C 
BRANCH  14  15
ATOM     15  C   UNL     1      33.781 -11.085 -24.095  0.00  0.00    -0.084 C 
BRANCH  15  16
ATOM     16  N   UNL     1      35.054 -10.500 -24.500  0.00  0.00    +0.380 N 
ATOM     17  H   UNL     1      35.679 -11.238 -24.826  0.00  0.00    -0.089 HD
ATOM     18  H   UNL     1      35.477 -10.022 -23.706  0.00  0.00    -0.089 HD
ATOM     19  H   UNL     1      34.896  -9.831 -25.254  0.00  0.00    -0.089 HD
ENDBRANCH  15  16
ENDBRANCH  14  15
ENDBRANCH  13  14
ENDBRANCH  11  13
ENDBRANCH   1  11
TORSDOF 6
ENDMDL
MODEL 8
REMARK VINA RESULT:      -6.7     12.171     13.165
REMARK  Name = 5276854
REMARK  6 active torsions:
REMARK  status: ('A' for Active; 'I' for Inactive)
REMARK    1  A    between atoms: C_1  and  N_11
REMARK    2  A    between atoms: C_2  and  N_10
REMARK    3  A    between atoms: N_11  and  C_13
REMARK    4  A    between atoms: C_13  and  C_14
REMARK    5  A    between atoms: C_14  and  C_15
REMARK    6  A    between atoms: C_15  and  N_16
REMARK                            x       y       z     vdW  Elec       q    Type
REMARK                         _______ _______ _______ _____ _____    ______ ____
ROOT
ATOM      1  C   UNL     1      35.544 -24.826 -13.316  0.00  0.00    +0.067 C 
ATOM      2  C   UNL     1      36.511 -24.809 -12.290  0.00  0.00    +0.156 C 
ATOM      3  C   UNL     1      35.975 -25.109 -14.627  0.00  0.00    +0.016 C 
ATOM      4  C   UNL     1      38.257 -25.342 -13.872  0.00  0.00    -0.020 C 
ATOM      5  C   UNL     1      37.854 -25.065 -12.566  0.00  0.00    +0.021 C 
ATOM      6  C   UNL     1      37.318 -25.364 -14.902  0.00  0.00    -0.003 C 
ATOM      7  C   UNL     1      39.694 -25.615 -14.168  0.00  0.00    +0.031 C 
ENDROOT
BRANCH   2  10
ATOM      8  O   UNL     1      36.746 -23.643 -10.315  0.00  0.00    -0.126 OA
ATOM      9  O   UNL     1      35.179 -25.175 -10.444  0.00  0.00    -0.126 OA
ATOM     10  N   UNL     1      36.126 -24.528 -10.949  0.00  0.00    +0.059 N 
ENDBRANCH   2  10
BRANCH   1  11
ATOM     11  N   UNL     1      34.204 -24.575 -13.068  0.00  0.00    -0.331 N 
ATOM     12  H   UNL     1      33.909 -24.514 -12.131  0.00  0.00    +0.147 HD
BRANCH  11  13
ATOM     13  C   UNL     1      33.216 -24.400 -14.105  0.00  0.00    +0.085 C 
BRANCH  13  14
ATOM     14  C   UNL     1      31.890 -25.048 -13.713  0.00  0.00    -0.003 C 
BRANCH  14  15
ATOM     15  C   UNL     1      30.794 -24.813 -14.755  0.00  0.00    -0.084 C 
BRANCH  15  16
ATOM     16  N   UNL     1      29.531 -25.381 -14.295  0.00  0.00    +0.380 N 
ATOM     17  H   UNL     1      29.438 -26.334 -14.648  0.00  0.00    -0.089 HD
ATOM     18  H   UNL     1      28.757 -24.813 -14.640  0.00  0.00    -0.089 HD
ATOM     19  H   UNL     1      29.515 -25.393 -13.275  0.00  0.00    -0.089 HD
ENDBRANCH  15  16
ENDBRANCH  14  15
ENDBRANCH  13  14
ENDBRANCH  11  13
ENDBRANCH   1  11
TORSDOF 6
ENDMDL
MODEL 9
REMARK VINA RESULT:      -6.7      2.807      5.401
REMARK  Name = 5276854
REMARK  6 active torsions:
REMARK  status: ('A' for Active; 'I' for Inactive)
REMARK    1  A    between atoms: C_1  and  N_11
REMARK    2  A    between atoms: C_2  and  N_10
REMARK    3  A    between atoms: N_11  and  C_13
REMARK    4  A    between atoms: C_13  and  C_14
REMARK    5  A    between atoms: C_14  and  C_15
REMARK    6  A    between atoms: C_15  and  N_16
REMARK                            x       y       z     vdW  Elec       q    Type
REMARK                         _______ _______ _______ _____ _____    ______ ____
ROOT
ATOM      1  C   UNL     1      34.697 -16.617 -23.075  0.00  0.00    +0.067 C 
ATOM      2  C   UNL     1      34.498 -16.692 -21.682  0.00  0.00    +0.156 C 
ATOM      3  C   UNL     1      35.102 -17.785 -23.750  0.00  0.00    +0.016 C 
ATOM      4  C   UNL     1      35.098 -19.032 -21.681  0.00  0.00    -0.020 C 
ATOM      5  C   UNL     1      34.697 -17.887 -20.992  0.00  0.00    +0.021 C 
ATOM      6  C   UNL     1      35.302 -18.980 -23.060  0.00  0.00    -0.003 C 
ATOM      7  C   UNL     1      35.313 -20.311 -20.943  0.00  0.00    +0.031 C 
ENDROOT
BRANCH   2  10
ATOM      8  O   UNL     1      32.881 -15.203 -20.983  0.00  0.00    -0.126 OA
ATOM      9  O   UNL     1      34.947 -14.896 -20.308  0.00  0.00    -0.126 OA
ATOM     10  N   UNL     1      34.088 -15.539 -20.954  0.00  0.00    +0.059 N 
ENDBRANCH   2  10
BRANCH   1  11
ATOM     11  N   UNL     1      34.506 -15.441 -23.784  0.00  0.00    -0.331 N 
ATOM     12  H   UNL     1      35.037 -14.653 -23.527  0.00  0.00    +0.147 HD
BRANCH  11  13
ATOM     13  C   UNL     1      33.572 -15.306 -24.875  0.00  0.00    +0.085 C 
BRANCH  13  14
ATOM     14  C   UNL     1      33.092 -13.863 -25.010  0.00  0.00    -0.003 C 
BRANCH  14  15
ATOM     15  C   UNL     1      33.252 -13.070 -23.711  0.00  0.00    -0.084 C 
BRANCH  15  16
ATOM     16  N   UNL     1      32.037 -13.166 -22.909  0.00  0.00    +0.380 N 
ATOM     17  H   UNL     1      31.231 -12.914 -23.481  0.00  0.00    -0.089 HD
ATOM     18  H   UNL     1      32.103 -12.530 -22.114  0.00  0.00    -0.089 HD
ATOM     19  H   UNL     1      31.928 -14.122 -22.570  0.00  0.00    -0.089 HD
ENDBRANCH  15  16
ENDBRANCH  14  15
ENDBRANCH  13  14
ENDBRANCH  11  13
ENDBRANCH   1  11
TORSDOF 6
ENDMDL
