MODEL 1
REMARK VINA RESULT:     -11.5      0.000      0.000
REMARK  Name = 11314340
REMARK  7 active torsions:
REMARK  status: ('A' for Active; 'I' for Inactive)
REMARK    1  A    between atoms: C_2  and  C_10
REMARK    2  A    between atoms: C_3  and  O_18
REMARK    3  A    between atoms: O_18  and  C_19
REMARK    4  A    between atoms: C_19  and  C_20
REMARK    5  A    between atoms: C_20  and  N_21
REMARK    6  A    between atoms: C_20  and  C_25
REMARK    7  A    between atoms: C_25  and  C_26
REMARK                            x       y       z     vdW  Elec       q    Type
REMARK                         _______ _______ _______ _____ _____    ______ ____
ROOT
ATOM      1  N   UNL     1      33.194 -15.383 -26.551  0.00  0.00    -0.239 NA
ATOM      2  C   UNL     1      33.445 -13.898 -24.667  0.00  0.00    +0.022 C 
ATOM      3  C   UNL     1      34.053 -16.207 -24.447  0.00  0.00    +0.158 C 
ATOM      4  C   UNL     1      33.933 -14.938 -23.891  0.00  0.00    +0.040 C 
ATOM      5  C   UNL     1      33.092 -14.163 -25.977  0.00  0.00    +0.099 C 
ATOM      6  C   UNL     1      33.673 -16.376 -25.768  0.00  0.00    +0.136 C 
ENDROOT
BRANCH   2  10
ATOM      7  N   UNL     1      31.997  -9.220 -21.559  0.00  0.00    -0.280 N 
ATOM      8  N   UNL     1      32.868  -8.830 -22.510  0.00  0.00    -0.173 NA
ATOM      9  C   UNL     1      32.427 -11.057 -22.610  0.00  0.00    +0.032 A 
ATOM     10  C   UNL     1      33.307 -12.562 -24.117  0.00  0.00    +0.002 C 
ATOM     11  C   UNL     1      33.159  -9.955 -23.188  0.00  0.00    +0.102 A 
ATOM     12  C   UNL     1      32.446 -12.384 -23.016  0.00  0.00    +0.003 C 
ATOM     13  C   UNL     1      31.696 -10.551 -21.573  0.00  0.00    +0.053 A 
ATOM     14  C   UNL     1      34.054 -11.504 -24.725  0.00  0.00    +0.002 C 
ATOM     15  C   UNL     1      34.012 -10.161 -24.287  0.00  0.00    +0.021 C 
ATOM     16  C   UNL     1      30.762 -11.150 -20.604  0.00  0.00    +0.051 C 
ATOM     17  H   UNL     1      31.609  -8.594 -20.906  0.00  0.00    +0.189 HD
ENDBRANCH   2  10
BRANCH   3  18
ATOM     18  O   UNL     1      34.528 -17.247 -23.716  0.00  0.00    -0.476 OA
BRANCH  18  19
ATOM     19  C   UNL     1      35.576 -16.969 -22.786  0.00  0.00    +0.184 C 
BRANCH  19  20
ATOM     20  C   UNL     1      35.307 -17.681 -21.455  0.00  0.00    -0.017 C 
BRANCH  20  21
ATOM     21  N   UNL     1      34.930 -16.673 -20.460  0.00  0.00    +0.384 N 
ATOM     22  H   UNL     1      33.925 -16.718 -20.294  0.00  0.00    -0.089 HD
ATOM     23  H   UNL     1      35.176 -15.745 -20.806  0.00  0.00    -0.089 HD
ATOM     24  H   UNL     1      35.428 -16.853 -19.588  0.00  0.00    -0.089 HD
ENDBRANCH  20  21
BRANCH  20  25
ATOM     25  C   UNL     1      34.173 -18.723 -21.541  0.00  0.00    +0.008 C 
BRANCH  25  26
ATOM     26  C   UNL     1      34.362 -19.934 -20.659  0.00  0.00    -0.024 C 
ATOM     27  C   UNL     1      35.645 -20.391 -20.400  0.00  0.00    -0.004 C 
ATOM     28  C   UNL     1      33.251 -20.567 -20.125  0.00  0.00    -0.004 C 
ATOM     29  C   UNL     1      35.821 -21.509 -19.585  0.00  0.00    -0.000 C 
ATOM     30  C   UNL     1      33.428 -21.685 -19.310  0.00  0.00    -0.000 C 
ATOM     31  C   UNL     1      34.712 -22.157 -19.040  0.00  0.00    -0.000 C 
ENDBRANCH  25  26
ENDBRANCH  20  25
ENDBRANCH  19  20
ENDBRANCH  18  19
ENDBRANCH   3  18
TORSDOF 7
ENDMDL
MODEL 2
REMARK VINA RESULT:     -11.2      0.980      2.187
REMARK  Name = 11314340
REMARK  7 active torsions:
REMARK  status: ('A' for Active; 'I' for Inactive)
REMARK    1  A    between atoms: C_2  and  C_10
REMARK    2  A    between atoms: C_3  and  O_18
REMARK    3  A    between atoms: O_18  and  C_19
REMARK    4  A    between atoms: C_19  and  C_20
REMARK    5  A    between atoms: C_20  and  N_21
REMARK    6  A    between atoms: C_20  and  C_25
REMARK    7  A    between atoms: C_25  and  C_26
REMARK                            x       y       z     vdW  Elec       q    Type
REMARK                         _______ _______ _______ _____ _____    ______ ____
ROOT
ATOM      1  N   UNL     1      33.205 -14.760 -25.612  0.00  0.00    -0.239 NA
ATOM      2  C   UNL     1      33.324 -13.164 -23.809  0.00  0.00    +0.022 C 
ATOM      3  C   UNL     1      34.574 -15.205 -23.671  0.00  0.00    +0.158 C 
ATOM      4  C   UNL     1      34.195 -13.989 -23.114  0.00  0.00    +0.040 C 
ATOM      5  C   UNL     1      32.859 -13.585 -25.040  0.00  0.00    +0.099 C 
ATOM      6  C   UNL     1      34.055 -15.542 -24.910  0.00  0.00    +0.136 C 
ENDROOT
BRANCH   2  10
ATOM      7  N   UNL     1      32.701  -7.559 -22.452  0.00  0.00    -0.280 N 
ATOM      8  N   UNL     1      31.795  -8.259 -21.740  0.00  0.00    -0.173 NA
ATOM      9  C   UNL     1      33.065  -9.596 -23.069  0.00  0.00    +0.032 A 
ATOM     10  C   UNL     1      32.909 -11.888 -23.255  0.00  0.00    +0.002 C 
ATOM     11  C   UNL     1      31.995  -9.539 -22.101  0.00  0.00    +0.102 A 
ATOM     12  C   UNL     1      33.578 -10.727 -23.689  0.00  0.00    +0.003 C 
ATOM     13  C   UNL     1      33.492  -8.314 -23.268  0.00  0.00    +0.053 A 
ATOM     14  C   UNL     1      31.843 -11.885 -22.300  0.00  0.00    +0.002 C 
ATOM     15  C   UNL     1      31.343 -10.715 -21.685  0.00  0.00    +0.021 C 
ATOM     16  C   UNL     1      34.534  -7.713 -24.118  0.00  0.00    +0.051 C 
ATOM     17  H   UNL     1      32.784  -6.580 -22.388  0.00  0.00    +0.189 HD
ENDBRANCH   2  10
BRANCH   3  18
ATOM     18  O   UNL     1      35.426 -16.036 -23.019  0.00  0.00    -0.476 OA
BRANCH  18  19
ATOM     19  C   UNL     1      35.249 -17.440 -23.214  0.00  0.00    +0.184 C 
BRANCH  19  20
ATOM     20  C   UNL     1      35.288 -18.173 -21.868  0.00  0.00    -0.017 C 
BRANCH  20  21
ATOM     21  N   UNL     1      35.172 -17.178 -20.797  0.00  0.00    +0.384 N 
ATOM     22  H   UNL     1      35.923 -17.316 -20.122  0.00  0.00    -0.089 HD
ATOM     23  H   UNL     1      34.271 -17.285 -20.330  0.00  0.00    -0.089 HD
ATOM     24  H   UNL     1      35.239 -16.241 -21.195  0.00  0.00    -0.089 HD
ENDBRANCH  20  21
BRANCH  20  25
ATOM     25  C   UNL     1      34.146 -19.198 -21.700  0.00  0.00    +0.008 C 
BRANCH  25  26
ATOM     26  C   UNL     1      34.389 -20.241 -20.637  0.00  0.00    -0.024 C 
ATOM     27  C   UNL     1      33.306 -20.816 -19.989  0.00  0.00    -0.004 C 
ATOM     28  C   UNL     1      35.689 -20.607 -20.326  0.00  0.00    -0.004 C 
ATOM     29  C   UNL     1      33.529 -21.781 -19.007  0.00  0.00    -0.000 C 
ATOM     30  C   UNL     1      35.912 -21.572 -19.344  0.00  0.00    -0.000 C 
ATOM     31  C   UNL     1      34.833 -22.158 -18.684  0.00  0.00    -0.000 C 
ENDBRANCH  25  26
ENDBRANCH  20  25
ENDBRANCH  19  20
ENDBRANCH  18  19
ENDBRANCH   3  18
TORSDOF 7
ENDMDL
MODEL 3
REMARK VINA RESULT:     -11.1      1.510      1.780
REMARK  Name = 11314340
REMARK  7 active torsions:
REMARK  status: ('A' for Active; 'I' for Inactive)
REMARK    1  A    between atoms: C_2  and  C_10
REMARK    2  A    between atoms: C_3  and  O_18
REMARK    3  A    between atoms: O_18  and  C_19
REMARK    4  A    between atoms: C_19  and  C_20
REMARK    5  A    between atoms: C_20  and  N_21
REMARK    6  A    between atoms: C_20  and  C_25
REMARK    7  A    between atoms: C_25  and  C_26
REMARK                            x       y       z     vdW  Elec       q    Type
REMARK                         _______ _______ _______ _____ _____    ______ ____
ROOT
ATOM      1  N   UNL     1      33.169 -14.347 -26.591  0.00  0.00    -0.239 NA
ATOM      2  C   UNL     1      33.738 -12.703 -24.921  0.00  0.00    +0.022 C 
ATOM      3  C   UNL     1      33.634 -15.022 -24.317  0.00  0.00    +0.158 C 
ATOM      4  C   UNL     1      33.859 -13.696 -23.961  0.00  0.00    +0.040 C 
ATOM      5  C   UNL     1      33.395 -13.071 -26.208  0.00  0.00    +0.099 C 
ATOM      6  C   UNL     1      33.294 -15.292 -25.632  0.00  0.00    +0.136 C 
ENDROOT
BRANCH   2  10
ATOM      7  N   UNL     1      33.608  -7.387 -22.606  0.00  0.00    -0.280 N 
ATOM      8  N   UNL     1      34.551  -7.395 -23.569  0.00  0.00    -0.173 NA
ATOM      9  C   UNL     1      33.526  -9.411 -23.353  0.00  0.00    +0.032 A 
ATOM     10  C   UNL     1      33.966 -11.311 -24.582  0.00  0.00    +0.002 C 
ATOM     11  C   UNL     1      34.527  -8.647 -24.058  0.00  0.00    +0.102 A 
ATOM     12  C   UNL     1      33.187 -10.743 -23.555  0.00  0.00    +0.003 C 
ATOM     13  C   UNL     1      32.959  -8.575 -22.433  0.00  0.00    +0.053 A 
ATOM     14  C   UNL     1      34.970 -10.597 -25.310  0.00  0.00    +0.002 C 
ATOM     15  C   UNL     1      35.291  -9.240 -25.080  0.00  0.00    +0.021 C 
ATOM     16  C   UNL     1      31.900  -8.747 -21.424  0.00  0.00    +0.051 C 
ATOM     17  H   UNL     1      33.404  -6.587 -22.069  0.00  0.00    +0.189 HD
ENDBRANCH   2  10
BRANCH   3  18
ATOM     18  O   UNL     1      33.745 -16.018 -23.402  0.00  0.00    -0.476 OA
BRANCH  18  19
ATOM     19  C   UNL     1      34.990 -16.715 -23.341  0.00  0.00    +0.184 C 
BRANCH  19  20
ATOM     20  C   UNL     1      34.764 -18.170 -22.914  0.00  0.00    -0.017 C 
BRANCH  20  21
ATOM     21  N   UNL     1      35.093 -19.040 -24.048  0.00  0.00    +0.384 N 
ATOM     22  H   UNL     1      35.691 -19.802 -23.730  0.00  0.00    -0.089 HD
ATOM     23  H   UNL     1      35.581 -18.498 -24.762  0.00  0.00    -0.089 HD
ATOM     24  H   UNL     1      34.233 -19.424 -24.442  0.00  0.00    -0.089 HD
ENDBRANCH  20  21
BRANCH  20  25
ATOM     25  C   UNL     1      35.635 -18.594 -21.713  0.00  0.00    +0.008 C 
BRANCH  25  26
ATOM     26  C   UNL     1      35.054 -19.707 -20.875  0.00  0.00    -0.024 C 
ATOM     27  C   UNL     1      35.907 -20.600 -20.245  0.00  0.00    -0.004 C 
ATOM     28  C   UNL     1      33.678 -19.817 -20.751  0.00  0.00    -0.004 C 
ATOM     29  C   UNL     1      35.370 -21.628 -19.471  0.00  0.00    -0.000 C 
ATOM     30  C   UNL     1      33.141 -20.846 -19.977  0.00  0.00    -0.000 C 
ATOM     31  C   UNL     1      33.987 -21.752 -19.337  0.00  0.00    -0.000 C 
ENDBRANCH  25  26
ENDBRANCH  20  25
ENDBRANCH  19  20
ENDBRANCH  18  19
ENDBRANCH   3  18
TORSDOF 7
ENDMDL
MODEL 4
REMARK VINA RESULT:     -10.9      4.426      7.682
REMARK  Name = 11314340
REMARK  7 active torsions:
REMARK  status: ('A' for Active; 'I' for Inactive)
REMARK    1  A    between atoms: C_2  and  C_10
REMARK    2  A    between atoms: C_3  and  O_18
REMARK    3  A    between atoms: O_18  and  C_19
REMARK    4  A    between atoms: C_19  and  C_20
REMARK    5  A    between atoms: C_20  and  N_21
REMARK    6  A    between atoms: C_20  and  C_25
REMARK    7  A    between atoms: C_25  and  C_26
REMARK                            x       y       z     vdW  Elec       q    Type
REMARK                         _______ _______ _______ _____ _____    ______ ____
ROOT
ATOM      1  N   UNL     1      32.798 -21.704 -19.465  0.00  0.00    -0.239 NA
ATOM      2  C   UNL     1      34.299 -20.193 -20.596  0.00  0.00    +0.022 C 
ATOM      3  C   UNL     1      35.173 -21.775 -19.020  0.00  0.00    +0.158 C 
ATOM      4  C   UNL     1      35.382 -20.740 -19.925  0.00  0.00    +0.040 C 
ATOM      5  C   UNL     1      33.040 -20.700 -20.338  0.00  0.00    +0.099 C 
ATOM      6  C   UNL     1      33.875 -22.216 -18.827  0.00  0.00    +0.136 C 
ENDROOT
BRANCH   2  10
ATOM      7  N   UNL     1      34.722 -15.056 -23.255  0.00  0.00    -0.280 N 
ATOM      8  N   UNL     1      34.989 -16.014 -24.164  0.00  0.00    -0.173 NA
ATOM      9  C   UNL     1      34.524 -16.878 -22.115  0.00  0.00    +0.032 A 
ATOM     10  C   UNL     1      34.484 -19.111 -21.546  0.00  0.00    +0.002 C 
ATOM     11  C   UNL     1      34.873 -17.169 -23.485  0.00  0.00    +0.102 A 
ATOM     12  C   UNL     1      34.312 -17.790 -21.089  0.00  0.00    +0.003 C 
ATOM     13  C   UNL     1      34.435 -15.520 -22.004  0.00  0.00    +0.053 A 
ATOM     14  C   UNL     1      34.831 -19.452 -22.892  0.00  0.00    +0.002 C 
ATOM     15  C   UNL     1      35.039 -18.498 -23.914  0.00  0.00    +0.021 C 
ATOM     16  C   UNL     1      34.121 -14.612 -20.888  0.00  0.00    +0.051 C 
ATOM     17  H   UNL     1      34.734 -14.096 -23.476  0.00  0.00    +0.189 HD
ENDBRANCH   2  10
BRANCH   3  18
ATOM     18  O   UNL     1      36.210 -22.334 -18.348  0.00  0.00    -0.476 OA
BRANCH  18  19
ATOM     19  C   UNL     1      36.795 -21.568 -17.292  0.00  0.00    +0.184 C 
BRANCH  19  20
ATOM     20  C   UNL     1      36.691 -22.328 -15.965  0.00  0.00    -0.017 C 
BRANCH  20  21
ATOM     21  N   UNL     1      35.457 -23.118 -15.980  0.00  0.00    +0.384 N 
ATOM     22  H   UNL     1      35.033 -23.071 -16.906  0.00  0.00    -0.089 HD
ATOM     23  H   UNL     1      34.806 -22.745 -15.288  0.00  0.00    -0.089 HD
ATOM     24  H   UNL     1      35.672 -24.090 -15.753  0.00  0.00    -0.089 HD
ENDBRANCH  20  21
BRANCH  20  25
ATOM     25  C   UNL     1      37.875 -23.287 -15.718  0.00  0.00    +0.008 C 
BRANCH  25  26
ATOM     26  C   UNL     1      37.663 -24.272 -14.595  0.00  0.00    -0.024 C 
ATOM     27  C   UNL     1      37.558 -23.807 -13.293  0.00  0.00    -0.004 C 
ATOM     28  C   UNL     1      37.577 -25.625 -14.884  0.00  0.00    -0.004 C 
ATOM     29  C   UNL     1      37.362 -24.716 -12.254  0.00  0.00    -0.000 C 
ATOM     30  C   UNL     1      37.381 -26.535 -13.844  0.00  0.00    -0.000 C 
ATOM     31  C   UNL     1      37.274 -26.081 -12.530  0.00  0.00    -0.000 C 
ENDBRANCH  25  26
ENDBRANCH  20  25
ENDBRANCH  19  20
ENDBRANCH  18  19
ENDBRANCH   3  18
TORSDOF 7
ENDMDL
MODEL 5
REMARK VINA RESULT:     -10.9      3.715      7.305
REMARK  Name = 11314340
REMARK  7 active torsions:
REMARK  status: ('A' for Active; 'I' for Inactive)
REMARK    1  A    between atoms: C_2  and  C_10
REMARK    2  A    between atoms: C_3  and  O_18
REMARK    3  A    between atoms: O_18  and  C_19
REMARK    4  A    between atoms: C_19  and  C_20
REMARK    5  A    between atoms: C_20  and  N_21
REMARK    6  A    between atoms: C_20  and  C_25
REMARK    7  A    between atoms: C_25  and  C_26
REMARK                            x       y       z     vdW  Elec       q    Type
REMARK                         _______ _______ _______ _____ _____    ______ ____
ROOT
ATOM      1  N   UNL     1      36.416 -21.474 -19.312  0.00  0.00    -0.239 NA
ATOM      2  C   UNL     1      34.987 -20.086 -20.671  0.00  0.00    +0.022 C 
ATOM      3  C   UNL     1      34.016 -21.750 -19.243  0.00  0.00    +0.158 C 
ATOM      4  C   UNL     1      33.863 -20.729 -20.175  0.00  0.00    +0.040 C 
ATOM      5  C   UNL     1      36.229 -20.486 -20.217  0.00  0.00    +0.099 C 
ATOM      6  C   UNL     1      35.301 -22.082 -18.849  0.00  0.00    +0.136 C 
ENDROOT
BRANCH   2  10
ATOM      7  N   UNL     1      34.397 -14.996 -23.388  0.00  0.00    -0.280 N 
ATOM      8  N   UNL     1      34.504 -15.955 -24.328  0.00  0.00    -0.173 NA
ATOM      9  C   UNL     1      34.607 -16.800 -22.221  0.00  0.00    +0.032 A 
ATOM     10  C   UNL     1      34.862 -19.017 -21.645  0.00  0.00    +0.002 C 
ATOM     11  C   UNL     1      34.637 -17.099 -23.633  0.00  0.00    +0.102 A 
ATOM     12  C   UNL     1      34.712 -17.700 -21.169  0.00  0.00    +0.003 C 
ATOM     13  C   UNL     1      34.453 -15.448 -22.102  0.00  0.00    +0.053 A 
ATOM     14  C   UNL     1      34.898 -19.365 -23.033  0.00  0.00    +0.002 C 
ATOM     15  C   UNL     1      34.788 -18.424 -24.081  0.00  0.00    +0.021 C 
ATOM     16  C   UNL     1      34.353 -14.537 -20.949  0.00  0.00    +0.051 C 
ATOM     17  H   UNL     1      34.288 -14.043 -23.612  0.00  0.00    +0.189 HD
ENDBRANCH   2  10
BRANCH   3  18
ATOM     18  O   UNL     1      32.938 -22.400 -18.737  0.00  0.00    -0.476 OA
BRANCH  18  19
ATOM     19  C   UNL     1      33.182 -23.408 -17.755  0.00  0.00    +0.184 C 
BRANCH  19  20
ATOM     20  C   UNL     1      32.709 -22.932 -16.376  0.00  0.00    -0.017 C 
BRANCH  20  21
ATOM     21  N   UNL     1      31.247 -23.030 -16.331  0.00  0.00    +0.384 N 
ATOM     22  H   UNL     1      30.940 -23.814 -16.906  0.00  0.00    -0.089 HD
ATOM     23  H   UNL     1      30.837 -22.166 -16.686  0.00  0.00    -0.089 HD
ATOM     24  H   UNL     1      30.946 -23.177 -15.366  0.00  0.00    -0.089 HD
ENDBRANCH  20  21
BRANCH  20  25
ATOM     25  C   UNL     1      33.285 -23.768 -15.214  0.00  0.00    +0.008 C 
BRANCH  25  26
ATOM     26  C   UNL     1      34.792 -23.839 -15.177  0.00  0.00    -0.024 C 
ATOM     27  C   UNL     1      35.411 -25.073 -15.037  0.00  0.00    -0.004 C 
ATOM     28  C   UNL     1      35.531 -22.672 -15.284  0.00  0.00    -0.004 C 
ATOM     29  C   UNL     1      36.803 -25.139 -15.003  0.00  0.00    -0.000 C 
ATOM     30  C   UNL     1      36.925 -22.739 -15.250  0.00  0.00    -0.000 C 
ATOM     31  C   UNL     1      37.561 -23.972 -15.109  0.00  0.00    -0.000 C 
ENDBRANCH  25  26
ENDBRANCH  20  25
ENDBRANCH  19  20
ENDBRANCH  18  19
ENDBRANCH   3  18
TORSDOF 7
ENDMDL
MODEL 6
REMARK VINA RESULT:     -10.9      3.642      7.010
REMARK  Name = 11314340
REMARK  7 active torsions:
REMARK  status: ('A' for Active; 'I' for Inactive)
REMARK    1  A    between atoms: C_2  and  C_10
REMARK    2  A    between atoms: C_3  and  O_18
REMARK    3  A    between atoms: O_18  and  C_19
REMARK    4  A    between atoms: C_19  and  C_20
REMARK    5  A    between atoms: C_20  and  N_21
REMARK    6  A    between atoms: C_20  and  C_25
REMARK    7  A    between atoms: C_25  and  C_26
REMARK                            x       y       z     vdW  Elec       q    Type
REMARK                         _______ _______ _______ _____ _____    ______ ____
ROOT
ATOM      1  N   UNL     1      36.763 -20.157 -19.964  0.00  0.00    -0.239 NA
ATOM      2  C   UNL     1      35.132 -19.333 -21.537  0.00  0.00    +0.022 C 
ATOM      3  C   UNL     1      34.463 -20.892 -19.842  0.00  0.00    +0.158 C 
ATOM      4  C   UNL     1      34.142 -20.095 -20.936  0.00  0.00    +0.040 C 
ATOM      5  C   UNL     1      36.414 -19.395 -21.024  0.00  0.00    +0.099 C 
ATOM      6  C   UNL     1      35.776 -20.888 -19.399  0.00  0.00    +0.136 C 
ENDROOT
BRANCH   2  10
ATOM      7  N   UNL     1      33.901 -14.935 -25.112  0.00  0.00    -0.280 N 
ATOM      8  N   UNL     1      33.976 -16.059 -25.852  0.00  0.00    -0.173 NA
ATOM      9  C   UNL     1      34.360 -16.453 -23.647  0.00  0.00    +0.032 A 
ATOM     10  C   UNL     1      34.830 -18.492 -22.681  0.00  0.00    +0.002 C 
ATOM     11  C   UNL     1      34.262 -17.030 -24.966  0.00  0.00    +0.102 A 
ATOM     12  C   UNL     1      34.639 -17.114 -22.458  0.00  0.00    +0.003 C 
ATOM     13  C   UNL     1      34.123 -15.114 -23.778  0.00  0.00    +0.053 A 
ATOM     14  C   UNL     1      34.744 -19.112 -23.967  0.00  0.00    +0.002 C 
ATOM     15  C   UNL     1      34.458 -18.410 -25.160  0.00  0.00    +0.021 C 
ATOM     16  C   UNL     1      34.081 -13.994 -22.823  0.00  0.00    +0.051 C 
ATOM     17  H   UNL     1      33.702 -14.054 -25.504  0.00  0.00    +0.189 HD
ENDBRANCH   2  10
BRANCH   3  18
ATOM     18  O   UNL     1      33.519 -21.648 -19.229  0.00  0.00    -0.476 OA
BRANCH  18  19
ATOM     19  C   UNL     1      33.835 -23.020 -18.985  0.00  0.00    +0.184 C 
BRANCH  19  20
ATOM     20  C   UNL     1      33.442 -23.410 -17.555  0.00  0.00    -0.017 C 
BRANCH  20  21
ATOM     21  N   UNL     1      34.518 -22.996 -16.650  0.00  0.00    +0.384 N 
ATOM     22  H   UNL     1      35.203 -22.444 -17.165  0.00  0.00    -0.089 HD
ATOM     23  H   UNL     1      34.970 -23.824 -16.260  0.00  0.00    -0.089 HD
ATOM     24  H   UNL     1      34.127 -22.434 -15.893  0.00  0.00    -0.089 HD
ENDBRANCH  20  21
BRANCH  20  25
ATOM     25  C   UNL     1      32.131 -22.745 -17.083  0.00  0.00    +0.008 C 
BRANCH  25  26
ATOM     26  C   UNL     1      31.539 -23.343 -15.829  0.00  0.00    -0.024 C 
ATOM     27  C   UNL     1      30.591 -24.349 -15.938  0.00  0.00    -0.004 C 
ATOM     28  C   UNL     1      31.953 -22.875 -14.592  0.00  0.00    -0.004 C 
ATOM     29  C   UNL     1      30.044 -24.901 -14.781  0.00  0.00    -0.000 C 
ATOM     30  C   UNL     1      31.405 -23.428 -13.434  0.00  0.00    -0.000 C 
ATOM     31  C   UNL     1      30.451 -24.441 -13.528  0.00  0.00    -0.000 C 
ENDBRANCH  25  26
ENDBRANCH  20  25
ENDBRANCH  19  20
ENDBRANCH  18  19
ENDBRANCH   3  18
TORSDOF 7
ENDMDL
MODEL 7
REMARK VINA RESULT:     -10.8      3.980      7.364
REMARK  Name = 11314340
REMARK  7 active torsions:
REMARK  status: ('A' for Active; 'I' for Inactive)
REMARK    1  A    between atoms: C_2  and  C_10
REMARK    2  A    between atoms: C_3  and  O_18
REMARK    3  A    between atoms: O_18  and  C_19
REMARK    4  A    between atoms: C_19  and  C_20
REMARK    5  A    between atoms: C_20  and  N_21
REMARK    6  A    between atoms: C_20  and  C_25
REMARK    7  A    between atoms: C_25  and  C_26
REMARK                            x       y       z     vdW  Elec       q    Type
REMARK                         _______ _______ _______ _____ _____    ______ ____
ROOT
ATOM      1  N   UNL     1      32.747 -21.696 -19.527  0.00  0.00    -0.239 NA
ATOM      2  C   UNL     1      34.295 -20.161 -20.557  0.00  0.00    +0.022 C 
ATOM      3  C   UNL     1      35.108 -21.816 -19.023  0.00  0.00    +0.158 C 
ATOM      4  C   UNL     1      35.353 -20.749 -19.881  0.00  0.00    +0.040 C 
ATOM      5  C   UNL     1      33.023 -20.661 -20.352  0.00  0.00    +0.099 C 
ATOM      6  C   UNL     1      33.799 -22.247 -18.882  0.00  0.00    +0.136 C 
ENDROOT
BRANCH   2  10
ATOM      7  N   UNL     1      34.660 -14.942 -23.061  0.00  0.00    -0.280 N 
ATOM      8  N   UNL     1      35.120 -15.855 -23.940  0.00  0.00    -0.173 NA
ATOM      9  C   UNL     1      34.457 -16.802 -21.984  0.00  0.00    +0.032 A 
ATOM     10  C   UNL     1      34.518 -19.046 -21.458  0.00  0.00    +0.002 C 
ATOM     11  C   UNL     1      35.008 -17.032 -23.299  0.00  0.00    +0.102 A 
ATOM     12  C   UNL     1      34.184 -17.753 -21.010  0.00  0.00    +0.003 C 
ATOM     13  C   UNL     1      34.248 -15.458 -21.867  0.00  0.00    +0.053 A 
ATOM     14  C   UNL     1      35.066 -19.325 -22.750  0.00  0.00    +0.002 C 
ATOM     15  C   UNL     1      35.333 -18.334 -23.721  0.00  0.00    +0.021 C 
ATOM     16  C   UNL     1      33.718 -14.605 -20.790  0.00  0.00    +0.051 C 
ATOM     17  H   UNL     1      34.626 -13.980 -23.265  0.00  0.00    +0.189 HD
ENDBRANCH   2  10
BRANCH   3  18
ATOM     18  O   UNL     1      36.120 -22.415 -18.347  0.00  0.00    -0.476 OA
BRANCH  18  19
ATOM     19  C   UNL     1      36.230 -22.135 -16.950  0.00  0.00    +0.184 C 
BRANCH  19  20
ATOM     20  C   UNL     1      35.610 -23.273 -16.130  0.00  0.00    -0.017 C 
BRANCH  20  21
ATOM     21  N   UNL     1      36.696 -24.080 -15.566  0.00  0.00    +0.384 N 
ATOM     22  H   UNL     1      36.331 -24.987 -15.276  0.00  0.00    -0.089 HD
ATOM     23  H   UNL     1      37.093 -23.599 -14.758  0.00  0.00    -0.089 HD
ATOM     24  H   UNL     1      37.421 -24.215 -16.272  0.00  0.00    -0.089 HD
ENDBRANCH  20  21
BRANCH  20  25
ATOM     25  C   UNL     1      34.727 -22.773 -14.967  0.00  0.00    +0.008 C 
BRANCH  25  26
ATOM     26  C   UNL     1      33.397 -23.475 -14.840  0.00  0.00    -0.024 C 
ATOM     27  C   UNL     1      33.207 -24.391 -13.816  0.00  0.00    -0.004 C 
ATOM     28  C   UNL     1      32.389 -23.194 -15.749  0.00  0.00    -0.004 C 
ATOM     29  C   UNL     1      31.979 -25.040 -13.697  0.00  0.00    -0.000 C 
ATOM     30  C   UNL     1      31.160 -23.844 -15.630  0.00  0.00    -0.000 C 
ATOM     31  C   UNL     1      30.955 -24.767 -14.605  0.00  0.00    -0.000 C 
ENDBRANCH  25  26
ENDBRANCH  20  25
ENDBRANCH  19  20
ENDBRANCH  18  19
ENDBRANCH   3  18
TORSDOF 7
ENDMDL
MODEL 8
REMARK VINA RESULT:     -10.7      5.546     12.271
REMARK  Name = 11314340
REMARK  7 active torsions:
REMARK  status: ('A' for Active; 'I' for Inactive)
REMARK    1  A    between atoms: C_2  and  C_10
REMARK    2  A    between atoms: C_3  and  O_18
REMARK    3  A    between atoms: O_18  and  C_19
REMARK    4  A    between atoms: C_19  and  C_20
REMARK    5  A    between atoms: C_20  and  N_21
REMARK    6  A    between atoms: C_20  and  C_25
REMARK    7  A    between atoms: C_25  and  C_26
REMARK                            x       y       z     vdW  Elec       q    Type
REMARK                         _______ _______ _______ _____ _____    ______ ____
ROOT
ATOM      1  N   UNL     1      31.564 -23.404 -15.526  0.00  0.00    -0.239 NA
ATOM      2  C   UNL     1      33.975 -23.402 -15.545  0.00  0.00    +0.022 C 
ATOM      3  C   UNL     1      32.772 -22.835 -17.541  0.00  0.00    +0.158 C 
ATOM      4  C   UNL     1      33.981 -23.025 -16.879  0.00  0.00    +0.040 C 
ATOM      5  C   UNL     1      32.757 -23.579 -14.916  0.00  0.00    +0.099 C 
ATOM      6  C   UNL     1      31.603 -23.037 -16.827  0.00  0.00    +0.136 C 
ENDROOT
BRANCH   2  10
ATOM      7  N   UNL     1      38.073 -24.274 -11.534  0.00  0.00    -0.280 N 
ATOM      8  N   UNL     1      38.681 -24.195 -12.734  0.00  0.00    -0.173 NA
ATOM      9  C   UNL     1      36.427 -23.954 -12.894  0.00  0.00    +0.032 A 
ATOM     10  C   UNL     1      35.219 -23.609 -14.826  0.00  0.00    +0.002 C 
ATOM     11  C   UNL     1      37.679 -23.994 -13.610  0.00  0.00    +0.102 A 
ATOM     12  C   UNL     1      35.159 -23.765 -13.428  0.00  0.00    +0.003 C 
ATOM     13  C   UNL     1      36.716 -24.136 -11.571  0.00  0.00    +0.053 A 
ATOM     14  C   UNL     1      36.434 -23.641 -15.582  0.00  0.00    +0.002 C 
ATOM     15  C   UNL     1      37.710 -23.835 -15.007  0.00  0.00    +0.021 C 
ATOM     16  C   UNL     1      35.891 -24.198 -10.352  0.00  0.00    +0.051 C 
ATOM     17  H   UNL     1      38.569 -24.422 -10.696  0.00  0.00    +0.189 HD
ENDBRANCH   2  10
BRANCH   3  18
ATOM     18  O   UNL     1      32.742 -22.465 -18.845  0.00  0.00    -0.476 OA
BRANCH  18  19
ATOM     19  C   UNL     1      33.989 -22.149 -19.466  0.00  0.00    +0.184 C 
BRANCH  19  20
ATOM     20  C   UNL     1      33.819 -20.972 -20.433  0.00  0.00    -0.017 C 
BRANCH  20  21
ATOM     21  N   UNL     1      32.665 -20.179 -19.997  0.00  0.00    +0.384 N 
ATOM     22  H   UNL     1      32.121 -19.894 -20.811  0.00  0.00    -0.089 HD
ATOM     23  H   UNL     1      32.991 -19.350 -19.499  0.00  0.00    -0.089 HD
ATOM     24  H   UNL     1      32.082 -20.741 -19.376  0.00  0.00    -0.089 HD
ENDBRANCH  20  21
BRANCH  20  25
ATOM     25  C   UNL     1      35.051 -20.043 -20.484  0.00  0.00    +0.008 C 
BRANCH  25  26
ATOM     26  C   UNL     1      34.993 -18.980 -21.554  0.00  0.00    -0.024 C 
ATOM     27  C   UNL     1      34.854 -19.358 -22.881  0.00  0.00    -0.004 C 
ATOM     28  C   UNL     1      35.081 -17.645 -21.192  0.00  0.00    -0.004 C 
ATOM     29  C   UNL     1      34.801 -18.376 -23.870  0.00  0.00    -0.000 C 
ATOM     30  C   UNL     1      35.027 -16.663 -22.182  0.00  0.00    -0.000 C 
ATOM     31  C   UNL     1      34.888 -17.028 -23.520  0.00  0.00    -0.000 C 
ENDBRANCH  25  26
ENDBRANCH  20  25
ENDBRANCH  19  20
ENDBRANCH  18  19
ENDBRANCH   3  18
TORSDOF 7
ENDMDL
MODEL 9
REMARK VINA RESULT:     -10.5      4.777     11.527
REMARK  Name = 11314340
REMARK  7 active torsions:
REMARK  status: ('A' for Active; 'I' for Inactive)
REMARK    1  A    between atoms: C_2  and  C_10
REMARK    2  A    between atoms: C_3  and  O_18
REMARK    3  A    between atoms: O_18  and  C_19
REMARK    4  A    between atoms: C_19  and  C_20
REMARK    5  A    between atoms: C_20  and  N_21
REMARK    6  A    between atoms: C_20  and  C_25
REMARK    7  A    between atoms: C_25  and  C_26
REMARK                            x       y       z     vdW  Elec       q    Type
REMARK                         _______ _______ _______ _____ _____    ______ ____
ROOT
ATOM      1  N   UNL     1      37.074 -21.988 -16.985  0.00  0.00    -0.239 NA
ATOM      2  C   UNL     1      34.844 -22.805 -16.569  0.00  0.00    +0.022 C 
ATOM      3  C   UNL     1      35.396 -21.907 -18.723  0.00  0.00    +0.158 C 
ATOM      4  C   UNL     1      34.466 -22.480 -17.863  0.00  0.00    +0.040 C 
ATOM      5  C   UNL     1      36.143 -22.544 -16.177  0.00  0.00    +0.099 C 
ATOM      6  C   UNL     1      36.675 -21.682 -18.240  0.00  0.00    +0.136 C 
ENDROOT
BRANCH   2  10
ATOM      7  N   UNL     1      30.113 -24.848 -13.908  0.00  0.00    -0.280 N 
ATOM      8  N   UNL     1      31.170 -25.076 -13.103  0.00  0.00    -0.173 NA
ATOM      9  C   UNL     1      31.767 -24.038 -15.034  0.00  0.00    +0.032 A 
ATOM     10  C   UNL     1      33.897 -23.404 -15.647  0.00  0.00    +0.002 C 
ATOM     11  C   UNL     1      32.224 -24.581 -13.777  0.00  0.00    +0.102 A 
ATOM     12  C   UNL     1      32.539 -23.435 -16.019  0.00  0.00    +0.003 C 
ATOM     13  C   UNL     1      30.415 -24.226 -15.084  0.00  0.00    +0.053 A 
ATOM     14  C   UNL     1      34.399 -23.928 -14.414  0.00  0.00    +0.002 C 
ATOM     15  C   UNL     1      33.586 -24.536 -13.431  0.00  0.00    +0.021 C 
ATOM     16  C   UNL     1      29.383 -23.902 -16.083  0.00  0.00    +0.051 C 
ATOM     17  H   UNL     1      29.196 -25.111 -13.666  0.00  0.00    +0.189 HD
ENDBRANCH   2  10
BRANCH   3  18
ATOM     18  O   UNL     1      35.060 -21.578 -19.995  0.00  0.00    -0.476 OA
BRANCH  18  19
ATOM     19  C   UNL     1      35.764 -20.491 -20.598  0.00  0.00    +0.184 C 
BRANCH  19  20
ATOM     20  C   UNL     1      34.803 -19.632 -21.429  0.00  0.00    -0.017 C 
BRANCH  20  21
ATOM     21  N   UNL     1      33.484 -19.666 -20.792  0.00  0.00    +0.384 N 
ATOM     22  H   UNL     1      32.878 -18.970 -21.224  0.00  0.00    -0.089 HD
ATOM     23  H   UNL     1      33.581 -19.462 -19.797  0.00  0.00    -0.089 HD
ATOM     24  H   UNL     1      33.074 -20.594 -20.909  0.00  0.00    -0.089 HD
ENDBRANCH  20  21
BRANCH  20  25
ATOM     25  C   UNL     1      35.247 -18.158 -21.540  0.00  0.00    +0.008 C 
BRANCH  25  26
ATOM     26  C   UNL     1      34.872 -17.483 -22.837  0.00  0.00    -0.024 C 
ATOM     27  C   UNL     1      34.910 -18.211 -24.017  0.00  0.00    -0.004 C 
ATOM     28  C   UNL     1      34.496 -16.149 -22.827  0.00  0.00    -0.004 C 
ATOM     29  C   UNL     1      34.564 -17.589 -25.216  0.00  0.00    -0.000 C 
ATOM     30  C   UNL     1      34.149 -15.528 -24.027  0.00  0.00    -0.000 C 
ATOM     31  C   UNL     1      34.184 -16.246 -25.221  0.00  0.00    -0.000 C 
ENDBRANCH  25  26
ENDBRANCH  20  25
ENDBRANCH  19  20
ENDBRANCH  18  19
ENDBRANCH   3  18
TORSDOF 7
ENDMDL
