MODEL 1
REMARK VINA RESULT:      -8.6      0.000      0.000
REMARK  Name = 11885
REMARK  1 active torsions:
REMARK  status: ('A' for Active; 'I' for Inactive)
REMARK    1  A    between atoms: C_7  and  N_15
REMARK                            x       y       z     vdW  Elec       q    Type
REMARK                         _______ _______ _______ _____ _____    ______ ____
ROOT
ATOM      1  C   UNL     1      34.381 -16.179 -22.954  0.00  0.00    +0.013 C 
ATOM      2  C   UNL     1      34.391 -16.423 -21.564  0.00  0.00    +0.001 C 
ATOM      3  C   UNL     1      33.092 -14.128 -22.585  0.00  0.00    +0.000 C 
ATOM      4  C   UNL     1      33.102 -14.372 -21.194  0.00  0.00    +0.000 C 
ATOM      5  C   UNL     1      33.731 -15.035 -23.447  0.00  0.00    +0.001 C 
ATOM      6  C   UNL     1      33.752 -15.517 -20.702  0.00  0.00    +0.000 C 
ATOM      7  C   UNL     1      35.021 -17.086 -23.816  0.00  0.00    +0.041 C 
ATOM      8  C   UNL     1      35.041 -17.568 -21.072  0.00  0.00    +0.000 C 
ATOM      9  C   UNL     1      32.442 -12.984 -23.076  0.00  0.00    +0.000 C 
ATOM     10  C   UNL     1      32.463 -13.466 -20.332  0.00  0.00    +0.000 C 
ATOM     11  C   UNL     1      35.661 -18.217 -23.311  0.00  0.00    +0.014 C 
ATOM     12  C   UNL     1      35.672 -18.458 -21.941  0.00  0.00    +0.001 C 
ATOM     13  C   UNL     1      31.811 -12.093 -22.207  0.00  0.00    +0.000 C 
ATOM     14  C   UNL     1      31.821 -12.334 -20.837  0.00  0.00    +0.000 C 
ENDROOT
BRANCH   7  15
ATOM     15  N   UNL     1      35.041 -16.889 -25.219  0.00  0.00    -0.357 N 
ATOM     16  H   UNL     1      35.077 -17.664 -25.824  0.00  0.00    +0.142 HD
ATOM     17  H   UNL     1      35.018 -15.976 -25.587  0.00  0.00    +0.142 HD
ENDBRANCH   7  15
TORSDOF 1
ENDMDL
MODEL 2
REMARK VINA RESULT:      -8.5      5.164      7.513
REMARK  Name = 11885
REMARK  1 active torsions:
REMARK  status: ('A' for Active; 'I' for Inactive)
REMARK    1  A    between atoms: C_7  and  N_15
REMARK                            x       y       z     vdW  Elec       q    Type
REMARK                         _______ _______ _______ _____ _____    ______ ____
ROOT
ATOM      1  C   UNL     1      35.471 -21.790 -18.324  0.00  0.00    +0.013 C 
ATOM      2  C   UNL     1      34.120 -21.879 -18.724  0.00  0.00    +0.001 C 
ATOM      3  C   UNL     1      35.913 -20.225 -20.156  0.00  0.00    +0.000 C 
ATOM      4  C   UNL     1      34.562 -20.313 -20.557  0.00  0.00    +0.000 C 
ATOM      5  C   UNL     1      36.350 -20.965 -19.045  0.00  0.00    +0.001 C 
ATOM      6  C   UNL     1      33.683 -21.139 -19.835  0.00  0.00    +0.000 C 
ATOM      7  C   UNL     1      35.909 -22.530 -17.212  0.00  0.00    +0.041 C 
ATOM      8  C   UNL     1      33.243 -22.704 -18.002  0.00  0.00    +0.000 C 
ATOM      9  C   UNL     1      36.791 -19.399 -20.878  0.00  0.00    +0.000 C 
ATOM     10  C   UNL     1      34.124 -19.573 -21.668  0.00  0.00    +0.000 C 
ATOM     11  C   UNL     1      35.024 -23.345 -16.507  0.00  0.00    +0.014 C 
ATOM     12  C   UNL     1      33.692 -23.433 -16.901  0.00  0.00    +0.001 C 
ATOM     13  C   UNL     1      36.341 -18.671 -21.980  0.00  0.00    +0.000 C 
ATOM     14  C   UNL     1      35.009 -18.758 -22.375  0.00  0.00    +0.000 C 
ENDROOT
BRANCH   7  15
ATOM     15  N   UNL     1      37.253 -22.478 -16.768  0.00  0.00    -0.357 N 
ATOM     16  H   UNL     1      37.799 -21.679 -16.944  0.00  0.00    +0.142 HD
ATOM     17  H   UNL     1      37.639 -23.243 -16.283  0.00  0.00    +0.142 HD
ENDBRANCH   7  15
TORSDOF 1
ENDMDL
MODEL 3
REMARK VINA RESULT:      -8.4      2.409      5.296
REMARK  Name = 11885
REMARK  1 active torsions:
REMARK  status: ('A' for Active; 'I' for Inactive)
REMARK    1  A    between atoms: C_7  and  N_15
REMARK                            x       y       z     vdW  Elec       q    Type
REMARK                         _______ _______ _______ _____ _____    ______ ____
ROOT
ATOM      1  C   UNL     1      33.994 -14.835 -24.110  0.00  0.00    +0.013 C 
ATOM      2  C   UNL     1      33.818 -15.751 -25.170  0.00  0.00    +0.001 C 
ATOM      3  C   UNL     1      34.725 -16.661 -22.650  0.00  0.00    +0.000 C 
ATOM      4  C   UNL     1      34.549 -17.578 -23.709  0.00  0.00    +0.000 C 
ATOM      5  C   UNL     1      34.445 -15.301 -22.864  0.00  0.00    +0.001 C 
ATOM      6  C   UNL     1      34.098 -17.111 -24.956  0.00  0.00    +0.000 C 
ATOM      7  C   UNL     1      33.714 -13.474 -24.325  0.00  0.00    +0.041 C 
ATOM      8  C   UNL     1      33.367 -15.283 -26.415  0.00  0.00    +0.000 C 
ATOM      9  C   UNL     1      35.176 -17.129 -21.405  0.00  0.00    +0.000 C 
ATOM     10  C   UNL     1      34.829 -18.938 -23.495  0.00  0.00    +0.000 C 
ATOM     11  C   UNL     1      33.267 -13.027 -25.568  0.00  0.00    +0.014 C 
ATOM     12  C   UNL     1      33.093 -13.930 -26.612  0.00  0.00    +0.001 C 
ATOM     13  C   UNL     1      35.449 -18.482 -21.208  0.00  0.00    +0.000 C 
ATOM     14  C   UNL     1      35.276 -19.386 -22.251  0.00  0.00    +0.000 C 
ENDROOT
BRANCH   7  15
ATOM     15  N   UNL     1      33.873 -12.512 -23.298  0.00  0.00    -0.357 N 
ATOM     16  H   UNL     1      33.593 -12.723 -22.378  0.00  0.00    +0.142 HD
ATOM     17  H   UNL     1      34.265 -11.633 -23.505  0.00  0.00    +0.142 HD
ENDBRANCH   7  15
TORSDOF 1
ENDMDL
MODEL 4
REMARK VINA RESULT:      -8.4      1.352      2.472
REMARK  Name = 11885
REMARK  1 active torsions:
REMARK  status: ('A' for Active; 'I' for Inactive)
REMARK    1  A    between atoms: C_7  and  N_15
REMARK                            x       y       z     vdW  Elec       q    Type
REMARK                         _______ _______ _______ _____ _____    ______ ____
ROOT
ATOM      1  C   UNL     1      34.152 -16.144 -22.279  0.00  0.00    +0.013 C 
ATOM      2  C   UNL     1      33.896 -15.634 -23.570  0.00  0.00    +0.001 C 
ATOM      3  C   UNL     1      32.996 -14.223 -21.290  0.00  0.00    +0.000 C 
ATOM      4  C   UNL     1      32.740 -13.713 -22.582  0.00  0.00    +0.000 C 
ATOM      5  C   UNL     1      33.699 -15.432 -21.156  0.00  0.00    +0.001 C 
ATOM      6  C   UNL     1      33.193 -14.425 -23.705  0.00  0.00    +0.000 C 
ATOM      7  C   UNL     1      34.855 -17.353 -22.144  0.00  0.00    +0.041 C 
ATOM      8  C   UNL     1      34.350 -16.347 -24.693  0.00  0.00    +0.000 C 
ATOM      9  C   UNL     1      32.542 -13.511 -20.168  0.00  0.00    +0.000 C 
ATOM     10  C   UNL     1      32.037 -12.504 -22.716  0.00  0.00    +0.000 C 
ATOM     11  C   UNL     1      35.299 -18.048 -23.269  0.00  0.00    +0.014 C 
ATOM     12  C   UNL     1      35.047 -17.545 -24.542  0.00  0.00    +0.001 C 
ATOM     13  C   UNL     1      31.845 -12.312 -20.318  0.00  0.00    +0.000 C 
ATOM     14  C   UNL     1      31.593 -11.809 -21.591  0.00  0.00    +0.000 C 
ENDROOT
BRANCH   7  15
ATOM     15  N   UNL     1      35.139 -17.910 -20.873  0.00  0.00    -0.357 N 
ATOM     16  H   UNL     1      34.576 -17.681 -20.099  0.00  0.00    +0.142 HD
ATOM     17  H   UNL     1      35.900 -18.525 -20.765  0.00  0.00    +0.142 HD
ENDBRANCH   7  15
TORSDOF 1
ENDMDL
MODEL 5
REMARK VINA RESULT:      -8.4      4.949      7.091
REMARK  Name = 11885
REMARK  1 active torsions:
REMARK  status: ('A' for Active; 'I' for Inactive)
REMARK    1  A    between atoms: C_7  and  N_15
REMARK                            x       y       z     vdW  Elec       q    Type
REMARK                         _______ _______ _______ _____ _____    ______ ____
ROOT
ATOM      1  C   UNL     1      34.685 -21.620 -18.858  0.00  0.00    +0.013 C 
ATOM      2  C   UNL     1      36.053 -21.355 -18.632  0.00  0.00    +0.001 C 
ATOM      3  C   UNL     1      34.716 -20.129 -20.802  0.00  0.00    +0.000 C 
ATOM      4  C   UNL     1      36.084 -19.863 -20.576  0.00  0.00    +0.000 C 
ATOM      5  C   UNL     1      34.034 -21.004 -19.940  0.00  0.00    +0.001 C 
ATOM      6  C   UNL     1      36.735 -20.480 -19.494  0.00  0.00    +0.000 C 
ATOM      7  C   UNL     1      34.003 -22.495 -17.996  0.00  0.00    +0.041 C 
ATOM      8  C   UNL     1      36.703 -21.972 -17.550  0.00  0.00    +0.000 C 
ATOM      9  C   UNL     1      34.066 -19.512 -21.884  0.00  0.00    +0.000 C 
ATOM     10  C   UNL     1      36.766 -18.988 -21.438  0.00  0.00    +0.000 C 
ATOM     11  C   UNL     1      34.664 -23.099 -16.926  0.00  0.00    +0.014 C 
ATOM     12  C   UNL     1      36.012 -22.838 -16.703  0.00  0.00    +0.001 C 
ATOM     13  C   UNL     1      34.757 -18.646 -22.731  0.00  0.00    +0.000 C 
ATOM     14  C   UNL     1      36.105 -18.384 -22.509  0.00  0.00    +0.000 C 
ENDROOT
BRANCH   7  15
ATOM     15  N   UNL     1      32.631 -22.796 -18.176  0.00  0.00    -0.357 N 
ATOM     16  H   UNL     1      32.078 -22.238 -18.769  0.00  0.00    +0.142 HD
ATOM     17  H   UNL     1      32.230 -23.565 -17.708  0.00  0.00    +0.142 HD
ENDBRANCH   7  15
TORSDOF 1
ENDMDL
MODEL 6
REMARK VINA RESULT:      -8.4      2.324      3.526
REMARK  Name = 11885
REMARK  1 active torsions:
REMARK  status: ('A' for Active; 'I' for Inactive)
REMARK    1  A    between atoms: C_7  and  N_15
REMARK                            x       y       z     vdW  Elec       q    Type
REMARK                         _______ _______ _______ _____ _____    ______ ____
ROOT
ATOM      1  C   UNL     1      34.536 -16.624 -22.819  0.00  0.00    +0.013 C 
ATOM      2  C   UNL     1      34.427 -17.416 -23.982  0.00  0.00    +0.001 C 
ATOM      3  C   UNL     1      33.914 -14.638 -24.112  0.00  0.00    +0.000 C 
ATOM      4  C   UNL     1      33.804 -15.430 -25.276  0.00  0.00    +0.000 C 
ATOM      5  C   UNL     1      34.278 -15.245 -22.899  0.00  0.00    +0.001 C 
ATOM      6  C   UNL     1      34.062 -16.809 -25.195  0.00  0.00    +0.000 C 
ATOM      7  C   UNL     1      34.901 -17.231 -21.605  0.00  0.00    +0.041 C 
ATOM      8  C   UNL     1      34.685 -18.795 -23.901  0.00  0.00    +0.000 C 
ATOM      9  C   UNL     1      33.655 -13.259 -24.193  0.00  0.00    +0.000 C 
ATOM     10  C   UNL     1      33.440 -14.823 -26.489  0.00  0.00    +0.000 C 
ATOM     11  C   UNL     1      35.154 -18.602 -21.543  0.00  0.00    +0.014 C 
ATOM     12  C   UNL     1      35.046 -19.383 -22.689  0.00  0.00    +0.001 C 
ATOM     13  C   UNL     1      33.294 -12.672 -25.405  0.00  0.00    +0.000 C 
ATOM     14  C   UNL     1      33.186 -13.452 -26.552  0.00  0.00    +0.000 C 
ENDROOT
BRANCH   7  15
ATOM     15  N   UNL     1      35.025 -16.484 -20.409  0.00  0.00    -0.357 N 
ATOM     16  H   UNL     1      34.937 -16.932 -19.537  0.00  0.00    +0.142 HD
ATOM     17  H   UNL     1      35.199 -15.515 -20.450  0.00  0.00    +0.142 HD
ENDBRANCH   7  15
TORSDOF 1
ENDMDL
MODEL 7
REMARK VINA RESULT:      -8.3      1.299      4.879
REMARK  Name = 11885
REMARK  1 active torsions:
REMARK  status: ('A' for Active; 'I' for Inactive)
REMARK    1  A    between atoms: C_7  and  N_15
REMARK                            x       y       z     vdW  Elec       q    Type
REMARK                         _______ _______ _______ _____ _____    ______ ____
ROOT
ATOM      1  C   UNL     1      33.439 -14.342 -22.846  0.00  0.00    +0.013 C 
ATOM      2  C   UNL     1      33.071 -14.674 -21.524  0.00  0.00    +0.001 C 
ATOM      3  C   UNL     1      34.490 -16.539 -23.108  0.00  0.00    +0.000 C 
ATOM      4  C   UNL     1      34.122 -16.873 -21.786  0.00  0.00    +0.000 C 
ATOM      5  C   UNL     1      34.144 -15.278 -23.621  0.00  0.00    +0.001 C 
ATOM      6  C   UNL     1      33.417 -15.935 -21.011  0.00  0.00    +0.000 C 
ATOM      7  C   UNL     1      33.093 -13.080 -23.359  0.00  0.00    +0.041 C 
ATOM      8  C   UNL     1      32.366 -13.737 -20.750  0.00  0.00    +0.000 C 
ATOM      9  C   UNL     1      35.195 -17.476 -23.882  0.00  0.00    +0.000 C 
ATOM     10  C   UNL     1      34.468 -18.134 -21.273  0.00  0.00    +0.000 C 
ATOM     11  C   UNL     1      32.393 -12.161 -22.577  0.00  0.00    +0.014 C 
ATOM     12  C   UNL     1      32.030 -12.489 -21.274  0.00  0.00    +0.001 C 
ATOM     13  C   UNL     1      35.531 -18.724 -23.358  0.00  0.00    +0.000 C 
ATOM     14  C   UNL     1      35.169 -19.053 -22.055  0.00  0.00    +0.000 C 
ENDROOT
BRANCH   7  15
ATOM     15  N   UNL     1      33.437 -12.694 -24.677  0.00  0.00    -0.357 N 
ATOM     16  H   UNL     1      33.349 -13.337 -25.417  0.00  0.00    +0.142 HD
ATOM     17  H   UNL     1      33.765 -11.782 -24.853  0.00  0.00    +0.142 HD
ENDBRANCH   7  15
TORSDOF 1
ENDMDL
MODEL 8
REMARK VINA RESULT:      -8.2      8.057     10.287
REMARK  Name = 11885
REMARK  1 active torsions:
REMARK  status: ('A' for Active; 'I' for Inactive)
REMARK    1  A    between atoms: C_7  and  N_15
REMARK                            x       y       z     vdW  Elec       q    Type
REMARK                         _______ _______ _______ _____ _____    ______ ____
ROOT
ATOM      1  C   UNL     1      33.680 -22.728 -17.527  0.00  0.00    +0.013 C 
ATOM      2  C   UNL     1      34.671 -22.898 -16.536  0.00  0.00    +0.001 C 
ATOM      3  C   UNL     1      32.006 -23.693 -16.021  0.00  0.00    +0.000 C 
ATOM      4  C   UNL     1      32.996 -23.862 -15.029  0.00  0.00    +0.000 C 
ATOM      5  C   UNL     1      32.361 -23.128 -17.257  0.00  0.00    +0.001 C 
ATOM      6  C   UNL     1      34.317 -23.462 -15.300  0.00  0.00    +0.000 C 
ATOM      7  C   UNL     1      34.035 -22.164 -18.764  0.00  0.00    +0.041 C 
ATOM      8  C   UNL     1      35.990 -22.498 -16.808  0.00  0.00    +0.000 C 
ATOM      9  C   UNL     1      30.687 -24.092 -15.749  0.00  0.00    +0.000 C 
ATOM     10  C   UNL     1      32.642 -24.427 -13.792  0.00  0.00    +0.000 C 
ATOM     11  C   UNL     1      35.349 -21.772 -19.017  0.00  0.00    +0.014 C 
ATOM     12  C   UNL     1      36.326 -21.939 -18.040  0.00  0.00    +0.001 C 
ATOM     13  C   UNL     1      30.351 -24.651 -14.516  0.00  0.00    +0.000 C 
ATOM     14  C   UNL     1      31.327 -24.819 -13.539  0.00  0.00    +0.000 C 
ENDROOT
BRANCH   7  15
ATOM     15  N   UNL     1      33.081 -21.971 -19.794  0.00  0.00    -0.357 N 
ATOM     16  H   UNL     1      32.123 -22.097 -19.608  0.00  0.00    +0.142 HD
ATOM     17  H   UNL     1      33.378 -21.711 -20.696  0.00  0.00    +0.142 HD
ENDBRANCH   7  15
TORSDOF 1
ENDMDL
MODEL 9
REMARK VINA RESULT:      -8.2      8.332     10.745
REMARK  Name = 11885
REMARK  1 active torsions:
REMARK  status: ('A' for Active; 'I' for Inactive)
REMARK    1  A    between atoms: C_7  and  N_15
REMARK                            x       y       z     vdW  Elec       q    Type
REMARK                         _______ _______ _______ _____ _____    ______ ____
ROOT
ATOM      1  C   UNL     1      34.934 -23.578 -14.929  0.00  0.00    +0.013 C 
ATOM      2  C   UNL     1      36.250 -23.072 -14.877  0.00  0.00    +0.001 C 
ATOM      3  C   UNL     1      34.709 -22.765 -17.228  0.00  0.00    +0.000 C 
ATOM      4  C   UNL     1      36.026 -22.258 -17.178  0.00  0.00    +0.000 C 
ATOM      5  C   UNL     1      34.180 -23.418 -16.103  0.00  0.00    +0.001 C 
ATOM      6  C   UNL     1      36.780 -22.418 -16.002  0.00  0.00    +0.000 C 
ATOM      7  C   UNL     1      34.405 -24.232 -13.803  0.00  0.00    +0.041 C 
ATOM      8  C   UNL     1      37.003 -23.232 -13.702  0.00  0.00    +0.000 C 
ATOM      9  C   UNL     1      33.956 -22.604 -18.404  0.00  0.00    +0.000 C 
ATOM     10  C   UNL     1      36.555 -21.604 -18.303  0.00  0.00    +0.000 C 
ATOM     11  C   UNL     1      35.166 -24.383 -12.644  0.00  0.00    +0.014 C 
ATOM     12  C   UNL     1      36.464 -23.883 -12.593  0.00  0.00    +0.001 C 
ATOM     13  C   UNL     1      34.496 -21.953 -19.513  0.00  0.00    +0.000 C 
ATOM     14  C   UNL     1      35.794 -21.453 -19.463  0.00  0.00    +0.000 C 
ENDROOT
BRANCH   7  15
ATOM     15  N   UNL     1      33.090 -24.759 -13.800  0.00  0.00    -0.357 N 
ATOM     16  H   UNL     1      32.352 -24.241 -13.405  0.00  0.00    +0.142 HD
ATOM     17  H   UNL     1      32.915 -25.645 -14.193  0.00  0.00    +0.142 HD
ENDBRANCH   7  15
TORSDOF 1
ENDMDL
