MODEL 1
REMARK VINA RESULT:      -6.2      0.000      0.000
REMARK  Name = 22174
REMARK  2 active torsions:
REMARK  status: ('A' for Active; 'I' for Inactive)
REMARK    1  A    between atoms: C_1  and  N_7
REMARK    2  A    between atoms: C_6  and  O_10
REMARK                            x       y       z     vdW  Elec       q    Type
REMARK                         _______ _______ _______ _____ _____    ______ ____
ROOT
ATOM      1  C   UNL     1      34.791 -19.904 -20.789  0.00  0.00    +0.048 C 
ATOM      2  C   UNL     1      35.926 -20.552 -20.301  0.00  0.00    +0.018 C 
ATOM      3  C   UNL     1      33.522 -20.327 -20.394  0.00  0.00    +0.018 C 
ATOM      4  C   UNL     1      35.791 -21.624 -19.418  0.00  0.00    +0.038 C 
ATOM      5  C   UNL     1      33.388 -21.399 -19.511  0.00  0.00    +0.038 C 
ATOM      6  C   UNL     1      34.522 -22.048 -19.024  0.00  0.00    +0.134 C 
ENDROOT
BRANCH   1   7
ATOM      7  N   UNL     1      34.928 -18.820 -21.681  0.00  0.00    -0.304 N 
ATOM      8  C   UNL     1      35.109 -17.472 -21.178  0.00  0.00    +0.112 C 
ATOM      9  C   UNL     1      34.902 -19.042 -23.114  0.00  0.00    +0.112 C 
ENDBRANCH   1   7
BRANCH   6  10
ATOM     10  O   UNL     1      34.392 -23.094 -18.164  0.00  0.00    -0.506 OA
ATOM     11  H   UNL     1      35.094 -23.705 -18.060  0.00  0.00    +0.292 HD
ENDBRANCH   6  10
TORSDOF 2
ENDMDL
MODEL 2
REMARK VINA RESULT:      -5.9      3.794      5.687
REMARK  Name = 22174
REMARK  2 active torsions:
REMARK  status: ('A' for Active; 'I' for Inactive)
REMARK    1  A    between atoms: C_1  and  N_7
REMARK    2  A    between atoms: C_6  and  O_10
REMARK                            x       y       z     vdW  Elec       q    Type
REMARK                         _______ _______ _______ _____ _____    ______ ____
ROOT
ATOM      1  C   UNL     1      34.931 -18.266 -22.717  0.00  0.00    +0.048 C 
ATOM      2  C   UNL     1      34.927 -16.872 -22.650  0.00  0.00    +0.018 C 
ATOM      3  C   UNL     1      34.681 -18.907 -23.930  0.00  0.00    +0.018 C 
ATOM      4  C   UNL     1      34.673 -16.120 -23.797  0.00  0.00    +0.038 C 
ATOM      5  C   UNL     1      34.426 -18.154 -25.077  0.00  0.00    +0.038 C 
ATOM      6  C   UNL     1      34.421 -16.761 -25.010  0.00  0.00    +0.134 C 
ENDROOT
BRANCH   1   7
ATOM      7  N   UNL     1      35.189 -19.026 -21.558  0.00  0.00    -0.304 N 
ATOM      8  C   UNL     1      36.515 -19.050 -20.974  0.00  0.00    +0.112 C 
ATOM      9  C   UNL     1      34.126 -19.784 -20.926  0.00  0.00    +0.112 C 
ENDBRANCH   1   7
BRANCH   6  10
ATOM     10  O   UNL     1      34.172 -16.026 -26.128  0.00  0.00    -0.506 OA
ATOM     11  H   UNL     1      34.369 -15.111 -26.140  0.00  0.00    +0.292 HD
ENDBRANCH   6  10
TORSDOF 2
ENDMDL
MODEL 3
REMARK VINA RESULT:      -5.7      3.164      4.942
REMARK  Name = 22174
REMARK  2 active torsions:
REMARK  status: ('A' for Active; 'I' for Inactive)
REMARK    1  A    between atoms: C_1  and  N_7
REMARK    2  A    between atoms: C_6  and  O_10
REMARK                            x       y       z     vdW  Elec       q    Type
REMARK                         _______ _______ _______ _____ _____    ______ ____
ROOT
ATOM      1  C   UNL     1      34.631 -19.038 -21.496  0.00  0.00    +0.048 C 
ATOM      2  C   UNL     1      34.699 -17.735 -21.003  0.00  0.00    +0.018 C 
ATOM      3  C   UNL     1      34.862 -19.286 -22.849  0.00  0.00    +0.018 C 
ATOM      4  C   UNL     1      34.999 -16.679 -21.864  0.00  0.00    +0.038 C 
ATOM      5  C   UNL     1      35.161 -18.230 -23.710  0.00  0.00    +0.038 C 
ATOM      6  C   UNL     1      35.229 -16.926 -23.218  0.00  0.00    +0.134 C 
ENDROOT
BRANCH   1   7
ATOM      7  N   UNL     1      34.328 -20.106 -20.625  0.00  0.00    -0.304 N 
ATOM      8  C   UNL     1      35.387 -20.926 -20.071  0.00  0.00    +0.112 C 
ATOM      9  C   UNL     1      32.952 -20.388 -20.262  0.00  0.00    +0.112 C 
ENDBRANCH   1   7
BRANCH   6  10
ATOM     10  O   UNL     1      35.521 -15.895 -24.057  0.00  0.00    -0.506 OA
ATOM     11  H   UNL     1      36.254 -15.957 -24.636  0.00  0.00    +0.292 HD
ENDBRANCH   6  10
TORSDOF 2
ENDMDL
MODEL 4
REMARK VINA RESULT:      -5.7      4.827      6.754
REMARK  Name = 22174
REMARK  2 active torsions:
REMARK  status: ('A' for Active; 'I' for Inactive)
REMARK    1  A    between atoms: C_1  and  N_7
REMARK    2  A    between atoms: C_6  and  O_10
REMARK                            x       y       z     vdW  Elec       q    Type
REMARK                         _______ _______ _______ _____ _____    ______ ____
ROOT
ATOM      1  C   UNL     1      34.427 -16.162 -22.859  0.00  0.00    +0.048 C 
ATOM      2  C   UNL     1      33.716 -15.004 -23.175  0.00  0.00    +0.018 C 
ATOM      3  C   UNL     1      34.794 -17.053 -23.868  0.00  0.00    +0.018 C 
ATOM      4  C   UNL     1      33.372 -14.737 -24.500  0.00  0.00    +0.038 C 
ATOM      5  C   UNL     1      34.450 -16.785 -25.193  0.00  0.00    +0.038 C 
ATOM      6  C   UNL     1      33.738 -15.628 -25.509  0.00  0.00    +0.134 C 
ENDROOT
BRANCH   1   7
ATOM      7  N   UNL     1      34.775 -16.432 -21.519  0.00  0.00    -0.304 N 
ATOM      8  C   UNL     1      34.569 -15.432 -20.491  0.00  0.00    +0.112 C 
ATOM      9  C   UNL     1      35.332 -17.720 -21.151  0.00  0.00    +0.112 C 
ENDBRANCH   1   7
BRANCH   6  10
ATOM     10  O   UNL     1      33.401 -15.367 -26.802  0.00  0.00    -0.506 OA
ATOM     11  H   UNL     1      33.949 -15.669 -27.498  0.00  0.00    +0.292 HD
ENDBRANCH   6  10
TORSDOF 2
ENDMDL
MODEL 5
REMARK VINA RESULT:      -5.7      4.778      6.679
REMARK  Name = 22174
REMARK  2 active torsions:
REMARK  status: ('A' for Active; 'I' for Inactive)
REMARK    1  A    between atoms: C_1  and  N_7
REMARK    2  A    between atoms: C_6  and  O_10
REMARK                            x       y       z     vdW  Elec       q    Type
REMARK                         _______ _______ _______ _____ _____    ______ ____
ROOT
ATOM      1  C   UNL     1      34.480 -16.274 -22.871  0.00  0.00    +0.048 C 
ATOM      2  C   UNL     1      34.808 -17.161 -23.897  0.00  0.00    +0.018 C 
ATOM      3  C   UNL     1      33.792 -15.096 -23.161  0.00  0.00    +0.018 C 
ATOM      4  C   UNL     1      34.448 -16.869 -25.212  0.00  0.00    +0.038 C 
ATOM      5  C   UNL     1      33.432 -14.805 -24.477  0.00  0.00    +0.038 C 
ATOM      6  C   UNL     1      33.761 -15.691 -25.503  0.00  0.00    +0.134 C 
ENDROOT
BRANCH   1   7
ATOM      7  N   UNL     1      34.844 -16.569 -21.541  0.00  0.00    -0.304 N 
ATOM      8  C   UNL     1      35.445 -17.845 -21.209  0.00  0.00    +0.112 C 
ATOM      9  C   UNL     1      34.633 -15.593 -20.489  0.00  0.00    +0.112 C 
ENDBRANCH   1   7
BRANCH   6  10
ATOM     10  O   UNL     1      33.411 -15.407 -26.787  0.00  0.00    -0.506 OA
ATOM     11  H   UNL     1      32.783 -15.942 -27.230  0.00  0.00    +0.292 HD
ENDBRANCH   6  10
TORSDOF 2
ENDMDL
MODEL 6
REMARK VINA RESULT:      -5.6      2.883      4.476
REMARK  Name = 22174
REMARK  2 active torsions:
REMARK  status: ('A' for Active; 'I' for Inactive)
REMARK    1  A    between atoms: C_1  and  N_7
REMARK    2  A    between atoms: C_6  and  O_10
REMARK                            x       y       z     vdW  Elec       q    Type
REMARK                         _______ _______ _______ _____ _____    ______ ____
ROOT
ATOM      1  C   UNL     1      35.252 -20.374 -20.302  0.00  0.00    +0.048 C 
ATOM      2  C   UNL     1      34.176 -19.865 -21.030  0.00  0.00    +0.018 C 
ATOM      3  C   UNL     1      36.534 -19.864 -20.503  0.00  0.00    +0.018 C 
ATOM      4  C   UNL     1      34.383 -18.845 -21.959  0.00  0.00    +0.038 C 
ATOM      5  C   UNL     1      36.741 -18.843 -21.432  0.00  0.00    +0.038 C 
ATOM      6  C   UNL     1      35.666 -18.335 -22.161  0.00  0.00    +0.134 C 
ENDROOT
BRANCH   1   7
ATOM      7  N   UNL     1      35.042 -21.405 -19.363  0.00  0.00    -0.304 N 
ATOM      8  C   UNL     1      36.104 -21.805 -18.461  0.00  0.00    +0.112 C 
ATOM      9  C   UNL     1      33.756 -22.071 -19.280  0.00  0.00    +0.112 C 
ENDBRANCH   1   7
BRANCH   6  10
ATOM     10  O   UNL     1      35.867 -17.340 -23.068  0.00  0.00    -0.506 OA
ATOM     11  H   UNL     1      35.635 -16.458 -22.854  0.00  0.00    +0.292 HD
ENDBRANCH   6  10
TORSDOF 2
ENDMDL
MODEL 7
REMARK VINA RESULT:      -5.6      3.726      4.854
REMARK  Name = 22174
REMARK  2 active torsions:
REMARK  status: ('A' for Active; 'I' for Inactive)
REMARK    1  A    between atoms: C_1  and  N_7
REMARK    2  A    between atoms: C_6  and  O_10
REMARK                            x       y       z     vdW  Elec       q    Type
REMARK                         _______ _______ _______ _____ _____    ______ ____
ROOT
ATOM      1  C   UNL     1      34.419 -16.063 -23.322  0.00  0.00    +0.048 C 
ATOM      2  C   UNL     1      35.004 -17.257 -23.747  0.00  0.00    +0.018 C 
ATOM      3  C   UNL     1      34.360 -15.761 -21.961  0.00  0.00    +0.018 C 
ATOM      4  C   UNL     1      35.529 -18.148 -22.811  0.00  0.00    +0.038 C 
ATOM      5  C   UNL     1      34.886 -16.653 -21.026  0.00  0.00    +0.038 C 
ATOM      6  C   UNL     1      35.469 -17.846 -21.451  0.00  0.00    +0.134 C 
ENDROOT
BRANCH   1   7
ATOM      7  N   UNL     1      33.888 -15.162 -24.268  0.00  0.00    -0.304 N 
ATOM      8  C   UNL     1      33.656 -13.776 -23.914  0.00  0.00    +0.112 C 
ATOM      9  C   UNL     1      33.579 -15.609 -25.613  0.00  0.00    +0.112 C 
ENDBRANCH   1   7
BRANCH   6  10
ATOM     10  O   UNL     1      35.982 -18.717 -20.539  0.00  0.00    -0.506 OA
ATOM     11  H   UNL     1      35.969 -18.501 -19.627  0.00  0.00    +0.292 HD
ENDBRANCH   6  10
TORSDOF 2
ENDMDL
MODEL 8
REMARK VINA RESULT:      -5.6      3.980      5.923
REMARK  Name = 22174
REMARK  2 active torsions:
REMARK  status: ('A' for Active; 'I' for Inactive)
REMARK    1  A    between atoms: C_1  and  N_7
REMARK    2  A    between atoms: C_6  and  O_10
REMARK                            x       y       z     vdW  Elec       q    Type
REMARK                         _______ _______ _______ _____ _____    ______ ____
ROOT
ATOM      1  C   UNL     1      34.860 -17.204 -21.737  0.00  0.00    +0.048 C 
ATOM      2  C   UNL     1      34.637 -16.157 -20.842  0.00  0.00    +0.018 C 
ATOM      3  C   UNL     1      34.884 -16.956 -23.110  0.00  0.00    +0.018 C 
ATOM      4  C   UNL     1      34.440 -14.861 -21.321  0.00  0.00    +0.038 C 
ATOM      5  C   UNL     1      34.687 -15.660 -23.587  0.00  0.00    +0.038 C 
ATOM      6  C   UNL     1      34.464 -14.613 -22.694  0.00  0.00    +0.134 C 
ENDROOT
BRANCH   1   7
ATOM      7  N   UNL     1      35.059 -18.513 -21.253  0.00  0.00    -0.304 N 
ATOM      8  C   UNL     1      36.395 -18.991 -20.955  0.00  0.00    +0.112 C 
ATOM      9  C   UNL     1      33.929 -19.395 -21.035  0.00  0.00    +0.112 C 
ENDBRANCH   1   7
BRANCH   6  10
ATOM     10  O   UNL     1      34.270 -13.349 -23.160  0.00  0.00    -0.506 OA
ATOM     11  H   UNL     1      34.971 -12.893 -23.581  0.00  0.00    +0.292 HD
ENDBRANCH   6  10
TORSDOF 2
ENDMDL
MODEL 9
REMARK VINA RESULT:      -5.5      3.672      4.868
REMARK  Name = 22174
REMARK  2 active torsions:
REMARK  status: ('A' for Active; 'I' for Inactive)
REMARK    1  A    between atoms: C_1  and  N_7
REMARK    2  A    between atoms: C_6  and  O_10
REMARK                            x       y       z     vdW  Elec       q    Type
REMARK                         _______ _______ _______ _____ _____    ______ ____
ROOT
ATOM      1  C   UNL     1      34.459 -16.079 -23.264  0.00  0.00    +0.048 C 
ATOM      2  C   UNL     1      34.407 -15.797 -21.898  0.00  0.00    +0.018 C 
ATOM      3  C   UNL     1      35.021 -17.275 -23.708  0.00  0.00    +0.018 C 
ATOM      4  C   UNL     1      34.918 -16.713 -20.978  0.00  0.00    +0.038 C 
ATOM      5  C   UNL     1      35.532 -18.191 -22.788  0.00  0.00    +0.038 C 
ATOM      6  C   UNL     1      35.481 -17.909 -21.422  0.00  0.00    +0.134 C 
ENDROOT
BRANCH   1   7
ATOM      7  N   UNL     1      33.943 -15.154 -24.194  0.00  0.00    -0.304 N 
ATOM      8  C   UNL     1      33.778 -13.760 -23.830  0.00  0.00    +0.112 C 
ATOM      9  C   UNL     1      33.582 -15.582 -25.532  0.00  0.00    +0.112 C 
ENDBRANCH   1   7
BRANCH   6  10
ATOM     10  O   UNL     1      35.980 -18.801 -20.524  0.00  0.00    -0.506 OA
ATOM     11  H   UNL     1      35.688 -19.691 -20.537  0.00  0.00    +0.292 HD
ENDBRANCH   6  10
TORSDOF 2
ENDMDL
