MODEL 1
REMARK VINA RESULT:      -9.1      0.000      0.000
REMARK  Name = 9980241
REMARK  6 active torsions:
REMARK  status: ('A' for Active; 'I' for Inactive)
REMARK    1  A    between atoms: C_8  and  O_23
REMARK    2  A    between atoms: C_8  and  C_28
REMARK    3  A    between atoms: C_9  and  O_25
REMARK    4  A    between atoms: C_28  and  C_29
REMARK    5  A    between atoms: C_29  and  O_30
REMARK    6  A    between atoms: O_30  and  C_32
REMARK                            x       y       z     vdW  Elec       q    Type
REMARK                         _______ _______ _______ _____ _____    ______ ____
ROOT
ATOM      1  F   UNL     1      35.482 -25.507 -14.865  0.00  0.00    -0.237 F 
ATOM      2  O   UNL     1      40.250 -26.477 -14.483  0.00  0.00    -0.287 OA
ATOM      3  C   UNL     1      32.491 -23.693 -14.498  0.00  0.00    +0.035 C 
ATOM      4  C   UNL     1      33.555 -23.567 -15.617  0.00  0.00    +0.010 C 
ATOM      5  C   UNL     1      34.958 -23.222 -15.093  0.00  0.00    +0.034 C 
ATOM      6  C   UNL     1      35.431 -24.347 -14.109  0.00  0.00    +0.164 C 
ATOM      7  C   UNL     1      32.942 -24.839 -13.569  0.00  0.00    +0.035 C 
ATOM      8  C   UNL     1      31.224 -23.970 -15.366  0.00  0.00    +0.158 C 
ATOM      9  C   UNL     1      34.370 -24.648 -13.008  0.00  0.00    +0.141 C 
ATOM     10  C   UNL     1      36.908 -24.107 -13.601  0.00  0.00    +0.064 C 
ATOM     11  C   UNL     1      32.901 -22.630 -16.633  0.00  0.00    +0.025 C 
ATOM     12  C   UNL     1      35.943 -23.060 -16.266  0.00  0.00    +0.007 C 
ATOM     13  C   UNL     1      31.446 -23.049 -16.557  0.00  0.00    -0.014 C 
ATOM     14  C   UNL     1      32.304 -22.379 -13.684  0.00  0.00    +0.003 C 
ATOM     15  C   UNL     1      37.373 -22.826 -15.791  0.00  0.00    +0.023 C 
ATOM     16  C   UNL     1      37.793 -23.917 -14.838  0.00  0.00    -0.035 C 
ATOM     17  C   UNL     1      37.071 -22.860 -12.702  0.00  0.00    +0.011 C 
ATOM     18  C   UNL     1      37.376 -25.291 -12.769  0.00  0.00    -0.017 C 
ATOM     19  C   UNL     1      30.518 -22.646 -17.434  0.00  0.00    -0.006 C 
ATOM     20  C   UNL     1      38.861 -24.681 -15.117  0.00  0.00    +0.034 C 
ATOM     21  C   UNL     1      38.437 -26.058 -13.041  0.00  0.00    +0.038 C 
ATOM     22  C   UNL     1      39.264 -25.793 -14.233  0.00  0.00    +0.195 C 
ENDROOT
BRANCH   8  23
ATOM     23  O   UNL     1      31.200 -25.319 -15.819  0.00  0.00    -0.376 OA
ATOM     24  H   UNL     1      30.390 -25.750 -15.504  0.00  0.00    +0.211 HD
ENDBRANCH   8  23
BRANCH   9  25
ATOM     25  O   UNL     1      34.363 -23.652 -11.998  0.00  0.00    -0.382 OA
ATOM     26  H   UNL     1      34.695 -22.818 -12.365  0.00  0.00    +0.210 HD
ENDBRANCH   9  25
BRANCH   8  28
ATOM     27  O   UNL     1      29.647 -24.359 -13.615  0.00  0.00    -0.289 OA
ATOM     28  C   UNL     1      29.928 -23.736 -14.639  0.00  0.00    +0.222 C 
BRANCH  28  29
ATOM     29  C   UNL     1      29.003 -22.697 -15.236  0.00  0.00    +0.275 C 
BRANCH  29  30
ATOM     30  O   UNL     1      27.738 -23.259 -15.517  0.00  0.00    -0.440 OA
BRANCH  30  32
ATOM     31  O   UNL     1      25.792 -22.017 -15.421  0.00  0.00    -0.250 OA
ATOM     32  C   UNL     1      26.791 -22.400 -16.015  0.00  0.00    +0.318 C 
ATOM     33  C   UNL     1      27.150 -21.984 -17.409  0.00  0.00    +0.121 C 
ENDBRANCH  30  32
ENDBRANCH  29  30
ENDBRANCH  28  29
ENDBRANCH   8  28
TORSDOF 6
ENDMDL
MODEL 2
REMARK VINA RESULT:      -8.4     13.832     16.391
REMARK  Name = 9980241
REMARK  6 active torsions:
REMARK  status: ('A' for Active; 'I' for Inactive)
REMARK    1  A    between atoms: C_8  and  O_23
REMARK    2  A    between atoms: C_8  and  C_28
REMARK    3  A    between atoms: C_9  and  O_25
REMARK    4  A    between atoms: C_28  and  C_29
REMARK    5  A    between atoms: C_29  and  O_30
REMARK    6  A    between atoms: O_30  and  C_32
REMARK                            x       y       z     vdW  Elec       q    Type
REMARK                         _______ _______ _______ _____ _____    ______ ____
ROOT
ATOM      1  F   UNL     1      31.510  -9.544 -23.783  0.00  0.00    -0.237 F 
ATOM      2  O   UNL     1      30.459  -4.778 -23.718  0.00  0.00    -0.287 OA
ATOM      3  C   UNL     1      33.364 -12.475 -23.197  0.00  0.00    +0.035 C 
ATOM      4  C   UNL     1      32.383 -11.755 -22.237  0.00  0.00    +0.010 C 
ATOM      5  C   UNL     1      32.773 -10.298 -21.944  0.00  0.00    +0.034 C 
ATOM      6  C   UNL     1      32.803  -9.492 -23.287  0.00  0.00    +0.164 C 
ATOM      7  C   UNL     1      33.342 -11.703 -24.532  0.00  0.00    +0.035 C 
ATOM      8  C   UNL     1      32.721 -13.898 -23.215  0.00  0.00    +0.158 C 
ATOM      9  C   UNL     1      33.665 -10.199 -24.377  0.00  0.00    +0.141 C 
ATOM     10  C   UNL     1      33.105  -7.959 -23.052  0.00  0.00    +0.064 C 
ATOM     11  C   UNL     1      32.245 -12.728 -21.066  0.00  0.00    +0.025 C 
ATOM     12  C   UNL     1      31.784  -9.671 -20.942  0.00  0.00    +0.007 C 
ATOM     13  C   UNL     1      32.294 -14.073 -21.765  0.00  0.00    -0.014 C 
ATOM     14  C   UNL     1      34.816 -12.552 -22.640  0.00  0.00    +0.003 C 
ATOM     15  C   UNL     1      32.065  -8.192 -20.704  0.00  0.00    +0.023 C 
ATOM     16  C   UNL     1      32.099  -7.447 -22.014  0.00  0.00    -0.035 C 
ATOM     17  C   UNL     1      34.527  -7.671 -22.519  0.00  0.00    +0.011 C 
ATOM     18  C   UNL     1      32.982  -7.192 -24.360  0.00  0.00    -0.017 C 
ATOM     19  C   UNL     1      31.993 -15.228 -21.159  0.00  0.00    -0.006 C 
ATOM     20  C   UNL     1      31.252  -6.430 -22.234  0.00  0.00    +0.034 C 
ATOM     21  C   UNL     1      32.139  -6.180 -24.587  0.00  0.00    +0.038 C 
ATOM     22  C   UNL     1      31.223  -5.718 -23.529  0.00  0.00    +0.195 C 
ENDROOT
BRANCH   8  23
ATOM     23  O   UNL     1      31.567 -13.926 -24.048  0.00  0.00    -0.376 OA
ATOM     24  H   UNL     1      30.985 -14.649 -23.767  0.00  0.00    +0.211 HD
ENDBRANCH   8  23
BRANCH   9  25
ATOM     25  O   UNL     1      35.053 -10.024 -24.143  0.00  0.00    -0.382 OA
ATOM     26  H   UNL     1      35.510  -9.897 -24.989  0.00  0.00    +0.210 HD
ENDBRANCH   9  25
BRANCH   8  28
ATOM     27  O   UNL     1      33.551 -15.411 -24.866  0.00  0.00    -0.289 OA
ATOM     28  C   UNL     1      33.645 -14.973 -23.719  0.00  0.00    +0.222 C 
BRANCH  28  29
ATOM     29  C   UNL     1      34.684 -15.477 -22.741  0.00  0.00    +0.275 C 
BRANCH  29  30
ATOM     30  O   UNL     1      34.669 -16.888 -22.680  0.00  0.00    -0.440 OA
BRANCH  30  32
ATOM     31  O   UNL     1      35.301 -16.855 -20.458  0.00  0.00    -0.250 OA
ATOM     32  C   UNL     1      34.867 -17.441 -21.440  0.00  0.00    +0.318 C 
ATOM     33  C   UNL     1      34.475 -18.887 -21.449  0.00  0.00    +0.121 C 
ENDBRANCH  30  32
ENDBRANCH  29  30
ENDBRANCH  28  29
ENDBRANCH   8  28
TORSDOF 6
ENDMDL
MODEL 3
REMARK VINA RESULT:      -8.2     14.104     16.623
REMARK  Name = 9980241
REMARK  6 active torsions:
REMARK  status: ('A' for Active; 'I' for Inactive)
REMARK    1  A    between atoms: C_8  and  O_23
REMARK    2  A    between atoms: C_8  and  C_28
REMARK    3  A    between atoms: C_9  and  O_25
REMARK    4  A    between atoms: C_28  and  C_29
REMARK    5  A    between atoms: C_29  and  O_30
REMARK    6  A    between atoms: O_30  and  C_32
REMARK                            x       y       z     vdW  Elec       q    Type
REMARK                         _______ _______ _______ _____ _____    ______ ____
ROOT
ATOM      1  F   UNL     1      31.637  -9.586 -24.037  0.00  0.00    -0.237 F 
ATOM      2  O   UNL     1      30.422  -4.859 -24.021  0.00  0.00    -0.287 OA
ATOM      3  C   UNL     1      33.536 -12.460 -23.326  0.00  0.00    +0.035 C 
ATOM      4  C   UNL     1      32.458 -11.783 -22.443  0.00  0.00    +0.010 C 
ATOM      5  C   UNL     1      32.772 -10.316 -22.107  0.00  0.00    +0.034 C 
ATOM      6  C   UNL     1      32.883  -9.496 -23.438  0.00  0.00    +0.164 C 
ATOM      7  C   UNL     1      33.595 -11.675 -24.653  0.00  0.00    +0.035 C 
ATOM      8  C   UNL     1      32.946 -13.903 -23.407  0.00  0.00    +0.158 C 
ATOM      9  C   UNL     1      33.854 -10.163 -24.460  0.00  0.00    +0.141 C 
ATOM     10  C   UNL     1      33.113  -7.957 -23.168  0.00  0.00    +0.064 C 
ATOM     11  C   UNL     1      32.259 -12.772 -21.294  0.00  0.00    +0.025 C 
ATOM     12  C   UNL     1      31.686  -9.734 -21.184  0.00  0.00    +0.007 C 
ATOM     13  C   UNL     1      32.410 -14.107 -21.997  0.00  0.00    -0.014 C 
ATOM     14  C   UNL     1      34.940 -12.494 -22.654  0.00  0.00    +0.003 C 
ATOM     15  C   UNL     1      31.896  -8.248 -20.913  0.00  0.00    +0.023 C 
ATOM     16  C   UNL     1      32.010  -7.490 -22.211  0.00  0.00    -0.035 C 
ATOM     17  C   UNL     1      34.477  -7.627 -22.519  0.00  0.00    +0.011 C 
ATOM     18  C   UNL     1      33.069  -7.180 -24.476  0.00  0.00    -0.017 C 
ATOM     19  C   UNL     1      32.101 -15.278 -21.426  0.00  0.00    -0.006 C 
ATOM     20  C   UNL     1      31.149  -6.498 -22.490  0.00  0.00    +0.034 C 
ATOM     21  C   UNL     1      32.213  -6.195 -24.762  0.00  0.00    +0.038 C 
ATOM     22  C   UNL     1      31.200  -5.774 -23.777  0.00  0.00    +0.195 C 
ENDROOT
BRANCH   8  23
ATOM     23  O   UNL     1      31.865 -13.961 -24.330  0.00  0.00    -0.376 OA
ATOM     24  H   UNL     1      31.619 -14.888 -24.481  0.00  0.00    +0.211 HD
ENDBRANCH   8  23
BRANCH   9  25
ATOM     25  O   UNL     1      35.211  -9.944 -24.114  0.00  0.00    -0.382 OA
ATOM     26  H   UNL     1      35.269  -9.224 -23.468  0.00  0.00    +0.210 HD
ENDBRANCH   9  25
BRANCH   8  28
ATOM     27  O   UNL     1      34.915 -15.228 -23.144  0.00  0.00    -0.289 OA
ATOM     28  C   UNL     1      33.943 -14.942 -23.843  0.00  0.00    +0.222 C 
BRANCH  28  29
ATOM     29  C   UNL     1      33.680 -15.605 -25.178  0.00  0.00    +0.275 C 
BRANCH  29  30
ATOM     30  O   UNL     1      34.643 -16.605 -25.437  0.00  0.00    -0.440 OA
BRANCH  30  32
ATOM     31  O   UNL     1      33.352 -18.502 -25.705  0.00  0.00    -0.250 OA
ATOM     32  C   UNL     1      34.266 -17.894 -25.162  0.00  0.00    +0.318 C 
ATOM     33  C   UNL     1      35.137 -18.473 -24.090  0.00  0.00    +0.121 C 
ENDBRANCH  30  32
ENDBRANCH  29  30
ENDBRANCH  28  29
ENDBRANCH   8  28
TORSDOF 6
ENDMDL
MODEL 4
REMARK VINA RESULT:      -7.7      1.612      8.188
REMARK  Name = 9980241
REMARK  6 active torsions:
REMARK  status: ('A' for Active; 'I' for Inactive)
REMARK    1  A    between atoms: C_8  and  O_23
REMARK    2  A    between atoms: C_8  and  C_28
REMARK    3  A    between atoms: C_9  and  O_25
REMARK    4  A    between atoms: C_28  and  C_29
REMARK    5  A    between atoms: C_29  and  O_30
REMARK    6  A    between atoms: O_30  and  C_32
REMARK                            x       y       z     vdW  Elec       q    Type
REMARK                         _______ _______ _______ _____ _____    ______ ____
ROOT
ATOM      1  F   UNL     1      32.007 -22.447 -14.361  0.00  0.00    -0.237 F 
ATOM      2  O   UNL     1      27.315 -21.605 -15.408  0.00  0.00    -0.287 OA
ATOM      3  C   UNL     1      35.083 -24.153 -14.352  0.00  0.00    +0.035 C 
ATOM      4  C   UNL     1      34.533 -23.178 -15.423  0.00  0.00    +0.010 C 
ATOM      5  C   UNL     1      33.190 -23.622 -16.024  0.00  0.00    +0.034 C 
ATOM      6  C   UNL     1      32.123 -23.727 -14.881  0.00  0.00    +0.164 C 
ATOM      7  C   UNL     1      34.049 -24.203 -13.209  0.00  0.00    +0.035 C 
ATOM      8  C   UNL     1      36.437 -23.449 -14.023  0.00  0.00    +0.158 C 
ATOM      9  C   UNL     1      32.628 -24.588 -13.684  0.00  0.00    +0.141 C 
ATOM     10  C   UNL     1      30.691 -24.089 -15.439  0.00  0.00    +0.064 C 
ATOM     11  C   UNL     1      35.721 -22.964 -16.361  0.00  0.00    +0.025 C 
ATOM     12  C   UNL     1      32.739 -22.634 -17.117  0.00  0.00    +0.007 C 
ATOM     13  C   UNL     1      36.891 -22.973 -15.395  0.00  0.00    -0.014 C 
ATOM     14  C   UNL     1      35.346 -25.583 -14.908  0.00  0.00    +0.003 C 
ATOM     15  C   UNL     1      31.358 -22.972 -17.666  0.00  0.00    +0.023 C 
ATOM     16  C   UNL     1      30.358 -23.077 -16.542  0.00  0.00    -0.035 C 
ATOM     17  C   UNL     1      30.590 -25.506 -16.048  0.00  0.00    +0.011 C 
ATOM     18  C   UNL     1      29.661 -24.037 -14.320  0.00  0.00    -0.017 C 
ATOM     19  C   UNL     1      38.131 -22.604 -15.739  0.00  0.00    -0.006 C 
ATOM     20  C   UNL     1      29.277 -22.282 -16.526  0.00  0.00    +0.034 C 
ATOM     21  C   UNL     1      28.584 -23.247 -14.295  0.00  0.00    +0.038 C 
ATOM     22  C   UNL     1      28.309 -22.321 -15.410  0.00  0.00    +0.195 C 
ENDROOT
BRANCH   8  23
ATOM     23  O   UNL     1      36.234 -22.320 -13.181  0.00  0.00    -0.376 OA
ATOM     24  H   UNL     1      36.710 -21.557 -13.546  0.00  0.00    +0.211 HD
ENDBRANCH   8  23
BRANCH   9  25
ATOM     25  O   UNL     1      32.574 -25.975 -13.975  0.00  0.00    -0.382 OA
ATOM     26  H   UNL     1      32.167 -26.446 -13.232  0.00  0.00    +0.210 HD
ENDBRANCH   9  25
BRANCH   8  28
ATOM     27  O   UNL     1      37.647 -24.225 -12.116  0.00  0.00    -0.289 OA
ATOM     28  C   UNL     1      37.427 -24.339 -13.321  0.00  0.00    +0.222 C 
BRANCH  28  29
ATOM     29  C   UNL     1      38.127 -25.371 -14.179  0.00  0.00    +0.275 C 
BRANCH  29  30
ATOM     30  O   UNL     1      39.192 -25.970 -13.471  0.00  0.00    -0.440 OA
BRANCH  30  32
ATOM     31  O   UNL     1      41.277 -26.884 -13.859  0.00  0.00    -0.250 OA
ATOM     32  C   UNL     1      40.365 -26.127 -14.163  0.00  0.00    +0.318 C 
ATOM     33  C   UNL     1      40.384 -25.231 -15.363  0.00  0.00    +0.121 C 
ENDBRANCH  30  32
ENDBRANCH  29  30
ENDBRANCH  28  29
ENDBRANCH   8  28
TORSDOF 6
ENDMDL
MODEL 5
REMARK VINA RESULT:      -7.6     10.452     13.098
REMARK  Name = 9980241
REMARK  6 active torsions:
REMARK  status: ('A' for Active; 'I' for Inactive)
REMARK    1  A    between atoms: C_8  and  O_23
REMARK    2  A    between atoms: C_8  and  C_28
REMARK    3  A    between atoms: C_9  and  O_25
REMARK    4  A    between atoms: C_28  and  C_29
REMARK    5  A    between atoms: C_29  and  O_30
REMARK    6  A    between atoms: O_30  and  C_32
REMARK                            x       y       z     vdW  Elec       q    Type
REMARK                         _______ _______ _______ _____ _____    ______ ____
ROOT
ATOM      1  F   UNL     1      35.394 -14.265 -23.859  0.00  0.00    -0.237 F 
ATOM      2  O   UNL     1      34.755  -9.783 -25.682  0.00  0.00    -0.287 OA
ATOM      3  C   UNL     1      34.500 -17.369 -22.467  0.00  0.00    +0.035 C 
ATOM      4  C   UNL     1      34.529 -16.964 -23.962  0.00  0.00    +0.010 C 
ATOM      5  C   UNL     1      33.627 -15.762 -24.288  0.00  0.00    +0.034 C 
ATOM      6  C   UNL     1      34.096 -14.524 -23.449  0.00  0.00    +0.164 C 
ATOM      7  C   UNL     1      35.016 -16.161 -21.658  0.00  0.00    +0.035 C 
ATOM      8  C   UNL     1      35.439 -18.615 -22.512  0.00  0.00    +0.158 C 
ATOM      9  C   UNL     1      34.227 -14.858 -21.932  0.00  0.00    +0.141 C 
ATOM     10  C   UNL     1      33.273 -13.223 -23.803  0.00  0.00    +0.064 C 
ATOM     11  C   UNL     1      34.288 -18.282 -24.698  0.00  0.00    +0.025 C 
ATOM     12  C   UNL     1      33.667 -15.458 -25.798  0.00  0.00    +0.007 C 
ATOM     13  C   UNL     1      35.034 -19.272 -23.824  0.00  0.00    -0.014 C 
ATOM     14  C   UNL     1      33.084 -17.785 -21.974  0.00  0.00    +0.003 C 
ATOM     15  C   UNL     1      32.875 -14.205 -26.154  0.00  0.00    +0.023 C 
ATOM     16  C   UNL     1      33.340 -13.036 -25.323  0.00  0.00    -0.035 C 
ATOM     17  C   UNL     1      31.782 -13.290 -23.397  0.00  0.00    +0.011 C 
ATOM     18  C   UNL     1      33.853 -12.019 -23.076  0.00  0.00    -0.017 C 
ATOM     19  C   UNL     1      35.285 -20.535 -24.192  0.00  0.00    -0.006 C 
ATOM     20  C   UNL     1      33.819 -11.933 -25.919  0.00  0.00    +0.034 C 
ATOM     21  C   UNL     1      34.334 -10.919 -23.663  0.00  0.00    +0.038 C 
ATOM     22  C   UNL     1      34.335 -10.794 -25.132  0.00  0.00    +0.195 C 
ENDROOT
BRANCH   8  23
ATOM     23  O   UNL     1      36.805 -18.224 -22.588  0.00  0.00    -0.376 OA
ATOM     24  H   UNL     1      37.221 -18.334 -21.718  0.00  0.00    +0.211 HD
ENDBRANCH   8  23
BRANCH   9  25
ATOM     25  O   UNL     1      32.962 -14.917 -21.296  0.00  0.00    -0.382 OA
ATOM     26  H   UNL     1      33.022 -15.476 -20.506  0.00  0.00    +0.210 HD
ENDBRANCH   9  25
BRANCH   8  28
ATOM     27  O   UNL     1      34.260 -20.094 -21.054  0.00  0.00    -0.289 OA
ATOM     28  C   UNL     1      35.313 -19.512 -21.310  0.00  0.00    +0.222 C 
BRANCH  28  29
ATOM     29  C   UNL     1      36.549 -19.654 -20.447  0.00  0.00    +0.275 C 
BRANCH  29  30
ATOM     30  O   UNL     1      36.720 -20.994 -20.036  0.00  0.00    -0.440 OA
BRANCH  30  32
ATOM     31  O   UNL     1      37.066 -20.836 -17.758  0.00  0.00    -0.250 OA
ATOM     32  C   UNL     1      36.443 -21.264 -18.721  0.00  0.00    +0.318 C 
ATOM     33  C   UNL     1      35.254 -22.170 -18.615  0.00  0.00    +0.121 C 
ENDBRANCH  30  32
ENDBRANCH  29  30
ENDBRANCH  28  29
ENDBRANCH   8  28
TORSDOF 6
ENDMDL
MODEL 6
REMARK VINA RESULT:      -7.4      1.752      7.553
REMARK  Name = 9980241
REMARK  6 active torsions:
REMARK  status: ('A' for Active; 'I' for Inactive)
REMARK    1  A    between atoms: C_8  and  O_23
REMARK    2  A    between atoms: C_8  and  C_28
REMARK    3  A    between atoms: C_9  and  O_25
REMARK    4  A    between atoms: C_28  and  C_29
REMARK    5  A    between atoms: C_29  and  O_30
REMARK    6  A    between atoms: O_30  and  C_32
REMARK                            x       y       z     vdW  Elec       q    Type
REMARK                         _______ _______ _______ _____ _____    ______ ____
ROOT
ATOM      1  F   UNL     1      32.051 -22.427 -14.446  0.00  0.00    -0.237 F 
ATOM      2  O   UNL     1      27.295 -21.642 -15.207  0.00  0.00    -0.287 OA
ATOM      3  C   UNL     1      35.147 -24.085 -14.641  0.00  0.00    +0.035 C 
ATOM      4  C   UNL     1      34.522 -23.102 -15.663  0.00  0.00    +0.010 C 
ATOM      5  C   UNL     1      33.153 -23.558 -16.193  0.00  0.00    +0.034 C 
ATOM      6  C   UNL     1      32.156 -23.697 -14.992  0.00  0.00    +0.164 C 
ATOM      7  C   UNL     1      34.182 -24.168 -13.441  0.00  0.00    +0.035 C 
ATOM      8  C   UNL     1      36.508 -23.365 -14.379  0.00  0.00    +0.158 C 
ATOM      9  C   UNL     1      32.742 -24.568 -13.840  0.00  0.00    +0.141 C 
ATOM     10  C   UNL     1      30.699 -24.072 -15.473  0.00  0.00    +0.064 C 
ATOM     11  C   UNL     1      35.651 -22.855 -16.664  0.00  0.00    +0.025 C 
ATOM     12  C   UNL     1      32.626 -22.560 -17.242  0.00  0.00    +0.007 C 
ATOM     13  C   UNL     1      36.874 -22.861 -15.767  0.00  0.00    -0.014 C 
ATOM     14  C   UNL     1      35.399 -25.502 -15.234  0.00  0.00    +0.003 C 
ATOM     15  C   UNL     1      31.220 -22.912 -17.716  0.00  0.00    +0.023 C 
ATOM     16  C   UNL     1      30.289 -23.049 -16.539  0.00  0.00    -0.035 C 
ATOM     17  C   UNL     1      30.585 -25.482 -16.097  0.00  0.00    +0.011 C 
ATOM     18  C   UNL     1      29.735 -24.054 -14.295  0.00  0.00    -0.017 C 
ATOM     19  C   UNL     1      38.087 -22.468 -16.176  0.00  0.00    -0.006 C 
ATOM     20  C   UNL     1      29.199 -22.271 -16.447  0.00  0.00    +0.034 C 
ATOM     21  C   UNL     1      28.650 -23.281 -14.196  0.00  0.00    +0.038 C 
ATOM     22  C   UNL     1      28.298 -22.343 -15.278  0.00  0.00    +0.195 C 
ENDROOT
BRANCH   8  23
ATOM     23  O   UNL     1      36.337 -22.252 -13.509  0.00  0.00    -0.376 OA
ATOM     24  H   UNL     1      36.019 -22.563 -12.647  0.00  0.00    +0.211 HD
ENDBRANCH   8  23
BRANCH   9  25
ATOM     25  O   UNL     1      32.692 -25.951 -14.150  0.00  0.00    -0.382 OA
ATOM     26  H   UNL     1      32.172 -26.415 -13.475  0.00  0.00    +0.210 HD
ENDBRANCH   9  25
BRANCH   8  28
ATOM     27  O   UNL     1      38.240 -25.007 -14.431  0.00  0.00    -0.289 OA
ATOM     28  C   UNL     1      37.550 -24.250 -13.750  0.00  0.00    +0.222 C 
BRANCH  28  29
ATOM     29  C   UNL     1      37.695 -24.150 -12.247  0.00  0.00    +0.275 C 
BRANCH  29  30
ATOM     30  O   UNL     1      36.744 -24.969 -11.598  0.00  0.00    -0.440 OA
BRANCH  30  32
ATOM     31  O   UNL     1      35.211 -24.946  -9.870  0.00  0.00    -0.250 OA
ATOM     32  C   UNL     1      36.062 -24.395 -10.556  0.00  0.00    +0.318 C 
ATOM     33  C   UNL     1      36.506 -22.977 -10.363  0.00  0.00    +0.121 C 
ENDBRANCH  30  32
ENDBRANCH  29  30
ENDBRANCH  28  29
ENDBRANCH   8  28
TORSDOF 6
ENDMDL
MODEL 7
REMARK VINA RESULT:      -7.1     15.069     16.909
REMARK  Name = 9980241
REMARK  6 active torsions:
REMARK  status: ('A' for Active; 'I' for Inactive)
REMARK    1  A    between atoms: C_8  and  O_23
REMARK    2  A    between atoms: C_8  and  C_28
REMARK    3  A    between atoms: C_9  and  O_25
REMARK    4  A    between atoms: C_28  and  C_29
REMARK    5  A    between atoms: C_29  and  O_30
REMARK    6  A    between atoms: O_30  and  C_32
REMARK                            x       y       z     vdW  Elec       q    Type
REMARK                         _______ _______ _______ _____ _____    ______ ____
ROOT
ATOM      1  F   UNL     1      34.650 -12.218 -22.390  0.00  0.00    -0.237 F 
ATOM      2  O   UNL     1      35.051 -16.998 -21.488  0.00  0.00    -0.287 OA
ATOM      3  C   UNL     1      33.266  -9.258 -23.692  0.00  0.00    +0.035 C 
ATOM      4  C   UNL     1      32.900  -9.986 -22.374  0.00  0.00    +0.010 C 
ATOM      5  C   UNL     1      32.436 -11.436 -22.584  0.00  0.00    +0.034 C 
ATOM      6  C   UNL     1      33.584 -12.249 -23.276  0.00  0.00    +0.164 C 
ATOM      7  C   UNL     1      34.432 -10.037 -24.333  0.00  0.00    +0.035 C 
ATOM      8  C   UNL     1      33.613  -7.844 -23.126  0.00  0.00    +0.158 C 
ATOM      9  C   UNL     1      34.121 -11.535 -24.554  0.00  0.00    +0.141 C 
ATOM     10  C   UNL     1      33.213 -13.775 -23.439  0.00  0.00    +0.064 C 
ATOM     11  C   UNL     1      31.957  -9.009 -21.671  0.00  0.00    +0.025 C 
ATOM     12  C   UNL     1      32.039 -12.071 -21.238  0.00  0.00    +0.007 C 
ATOM     13  C   UNL     1      32.559  -7.667 -22.042  0.00  0.00    -0.014 C 
ATOM     14  C   UNL     1      32.071  -9.156 -24.685  0.00  0.00    +0.003 C 
ATOM     15  C   UNL     1      31.677 -13.545 -21.381  0.00  0.00    +0.023 C 
ATOM     16  C   UNL     1      32.794 -14.296 -22.059  0.00  0.00    -0.035 C 
ATOM     17  C   UNL     1      32.049 -14.040 -24.422  0.00  0.00    +0.011 C 
ATOM     18  C   UNL     1      34.405 -14.552 -23.979  0.00  0.00    -0.017 C 
ATOM     19  C   UNL     1      32.191  -6.513 -21.472  0.00  0.00    -0.006 C 
ATOM     20  C   UNL     1      33.388 -15.327 -21.438  0.00  0.00    +0.034 C 
ATOM     21  C   UNL     1      35.003 -15.577 -23.365  0.00  0.00    +0.038 C 
ATOM     22  C   UNL     1      34.523 -16.047 -22.053  0.00  0.00    +0.195 C 
ENDROOT
BRANCH   8  23
ATOM     23  O   UNL     1      34.904  -7.837 -22.527  0.00  0.00    -0.376 OA
ATOM     24  H   UNL     1      35.248  -8.743 -22.491  0.00  0.00    +0.211 HD
ENDBRANCH   8  23
BRANCH   9  25
ATOM     25  O   UNL     1      33.237 -11.689 -25.652  0.00  0.00    -0.382 OA
ATOM     26  H   UNL     1      32.471 -12.217 -25.379  0.00  0.00    +0.210 HD
ENDBRANCH   9  25
BRANCH   8  28
ATOM     27  O   UNL     1      34.599  -6.553 -24.876  0.00  0.00    -0.289 OA
ATOM     28  C   UNL     1      33.614  -6.758 -24.167  0.00  0.00    +0.222 C 
BRANCH  28  29
ATOM     29  C   UNL     1      32.343  -5.945 -24.289  0.00  0.00    +0.275 C 
BRANCH  29  30
ATOM     30  O   UNL     1      32.408  -5.081 -25.404  0.00  0.00    -0.440 OA
BRANCH  30  32
ATOM     31  O   UNL     1      30.495  -3.961 -24.752  0.00  0.00    -0.250 OA
ATOM     32  C   UNL     1      31.527  -4.030 -25.407  0.00  0.00    +0.318 C 
ATOM     33  C   UNL     1      32.004  -2.956 -26.336  0.00  0.00    +0.121 C 
ENDBRANCH  30  32
ENDBRANCH  29  30
ENDBRANCH  28  29
ENDBRANCH   8  28
TORSDOF 6
ENDMDL
MODEL 8
REMARK VINA RESULT:      -6.3     10.780     12.477
REMARK  Name = 9980241
REMARK  6 active torsions:
REMARK  status: ('A' for Active; 'I' for Inactive)
REMARK    1  A    between atoms: C_8  and  O_23
REMARK    2  A    between atoms: C_8  and  C_28
REMARK    3  A    between atoms: C_9  and  O_25
REMARK    4  A    between atoms: C_28  and  C_29
REMARK    5  A    between atoms: C_29  and  O_30
REMARK    6  A    between atoms: O_30  and  C_32
REMARK                            x       y       z     vdW  Elec       q    Type
REMARK                         _______ _______ _______ _____ _____    ______ ____
ROOT
ATOM      1  F   UNL     1      35.487 -16.954 -21.124  0.00  0.00    -0.237 F 
ATOM      2  O   UNL     1      36.702 -21.243 -19.138  0.00  0.00    -0.287 OA
ATOM      3  C   UNL     1      33.956 -14.729 -23.377  0.00  0.00    +0.035 C 
ATOM      4  C   UNL     1      33.352 -15.363 -22.099  0.00  0.00    +0.010 C 
ATOM      5  C   UNL     1      33.353 -16.900 -22.118  0.00  0.00    +0.034 C 
ATOM      6  C   UNL     1      34.828 -17.412 -22.254  0.00  0.00    +0.164 C 
ATOM      7  C   UNL     1      35.423 -15.197 -23.467  0.00  0.00    +0.035 C 
ATOM      8  C   UNL     1      33.737 -13.217 -23.053  0.00  0.00    +0.158 C 
ATOM      9  C   UNL     1      35.578 -16.736 -23.441  0.00  0.00    +0.141 C 
ATOM     10  C   UNL     1      34.916 -18.987 -22.185  0.00  0.00    +0.064 C 
ATOM     11  C   UNL     1      32.019 -14.632 -21.929  0.00  0.00    +0.025 C 
ATOM     12  C   UNL     1      32.688 -17.452 -20.843  0.00  0.00    +0.007 C 
ATOM     13  C   UNL     1      32.368 -13.230 -22.388  0.00  0.00    -0.014 C 
ATOM     14  C   UNL     1      33.184 -15.114 -24.673  0.00  0.00    +0.003 C 
ATOM     15  C   UNL     1      32.764 -18.972 -20.765  0.00  0.00    +0.023 C 
ATOM     16  C   UNL     1      34.192 -19.433 -20.910  0.00  0.00    -0.035 C 
ATOM     17  C   UNL     1      34.257 -19.709 -23.384  0.00  0.00    +0.011 C 
ATOM     18  C   UNL     1      36.371 -19.433 -22.174  0.00  0.00    -0.017 C 
ATOM     19  C   UNL     1      31.560 -12.176 -22.212  0.00  0.00    -0.006 C 
ATOM     20  C   UNL     1      34.770 -20.153 -19.936  0.00  0.00    +0.034 C 
ATOM     21  C   UNL     1      36.954 -20.148 -21.207  0.00  0.00    +0.038 C 
ATOM     22  C   UNL     1      36.184 -20.572 -20.023  0.00  0.00    +0.195 C 
ENDROOT
BRANCH   8  23
ATOM     23  O   UNL     1      34.704 -12.750 -22.119  0.00  0.00    -0.376 OA
ATOM     24  H   UNL     1      34.252 -12.406 -21.332  0.00  0.00    +0.211 HD
ENDBRANCH   8  23
BRANCH   9  25
ATOM     25  O   UNL     1      35.185 -17.282 -24.689  0.00  0.00    -0.382 OA
ATOM     26  H   UNL     1      35.943 -17.289 -25.293  0.00  0.00    +0.210 HD
ENDBRANCH   9  25
BRANCH   8  28
ATOM     27  O   UNL     1      33.460 -12.701 -25.368  0.00  0.00    -0.289 OA
ATOM     28  C   UNL     1      33.829 -12.320 -24.257  0.00  0.00    +0.222 C 
BRANCH  28  29
ATOM     29  C   UNL     1      34.394 -10.936 -24.020  0.00  0.00    +0.275 C 
BRANCH  29  30
ATOM     30  O   UNL     1      33.372  -9.963 -24.074  0.00  0.00    -0.440 OA
BRANCH  30  32
ATOM     31  O   UNL     1      32.765  -8.721 -22.223  0.00  0.00    -0.250 OA
ATOM     32  C   UNL     1      33.485  -8.918 -23.193  0.00  0.00    +0.318 C 
ATOM     33  C   UNL     1      34.628  -8.031 -23.583  0.00  0.00    +0.121 C 
ENDBRANCH  30  32
ENDBRANCH  29  30
ENDBRANCH  28  29
ENDBRANCH   8  28
TORSDOF 6
ENDMDL
