MODEL 1
REMARK VINA RESULT:     -10.8      0.000      0.000
REMARK  Name = 9812416
REMARK  5 active torsions:
REMARK  status: ('A' for Active; 'I' for Inactive)
REMARK    1  A    between atoms: N_1  and  C_3
REMARK    2  A    between atoms: N_1  and  S_18
REMARK    3  A    between atoms: C_5  and  N_10
REMARK    4  A    between atoms: C_7  and  O_16
REMARK    5  A    between atoms: S_18  and  C_26
REMARK                            x       y       z     vdW  Elec       q    Type
REMARK                         _______ _______ _______ _____ _____    ______ ____
ROOT
ATOM      1  N   UNL     1      35.219 -17.026 -21.066  0.00  0.00    -0.215 N 
ATOM      2  H   UNL     1      35.734 -16.952 -20.230  0.00  0.00    +0.174 HD
ENDROOT
BRANCH   1   3
ATOM      3  C   UNL     1      34.355 -15.967 -21.483  0.00  0.00    +0.066 C 
ATOM      4  C   UNL     1      34.339 -15.566 -22.819  0.00  0.00    +0.034 C 
ATOM      5  C   UNL     1      33.497 -14.532 -23.227  0.00  0.00    +0.087 C 
ATOM      6  C   UNL     1      33.530 -15.334 -20.554  0.00  0.00    +0.019 C 
ATOM      7  C   UNL     1      32.671 -13.899 -22.299  0.00  0.00    +0.152 C 
ATOM      8  C   UNL     1      32.687 -14.300 -20.962  0.00  0.00    +0.039 C 
BRANCH   5  10
ATOM      9  O   UNL     1      33.385 -16.182 -25.741  0.00  0.00    -0.253 OA
ATOM     10  N   UNL     1      33.490 -14.142 -24.568  0.00  0.00    -0.266 N 
ATOM     11  N   UNL     1      33.449 -14.200 -26.876  0.00  0.00    -0.313 N 
ATOM     12  C   UNL     1      33.437 -14.955 -25.711  0.00  0.00    +0.301 C 
ATOM     13  H   UNL     1      33.529 -13.173 -24.733  0.00  0.00    +0.156 HD
ATOM     14  H   UNL     1      33.416 -14.646 -27.753  0.00  0.00    +0.146 HD
ATOM     15  H   UNL     1      33.491 -13.217 -26.825  0.00  0.00    +0.146 HD
ENDBRANCH   5  10
BRANCH   7  16
ATOM     16  O   UNL     1      31.839 -12.887 -22.676  0.00  0.00    -0.470 OA
ATOM     17  C   UNL     1      31.563 -11.880 -21.706  0.00  0.00    +0.253 C 
ENDBRANCH   7  16
ENDBRANCH   1   3
BRANCH   1  18
ATOM     18  S   UNL     1      35.340 -18.434 -22.050  0.00  0.00    +0.078 S 
ATOM     19  O   UNL     1      36.672 -18.533 -22.614  0.00  0.00    -0.150 OA
ATOM     20  O   UNL     1      34.181 -18.502 -22.921  0.00  0.00    -0.150 OA
BRANCH  18  26
ATOM     21  F   UNL     1      32.797 -19.616 -21.068  0.00  0.00    -0.200 F 
ATOM     22  F   UNL     1      37.520 -19.863 -20.626  0.00  0.00    -0.200 F 
ATOM     23  F   UNL     1      37.237 -21.854 -18.788  0.00  0.00    -0.199 F 
ATOM     24  F   UNL     1      32.528 -21.607 -19.228  0.00  0.00    -0.199 F 
ATOM     25  F   UNL     1      34.744 -22.731 -18.088  0.00  0.00    -0.199 F 
ATOM     26  C   UNL     1      35.160 -19.729 -20.857  0.00  0.00    +0.184 A 
ATOM     27  C   UNL     1      33.891 -20.158 -20.515  0.00  0.00    +0.191 A 
ATOM     28  C   UNL     1      36.293 -20.284 -20.290  0.00  0.00    +0.191 A 
ATOM     29  C   UNL     1      36.152 -21.304 -19.349  0.00  0.00    +0.198 A 
ATOM     30  C   UNL     1      33.749 -21.178 -19.574  0.00  0.00    +0.198 A 
ATOM     31  C   UNL     1      34.880 -21.751 -18.991  0.00  0.00    +0.199 A 
ENDBRANCH  18  26
ENDBRANCH   1  18
TORSDOF 5
ENDMDL
MODEL 2
REMARK VINA RESULT:     -10.8      0.020      2.049
REMARK  Name = 9812416
REMARK  5 active torsions:
REMARK  status: ('A' for Active; 'I' for Inactive)
REMARK    1  A    between atoms: N_1  and  C_3
REMARK    2  A    between atoms: N_1  and  S_18
REMARK    3  A    between atoms: C_5  and  N_10
REMARK    4  A    between atoms: C_7  and  O_16
REMARK    5  A    between atoms: S_18  and  C_26
REMARK                            x       y       z     vdW  Elec       q    Type
REMARK                         _______ _______ _______ _____ _____    ______ ____
ROOT
ATOM      1  N   UNL     1      35.205 -17.016 -21.066  0.00  0.00    -0.215 N 
ATOM      2  H   UNL     1      35.713 -16.943 -20.225  0.00  0.00    +0.174 HD
ENDROOT
BRANCH   1   3
ATOM      3  C   UNL     1      34.344 -15.957 -21.489  0.00  0.00    +0.066 C 
ATOM      4  C   UNL     1      34.335 -15.558 -22.825  0.00  0.00    +0.034 C 
ATOM      5  C   UNL     1      33.495 -14.524 -23.238  0.00  0.00    +0.087 C 
ATOM      6  C   UNL     1      33.514 -15.323 -20.564  0.00  0.00    +0.019 C 
ATOM      7  C   UNL     1      32.664 -13.890 -22.314  0.00  0.00    +0.152 C 
ATOM      8  C   UNL     1      32.674 -14.289 -20.977  0.00  0.00    +0.039 C 
BRANCH   5  10
ATOM      9  O   UNL     1      33.365 -16.175 -25.751  0.00  0.00    -0.253 OA
ATOM     10  N   UNL     1      33.495 -14.135 -24.579  0.00  0.00    -0.266 N 
ATOM     11  N   UNL     1      33.456 -14.195 -26.888  0.00  0.00    -0.313 N 
ATOM     12  C   UNL     1      33.433 -14.949 -25.722  0.00  0.00    +0.301 C 
ATOM     13  H   UNL     1      33.546 -13.166 -24.745  0.00  0.00    +0.156 HD
ATOM     14  H   UNL     1      33.418 -14.642 -27.764  0.00  0.00    +0.146 HD
ATOM     15  H   UNL     1      33.510 -13.213 -26.838  0.00  0.00    +0.146 HD
ENDBRANCH   5  10
BRANCH   7  16
ATOM     16  O   UNL     1      31.835 -12.878 -22.697  0.00  0.00    -0.470 OA
ATOM     17  C   UNL     1      31.597 -11.841 -21.748  0.00  0.00    +0.253 C 
ENDBRANCH   7  16
ENDBRANCH   1   3
BRANCH   1  18
ATOM     18  S   UNL     1      35.338 -18.421 -22.052  0.00  0.00    +0.078 S 
ATOM     19  O   UNL     1      36.673 -18.512 -22.612  0.00  0.00    -0.150 OA
ATOM     20  O   UNL     1      34.183 -18.493 -22.928  0.00  0.00    -0.150 OA
BRANCH  18  26
ATOM     21  F   UNL     1      37.521 -19.848 -20.630  0.00  0.00    -0.200 F 
ATOM     22  F   UNL     1      32.798 -19.612 -21.075  0.00  0.00    -0.200 F 
ATOM     23  F   UNL     1      32.533 -21.613 -19.245  0.00  0.00    -0.199 F 
ATOM     24  F   UNL     1      37.242 -21.847 -18.802  0.00  0.00    -0.199 F 
ATOM     25  F   UNL     1      34.751 -22.731 -18.103  0.00  0.00    -0.199 F 
ATOM     26  C   UNL     1      35.161 -19.719 -20.863  0.00  0.00    +0.184 A 
ATOM     27  C   UNL     1      36.295 -20.274 -20.297  0.00  0.00    +0.191 A 
ATOM     28  C   UNL     1      33.893 -20.154 -20.523  0.00  0.00    +0.191 A 
ATOM     29  C   UNL     1      33.753 -21.178 -19.586  0.00  0.00    +0.198 A 
ATOM     30  C   UNL     1      36.156 -21.297 -19.360  0.00  0.00    +0.198 A 
ATOM     31  C   UNL     1      34.885 -21.749 -19.004  0.00  0.00    +0.199 A 
ENDBRANCH  18  26
ENDBRANCH   1  18
TORSDOF 5
ENDMDL
MODEL 3
REMARK VINA RESULT:     -10.6      3.862      8.132
REMARK  Name = 9812416
REMARK  5 active torsions:
REMARK  status: ('A' for Active; 'I' for Inactive)
REMARK    1  A    between atoms: N_1  and  C_3
REMARK    2  A    between atoms: N_1  and  S_18
REMARK    3  A    between atoms: C_5  and  N_10
REMARK    4  A    between atoms: C_7  and  O_16
REMARK    5  A    between atoms: S_18  and  C_26
REMARK                            x       y       z     vdW  Elec       q    Type
REMARK                         _______ _______ _______ _____ _____    ______ ____
ROOT
ATOM      1  N   UNL     1      34.518 -18.515 -21.231  0.00  0.00    -0.215 N 
ATOM      2  H   UNL     1      34.129 -17.692 -20.855  0.00  0.00    +0.174 HD
ENDROOT
BRANCH   1   3
ATOM      3  C   UNL     1      34.426 -19.752 -20.523  0.00  0.00    +0.066 C 
ATOM      4  C   UNL     1      35.542 -20.258 -19.857  0.00  0.00    +0.034 C 
ATOM      5  C   UNL     1      35.453 -21.467 -19.166  0.00  0.00    +0.087 C 
ATOM      6  C   UNL     1      33.221 -20.454 -20.499  0.00  0.00    +0.019 C 
ATOM      7  C   UNL     1      34.248 -22.168 -19.141  0.00  0.00    +0.152 C 
ATOM      8  C   UNL     1      33.131 -21.662 -19.808  0.00  0.00    +0.039 C 
BRANCH   5  10
ATOM      9  O   UNL     1      36.078 -21.622 -16.226  0.00  0.00    -0.253 OA
ATOM     10  N   UNL     1      36.578 -21.961 -18.503  0.00  0.00    -0.266 N 
ATOM     11  N   UNL     1      38.061 -22.576 -16.842  0.00  0.00    -0.313 N 
ATOM     12  C   UNL     1      36.823 -22.011 -17.122  0.00  0.00    +0.301 C 
ATOM     13  H   UNL     1      37.292 -22.320 -19.078  0.00  0.00    +0.156 HD
ATOM     14  H   UNL     1      38.359 -22.672 -15.909  0.00  0.00    +0.146 HD
ATOM     15  H   UNL     1      38.640 -22.881 -17.578  0.00  0.00    +0.146 HD
ENDBRANCH   5  10
BRANCH   7  16
ATOM     16  O   UNL     1      34.139 -23.350 -18.471  0.00  0.00    -0.470 OA
ATOM     17  C   UNL     1      33.278 -23.374 -17.335  0.00  0.00    +0.253 C 
ENDBRANCH   7  16
ENDBRANCH   1   3
BRANCH   1  18
ATOM     18  S   UNL     1      35.322 -18.489 -22.754  0.00  0.00    +0.078 S 
ATOM     19  O   UNL     1      34.855 -19.585 -23.582  0.00  0.00    -0.150 OA
ATOM     20  O   UNL     1      36.745 -18.308 -22.533  0.00  0.00    -0.150 OA
BRANCH  18  26
ATOM     21  F   UNL     1      34.242 -18.111 -25.496  0.00  0.00    -0.200 F 
ATOM     22  F   UNL     1      35.181 -15.831 -21.436  0.00  0.00    -0.200 F 
ATOM     23  F   UNL     1      34.250 -13.515 -22.529  0.00  0.00    -0.199 F 
ATOM     24  F   UNL     1      33.314 -15.789 -26.577  0.00  0.00    -0.199 F 
ATOM     25  F   UNL     1      33.314 -13.490 -25.097  0.00  0.00    -0.199 F 
ATOM     26  C   UNL     1      34.717 -16.983 -23.460  0.00  0.00    +0.184 A 
ATOM     27  C   UNL     1      34.248 -16.990 -24.762  0.00  0.00    +0.191 A 
ATOM     28  C   UNL     1      34.726 -15.830 -22.697  0.00  0.00    +0.191 A 
ATOM     29  C   UNL     1      34.249 -14.643 -23.253  0.00  0.00    +0.198 A 
ATOM     30  C   UNL     1      33.771 -15.803 -25.318  0.00  0.00    +0.198 A 
ATOM     31  C   UNL     1      33.772 -14.630 -24.563  0.00  0.00    +0.199 A 
ENDBRANCH  18  26
ENDBRANCH   1  18
TORSDOF 5
ENDMDL
MODEL 4
REMARK VINA RESULT:     -10.6      3.860      8.196
REMARK  Name = 9812416
REMARK  5 active torsions:
REMARK  status: ('A' for Active; 'I' for Inactive)
REMARK    1  A    between atoms: N_1  and  C_3
REMARK    2  A    between atoms: N_1  and  S_18
REMARK    3  A    between atoms: C_5  and  N_10
REMARK    4  A    between atoms: C_7  and  O_16
REMARK    5  A    between atoms: S_18  and  C_26
REMARK                            x       y       z     vdW  Elec       q    Type
REMARK                         _______ _______ _______ _____ _____    ______ ____
ROOT
ATOM      1  N   UNL     1      34.510 -18.515 -21.233  0.00  0.00    -0.215 N 
ATOM      2  H   UNL     1      34.121 -17.692 -20.855  0.00  0.00    +0.174 HD
ENDROOT
BRANCH   1   3
ATOM      3  C   UNL     1      34.418 -19.753 -20.526  0.00  0.00    +0.066 C 
ATOM      4  C   UNL     1      35.533 -20.261 -19.860  0.00  0.00    +0.034 C 
ATOM      5  C   UNL     1      35.442 -21.470 -19.171  0.00  0.00    +0.087 C 
ATOM      6  C   UNL     1      33.211 -20.454 -20.504  0.00  0.00    +0.019 C 
ATOM      7  C   UNL     1      34.236 -22.171 -19.148  0.00  0.00    +0.152 C 
ATOM      8  C   UNL     1      33.121 -21.663 -19.814  0.00  0.00    +0.039 C 
BRANCH   5  10
ATOM      9  O   UNL     1      36.066 -21.629 -16.231  0.00  0.00    -0.253 OA
ATOM     10  N   UNL     1      36.567 -21.966 -18.508  0.00  0.00    -0.266 N 
ATOM     11  N   UNL     1      38.048 -22.584 -16.847  0.00  0.00    -0.313 N 
ATOM     12  C   UNL     1      36.811 -22.018 -17.126  0.00  0.00    +0.301 C 
ATOM     13  H   UNL     1      37.280 -22.326 -19.083  0.00  0.00    +0.156 HD
ATOM     14  H   UNL     1      38.345 -22.681 -15.914  0.00  0.00    +0.146 HD
ATOM     15  H   UNL     1      38.627 -22.889 -17.582  0.00  0.00    +0.146 HD
ENDBRANCH   5  10
BRANCH   7  16
ATOM     16  O   UNL     1      34.126 -23.354 -18.479  0.00  0.00    -0.470 OA
ATOM     17  C   UNL     1      33.264 -23.379 -17.345  0.00  0.00    +0.253 C 
ENDBRANCH   7  16
ENDBRANCH   1   3
BRANCH   1  18
ATOM     18  S   UNL     1      35.316 -18.487 -22.755  0.00  0.00    +0.078 S 
ATOM     19  O   UNL     1      34.852 -19.584 -23.583  0.00  0.00    -0.150 OA
ATOM     20  O   UNL     1      36.738 -18.303 -22.532  0.00  0.00    -0.150 OA
BRANCH  18  26
ATOM     21  F   UNL     1      35.173 -15.828 -21.438  0.00  0.00    -0.200 F 
ATOM     22  F   UNL     1      34.233 -18.113 -25.495  0.00  0.00    -0.200 F 
ATOM     23  F   UNL     1      33.297 -15.793 -26.576  0.00  0.00    -0.199 F 
ATOM     24  F   UNL     1      34.234 -13.516 -22.531  0.00  0.00    -0.199 F 
ATOM     25  F   UNL     1      33.297 -13.493 -25.100  0.00  0.00    -0.199 F 
ATOM     26  C   UNL     1      34.708 -16.982 -23.461  0.00  0.00    +0.184 A 
ATOM     27  C   UNL     1      34.716 -15.829 -22.698  0.00  0.00    +0.191 A 
ATOM     28  C   UNL     1      34.237 -16.991 -24.762  0.00  0.00    +0.191 A 
ATOM     29  C   UNL     1      33.758 -15.805 -25.318  0.00  0.00    +0.198 A 
ATOM     30  C   UNL     1      34.236 -14.643 -23.255  0.00  0.00    +0.198 A 
ATOM     31  C   UNL     1      33.757 -14.632 -24.565  0.00  0.00    +0.199 A 
ENDBRANCH  18  26
ENDBRANCH   1  18
TORSDOF 5
ENDMDL
MODEL 5
REMARK VINA RESULT:     -10.5      5.806      9.965
REMARK  Name = 9812416
REMARK  5 active torsions:
REMARK  status: ('A' for Active; 'I' for Inactive)
REMARK    1  A    between atoms: N_1  and  C_3
REMARK    2  A    between atoms: N_1  and  S_18
REMARK    3  A    between atoms: C_5  and  N_10
REMARK    4  A    between atoms: C_7  and  O_16
REMARK    5  A    between atoms: S_18  and  C_26
REMARK                            x       y       z     vdW  Elec       q    Type
REMARK                         _______ _______ _______ _____ _____    ______ ____
ROOT
ATOM      1  N   UNL     1      34.846 -22.436 -17.670  0.00  0.00    -0.215 N 
ATOM      2  H   UNL     1      35.735 -22.019 -17.608  0.00  0.00    +0.174 HD
ENDROOT
BRANCH   1   3
ATOM      3  C   UNL     1      34.264 -23.078 -16.534  0.00  0.00    +0.066 C 
ATOM      4  C   UNL     1      35.081 -23.692 -15.585  0.00  0.00    +0.034 C 
ATOM      5  C   UNL     1      34.512 -24.319 -14.476  0.00  0.00    +0.087 C 
ATOM      6  C   UNL     1      32.878 -23.091 -16.375  0.00  0.00    +0.019 C 
ATOM      7  C   UNL     1      33.127 -24.332 -14.317  0.00  0.00    +0.152 C 
ATOM      8  C   UNL     1      32.309 -23.719 -15.267  0.00  0.00    +0.039 C 
BRANCH   5  10
ATOM      9  O   UNL     1      36.863 -26.162 -14.844  0.00  0.00    -0.253 OA
ATOM     10  N   UNL     1      35.343 -24.929 -13.534  0.00  0.00    -0.266 N 
ATOM     11  N   UNL     1      37.016 -26.193 -12.565  0.00  0.00    -0.313 N 
ATOM     12  C   UNL     1      36.432 -25.786 -13.758  0.00  0.00    +0.301 C 
ATOM     13  H   UNL     1      35.138 -24.733 -12.591  0.00  0.00    +0.156 HD
ATOM     14  H   UNL     1      37.792 -26.798 -12.578  0.00  0.00    +0.146 HD
ATOM     15  H   UNL     1      36.652 -25.876 -11.706  0.00  0.00    +0.146 HD
ENDBRANCH   5  10
BRANCH   7  16
ATOM     16  O   UNL     1      32.551 -24.939 -13.240  0.00  0.00    -0.470 OA
ATOM     17  C   UNL     1      31.127 -24.997 -13.215  0.00  0.00    +0.253 C 
ENDBRANCH   7  16
ENDBRANCH   1   3
BRANCH   1  18
ATOM     18  S   UNL     1      33.963 -22.407 -19.148  0.00  0.00    +0.078 S 
ATOM     19  O   UNL     1      32.561 -22.141 -18.885  0.00  0.00    -0.150 OA
ATOM     20  O   UNL     1      34.340 -23.559 -19.946  0.00  0.00    -0.150 OA
BRANCH  18  26
ATOM     21  F   UNL     1      36.841 -21.768 -19.515  0.00  0.00    -0.200 F 
ATOM     22  F   UNL     1      32.454 -20.174 -20.398  0.00  0.00    -0.200 F 
ATOM     23  F   UNL     1      33.506 -17.982 -21.628  0.00  0.00    -0.199 F 
ATOM     24  F   UNL     1      37.879 -19.572 -20.747  0.00  0.00    -0.199 F 
ATOM     25  F   UNL     1      36.217 -17.678 -21.808  0.00  0.00    -0.199 F 
ATOM     26  C   UNL     1      34.642 -20.983 -19.950  0.00  0.00    +0.184 A 
ATOM     27  C   UNL     1      36.016 -20.846 -20.030  0.00  0.00    +0.191 A 
ATOM     28  C   UNL     1      33.785 -20.035 -20.479  0.00  0.00    +0.191 A 
ATOM     29  C   UNL     1      34.320 -18.912 -21.110  0.00  0.00    +0.198 A 
ATOM     30  C   UNL     1      36.551 -19.723 -20.661  0.00  0.00    +0.198 A 
ATOM     31  C   UNL     1      35.703 -18.756 -21.201  0.00  0.00    +0.199 A 
ENDBRANCH  18  26
ENDBRANCH   1  18
TORSDOF 5
ENDMDL
MODEL 6
REMARK VINA RESULT:     -10.4      5.848      9.769
REMARK  Name = 9812416
REMARK  5 active torsions:
REMARK  status: ('A' for Active; 'I' for Inactive)
REMARK    1  A    between atoms: N_1  and  C_3
REMARK    2  A    between atoms: N_1  and  S_18
REMARK    3  A    between atoms: C_5  and  N_10
REMARK    4  A    between atoms: C_7  and  O_16
REMARK    5  A    between atoms: S_18  and  C_26
REMARK                            x       y       z     vdW  Elec       q    Type
REMARK                         _______ _______ _______ _____ _____    ______ ____
ROOT
ATOM      1  N   UNL     1      34.802 -22.463 -17.652  0.00  0.00    -0.215 N 
ATOM      2  H   UNL     1      35.700 -22.065 -17.585  0.00  0.00    +0.174 HD
ENDROOT
BRANCH   1   3
ATOM      3  C   UNL     1      34.193 -23.076 -16.514  0.00  0.00    +0.066 C 
ATOM      4  C   UNL     1      34.984 -23.719 -15.562  0.00  0.00    +0.034 C 
ATOM      5  C   UNL     1      34.389 -24.318 -14.452  0.00  0.00    +0.087 C 
ATOM      6  C   UNL     1      32.807 -23.034 -16.358  0.00  0.00    +0.019 C 
ATOM      7  C   UNL     1      33.004 -24.276 -14.294  0.00  0.00    +0.152 C 
ATOM      8  C   UNL     1      32.213 -23.633 -15.247  0.00  0.00    +0.039 C 
BRANCH   5  10
ATOM      9  O   UNL     1      36.239 -23.178 -12.369  0.00  0.00    -0.253 OA
ATOM     10  N   UNL     1      35.194 -24.957 -13.505  0.00  0.00    -0.266 N 
ATOM     11  N   UNL     1      36.683 -25.341 -11.782  0.00  0.00    -0.313 N 
ATOM     12  C   UNL     1      36.044 -24.377 -12.551  0.00  0.00    +0.301 C 
ATOM     13  H   UNL     1      35.161 -25.941 -13.508  0.00  0.00    +0.156 HD
ATOM     14  H   UNL     1      37.310 -25.070 -11.073  0.00  0.00    +0.146 HD
ATOM     15  H   UNL     1      36.509 -26.296 -11.947  0.00  0.00    +0.146 HD
ENDBRANCH   5  10
BRANCH   7  16
ATOM     16  O   UNL     1      32.403 -24.855 -13.216  0.00  0.00    -0.470 OA
ATOM     17  C   UNL     1      30.989 -25.021 -13.275  0.00  0.00    +0.253 C 
ENDBRANCH   7  16
ENDBRANCH   1   3
BRANCH   1  18
ATOM     18  S   UNL     1      33.936 -22.434 -19.140  0.00  0.00    +0.078 S 
ATOM     19  O   UNL     1      32.532 -22.165 -18.894  0.00  0.00    -0.150 OA
ATOM     20  O   UNL     1      34.321 -23.587 -19.932  0.00  0.00    -0.150 OA
BRANCH  18  26
ATOM     21  F   UNL     1      32.447 -20.197 -20.407  0.00  0.00    -0.200 F 
ATOM     22  F   UNL     1      36.819 -21.804 -19.478  0.00  0.00    -0.200 F 
ATOM     23  F   UNL     1      37.878 -19.614 -20.705  0.00  0.00    -0.199 F 
ATOM     24  F   UNL     1      33.518 -18.012 -21.632  0.00  0.00    -0.199 F 
ATOM     25  F   UNL     1      36.232 -17.714 -21.781  0.00  0.00    -0.199 F 
ATOM     26  C   UNL     1      34.628 -21.012 -19.936  0.00  0.00    +0.184 A 
ATOM     27  C   UNL     1      33.779 -20.063 -20.475  0.00  0.00    +0.191 A 
ATOM     28  C   UNL     1      36.003 -20.880 -20.003  0.00  0.00    +0.191 A 
ATOM     29  C   UNL     1      36.548 -19.760 -20.630  0.00  0.00    +0.198 A 
ATOM     30  C   UNL     1      34.324 -18.942 -21.102  0.00  0.00    +0.198 A 
ATOM     31  C   UNL     1      35.708 -18.791 -21.179  0.00  0.00    +0.199 A 
ENDBRANCH  18  26
ENDBRANCH   1  18
TORSDOF 5
ENDMDL
MODEL 7
REMARK VINA RESULT:     -10.2      3.873      5.646
REMARK  Name = 9812416
REMARK  5 active torsions:
REMARK  status: ('A' for Active; 'I' for Inactive)
REMARK    1  A    between atoms: N_1  and  C_3
REMARK    2  A    between atoms: N_1  and  S_18
REMARK    3  A    between atoms: C_5  and  N_10
REMARK    4  A    between atoms: C_7  and  O_16
REMARK    5  A    between atoms: S_18  and  C_26
REMARK                            x       y       z     vdW  Elec       q    Type
REMARK                         _______ _______ _______ _____ _____    ______ ____
ROOT
ATOM      1  N   UNL     1      32.100 -13.648 -22.547  0.00  0.00    -0.215 N 
ATOM      2  H   UNL     1      31.555 -14.422 -22.276  0.00  0.00    +0.174 HD
ENDROOT
BRANCH   1   3
ATOM      3  C   UNL     1      31.948 -12.388 -21.892  0.00  0.00    +0.066 C 
ATOM      4  C   UNL     1      31.748 -11.230 -22.643  0.00  0.00    +0.034 C 
ATOM      5  C   UNL     1      31.601 -10.000 -22.003  0.00  0.00    +0.087 C 
ATOM      6  C   UNL     1      32.001 -12.315 -20.499  0.00  0.00    +0.019 C 
ATOM      7  C   UNL     1      31.653  -9.927 -20.612  0.00  0.00    +0.152 C 
ATOM      8  C   UNL     1      31.853 -11.085 -19.859  0.00  0.00    +0.039 C 
BRANCH   5  10
ATOM      9  O   UNL     1      33.499  -8.473 -23.770  0.00  0.00    -0.253 OA
ATOM     10  N   UNL     1      31.400  -8.849 -22.769  0.00  0.00    -0.266 N 
ATOM     11  N   UNL     1      31.752  -7.061 -24.188  0.00  0.00    -0.313 N 
ATOM     12  C   UNL     1      32.324  -8.171 -23.581  0.00  0.00    +0.301 C 
ATOM     13  H   UNL     1      30.496  -8.463 -22.735  0.00  0.00    +0.156 HD
ATOM     14  H   UNL     1      32.291  -6.494 -24.786  0.00  0.00    +0.146 HD
ATOM     15  H   UNL     1      30.807  -6.841 -24.021  0.00  0.00    +0.146 HD
ENDBRANCH   5  10
BRANCH   7  16
ATOM     16  O   UNL     1      31.510  -8.734 -19.966  0.00  0.00    -0.470 OA
ATOM     17  C   UNL     1      32.629  -7.851 -19.983  0.00  0.00    +0.253 C 
ENDBRANCH   7  16
ENDBRANCH   1   3
BRANCH   1  18
ATOM     18  S   UNL     1      33.251 -13.787 -23.820  0.00  0.00    +0.078 S 
ATOM     19  O   UNL     1      34.275 -12.768 -23.678  0.00  0.00    -0.150 OA
ATOM     20  O   UNL     1      32.546 -13.929 -25.080  0.00  0.00    -0.150 OA
BRANCH  18  26
ATOM     21  F   UNL     1      33.688 -16.023 -25.727  0.00  0.00    -0.200 F 
ATOM     22  F   UNL     1      34.315 -14.710 -21.205  0.00  0.00    -0.200 F 
ATOM     23  F   UNL     1      35.457 -17.125 -20.670  0.00  0.00    -0.199 F 
ATOM     24  F   UNL     1      34.831 -18.433 -25.178  0.00  0.00    -0.199 F 
ATOM     25  F   UNL     1      35.720 -18.988 -22.653  0.00  0.00    -0.199 F 
ATOM     26  C   UNL     1      33.995 -15.354 -23.469  0.00  0.00    +0.184 A 
ATOM     27  C   UNL     1      34.119 -16.284 -24.485  0.00  0.00    +0.191 A 
ATOM     28  C   UNL     1      34.437 -15.617 -22.185  0.00  0.00    +0.191 A 
ATOM     29  C   UNL     1      35.023 -16.851 -21.907  0.00  0.00    +0.198 A 
ATOM     30  C   UNL     1      34.704 -17.519 -24.208  0.00  0.00    +0.198 A 
ATOM     31  C   UNL     1      35.157 -17.802 -22.919  0.00  0.00    +0.199 A 
ENDBRANCH  18  26
ENDBRANCH   1  18
TORSDOF 5
ENDMDL
MODEL 8
REMARK VINA RESULT:     -10.2      3.885      5.736
REMARK  Name = 9812416
REMARK  5 active torsions:
REMARK  status: ('A' for Active; 'I' for Inactive)
REMARK    1  A    between atoms: N_1  and  C_3
REMARK    2  A    between atoms: N_1  and  S_18
REMARK    3  A    between atoms: C_5  and  N_10
REMARK    4  A    between atoms: C_7  and  O_16
REMARK    5  A    between atoms: S_18  and  C_26
REMARK                            x       y       z     vdW  Elec       q    Type
REMARK                         _______ _______ _______ _____ _____    ______ ____
ROOT
ATOM      1  N   UNL     1      32.108 -13.639 -22.559  0.00  0.00    -0.215 N 
ATOM      2  H   UNL     1      31.564 -14.415 -22.290  0.00  0.00    +0.174 HD
ENDROOT
BRANCH   1   3
ATOM      3  C   UNL     1      31.952 -12.381 -21.902  0.00  0.00    +0.066 C 
ATOM      4  C   UNL     1      31.743 -11.224 -22.653  0.00  0.00    +0.034 C 
ATOM      5  C   UNL     1      31.591  -9.994 -22.012  0.00  0.00    +0.087 C 
ATOM      6  C   UNL     1      32.009 -12.309 -20.510  0.00  0.00    +0.019 C 
ATOM      7  C   UNL     1      31.647  -9.922 -20.620  0.00  0.00    +0.152 C 
ATOM      8  C   UNL     1      31.857 -11.079 -19.869  0.00  0.00    +0.039 C 
BRANCH   5  10
ATOM      9  O   UNL     1      33.482  -8.442 -23.764  0.00  0.00    -0.253 OA
ATOM     10  N   UNL     1      31.382  -8.845 -22.776  0.00  0.00    -0.266 N 
ATOM     11  N   UNL     1      31.721  -7.050 -24.190  0.00  0.00    -0.313 N 
ATOM     12  C   UNL     1      32.303  -8.155 -23.581  0.00  0.00    +0.301 C 
ATOM     13  H   UNL     1      30.473  -8.469 -22.747  0.00  0.00    +0.156 HD
ATOM     14  H   UNL     1      32.257  -6.476 -24.783  0.00  0.00    +0.146 HD
ATOM     15  H   UNL     1      30.773  -6.841 -24.028  0.00  0.00    +0.146 HD
ENDBRANCH   5  10
BRANCH   7  16
ATOM     16  O   UNL     1      31.501  -8.731 -19.974  0.00  0.00    -0.470 OA
ATOM     17  C   UNL     1      32.613  -7.840 -19.996  0.00  0.00    +0.253 C 
ENDBRANCH   7  16
ENDBRANCH   1   3
BRANCH   1  18
ATOM     18  S   UNL     1      33.265 -13.775 -23.828  0.00  0.00    +0.078 S 
ATOM     19  O   UNL     1      34.301 -12.772 -23.665  0.00  0.00    -0.150 OA
ATOM     20  O   UNL     1      32.564 -13.889 -25.093  0.00  0.00    -0.150 OA
BRANCH  18  26
ATOM     21  F   UNL     1      34.326 -14.742 -21.227  0.00  0.00    -0.200 F 
ATOM     22  F   UNL     1      33.658 -15.997 -25.759  0.00  0.00    -0.200 F 
ATOM     23  F   UNL     1      34.772 -18.429 -25.243  0.00  0.00    -0.199 F 
ATOM     24  F   UNL     1      35.437 -17.177 -20.724  0.00  0.00    -0.199 F 
ATOM     25  F   UNL     1      35.660 -19.025 -22.727  0.00  0.00    -0.199 F 
ATOM     26  C   UNL     1      33.986 -15.357 -23.496  0.00  0.00    +0.184 A 
ATOM     27  C   UNL     1      34.430 -15.639 -22.217  0.00  0.00    +0.191 A 
ATOM     28  C   UNL     1      34.092 -16.277 -24.523  0.00  0.00    +0.191 A 
ATOM     29  C   UNL     1      34.660 -17.524 -24.261  0.00  0.00    +0.198 A 
ATOM     30  C   UNL     1      34.999 -16.885 -21.956  0.00  0.00    +0.198 A 
ATOM     31  C   UNL     1      35.114 -17.828 -22.978  0.00  0.00    +0.199 A 
ENDBRANCH  18  26
ENDBRANCH   1  18
TORSDOF 5
ENDMDL
MODEL 9
REMARK VINA RESULT:     -10.1      5.872      9.871
REMARK  Name = 9812416
REMARK  5 active torsions:
REMARK  status: ('A' for Active; 'I' for Inactive)
REMARK    1  A    between atoms: N_1  and  C_3
REMARK    2  A    between atoms: N_1  and  S_18
REMARK    3  A    between atoms: C_5  and  N_10
REMARK    4  A    between atoms: C_7  and  O_16
REMARK    5  A    between atoms: S_18  and  C_26
REMARK                            x       y       z     vdW  Elec       q    Type
REMARK                         _______ _______ _______ _____ _____    ______ ____
ROOT
ATOM      1  N   UNL     1      35.435 -22.455 -17.531  0.00  0.00    -0.215 N 
ATOM      2  H   UNL     1      36.331 -22.104 -17.741  0.00  0.00    +0.174 HD
ENDROOT
BRANCH   1   3
ATOM      3  C   UNL     1      35.151 -22.993 -16.239  0.00  0.00    +0.066 C 
ATOM      4  C   UNL     1      33.919 -23.598 -15.991  0.00  0.00    +0.034 C 
ATOM      5  C   UNL     1      33.641 -24.123 -14.729  0.00  0.00    +0.087 C 
ATOM      6  C   UNL     1      36.105 -22.912 -15.224  0.00  0.00    +0.019 C 
ATOM      7  C   UNL     1      34.595 -24.043 -13.715  0.00  0.00    +0.152 C 
ATOM      8  C   UNL     1      35.827 -23.437 -13.962  0.00  0.00    +0.039 C 
BRANCH   5  10
ATOM      9  O   UNL     1      31.342 -23.260 -12.989  0.00  0.00    -0.253 OA
ATOM     10  N   UNL     1      32.403 -24.727 -14.496  0.00  0.00    -0.266 N 
ATOM     11  N   UNL     1      30.279 -25.155 -13.696  0.00  0.00    -0.313 N 
ATOM     12  C   UNL     1      31.359 -24.282 -13.670  0.00  0.00    +0.301 C 
ATOM     13  H   UNL     1      32.242 -25.574 -14.971  0.00  0.00    +0.156 HD
ATOM     14  H   UNL     1      29.477 -24.963 -13.159  0.00  0.00    +0.146 HD
ATOM     15  H   UNL     1      30.317 -25.968 -14.251  0.00  0.00    +0.146 HD
ENDBRANCH   5  10
BRANCH   7  16
ATOM     16  O   UNL     1      34.343 -24.551 -12.475  0.00  0.00    -0.470 OA
ATOM     17  C   UNL     1      35.365 -24.396 -11.493  0.00  0.00    +0.253 C 
ENDBRANCH   7  16
ENDBRANCH   1   3
BRANCH   1  18
ATOM     18  S   UNL     1      34.184 -22.432 -18.714  0.00  0.00    +0.078 S 
ATOM     19  O   UNL     1      32.914 -22.114 -18.088  0.00  0.00    -0.150 OA
ATOM     20  O   UNL     1      34.301 -23.614 -19.547  0.00  0.00    -0.150 OA
BRANCH  18  26
ATOM     21  F   UNL     1      36.945 -21.613 -19.442  0.00  0.00    -0.200 F 
ATOM     22  F   UNL     1      32.371 -20.464 -20.004  0.00  0.00    -0.200 F 
ATOM     23  F   UNL     1      33.101 -18.337 -21.542  0.00  0.00    -0.199 F 
ATOM     24  F   UNL     1      37.662 -19.484 -20.981  0.00  0.00    -0.199 F 
ATOM     25  F   UNL     1      35.744 -17.844 -22.036  0.00  0.00    -0.199 F 
ATOM     26  C   UNL     1      34.654 -21.050 -19.715  0.00  0.00    +0.184 A 
ATOM     27  C   UNL     1      35.996 -20.816 -19.952  0.00  0.00    +0.191 A 
ATOM     28  C   UNL     1      33.670 -20.231 -20.238  0.00  0.00    +0.191 A 
ATOM     29  C   UNL     1      34.040 -19.142 -21.027  0.00  0.00    +0.198 A 
ATOM     30  C   UNL     1      36.367 -19.727 -20.741  0.00  0.00    +0.198 A 
ATOM     31  C   UNL     1      35.388 -18.890 -21.278  0.00  0.00    +0.199 A 
ENDBRANCH  18  26
ENDBRANCH   1  18
TORSDOF 5
ENDMDL
