MODEL 1
REMARK VINA RESULT:      -5.1      0.000      0.000
REMARK  Name = 3156
REMARK  6 active torsions:
REMARK  status: ('A' for Active; 'I' for Inactive)
REMARK    1  A    between atoms: N_2  and  C_19
REMARK    2  A    between atoms: C_3  and  C_21
REMARK    3  A    between atoms: C_4  and  C_7
REMARK    4  A    between atoms: C_4  and  C_13
REMARK    5  A    between atoms: C_21  and  C_22
REMARK    6  A    between atoms: C_22  and  N_24
REMARK                            x       y       z     vdW  Elec       q    Type
REMARK                         _______ _______ _______ _____ _____    ______ ____
ROOT
ATOM      1  O   UNL     1      34.667 -24.244 -11.822  0.00  0.00    -0.274 OA
ATOM      2  N   UNL     1      36.522 -22.949 -12.402  0.00  0.00    -0.279 N 
ATOM      3  C   UNL     1      36.237 -22.821 -14.691  0.00  0.00    +0.034 C 
ATOM      4  C   UNL     1      35.372 -24.046 -14.196  0.00  0.00    +0.108 C 
ATOM      5  C   UNL     1      37.264 -22.609 -13.586  0.00  0.00    +0.094 C 
ATOM      6  C   UNL     1      35.426 -23.773 -12.660  0.00  0.00    +0.232 C 
ENDROOT
BRANCH   4   7
ATOM      7  C   UNL     1      36.041 -25.399 -14.548  0.00  0.00    -0.011 C 
ATOM      8  C   UNL     1      35.766 -26.019 -15.768  0.00  0.00    -0.004 C 
ATOM      9  C   UNL     1      36.920 -26.000 -13.646  0.00  0.00    -0.004 C 
ATOM     10  C   UNL     1      36.369 -27.235 -16.085  0.00  0.00    -0.000 C 
ATOM     11  C   UNL     1      37.522 -27.217 -13.963  0.00  0.00    -0.000 C 
ATOM     12  C   UNL     1      37.248 -27.836 -15.182  0.00  0.00    -0.000 C 
ENDBRANCH   4   7
BRANCH   4  13
ATOM     13  C   UNL     1      33.891 -24.029 -14.646  0.00  0.00    -0.011 C 
ATOM     14  C   UNL     1      32.946 -24.777 -13.948  0.00  0.00    -0.004 C 
ATOM     15  C   UNL     1      33.510 -23.265 -15.747  0.00  0.00    -0.004 C 
ATOM     16  C   UNL     1      31.612 -24.761 -14.354  0.00  0.00    -0.000 C 
ATOM     17  C   UNL     1      32.176 -23.250 -16.153  0.00  0.00    -0.000 C 
ATOM     18  C   UNL     1      31.227 -23.997 -15.456  0.00  0.00    -0.000 C 
ENDBRANCH   4  13
BRANCH   2  19
ATOM     19  C   UNL     1      36.989 -22.569 -11.086  0.00  0.00    +0.093 C 
ATOM     20  C   UNL     1      36.675 -23.634 -10.056  0.00  0.00    +0.023 C 
ENDBRANCH   2  19
BRANCH   3  21
ATOM     21  C   UNL     1      36.901 -22.913 -16.060  0.00  0.00    -0.020 C 
BRANCH  21  22
ATOM     22  C   UNL     1      37.033 -21.535 -16.691  0.00  0.00    -0.077 C 
BRANCH  22  24
ATOM     23  O   UNL     1      35.281 -20.808 -20.435  0.00  0.00    -0.358 OA
ATOM     24  N   UNL     1      36.725 -21.612 -18.117  0.00  0.00    +0.390 N 
ATOM     25  C   UNL     1      36.988 -20.327 -18.780  0.00  0.00    -0.045 C 
ATOM     26  C   UNL     1      35.326 -22.010 -18.328  0.00  0.00    -0.045 C 
ATOM     27  C   UNL     1      36.647 -20.429 -20.264  0.00  0.00    +0.119 C 
ATOM     28  C   UNL     1      35.025 -22.073 -19.823  0.00  0.00    +0.119 C 
ATOM     29  H   UNL     1      37.330 -22.322 -18.530  0.00  0.00    -0.079 HD
ENDBRANCH  22  24
ENDBRANCH  21  22
ENDBRANCH   3  21
TORSDOF 6
ENDMDL
MODEL 2
REMARK VINA RESULT:      -5.0      2.322      5.883
REMARK  Name = 3156
REMARK  6 active torsions:
REMARK  status: ('A' for Active; 'I' for Inactive)
REMARK    1  A    between atoms: N_2  and  C_19
REMARK    2  A    between atoms: C_3  and  C_21
REMARK    3  A    between atoms: C_4  and  C_7
REMARK    4  A    between atoms: C_4  and  C_13
REMARK    5  A    between atoms: C_21  and  C_22
REMARK    6  A    between atoms: C_22  and  N_24
REMARK                            x       y       z     vdW  Elec       q    Type
REMARK                         _______ _______ _______ _____ _____    ______ ____
ROOT
ATOM      1  O   UNL     1      33.059 -22.440 -13.729  0.00  0.00    -0.274 OA
ATOM      2  N   UNL     1      32.708 -24.314 -15.078  0.00  0.00    -0.279 N 
ATOM      3  C   UNL     1      34.777 -25.331 -14.918  0.00  0.00    +0.034 C 
ATOM      4  C   UNL     1      34.978 -23.826 -14.482  0.00  0.00    +0.108 C 
ATOM      5  C   UNL     1      33.494 -25.321 -15.739  0.00  0.00    +0.094 C 
ATOM      6  C   UNL     1      33.479 -23.415 -14.340  0.00  0.00    +0.232 C 
ENDROOT
BRANCH   4   7
ATOM      7  C   UNL     1      35.683 -22.999 -15.587  0.00  0.00    -0.011 C 
ATOM      8  C   UNL     1      36.989 -22.545 -15.395  0.00  0.00    -0.004 C 
ATOM      9  C   UNL     1      35.014 -22.708 -16.776  0.00  0.00    -0.004 C 
ATOM     10  C   UNL     1      37.624 -21.803 -16.390  0.00  0.00    -0.000 C 
ATOM     11  C   UNL     1      35.649 -21.964 -17.771  0.00  0.00    -0.000 C 
ATOM     12  C   UNL     1      36.954 -21.511 -17.579  0.00  0.00    -0.000 C 
ENDBRANCH   4   7
BRANCH   4  13
ATOM     13  C   UNL     1      35.674 -23.626 -13.113  0.00  0.00    -0.011 C 
ATOM     14  C   UNL     1      36.816 -22.835 -13.026  0.00  0.00    -0.004 C 
ATOM     15  C   UNL     1      35.154 -24.240 -11.976  0.00  0.00    -0.004 C 
ATOM     16  C   UNL     1      37.443 -22.656 -11.793  0.00  0.00    -0.000 C 
ATOM     17  C   UNL     1      35.781 -24.061 -10.744  0.00  0.00    -0.000 C 
ATOM     18  C   UNL     1      36.925 -23.268 -10.652  0.00  0.00    -0.000 C 
ENDBRANCH   4  13
BRANCH   2  19
ATOM     19  C   UNL     1      31.283 -24.204 -15.302  0.00  0.00    +0.093 C 
ATOM     20  C   UNL     1      30.961 -23.114 -16.303  0.00  0.00    +0.023 C 
ENDBRANCH   2  19
BRANCH   3  21
ATOM     21  C   UNL     1      35.911 -26.024 -15.663  0.00  0.00    -0.020 C 
BRANCH  21  22
ATOM     22  C   UNL     1      36.567 -27.081 -14.787  0.00  0.00    -0.077 C 
BRANCH  22  24
ATOM     23  O   UNL     1      39.821 -24.687 -13.648  0.00  0.00    -0.358 OA
ATOM     24  N   UNL     1      37.918 -26.656 -14.426  0.00  0.00    +0.390 N 
ATOM     25  C   UNL     1      37.948 -26.113 -13.061  0.00  0.00    -0.045 C 
ATOM     26  C   UNL     1      38.422 -25.654 -15.377  0.00  0.00    -0.045 C 
ATOM     27  C   UNL     1      39.365 -25.665 -12.712  0.00  0.00    +0.119 C 
ATOM     28  C   UNL     1      39.827 -25.218 -14.973  0.00  0.00    +0.119 C 
ATOM     29  H   UNL     1      38.525 -27.475 -14.465  0.00  0.00    -0.079 HD
ENDBRANCH  22  24
ENDBRANCH  21  22
ENDBRANCH   3  21
TORSDOF 6
ENDMDL
MODEL 3
REMARK VINA RESULT:      -4.9      2.103      5.159
REMARK  Name = 3156
REMARK  6 active torsions:
REMARK  status: ('A' for Active; 'I' for Inactive)
REMARK    1  A    between atoms: N_2  and  C_19
REMARK    2  A    between atoms: C_3  and  C_21
REMARK    3  A    between atoms: C_4  and  C_7
REMARK    4  A    between atoms: C_4  and  C_13
REMARK    5  A    between atoms: C_21  and  C_22
REMARK    6  A    between atoms: C_22  and  N_24
REMARK                            x       y       z     vdW  Elec       q    Type
REMARK                         _______ _______ _______ _____ _____    ______ ____
ROOT
ATOM      1  O   UNL     1      34.639 -21.542 -15.293  0.00  0.00    -0.274 OA
ATOM      2  N   UNL     1      36.338 -22.916 -16.117  0.00  0.00    -0.279 N 
ATOM      3  C   UNL     1      35.583 -24.979 -15.403  0.00  0.00    +0.034 C 
ATOM      4  C   UNL     1      34.834 -23.897 -14.529  0.00  0.00    +0.108 C 
ATOM      5  C   UNL     1      36.818 -24.258 -15.926  0.00  0.00    +0.094 C 
ATOM      6  C   UNL     1      35.208 -22.625 -15.351  0.00  0.00    +0.232 C 
ENDROOT
BRANCH   4   7
ATOM      7  C   UNL     1      35.410 -23.825 -13.092  0.00  0.00    -0.011 C 
ATOM      8  C   UNL     1      34.832 -24.578 -12.068  0.00  0.00    -0.004 C 
ATOM      9  C   UNL     1      36.507 -23.007 -12.818  0.00  0.00    -0.004 C 
ATOM     10  C   UNL     1      35.350 -24.513 -10.775  0.00  0.00    -0.000 C 
ATOM     11  C   UNL     1      37.025 -22.942 -11.525  0.00  0.00    -0.000 C 
ATOM     12  C   UNL     1      36.448 -23.695 -10.503  0.00  0.00    -0.000 C 
ENDBRANCH   4   7
BRANCH   4  13
ATOM     13  C   UNL     1      33.292 -24.028 -14.501  0.00  0.00    -0.011 C 
ATOM     14  C   UNL     1      32.688 -24.908 -13.607  0.00  0.00    -0.004 C 
ATOM     15  C   UNL     1      32.517 -23.266 -15.371  0.00  0.00    -0.004 C 
ATOM     16  C   UNL     1      31.298 -25.026 -13.583  0.00  0.00    -0.000 C 
ATOM     17  C   UNL     1      31.128 -23.384 -15.347  0.00  0.00    -0.000 C 
ATOM     18  C   UNL     1      30.518 -24.263 -14.452  0.00  0.00    -0.000 C 
ENDBRANCH   4  13
BRANCH   2  19
ATOM     19  C   UNL     1      37.070 -21.962 -16.921  0.00  0.00    +0.093 C 
ATOM     20  C   UNL     1      36.435 -21.780 -18.284  0.00  0.00    +0.023 C 
ENDBRANCH   2  19
BRANCH   3  21
ATOM     21  C   UNL     1      35.947 -26.308 -14.750  0.00  0.00    -0.020 C 
BRANCH  21  22
ATOM     22  C   UNL     1      37.199 -26.897 -15.383  0.00  0.00    -0.077 C 
BRANCH  22  24
ATOM     23  O   UNL     1      40.079 -24.810 -13.155  0.00  0.00    -0.358 OA
ATOM     24  N   UNL     1      38.361 -26.602 -14.548  0.00  0.00    +0.390 N 
ATOM     25  C   UNL     1      37.952 -25.968 -13.287  0.00  0.00    -0.045 C 
ATOM     26  C   UNL     1      39.311 -25.735 -15.261  0.00  0.00    -0.045 C 
ATOM     27  C   UNL     1      39.182 -25.659 -12.438  0.00  0.00    +0.119 C 
ATOM     28  C   UNL     1      40.509 -25.432 -14.366  0.00  0.00    +0.119 C 
ATOM     29  H   UNL     1      38.825 -27.484 -14.334  0.00  0.00    -0.079 HD
ENDBRANCH  22  24
ENDBRANCH  21  22
ENDBRANCH   3  21
TORSDOF 6
ENDMDL
MODEL 4
REMARK VINA RESULT:      -4.9      2.294      5.453
REMARK  Name = 3156
REMARK  6 active torsions:
REMARK  status: ('A' for Active; 'I' for Inactive)
REMARK    1  A    between atoms: N_2  and  C_19
REMARK    2  A    between atoms: C_3  and  C_21
REMARK    3  A    between atoms: C_4  and  C_7
REMARK    4  A    between atoms: C_4  and  C_13
REMARK    5  A    between atoms: C_21  and  C_22
REMARK    6  A    between atoms: C_22  and  N_24
REMARK                            x       y       z     vdW  Elec       q    Type
REMARK                         _______ _______ _______ _____ _____    ______ ____
ROOT
ATOM      1  O   UNL     1      37.942 -22.310 -15.061  0.00  0.00    -0.274 OA
ATOM      2  N   UNL     1      36.060 -22.423 -16.440  0.00  0.00    -0.279 N 
ATOM      3  C   UNL     1      34.625 -23.622 -15.084  0.00  0.00    +0.034 C 
ATOM      4  C   UNL     1      36.083 -23.871 -14.530  0.00  0.00    +0.108 C 
ATOM      5  C   UNL     1      34.836 -23.172 -16.524  0.00  0.00    +0.094 C 
ATOM      6  C   UNL     1      36.836 -22.764 -15.331  0.00  0.00    +0.232 C 
ENDROOT
BRANCH   4   7
ATOM      7  C   UNL     1      36.603 -25.283 -14.902  0.00  0.00    -0.011 C 
ATOM      8  C   UNL     1      37.807 -25.748 -14.369  0.00  0.00    -0.004 C 
ATOM      9  C   UNL     1      35.869 -26.092 -15.770  0.00  0.00    -0.004 C 
ATOM     10  C   UNL     1      38.274 -27.018 -14.703  0.00  0.00    -0.000 C 
ATOM     11  C   UNL     1      36.336 -27.363 -16.104  0.00  0.00    -0.000 C 
ATOM     12  C   UNL     1      37.539 -27.827 -15.571  0.00  0.00    -0.000 C 
ENDBRANCH   4   7
BRANCH   4  13
ATOM     13  C   UNL     1      36.268 -23.595 -13.018  0.00  0.00    -0.011 C 
ATOM     14  C   UNL     1      37.317 -22.788 -12.585  0.00  0.00    -0.004 C 
ATOM     15  C   UNL     1      35.385 -24.156 -12.099  0.00  0.00    -0.004 C 
ATOM     16  C   UNL     1      37.483 -22.539 -11.223  0.00  0.00    -0.000 C 
ATOM     17  C   UNL     1      35.552 -23.907 -10.737  0.00  0.00    -0.000 C 
ATOM     18  C   UNL     1      36.601 -23.098 -10.299  0.00  0.00    -0.000 C 
ENDBRANCH   4  13
BRANCH   2  19
ATOM     19  C   UNL     1      36.466 -21.523 -17.499  0.00  0.00    +0.093 C 
ATOM     20  C   UNL     1      35.725 -21.811 -18.788  0.00  0.00    +0.023 C 
ENDBRANCH   2  19
BRANCH   3  21
ATOM     21  C   UNL     1      33.615 -24.761 -14.996  0.00  0.00    -0.020 C 
BRANCH  21  22
ATOM     22  C   UNL     1      32.407 -24.350 -14.167  0.00  0.00    -0.077 C 
BRANCH  22  24
ATOM     23  O   UNL     1      28.571 -23.429 -15.600  0.00  0.00    -0.358 OA
ATOM     24  N   UNL     1      31.220 -24.294 -15.017  0.00  0.00    +0.390 N 
ATOM     25  C   UNL     1      30.936 -22.913 -15.429  0.00  0.00    -0.045 C 
ATOM     26  C   UNL     1      30.055 -24.863 -14.324  0.00  0.00    -0.045 C 
ATOM     27  C   UNL     1      29.686 -22.879 -16.304  0.00  0.00    +0.119 C 
ATOM     28  C   UNL     1      28.826 -24.783 -15.225  0.00  0.00    +0.119 C 
ATOM     29  H   UNL     1      31.406 -24.852 -15.851  0.00  0.00    -0.079 HD
ENDBRANCH  22  24
ENDBRANCH  21  22
ENDBRANCH   3  21
TORSDOF 6
ENDMDL
MODEL 5
REMARK VINA RESULT:      -4.8     13.769     18.540
REMARK  Name = 3156
REMARK  6 active torsions:
REMARK  status: ('A' for Active; 'I' for Inactive)
REMARK    1  A    between atoms: N_2  and  C_19
REMARK    2  A    between atoms: C_3  and  C_21
REMARK    3  A    between atoms: C_4  and  C_7
REMARK    4  A    between atoms: C_4  and  C_13
REMARK    5  A    between atoms: C_21  and  C_22
REMARK    6  A    between atoms: C_22  and  N_24
REMARK                            x       y       z     vdW  Elec       q    Type
REMARK                         _______ _______ _______ _____ _____    ______ ____
ROOT
ATOM      1  O   UNL     1      35.092  -6.889 -24.283  0.00  0.00    -0.274 OA
ATOM      2  N   UNL     1      34.271  -9.071 -24.143  0.00  0.00    -0.279 N 
ATOM      3  C   UNL     1      32.001  -8.653 -24.041  0.00  0.00    +0.034 C 
ATOM      4  C   UNL     1      32.726  -7.306 -23.647  0.00  0.00    +0.108 C 
ATOM      5  C   UNL     1      33.045  -9.734 -23.792  0.00  0.00    +0.094 C 
ATOM      6  C   UNL     1      34.178  -7.680 -24.082  0.00  0.00    +0.232 C 
ENDROOT
BRANCH   4   7
ATOM      7  C   UNL     1      32.650  -7.040 -22.122  0.00  0.00    -0.011 C 
ATOM      8  C   UNL     1      32.030  -5.883 -21.645  0.00  0.00    -0.004 C 
ATOM      9  C   UNL     1      33.199  -7.955 -21.224  0.00  0.00    -0.004 C 
ATOM     10  C   UNL     1      31.959  -5.644 -20.273  0.00  0.00    -0.000 C 
ATOM     11  C   UNL     1      33.129  -7.716 -19.852  0.00  0.00    -0.000 C 
ATOM     12  C   UNL     1      32.510  -6.561 -19.375  0.00  0.00    -0.000 C 
ENDBRANCH   4   7
BRANCH   4  13
ATOM     13  C   UNL     1      32.279  -6.060 -24.449  0.00  0.00    -0.011 C 
ATOM     14  C   UNL     1      31.082  -5.425 -24.131  0.00  0.00    -0.004 C 
ATOM     15  C   UNL     1      33.076  -5.582 -25.487  0.00  0.00    -0.004 C 
ATOM     16  C   UNL     1      30.680  -4.302 -24.855  0.00  0.00    -0.000 C 
ATOM     17  C   UNL     1      32.673  -4.460 -26.210  0.00  0.00    -0.000 C 
ATOM     18  C   UNL     1      31.475  -3.820 -25.894  0.00  0.00    -0.000 C 
ENDBRANCH   4  13
BRANCH   2  19
ATOM     19  C   UNL     1      35.487  -9.817 -24.388  0.00  0.00    +0.093 C 
ATOM     20  C   UNL     1      35.567 -10.293 -25.823  0.00  0.00    +0.023 C 
ENDBRANCH   2  19
BRANCH   3  21
ATOM     21  C   UNL     1      30.678  -8.986 -23.361  0.00  0.00    -0.020 C 
BRANCH  21  22
ATOM     22  C   UNL     1      30.548 -10.485 -23.136  0.00  0.00    -0.077 C 
BRANCH  22  24
ATOM     23  O   UNL     1      31.834 -12.446 -19.655  0.00  0.00    -0.358 OA
ATOM     24  N   UNL     1      31.358 -10.886 -21.988  0.00  0.00    +0.390 N 
ATOM     25  C   UNL     1      31.722 -12.307 -22.075  0.00  0.00    -0.045 C 
ATOM     26  C   UNL     1      30.645 -10.625 -20.729  0.00  0.00    -0.045 C 
ATOM     27  C   UNL     1      32.557 -12.703 -20.860  0.00  0.00    +0.119 C 
ATOM     28  C   UNL     1      31.506 -11.061 -19.547  0.00  0.00    +0.119 C 
ATOM     29  H   UNL     1      32.213 -10.329 -21.999  0.00  0.00    -0.079 HD
ENDBRANCH  22  24
ENDBRANCH  21  22
ENDBRANCH   3  21
TORSDOF 6
ENDMDL
MODEL 6
REMARK VINA RESULT:      -4.0     10.302     15.092
REMARK  Name = 3156
REMARK  6 active torsions:
REMARK  status: ('A' for Active; 'I' for Inactive)
REMARK    1  A    between atoms: N_2  and  C_19
REMARK    2  A    between atoms: C_3  and  C_21
REMARK    3  A    between atoms: C_4  and  C_7
REMARK    4  A    between atoms: C_4  and  C_13
REMARK    5  A    between atoms: C_21  and  C_22
REMARK    6  A    between atoms: C_22  and  N_24
REMARK                            x       y       z     vdW  Elec       q    Type
REMARK                         _______ _______ _______ _____ _____    ______ ____
ROOT
ATOM      1  O   UNL     1      35.277 -14.792 -23.403  0.00  0.00    -0.274 OA
ATOM      2  N   UNL     1      34.014 -13.949 -21.628  0.00  0.00    -0.279 N 
ATOM      3  C   UNL     1      32.219 -13.064 -22.781  0.00  0.00    +0.034 C 
ATOM      4  C   UNL     1      33.389 -13.233 -23.828  0.00  0.00    +0.108 C 
ATOM      5  C   UNL     1      32.919 -13.040 -21.428  0.00  0.00    +0.094 C 
ATOM      6  C   UNL     1      34.351 -14.114 -22.972  0.00  0.00    +0.232 C 
ENDROOT
BRANCH   4   7
ATOM      7  C   UNL     1      34.041 -11.873 -24.183  0.00  0.00    -0.011 C 
ATOM      8  C   UNL     1      34.685 -11.705 -25.410  0.00  0.00    -0.004 C 
ATOM      9  C   UNL     1      33.984 -10.813 -23.277  0.00  0.00    -0.004 C 
ATOM     10  C   UNL     1      35.270 -10.480 -25.729  0.00  0.00    -0.000 C 
ATOM     11  C   UNL     1      34.570  -9.589 -23.596  0.00  0.00    -0.000 C 
ATOM     12  C   UNL     1      35.214  -9.421 -24.822  0.00  0.00    -0.000 C 
ENDBRANCH   4   7
BRANCH   4  13
ATOM     13  C   UNL     1      33.015 -14.018 -25.109  0.00  0.00    -0.011 C 
ATOM     14  C   UNL     1      33.199 -15.397 -25.155  0.00  0.00    -0.004 C 
ATOM     15  C   UNL     1      32.498 -13.340 -26.210  0.00  0.00    -0.004 C 
ATOM     16  C   UNL     1      32.863 -16.104 -26.309  0.00  0.00    -0.000 C 
ATOM     17  C   UNL     1      32.162 -14.046 -27.365  0.00  0.00    -0.000 C 
ATOM     18  C   UNL     1      32.344 -15.429 -27.414  0.00  0.00    -0.000 C 
ENDBRANCH   4  13
BRANCH   2  19
ATOM     19  C   UNL     1      34.750 -14.499 -20.509  0.00  0.00    +0.093 C 
ATOM     20  C   UNL     1      34.533 -15.992 -20.382  0.00  0.00    +0.023 C 
ENDBRANCH   2  19
BRANCH   3  21
ATOM     21  C   UNL     1      31.272 -11.881 -22.941  0.00  0.00    -0.020 C 
BRANCH  21  22
ATOM     22  C   UNL     1      30.791 -11.385 -21.585  0.00  0.00    -0.077 C 
BRANCH  22  24
ATOM     23  O   UNL     1      32.403  -7.519 -21.852  0.00  0.00    -0.358 OA
ATOM     24  N   UNL     1      30.933  -9.932 -21.511  0.00  0.00    +0.390 N 
ATOM     25  C   UNL     1      31.175  -9.361 -22.843  0.00  0.00    -0.045 C 
ATOM     26  C   UNL     1      32.023  -9.561 -20.598  0.00  0.00    -0.045 C 
ATOM     27  C   UNL     1      31.332  -7.847 -22.737  0.00  0.00    +0.119 C 
ATOM     28  C   UNL     1      32.159  -8.041 -20.545  0.00  0.00    +0.119 C 
ATOM     29  H   UNL     1      30.060  -9.551 -21.147  0.00  0.00    -0.079 HD
ENDBRANCH  22  24
ENDBRANCH  21  22
ENDBRANCH   3  21
TORSDOF 6
ENDMDL
MODEL 7
REMARK VINA RESULT:      -3.5      2.493      5.519
REMARK  Name = 3156
REMARK  6 active torsions:
REMARK  status: ('A' for Active; 'I' for Inactive)
REMARK    1  A    between atoms: N_2  and  C_19
REMARK    2  A    between atoms: C_3  and  C_21
REMARK    3  A    between atoms: C_4  and  C_7
REMARK    4  A    between atoms: C_4  and  C_13
REMARK    5  A    between atoms: C_21  and  C_22
REMARK    6  A    between atoms: C_22  and  N_24
REMARK                            x       y       z     vdW  Elec       q    Type
REMARK                         _______ _______ _______ _____ _____    ______ ____
ROOT
ATOM      1  O   UNL     1      39.511 -24.159 -15.193  0.00  0.00    -0.274 OA
ATOM      2  N   UNL     1      38.454 -26.211 -14.836  0.00  0.00    -0.279 N 
ATOM      3  C   UNL     1      36.244 -25.588 -15.096  0.00  0.00    +0.034 C 
ATOM      4  C   UNL     1      37.057 -24.262 -14.818  0.00  0.00    +0.108 C 
ATOM      5  C   UNL     1      37.132 -26.700 -14.553  0.00  0.00    +0.094 C 
ATOM      6  C   UNL     1      38.501 -24.825 -14.997  0.00  0.00    +0.232 C 
ENDROOT
BRANCH   4   7
ATOM      7  C   UNL     1      36.832 -23.746 -13.374  0.00  0.00    -0.011 C 
ATOM      8  C   UNL     1      35.609 -23.962 -12.736  0.00  0.00    -0.004 C 
ATOM      9  C   UNL     1      37.852 -23.066 -12.708  0.00  0.00    -0.004 C 
ATOM     10  C   UNL     1      35.408 -23.499 -11.436  0.00  0.00    -0.000 C 
ATOM     11  C   UNL     1      37.651 -22.602 -11.408  0.00  0.00    -0.000 C 
ATOM     12  C   UNL     1      36.429 -22.818 -10.772  0.00  0.00    -0.000 C 
ENDBRANCH   4   7
BRANCH   4  13
ATOM     13  C   UNL     1      36.840 -23.129 -15.850  0.00  0.00    -0.011 C 
ATOM     14  C   UNL     1      35.736 -23.167 -16.698  0.00  0.00    -0.004 C 
ATOM     15  C   UNL     1      37.750 -22.079 -15.926  0.00  0.00    -0.004 C 
ATOM     16  C   UNL     1      35.541 -22.147 -17.628  0.00  0.00    -0.000 C 
ATOM     17  C   UNL     1      37.556 -21.058 -16.857  0.00  0.00    -0.000 C 
ATOM     18  C   UNL     1      36.450 -21.092 -17.707  0.00  0.00    -0.000 C 
ENDBRANCH   4  13
BRANCH   2  19
ATOM     19  C   UNL     1      39.604 -27.088 -14.805  0.00  0.00    +0.093 C 
ATOM     20  C   UNL     1      40.787 -26.429 -14.126  0.00  0.00    +0.023 C 
ENDBRANCH   2  19
BRANCH   3  21
ATOM     21  C   UNL     1      34.824 -25.691 -14.553  0.00  0.00    -0.020 C 
BRANCH  21  22
ATOM     22  C   UNL     1      33.831 -25.042 -15.506  0.00  0.00    -0.077 C 
BRANCH  22  24
ATOM     23  O   UNL     1      30.168 -23.534 -14.118  0.00  0.00    -0.358 OA
ATOM     24  N   UNL     1      32.843 -24.279 -14.746  0.00  0.00    +0.390 N 
ATOM     25  C   UNL     1      31.950 -25.176 -14.000  0.00  0.00    -0.045 C 
ATOM     26  C   UNL     1      32.057 -23.412 -15.636  0.00  0.00    -0.045 C 
ATOM     27  C   UNL     1      30.920 -24.358 -13.226  0.00  0.00    +0.119 C 
ATOM     28  C   UNL     1      31.025 -22.635 -14.823  0.00  0.00    +0.119 C 
ATOM     29  H   UNL     1      33.345 -23.691 -14.081  0.00  0.00    -0.079 HD
ENDBRANCH  22  24
ENDBRANCH  21  22
ENDBRANCH   3  21
TORSDOF 6
ENDMDL
MODEL 8
REMARK VINA RESULT:      -3.3      9.273     14.576
REMARK  Name = 3156
REMARK  6 active torsions:
REMARK  status: ('A' for Active; 'I' for Inactive)
REMARK    1  A    between atoms: N_2  and  C_19
REMARK    2  A    between atoms: C_3  and  C_21
REMARK    3  A    between atoms: C_4  and  C_7
REMARK    4  A    between atoms: C_4  and  C_13
REMARK    5  A    between atoms: C_21  and  C_22
REMARK    6  A    between atoms: C_22  and  N_24
REMARK                            x       y       z     vdW  Elec       q    Type
REMARK                         _______ _______ _______ _____ _____    ______ ____
ROOT
ATOM      1  O   UNL     1      31.352 -10.573 -23.600  0.00  0.00    -0.274 OA
ATOM      2  N   UNL     1      31.729 -12.189 -21.956  0.00  0.00    -0.279 N 
ATOM      3  C   UNL     1      33.899 -12.795 -22.463  0.00  0.00    +0.034 C 
ATOM      4  C   UNL     1      33.317 -12.085 -23.748  0.00  0.00    +0.108 C 
ATOM      5  C   UNL     1      32.669 -13.242 -21.684  0.00  0.00    +0.094 C 
ATOM      6  C   UNL     1      32.023 -11.480 -23.122  0.00  0.00    +0.232 C 
ENDROOT
BRANCH   4   7
ATOM      7  C   UNL     1      32.976 -13.108 -24.861  0.00  0.00    -0.011 C 
ATOM      8  C   UNL     1      32.641 -12.662 -26.141  0.00  0.00    -0.004 C 
ATOM      9  C   UNL     1      33.003 -14.476 -24.587  0.00  0.00    -0.004 C 
ATOM     10  C   UNL     1      32.334 -13.583 -27.143  0.00  0.00    -0.000 C 
ATOM     11  C   UNL     1      32.695 -15.396 -25.588  0.00  0.00    -0.000 C 
ATOM     12  C   UNL     1      32.361 -14.951 -26.867  0.00  0.00    -0.000 C 
ENDBRANCH   4   7
BRANCH   4  13
ATOM     13  C   UNL     1      34.180 -10.928 -24.307  0.00  0.00    -0.011 C 
ATOM     14  C   UNL     1      34.184  -9.694 -23.662  0.00  0.00    -0.004 C 
ATOM     15  C   UNL     1      34.947 -11.126 -25.453  0.00  0.00    -0.004 C 
ATOM     16  C   UNL     1      34.961  -8.651 -24.166  0.00  0.00    -0.000 C 
ATOM     17  C   UNL     1      35.723 -10.083 -25.957  0.00  0.00    -0.000 C 
ATOM     18  C   UNL     1      35.731  -8.846 -25.313  0.00  0.00    -0.000 C 
ENDBRANCH   4  13
BRANCH   2  19
ATOM     19  C   UNL     1      30.538 -12.016 -21.152  0.00  0.00    +0.093 C 
ATOM     20  C   UNL     1      30.737 -10.960 -20.085  0.00  0.00    +0.023 C 
ENDBRANCH   2  19
BRANCH   3  21
ATOM     21  C   UNL     1      34.885 -13.942 -22.655  0.00  0.00    -0.020 C 
BRANCH  21  22
ATOM     22  C   UNL     1      34.797 -14.931 -21.502  0.00  0.00    -0.077 C 
BRANCH  22  24
ATOM     23  O   UNL     1      35.379 -18.905 -22.722  0.00  0.00    -0.358 OA
ATOM     24  N   UNL     1      34.547 -16.274 -22.021  0.00  0.00    +0.390 N 
ATOM     25  C   UNL     1      34.827 -17.291 -20.997  0.00  0.00    -0.045 C 
ATOM     26  C   UNL     1      35.359 -16.530 -23.220  0.00  0.00    -0.045 C 
ATOM     27  C   UNL     1      34.571 -18.684 -21.566  0.00  0.00    +0.119 C 
ATOM     28  C   UNL     1      35.090 -17.941 -23.735  0.00  0.00    +0.119 C 
ATOM     29  H   UNL     1      33.562 -16.332 -22.277  0.00  0.00    -0.079 HD
ENDBRANCH  22  24
ENDBRANCH  21  22
ENDBRANCH   3  21
TORSDOF 6
ENDMDL
MODEL 9
REMARK VINA RESULT:      -3.0     10.973     15.505
REMARK  Name = 3156
REMARK  6 active torsions:
REMARK  status: ('A' for Active; 'I' for Inactive)
REMARK    1  A    between atoms: N_2  and  C_19
REMARK    2  A    between atoms: C_3  and  C_21
REMARK    3  A    between atoms: C_4  and  C_7
REMARK    4  A    between atoms: C_4  and  C_13
REMARK    5  A    between atoms: C_21  and  C_22
REMARK    6  A    between atoms: C_22  and  N_24
REMARK                            x       y       z     vdW  Elec       q    Type
REMARK                         _______ _______ _______ _____ _____    ______ ____
ROOT
ATOM      1  O   UNL     1      32.189 -14.590 -24.885  0.00  0.00    -0.274 OA
ATOM      2  N   UNL     1      33.086 -12.663 -25.855  0.00  0.00    -0.279 N 
ATOM      3  C   UNL     1      34.461 -11.942 -24.144  0.00  0.00    +0.034 C 
ATOM      4  C   UNL     1      33.418 -12.937 -23.496  0.00  0.00    +0.108 C 
ATOM      5  C   UNL     1      33.799 -11.487 -25.438  0.00  0.00    +0.094 C 
ATOM      6  C   UNL     1      32.823 -13.545 -24.804  0.00  0.00    +0.232 C 
ENDROOT
BRANCH   4   7
ATOM      7  C   UNL     1      32.334 -12.182 -22.685  0.00  0.00    -0.011 C 
ATOM      8  C   UNL     1      31.742 -11.033 -23.211  0.00  0.00    -0.004 C 
ATOM      9  C   UNL     1      31.948 -12.651 -21.429  0.00  0.00    -0.004 C 
ATOM     10  C   UNL     1      30.765 -10.354 -22.483  0.00  0.00    -0.000 C 
ATOM     11  C   UNL     1      30.972 -11.972 -20.700  0.00  0.00    -0.000 C 
ATOM     12  C   UNL     1      30.380 -10.824 -21.225  0.00  0.00    -0.000 C 
ENDBRANCH   4   7
BRANCH   4  13
ATOM     13  C   UNL     1      34.037 -14.083 -22.660  0.00  0.00    -0.011 C 
ATOM     14  C   UNL     1      34.581 -15.192 -23.301  0.00  0.00    -0.004 C 
ATOM     15  C   UNL     1      34.044 -14.000 -21.270  0.00  0.00    -0.004 C 
ATOM     16  C   UNL     1      35.138 -16.225 -22.547  0.00  0.00    -0.000 C 
ATOM     17  C   UNL     1      34.600 -15.033 -20.516  0.00  0.00    -0.000 C 
ATOM     18  C   UNL     1      35.148 -16.145 -21.154  0.00  0.00    -0.000 C 
ENDBRANCH   4  13
BRANCH   2  19
ATOM     19  C   UNL     1      32.590 -12.805 -27.207  0.00  0.00    +0.093 C 
ATOM     20  C   UNL     1      33.376 -13.841 -27.982  0.00  0.00    +0.023 C 
ENDBRANCH   2  19
BRANCH   3  21
ATOM     21  C   UNL     1      34.938 -10.756 -23.313  0.00  0.00    -0.020 C 
BRANCH  21  22
ATOM     22  C   UNL     1      35.068  -9.509 -24.176  0.00  0.00    -0.077 C 
BRANCH  22  24
ATOM     23  O   UNL     1      32.941  -6.128 -22.889  0.00  0.00    -0.358 OA
ATOM     24  N   UNL     1      33.973  -8.587 -23.882  0.00  0.00    +0.390 N 
ATOM     25  C   UNL     1      34.133  -7.331 -24.626  0.00  0.00    -0.045 C 
ATOM     26  C   UNL     1      33.894  -8.313 -22.440  0.00  0.00    -0.045 C 
ATOM     27  C   UNL     1      32.985  -6.381 -24.294  0.00  0.00    +0.119 C 
ATOM     28  C   UNL     1      32.752  -7.341 -22.160  0.00  0.00    +0.119 C 
ATOM     29  H   UNL     1      33.103  -9.032 -24.176  0.00  0.00    -0.079 HD
ENDBRANCH  22  24
ENDBRANCH  21  22
ENDBRANCH   3  21
TORSDOF 6
ENDMDL
