MODEL 1
REMARK VINA RESULT:     -10.3      0.000      0.000
REMARK  Name = 5496862
REMARK  11 active torsions:
REMARK  status: ('A' for Active; 'I' for Inactive)
REMARK    1  A    between atoms: C_1  and  C_20
REMARK    2  A    between atoms: C_2  and  O_18
REMARK    3  A    between atoms: C_8  and  C_10
REMARK    4  A    between atoms: C_13  and  O_16
REMARK    5  A    between atoms: C_20  and  C_22
REMARK    6  A    between atoms: C_20  and  C_25
REMARK    7  A    between atoms: C_22  and  O_23
REMARK    8  A    between atoms: C_25  and  C_26
REMARK    9  A    between atoms: C_26  and  C_27
REMARK   10  A    between atoms: C_27  and  C_28
REMARK   11  A    between atoms: C_28  and  C_31
REMARK                            x       y       z     vdW  Elec       q    Type
REMARK                         _______ _______ _______ _____ _____    ______ ____
ROOT
ATOM      1  C   UNL     1      34.968 -24.437 -14.991  0.00  0.00    +0.060 C 
ATOM      2  C   UNL     1      36.505 -24.277 -14.929  0.00  0.00    +0.119 C 
ATOM      3  C   UNL     1      34.644 -23.632 -16.221  0.00  0.00    -0.023 C 
ATOM      4  C   UNL     1      36.859 -22.952 -15.628  0.00  0.00    +0.056 C 
ATOM      5  C   UNL     1      35.713 -22.804 -16.581  0.00  0.00    -0.024 C 
ATOM      6  C   UNL     1      33.466 -23.633 -16.952  0.00  0.00    -0.004 C 
ATOM      7  C   UNL     1      35.622 -21.953 -17.670  0.00  0.00    -0.004 C 
ATOM      8  C   UNL     1      34.440 -21.951 -18.414  0.00  0.00    -0.000 C 
ATOM      9  C   UNL     1      33.370 -22.787 -18.058  0.00  0.00    -0.000 C 
ENDROOT
BRANCH   8  10
ATOM     10  C   UNL     1      34.315 -21.077 -19.561  0.00  0.00    +0.003 C 
ATOM     11  C   UNL     1      35.452 -20.487 -20.116  0.00  0.00    +0.037 C 
ATOM     12  C   UNL     1      33.059 -20.827 -20.113  0.00  0.00    +0.000 C 
ATOM     13  C   UNL     1      35.330 -19.647 -21.222  0.00  0.00    +0.139 C 
ATOM     14  C   UNL     1      32.939 -19.986 -21.220  0.00  0.00    +0.003 C 
ATOM     15  C   UNL     1      34.074 -19.396 -21.774  0.00  0.00    +0.037 C 
BRANCH  13  16
ATOM     16  O   UNL     1      36.438 -19.071 -21.765  0.00  0.00    -0.471 OA
ATOM     17  C   UNL     1      36.233 -18.145 -22.831  0.00  0.00    +0.252 C 
ENDBRANCH  13  16
ENDBRANCH   8  10
BRANCH   2  18
ATOM     18  O   UNL     1      37.122 -25.343 -15.657  0.00  0.00    -0.384 OA
ATOM     19  H   UNL     1      38.050 -25.424 -15.388  0.00  0.00    +0.210 HD
ENDBRANCH   2  18
BRANCH   1  20
ATOM     20  C   UNL     1      34.279 -23.863 -13.758  0.00  0.00    +0.105 C 
BRANCH  20  22
ATOM     21  O   UNL     1      36.009 -23.272 -12.146  0.00  0.00    -0.250 OA
ATOM     22  C   UNL     1      35.140 -24.049 -12.519  0.00  0.00    +0.314 C 
BRANCH  22  23
ATOM     23  O   UNL     1      34.838 -25.191 -11.849  0.00  0.00    -0.480 OA
ATOM     24  H   UNL     1      35.105 -26.021 -12.193  0.00  0.00    +0.295 HD
ENDBRANCH  22  23
ENDBRANCH  20  22
BRANCH  20  25
ATOM     25  C   UNL     1      32.867 -24.435 -13.545  0.00  0.00    +0.012 C 
BRANCH  25  26
ATOM     26  C   UNL     1      31.738 -23.399 -13.618  0.00  0.00    +0.001 C 
BRANCH  26  27
ATOM     27  C   UNL     1      30.649 -23.841 -14.601  0.00  0.00    +0.008 C 
BRANCH  27  28
ATOM     28  C   UNL     1      30.330 -22.773 -15.647  0.00  0.00    +0.060 C 
BRANCH  28  31
ATOM     29  N   UNL     1      28.627 -24.380 -16.437  0.00  0.00    -0.346 N 
ATOM     30  N   UNL     1      28.424 -22.087 -16.961  0.00  0.00    -0.289 NA
ATOM     31  C   UNL     1      29.048 -23.076 -16.400  0.00  0.00    +0.093 C 
ATOM     32  H   UNL     1      27.799 -24.616 -16.916  0.00  0.00    +0.143 HD
ATOM     33  H   UNL     1      29.149 -25.079 -15.984  0.00  0.00    +0.143 HD
ATOM     34  H   UNL     1      27.589 -22.250 -17.457  0.00  0.00    +0.188 HD
ENDBRANCH  28  31
ENDBRANCH  27  28
ENDBRANCH  26  27
ENDBRANCH  25  26
ENDBRANCH  20  25
ENDBRANCH   1  20
TORSDOF 11
ENDMDL
MODEL 2
REMARK VINA RESULT:     -10.1      1.427      2.117
REMARK  Name = 5496862
REMARK  11 active torsions:
REMARK  status: ('A' for Active; 'I' for Inactive)
REMARK    1  A    between atoms: C_1  and  C_20
REMARK    2  A    between atoms: C_2  and  O_18
REMARK    3  A    between atoms: C_8  and  C_10
REMARK    4  A    between atoms: C_13  and  O_16
REMARK    5  A    between atoms: C_20  and  C_22
REMARK    6  A    between atoms: C_20  and  C_25
REMARK    7  A    between atoms: C_22  and  O_23
REMARK    8  A    between atoms: C_25  and  C_26
REMARK    9  A    between atoms: C_26  and  C_27
REMARK   10  A    between atoms: C_27  and  C_28
REMARK   11  A    between atoms: C_28  and  C_31
REMARK                            x       y       z     vdW  Elec       q    Type
REMARK                         _______ _______ _______ _____ _____    ______ ____
ROOT
ATOM      1  C   UNL     1      34.289 -24.077 -15.929  0.00  0.00    +0.060 C 
ATOM      2  C   UNL     1      35.683 -24.028 -15.261  0.00  0.00    +0.119 C 
ATOM      3  C   UNL     1      34.518 -23.204 -17.134  0.00  0.00    -0.023 C 
ATOM      4  C   UNL     1      36.349 -22.706 -15.679  0.00  0.00    +0.056 C 
ATOM      5  C   UNL     1      35.682 -22.441 -16.994  0.00  0.00    -0.024 C 
ATOM      6  C   UNL     1      33.726 -23.093 -18.267  0.00  0.00    -0.004 C 
ATOM      7  C   UNL     1      36.071 -21.543 -17.975  0.00  0.00    -0.004 C 
ATOM      8  C   UNL     1      35.282 -21.429 -19.120  0.00  0.00    -0.000 C 
ATOM      9  C   UNL     1      34.117 -22.199 -19.266  0.00  0.00    -0.000 C 
ENDROOT
BRANCH   8  10
ATOM     10  C   UNL     1      35.663 -20.505 -20.166  0.00  0.00    +0.003 C 
ATOM     11  C   UNL     1      34.725 -20.101 -21.118  0.00  0.00    +0.037 C 
ATOM     12  C   UNL     1      36.968 -20.016 -20.223  0.00  0.00    +0.000 C 
ATOM     13  C   UNL     1      35.094 -19.209 -22.124  0.00  0.00    +0.139 C 
ATOM     14  C   UNL     1      37.336 -19.123 -21.230  0.00  0.00    +0.003 C 
ATOM     15  C   UNL     1      36.399 -18.720 -22.181  0.00  0.00    +0.037 C 
BRANCH  13  16
ATOM     16  O   UNL     1      34.180 -18.815 -23.052  0.00  0.00    -0.471 OA
ATOM     17  C   UNL     1      34.568 -18.896 -24.423  0.00  0.00    +0.252 C 
ENDBRANCH  13  16
ENDBRANCH   8  10
BRANCH   2  18
ATOM     18  O   UNL     1      36.483 -25.106 -15.755  0.00  0.00    -0.384 OA
ATOM     19  H   UNL     1      36.022 -25.543 -16.487  0.00  0.00    +0.210 HD
ENDBRANCH   2  18
BRANCH   1  20
ATOM     20  C   UNL     1      33.199 -23.504 -15.031  0.00  0.00    +0.105 C 
BRANCH  20  22
ATOM     21  O   UNL     1      33.542 -23.892 -12.649  0.00  0.00    -0.250 OA
ATOM     22  C   UNL     1      33.108 -24.279 -13.727  0.00  0.00    +0.314 C 
BRANCH  22  23
ATOM     23  O   UNL     1      32.476 -25.472 -13.879  0.00  0.00    -0.480 OA
ATOM     24  H   UNL     1      31.674 -25.518 -14.360  0.00  0.00    +0.295 HD
ENDBRANCH  22  23
ENDBRANCH  20  22
BRANCH  20  25
ATOM     25  C   UNL     1      31.831 -23.428 -15.730  0.00  0.00    +0.012 C 
BRANCH  25  26
ATOM     26  C   UNL     1      30.729 -22.743 -14.911  0.00  0.00    +0.001 C 
BRANCH  26  27
ATOM     27  C   UNL     1      29.357 -23.350 -15.218  0.00  0.00    +0.008 C 
BRANCH  27  28
ATOM     28  C   UNL     1      28.327 -22.300 -15.635  0.00  0.00    +0.060 C 
BRANCH  28  31
ATOM     29  N   UNL     1      26.743 -21.767 -17.455  0.00  0.00    -0.346 N 
ATOM     30  N   UNL     1      27.845 -23.854 -17.419  0.00  0.00    -0.289 NA
ATOM     31  C   UNL     1      27.604 -22.684 -16.912  0.00  0.00    +0.093 C 
ATOM     32  H   UNL     1      26.255 -21.981 -18.283  0.00  0.00    +0.143 HD
ATOM     33  H   UNL     1      26.612 -20.896 -17.018  0.00  0.00    +0.143 HD
ATOM     34  H   UNL     1      27.393 -24.134 -18.248  0.00  0.00    +0.188 HD
ENDBRANCH  28  31
ENDBRANCH  27  28
ENDBRANCH  26  27
ENDBRANCH  25  26
ENDBRANCH  20  25
ENDBRANCH   1  20
TORSDOF 11
ENDMDL
MODEL 3
REMARK VINA RESULT:     -10.0      5.648     11.036
REMARK  Name = 5496862
REMARK  11 active torsions:
REMARK  status: ('A' for Active; 'I' for Inactive)
REMARK    1  A    between atoms: C_1  and  C_20
REMARK    2  A    between atoms: C_2  and  O_18
REMARK    3  A    between atoms: C_8  and  C_10
REMARK    4  A    between atoms: C_13  and  O_16
REMARK    5  A    between atoms: C_20  and  C_22
REMARK    6  A    between atoms: C_20  and  C_25
REMARK    7  A    between atoms: C_22  and  O_23
REMARK    8  A    between atoms: C_25  and  C_26
REMARK    9  A    between atoms: C_26  and  C_27
REMARK   10  A    between atoms: C_27  and  C_28
REMARK   11  A    between atoms: C_28  and  C_31
REMARK                            x       y       z     vdW  Elec       q    Type
REMARK                         _______ _______ _______ _____ _____    ______ ____
ROOT
ATOM      1  C   UNL     1      34.590 -15.662 -24.206  0.00  0.00    +0.060 C 
ATOM      2  C   UNL     1      34.419 -16.552 -25.459  0.00  0.00    +0.119 C 
ATOM      3  C   UNL     1      34.762 -16.705 -23.134  0.00  0.00    -0.023 C 
ATOM      4  C   UNL     1      33.847 -17.902 -24.992  0.00  0.00    +0.056 C 
ATOM      5  C   UNL     1      34.351 -17.965 -23.582  0.00  0.00    -0.024 C 
ATOM      6  C   UNL     1      35.238 -16.528 -21.844  0.00  0.00    -0.004 C 
ATOM      7  C   UNL     1      34.395 -19.070 -22.747  0.00  0.00    -0.004 C 
ATOM      8  C   UNL     1      34.877 -18.901 -21.448  0.00  0.00    -0.000 C 
ATOM      9  C   UNL     1      35.297 -17.638 -20.999  0.00  0.00    -0.000 C 
ENDROOT
BRANCH   8  10
ATOM     10  C   UNL     1      34.942 -20.036 -20.553  0.00  0.00    +0.003 C 
ATOM     11  C   UNL     1      33.765 -20.628 -20.091  0.00  0.00    +0.037 C 
ATOM     12  C   UNL     1      36.179 -20.539 -20.152  0.00  0.00    +0.000 C 
ATOM     13  C   UNL     1      33.829 -21.723 -19.230  0.00  0.00    +0.139 C 
ATOM     14  C   UNL     1      36.241 -21.634 -19.291  0.00  0.00    +0.003 C 
ATOM     15  C   UNL     1      35.067 -22.226 -18.829  0.00  0.00    +0.037 C 
BRANCH  13  16
ATOM     16  O   UNL     1      32.682 -22.302 -18.780  0.00  0.00    -0.471 OA
ATOM     17  C   UNL     1      32.750 -22.997 -17.536  0.00  0.00    +0.252 C 
ENDBRANCH  13  16
ENDBRANCH   8  10
BRANCH   2  18
ATOM     18  O   UNL     1      35.701 -16.792 -26.049  0.00  0.00    -0.384 OA
ATOM     19  H   UNL     1      36.009 -17.678 -25.804  0.00  0.00    +0.210 HD
ENDBRANCH   2  18
BRANCH   1  20
ATOM     20  C   UNL     1      33.364 -14.796 -23.943  0.00  0.00    +0.105 C 
BRANCH  20  22
ATOM     21  O   UNL     1      33.472 -12.784 -25.315  0.00  0.00    -0.250 OA
ATOM     22  C   UNL     1      33.050 -13.920 -25.145  0.00  0.00    +0.314 C 
BRANCH  22  23
ATOM     23  O   UNL     1      32.237 -14.544 -26.037  0.00  0.00    -0.480 OA
ATOM     24  H   UNL     1      32.352 -14.399 -26.956  0.00  0.00    +0.295 HD
ENDBRANCH  22  23
ENDBRANCH  20  22
BRANCH  20  25
ATOM     25  C   UNL     1      33.493 -13.955 -22.661  0.00  0.00    +0.012 C 
BRANCH  25  26
ATOM     26  C   UNL     1      32.284 -14.030 -21.720  0.00  0.00    +0.001 C 
BRANCH  26  27
ATOM     27  C   UNL     1      32.074 -12.701 -20.988  0.00  0.00    +0.008 C 
BRANCH  27  28
ATOM     28  C   UNL     1      31.258 -11.700 -21.806  0.00  0.00    +0.060 C 
BRANCH  28  31
ATOM     29  N   UNL     1      32.796 -10.474 -23.302  0.00  0.00    -0.346 N 
ATOM     30  N   UNL     1      31.991  -9.448 -21.335  0.00  0.00    -0.289 NA
ATOM     31  C   UNL     1      32.057 -10.456 -22.149  0.00  0.00    +0.093 C 
ATOM     32  H   UNL     1      33.328  -9.686 -23.558  0.00  0.00    +0.143 HD
ATOM     33  H   UNL     1      32.795 -11.274 -23.875  0.00  0.00    +0.143 HD
ATOM     34  H   UNL     1      32.497  -8.626 -21.528  0.00  0.00    +0.188 HD
ENDBRANCH  28  31
ENDBRANCH  27  28
ENDBRANCH  26  27
ENDBRANCH  25  26
ENDBRANCH  20  25
ENDBRANCH   1  20
TORSDOF 11
ENDMDL
MODEL 4
REMARK VINA RESULT:      -9.5      9.199     14.067
REMARK  Name = 5496862
REMARK  11 active torsions:
REMARK  status: ('A' for Active; 'I' for Inactive)
REMARK    1  A    between atoms: C_1  and  C_20
REMARK    2  A    between atoms: C_2  and  O_18
REMARK    3  A    between atoms: C_8  and  C_10
REMARK    4  A    between atoms: C_13  and  O_16
REMARK    5  A    between atoms: C_20  and  C_22
REMARK    6  A    between atoms: C_20  and  C_25
REMARK    7  A    between atoms: C_22  and  O_23
REMARK    8  A    between atoms: C_25  and  C_26
REMARK    9  A    between atoms: C_26  and  C_27
REMARK   10  A    between atoms: C_27  and  C_28
REMARK   11  A    between atoms: C_28  and  C_31
REMARK                            x       y       z     vdW  Elec       q    Type
REMARK                         _______ _______ _______ _____ _____    ______ ____
ROOT
ATOM      1  C   UNL     1      31.784 -10.668 -22.278  0.00  0.00    +0.060 C 
ATOM      2  C   UNL     1      31.071 -11.026 -20.953  0.00  0.00    +0.119 C 
ATOM      3  C   UNL     1      32.464 -11.972 -22.600  0.00  0.00    -0.023 C 
ATOM      4  C   UNL     1      31.872 -12.160 -20.290  0.00  0.00    +0.056 C 
ATOM      5  C   UNL     1      32.504 -12.812 -21.482  0.00  0.00    -0.024 C 
ATOM      6  C   UNL     1      33.021 -12.366 -23.807  0.00  0.00    -0.004 C 
ATOM      7  C   UNL     1      33.112 -14.056 -21.544  0.00  0.00    -0.004 C 
ATOM      8  C   UNL     1      33.671 -14.462 -22.757  0.00  0.00    -0.000 C 
ATOM      9  C   UNL     1      33.625 -13.622 -23.882  0.00  0.00    -0.000 C 
ENDROOT
BRANCH   8  10
ATOM     10  C   UNL     1      34.308 -15.757 -22.856  0.00  0.00    +0.003 C 
ATOM     11  C   UNL     1      34.750 -16.408 -21.703  0.00  0.00    +0.037 C 
ATOM     12  C   UNL     1      34.479 -16.356 -24.104  0.00  0.00    +0.000 C 
ATOM     13  C   UNL     1      35.362 -17.657 -21.800  0.00  0.00    +0.139 C 
ATOM     14  C   UNL     1      35.091 -17.606 -24.200  0.00  0.00    +0.003 C 
ATOM     15  C   UNL     1      35.533 -18.257 -23.048  0.00  0.00    +0.037 C 
BRANCH  13  16
ATOM     16  O   UNL     1      35.792 -18.293 -20.676  0.00  0.00    -0.471 OA
ATOM     17  C   UNL     1      35.867 -19.717 -20.724  0.00  0.00    +0.252 C 
ENDBRANCH  13  16
ENDBRANCH   8  10
BRANCH   2  18
ATOM     18  O   UNL     1      29.758 -11.516 -21.239  0.00  0.00    -0.384 OA
ATOM     19  H   UNL     1      29.124 -10.782 -21.207  0.00  0.00    +0.210 HD
ENDBRANCH   2  18
BRANCH   1  20
ATOM     20  C   UNL     1      32.799  -9.545 -22.102  0.00  0.00    +0.105 C 
BRANCH  20  22
ATOM     21  O   UNL     1      31.431  -7.688 -21.312  0.00  0.00    -0.250 OA
ATOM     22  C   UNL     1      32.304  -8.519 -21.095  0.00  0.00    +0.314 C 
BRANCH  22  23
ATOM     23  O   UNL     1      32.940  -8.622 -19.900  0.00  0.00    -0.480 OA
ATOM     24  H   UNL     1      32.660  -9.261 -19.274  0.00  0.00    +0.295 HD
ENDBRANCH  22  23
ENDBRANCH  20  22
BRANCH  20  25
ATOM     25  C   UNL     1      33.185  -8.877 -23.433  0.00  0.00    +0.012 C 
BRANCH  25  26
ATOM     26  C   UNL     1      34.100  -7.653 -23.295  0.00  0.00    +0.001 C 
BRANCH  26  27
ATOM     27  C   UNL     1      33.615  -6.502 -24.181  0.00  0.00    +0.008 C 
BRANCH  27  28
ATOM     28  C   UNL     1      32.094  -6.474 -24.332  0.00  0.00    +0.060 C 
BRANCH  28  31
ATOM     29  N   UNL     1      30.693  -4.450 -24.545  0.00  0.00    -0.346 N 
ATOM     30  N   UNL     1      31.736  -4.956 -22.489  0.00  0.00    -0.289 NA
ATOM     31  C   UNL     1      31.483  -5.222 -23.733  0.00  0.00    +0.093 C 
ATOM     32  H   UNL     1      30.279  -3.629 -24.192  0.00  0.00    +0.143 HD
ATOM     33  H   UNL     1      30.540  -4.716 -25.480  0.00  0.00    +0.143 HD
ATOM     34  H   UNL     1      31.355  -4.151 -22.070  0.00  0.00    +0.188 HD
ENDBRANCH  28  31
ENDBRANCH  27  28
ENDBRANCH  26  27
ENDBRANCH  25  26
ENDBRANCH  20  25
ENDBRANCH   1  20
TORSDOF 11
ENDMDL
MODEL 5
REMARK VINA RESULT:      -9.4      8.494     13.152
REMARK  Name = 5496862
REMARK  11 active torsions:
REMARK  status: ('A' for Active; 'I' for Inactive)
REMARK    1  A    between atoms: C_1  and  C_20
REMARK    2  A    between atoms: C_2  and  O_18
REMARK    3  A    between atoms: C_8  and  C_10
REMARK    4  A    between atoms: C_13  and  O_16
REMARK    5  A    between atoms: C_20  and  C_22
REMARK    6  A    between atoms: C_20  and  C_25
REMARK    7  A    between atoms: C_22  and  O_23
REMARK    8  A    between atoms: C_25  and  C_26
REMARK    9  A    between atoms: C_26  and  C_27
REMARK   10  A    between atoms: C_27  and  C_28
REMARK   11  A    between atoms: C_28  and  C_31
REMARK                            x       y       z     vdW  Elec       q    Type
REMARK                         _______ _______ _______ _____ _____    ______ ____
ROOT
ATOM      1  C   UNL     1      32.989 -13.847 -24.275  0.00  0.00    +0.060 C 
ATOM      2  C   UNL     1      33.649 -13.317 -25.570  0.00  0.00    +0.119 C 
ATOM      3  C   UNL     1      32.640 -12.557 -23.582  0.00  0.00    -0.023 C 
ATOM      4  C   UNL     1      34.226 -11.925 -25.257  0.00  0.00    +0.056 C 
ATOM      5  C   UNL     1      33.331 -11.477 -24.142  0.00  0.00    -0.024 C 
ATOM      6  C   UNL     1      31.775 -12.372 -22.514  0.00  0.00    -0.004 C 
ATOM      7  C   UNL     1      33.182 -10.195 -23.639  0.00  0.00    -0.004 C 
ATOM      8  C   UNL     1      32.310 -10.000 -22.566  0.00  0.00    -0.000 C 
ATOM      9  C   UNL     1      31.611 -11.082 -22.008  0.00  0.00    -0.000 C 
ENDROOT
BRANCH   8  10
ATOM     10  C   UNL     1      32.129  -8.672 -22.021  0.00  0.00    +0.003 C 
ATOM     11  C   UNL     1      31.521  -7.679 -22.790  0.00  0.00    +0.037 C 
ATOM     12  C   UNL     1      32.558  -8.385 -20.725  0.00  0.00    +0.000 C 
ATOM     13  C   UNL     1      31.345  -6.400 -22.263  0.00  0.00    +0.139 C 
ATOM     14  C   UNL     1      32.382  -7.106 -20.199  0.00  0.00    +0.003 C 
ATOM     15  C   UNL     1      31.775  -6.113 -20.967  0.00  0.00    +0.037 C 
BRANCH  13  16
ATOM     16  O   UNL     1      30.753  -5.430 -23.012  0.00  0.00    -0.471 OA
ATOM     17  C   UNL     1      31.309  -5.174 -24.301  0.00  0.00    +0.252 C 
ENDBRANCH  13  16
ENDBRANCH   8  10
BRANCH   2  18
ATOM     18  O   UNL     1      32.651 -13.168 -26.584  0.00  0.00    -0.384 OA
ATOM     19  H   UNL     1      32.576 -13.992 -27.089  0.00  0.00    +0.210 HD
ENDBRANCH   2  18
BRANCH   1  20
ATOM     20  C   UNL     1      33.950 -14.681 -23.437  0.00  0.00    +0.105 C 
BRANCH  20  22
ATOM     21  O   UNL     1      33.883 -16.436 -25.129  0.00  0.00    -0.250 OA
ATOM     22  C   UNL     1      34.491 -15.854 -24.239  0.00  0.00    +0.314 C 
BRANCH  22  23
ATOM     23  O   UNL     1      35.750 -16.198 -23.864  0.00  0.00    -0.480 OA
ATOM     24  H   UNL     1      35.963 -17.097 -23.707  0.00  0.00    +0.295 HD
ENDBRANCH  22  23
ENDBRANCH  20  22
BRANCH  20  25
ATOM     25  C   UNL     1      33.329 -15.153 -22.112  0.00  0.00    +0.012 C 
BRANCH  25  26
ATOM     26  C   UNL     1      34.234 -14.986 -20.884  0.00  0.00    +0.001 C 
BRANCH  26  27
ATOM     27  C   UNL     1      34.850 -16.325 -20.468  0.00  0.00    +0.008 C 
BRANCH  27  28
ATOM     28  C   UNL     1      34.111 -17.524 -21.062  0.00  0.00    +0.060 C 
BRANCH  28  31
ATOM     29  N   UNL     1      34.911 -19.113 -22.777  0.00  0.00    -0.346 N 
ATOM     30  N   UNL     1      35.965 -19.019 -20.667  0.00  0.00    -0.289 NA
ATOM     31  C   UNL     1      35.062 -18.618 -21.508  0.00  0.00    +0.093 C 
ATOM     32  H   UNL     1      35.510 -19.824 -23.102  0.00  0.00    +0.143 HD
ATOM     33  H   UNL     1      34.205 -18.758 -23.363  0.00  0.00    +0.143 HD
ATOM     34  H   UNL     1      36.599 -19.727 -20.926  0.00  0.00    +0.188 HD
ENDBRANCH  28  31
ENDBRANCH  27  28
ENDBRANCH  26  27
ENDBRANCH  25  26
ENDBRANCH  20  25
ENDBRANCH   1  20
TORSDOF 11
ENDMDL
MODEL 6
REMARK VINA RESULT:      -9.0      7.384     12.429
REMARK  Name = 5496862
REMARK  11 active torsions:
REMARK  status: ('A' for Active; 'I' for Inactive)
REMARK    1  A    between atoms: C_1  and  C_20
REMARK    2  A    between atoms: C_2  and  O_18
REMARK    3  A    between atoms: C_8  and  C_10
REMARK    4  A    between atoms: C_13  and  O_16
REMARK    5  A    between atoms: C_20  and  C_22
REMARK    6  A    between atoms: C_20  and  C_25
REMARK    7  A    between atoms: C_22  and  O_23
REMARK    8  A    between atoms: C_25  and  C_26
REMARK    9  A    between atoms: C_26  and  C_27
REMARK   10  A    between atoms: C_27  and  C_28
REMARK   11  A    between atoms: C_28  and  C_31
REMARK                            x       y       z     vdW  Elec       q    Type
REMARK                         _______ _______ _______ _____ _____    ______ ____
ROOT
ATOM      1  C   UNL     1      33.375 -15.219 -24.688  0.00  0.00    +0.060 C 
ATOM      2  C   UNL     1      33.369 -15.063 -26.227  0.00  0.00    +0.119 C 
ATOM      3  C   UNL     1      33.313 -13.779 -24.254  0.00  0.00    -0.023 C 
ATOM      4  C   UNL     1      33.963 -13.681 -26.553  0.00  0.00    +0.056 C 
ATOM      5  C   UNL     1      33.636 -12.917 -25.307  0.00  0.00    -0.024 C 
ATOM      6  C   UNL     1      33.004 -13.282 -22.997  0.00  0.00    -0.004 C 
ATOM      7  C   UNL     1      33.669 -11.544 -25.123  0.00  0.00    -0.004 C 
ATOM      8  C   UNL     1      33.355 -11.036 -23.861  0.00  0.00    -0.000 C 
ATOM      9  C   UNL     1      33.024 -11.900 -22.805  0.00  0.00    -0.000 C 
ENDROOT
BRANCH   8  10
ATOM     10  C   UNL     1      33.376  -9.607 -23.637  0.00  0.00    +0.003 C 
ATOM     11  C   UNL     1      32.249  -8.965 -23.121  0.00  0.00    +0.037 C 
ATOM     12  C   UNL     1      34.522  -8.870 -23.935  0.00  0.00    +0.000 C 
ATOM     13  C   UNL     1      32.270  -7.588 -22.904  0.00  0.00    +0.139 C 
ATOM     14  C   UNL     1      34.542  -7.493 -23.717  0.00  0.00    +0.003 C 
ATOM     15  C   UNL     1      33.417  -6.851 -23.202  0.00  0.00    +0.037 C 
BRANCH  13  16
ATOM     16  O   UNL     1      31.172  -6.961 -22.400  0.00  0.00    -0.471 OA
ATOM     17  C   UNL     1      30.973  -5.598 -22.772  0.00  0.00    +0.252 C 
ENDBRANCH  13  16
ENDBRANCH   8  10
BRANCH   2  18
ATOM     18  O   UNL     1      32.020 -15.091 -26.701  0.00  0.00    -0.384 OA
ATOM     19  H   UNL     1      31.422 -15.292 -25.965  0.00  0.00    +0.210 HD
ENDBRANCH   2  18
BRANCH   1  20
ATOM     20  C   UNL     1      34.644 -15.894 -24.182  0.00  0.00    +0.105 C 
BRANCH  20  22
ATOM     21  O   UNL     1      33.951 -17.846 -25.467  0.00  0.00    -0.250 OA
ATOM     22  C   UNL     1      34.727 -17.330 -24.673  0.00  0.00    +0.314 C 
BRANCH  22  23
ATOM     23  O   UNL     1      35.778 -18.000 -24.132  0.00  0.00    -0.480 OA
ATOM     24  H   UNL     1      36.627 -17.602 -24.113  0.00  0.00    +0.295 HD
ENDBRANCH  22  23
ENDBRANCH  20  22
BRANCH  20  25
ATOM     25  C   UNL     1      34.788 -15.820 -22.652  0.00  0.00    +0.012 C 
BRANCH  25  26
ATOM     26  C   UNL     1      33.763 -16.651 -21.870  0.00  0.00    +0.001 C 
BRANCH  26  27
ATOM     27  C   UNL     1      34.440 -17.821 -21.148  0.00  0.00    +0.008 C 
BRANCH  27  28
ATOM     28  C   UNL     1      33.812 -19.171 -21.496  0.00  0.00    +0.060 C 
BRANCH  28  31
ATOM     29  N   UNL     1      32.906 -20.823 -19.898  0.00  0.00    -0.346 N 
ATOM     30  N   UNL     1      35.230 -20.424 -19.996  0.00  0.00    -0.289 NA
ATOM     31  C   UNL     1      34.018 -20.196 -20.397  0.00  0.00    +0.093 C 
ATOM     32  H   UNL     1      32.999 -21.495 -19.184  0.00  0.00    +0.143 HD
ATOM     33  H   UNL     1      32.016 -20.604 -20.254  0.00  0.00    +0.143 HD
ATOM     34  H   UNL     1      35.398 -21.083 -19.285  0.00  0.00    +0.188 HD
ENDBRANCH  28  31
ENDBRANCH  27  28
ENDBRANCH  26  27
ENDBRANCH  25  26
ENDBRANCH  20  25
ENDBRANCH   1  20
TORSDOF 11
ENDMDL
MODEL 7
REMARK VINA RESULT:      -8.6      2.427      4.033
REMARK  Name = 5496862
REMARK  11 active torsions:
REMARK  status: ('A' for Active; 'I' for Inactive)
REMARK    1  A    between atoms: C_1  and  C_20
REMARK    2  A    between atoms: C_2  and  O_18
REMARK    3  A    between atoms: C_8  and  C_10
REMARK    4  A    between atoms: C_13  and  O_16
REMARK    5  A    between atoms: C_20  and  C_22
REMARK    6  A    between atoms: C_20  and  C_25
REMARK    7  A    between atoms: C_22  and  O_23
REMARK    8  A    between atoms: C_25  and  C_26
REMARK    9  A    between atoms: C_26  and  C_27
REMARK   10  A    between atoms: C_27  and  C_28
REMARK   11  A    between atoms: C_28  and  C_31
REMARK                            x       y       z     vdW  Elec       q    Type
REMARK                         _______ _______ _______ _____ _____    ______ ____
ROOT
ATOM      1  C   UNL     1      33.269 -22.724 -18.821  0.00  0.00    +0.060 C 
ATOM      2  C   UNL     1      34.615 -23.393 -19.184  0.00  0.00    +0.119 C 
ATOM      3  C   UNL     1      33.373 -21.434 -19.590  0.00  0.00    -0.023 C 
ATOM      4  C   UNL     1      35.612 -22.271 -19.521  0.00  0.00    +0.056 C 
ATOM      5  C   UNL     1      34.691 -21.187 -19.990  0.00  0.00    -0.024 C 
ATOM      6  C   UNL     1      32.358 -20.540 -19.894  0.00  0.00    -0.004 C 
ATOM      7  C   UNL     1      35.023 -20.036 -20.688  0.00  0.00    -0.004 C 
ATOM      8  C   UNL     1      34.005 -19.134 -21.001  0.00  0.00    -0.000 C 
ATOM      9  C   UNL     1      32.680 -19.384 -20.607  0.00  0.00    -0.000 C 
ENDROOT
BRANCH   8  10
ATOM     10  C   UNL     1      34.317 -17.926 -21.734  0.00  0.00    +0.003 C 
ATOM     11  C   UNL     1      34.067 -16.678 -21.163  0.00  0.00    +0.037 C 
ATOM     12  C   UNL     1      34.870 -18.009 -23.012  0.00  0.00    +0.000 C 
ATOM     13  C   UNL     1      34.369 -15.515 -21.870  0.00  0.00    +0.139 C 
ATOM     14  C   UNL     1      35.172 -16.845 -23.719  0.00  0.00    +0.003 C 
ATOM     15  C   UNL     1      34.922 -15.598 -23.148  0.00  0.00    +0.037 C 
BRANCH  13  16
ATOM     16  O   UNL     1      34.126 -14.297 -21.312  0.00  0.00    -0.471 OA
ATOM     17  C   UNL     1      32.800 -14.047 -20.850  0.00  0.00    +0.252 C 
ENDBRANCH  13  16
ENDBRANCH   8  10
BRANCH   2  18
ATOM     18  O   UNL     1      34.443 -24.202 -20.352  0.00  0.00    -0.384 OA
ATOM     19  H   UNL     1      35.015 -24.982 -20.292  0.00  0.00    +0.210 HD
ENDBRANCH   2  18
BRANCH   1  20
ATOM     20  C   UNL     1      33.138 -22.465 -17.325  0.00  0.00    +0.105 C 
BRANCH  20  22
ATOM     21  O   UNL     1      34.266 -24.435 -16.437  0.00  0.00    -0.250 OA
ATOM     22  C   UNL     1      34.207 -23.218 -16.549  0.00  0.00    +0.314 C 
BRANCH  22  23
ATOM     23  O   UNL     1      35.116 -22.382 -15.982  0.00  0.00    -0.480 OA
ATOM     24  H   UNL     1      35.985 -22.685 -15.806  0.00  0.00    +0.295 HD
ENDBRANCH  22  23
ENDBRANCH  20  22
BRANCH  20  25
ATOM     25  C   UNL     1      31.733 -22.783 -16.787  0.00  0.00    +0.012 C 
BRANCH  25  26
ATOM     26  C   UNL     1      31.615 -22.778 -15.257  0.00  0.00    +0.001 C 
BRANCH  26  27
ATOM     27  C   UNL     1      30.192 -23.128 -14.813  0.00  0.00    +0.008 C 
BRANCH  27  28
ATOM     28  C   UNL     1      29.483 -24.066 -15.790  0.00  0.00    +0.060 C 
BRANCH  28  31
ATOM     29  N   UNL     1      27.675 -22.385 -15.708  0.00  0.00    -0.346 N 
ATOM     30  N   UNL     1      27.770 -23.933 -17.486  0.00  0.00    -0.289 NA
ATOM     31  C   UNL     1      28.234 -23.440 -16.380  0.00  0.00    +0.093 C 
ATOM     32  H   UNL     1      26.863 -21.952 -16.059  0.00  0.00    +0.143 HD
ATOM     33  H   UNL     1      28.084 -22.059 -14.875  0.00  0.00    +0.143 HD
ATOM     34  H   UNL     1      26.961 -23.550 -17.895  0.00  0.00    +0.188 HD
ENDBRANCH  28  31
ENDBRANCH  27  28
ENDBRANCH  26  27
ENDBRANCH  25  26
ENDBRANCH  20  25
ENDBRANCH   1  20
TORSDOF 11
ENDMDL
MODEL 8
REMARK VINA RESULT:      -8.6      4.453      9.743
REMARK  Name = 5496862
REMARK  11 active torsions:
REMARK  status: ('A' for Active; 'I' for Inactive)
REMARK    1  A    between atoms: C_1  and  C_20
REMARK    2  A    between atoms: C_2  and  O_18
REMARK    3  A    between atoms: C_8  and  C_10
REMARK    4  A    between atoms: C_13  and  O_16
REMARK    5  A    between atoms: C_20  and  C_22
REMARK    6  A    between atoms: C_20  and  C_25
REMARK    7  A    between atoms: C_22  and  O_23
REMARK    8  A    between atoms: C_25  and  C_26
REMARK    9  A    between atoms: C_26  and  C_27
REMARK   10  A    between atoms: C_27  and  C_28
REMARK   11  A    between atoms: C_28  and  C_31
REMARK                            x       y       z     vdW  Elec       q    Type
REMARK                         _______ _______ _______ _____ _____    ______ ____
ROOT
ATOM      1  C   UNL     1      35.711 -18.192 -22.950  0.00  0.00    +0.060 C 
ATOM      2  C   UNL     1      34.462 -18.822 -23.610  0.00  0.00    +0.119 C 
ATOM      3  C   UNL     1      35.861 -19.061 -21.731  0.00  0.00    -0.023 C 
ATOM      4  C   UNL     1      33.633 -19.480 -22.493  0.00  0.00    +0.056 C 
ATOM      5  C   UNL     1      34.693 -19.791 -21.481  0.00  0.00    -0.024 C 
ATOM      6  C   UNL     1      36.962 -19.175 -20.896  0.00  0.00    -0.004 C 
ATOM      7  C   UNL     1      34.598 -20.637 -20.388  0.00  0.00    -0.004 C 
ATOM      8  C   UNL     1      35.705 -20.759 -19.546  0.00  0.00    -0.000 C 
ATOM      9  C   UNL     1      36.880 -20.033 -19.799  0.00  0.00    -0.000 C 
ENDROOT
BRANCH   8  10
ATOM     10  C   UNL     1      35.640 -21.639 -18.399  0.00  0.00    +0.003 C 
ATOM     11  C   UNL     1      36.740 -21.758 -17.548  0.00  0.00    +0.037 C 
ATOM     12  C   UNL     1      34.478 -22.366 -18.142  0.00  0.00    +0.000 C 
ATOM     13  C   UNL     1      36.675 -22.605 -16.442  0.00  0.00    +0.139 C 
ATOM     14  C   UNL     1      34.415 -23.213 -17.035  0.00  0.00    +0.003 C 
ATOM     15  C   UNL     1      35.513 -23.332 -16.185  0.00  0.00    +0.037 C 
BRANCH  13  16
ATOM     16  O   UNL     1      37.747 -22.721 -15.611  0.00  0.00    -0.471 OA
ATOM     17  C   UNL     1      37.948 -23.986 -14.982  0.00  0.00    +0.252 C 
ENDBRANCH  13  16
ENDBRANCH   8  10
BRANCH   2  18
ATOM     18  O   UNL     1      34.872 -19.845 -24.522  0.00  0.00    -0.384 OA
ATOM     19  H   UNL     1      34.425 -19.718 -25.374  0.00  0.00    +0.210 HD
ENDBRANCH   2  18
BRANCH   1  20
ATOM     20  C   UNL     1      35.487 -16.735 -22.565  0.00  0.00    +0.105 C 
BRANCH  20  22
ATOM     21  O   UNL     1      35.298 -16.547 -20.142  0.00  0.00    -0.250 OA
ATOM     22  C   UNL     1      34.756 -16.630 -21.237  0.00  0.00    +0.314 C 
BRANCH  22  23
ATOM     23  O   UNL     1      33.406 -16.634 -21.390  0.00  0.00    -0.480 OA
ATOM     24  H   UNL     1      33.009 -17.200 -22.022  0.00  0.00    +0.295 HD
ENDBRANCH  22  23
ENDBRANCH  20  22
BRANCH  20  25
ATOM     25  C   UNL     1      34.766 -15.933 -23.662  0.00  0.00    +0.012 C 
BRANCH  25  26
ATOM     26  C   UNL     1      34.413 -14.491 -23.276  0.00  0.00    +0.001 C 
BRANCH  26  27
ATOM     27  C   UNL     1      33.144 -14.023 -23.995  0.00  0.00    +0.008 C 
BRANCH  27  28
ATOM     28  C   UNL     1      33.445 -13.175 -25.231  0.00  0.00    +0.060 C 
BRANCH  28  31
ATOM     29  N   UNL     1      32.460 -15.086 -26.449  0.00  0.00    -0.346 N 
ATOM     30  N   UNL     1      33.710 -13.458 -27.614  0.00  0.00    -0.289 NA
ATOM     31  C   UNL     1      33.205 -13.937 -26.520  0.00  0.00    +0.093 C 
ATOM     32  H   UNL     1      32.283 -15.608 -27.265  0.00  0.00    +0.143 HD
ATOM     33  H   UNL     1      32.103 -15.388 -25.584  0.00  0.00    +0.143 HD
ATOM     34  H   UNL     1      33.572 -13.928 -28.468  0.00  0.00    +0.188 HD
ENDBRANCH  28  31
ENDBRANCH  27  28
ENDBRANCH  26  27
ENDBRANCH  25  26
ENDBRANCH  20  25
ENDBRANCH   1  20
TORSDOF 11
ENDMDL
MODEL 9
REMARK VINA RESULT:      -8.4     12.499     17.403
REMARK  Name = 5496862
REMARK  11 active torsions:
REMARK  status: ('A' for Active; 'I' for Inactive)
REMARK    1  A    between atoms: C_1  and  C_20
REMARK    2  A    between atoms: C_2  and  O_18
REMARK    3  A    between atoms: C_8  and  C_10
REMARK    4  A    between atoms: C_13  and  O_16
REMARK    5  A    between atoms: C_20  and  C_22
REMARK    6  A    between atoms: C_20  and  C_25
REMARK    7  A    between atoms: C_22  and  O_23
REMARK    8  A    between atoms: C_25  and  C_26
REMARK    9  A    between atoms: C_26  and  C_27
REMARK   10  A    between atoms: C_27  and  C_28
REMARK   11  A    between atoms: C_28  and  C_31
REMARK                            x       y       z     vdW  Elec       q    Type
REMARK                         _______ _______ _______ _____ _____    ______ ____
ROOT
ATOM      1  C   UNL     1      32.761  -7.530 -22.219  0.00  0.00    +0.060 C 
ATOM      2  C   UNL     1      31.532  -6.644 -21.907  0.00  0.00    +0.119 C 
ATOM      3  C   UNL     1      33.256  -6.897 -23.492  0.00  0.00    -0.023 C 
ATOM      4  C   UNL     1      31.025  -6.072 -23.243  0.00  0.00    +0.056 C 
ATOM      5  C   UNL     1      32.280  -6.071 -24.061  0.00  0.00    -0.024 C 
ATOM      6  C   UNL     1      34.489  -7.066 -24.103  0.00  0.00    -0.004 C 
ATOM      7  C   UNL     1      32.511  -5.409 -25.255  0.00  0.00    -0.004 C 
ATOM      8  C   UNL     1      33.752  -5.570 -25.874  0.00  0.00    -0.000 C 
ATOM      9  C   UNL     1      34.735  -6.393 -25.301  0.00  0.00    -0.000 C 
ENDROOT
BRANCH   8  10
ATOM     10  C   UNL     1      34.028  -4.888 -27.120  0.00  0.00    +0.003 C 
ATOM     11  C   UNL     1      32.979  -4.537 -27.971  0.00  0.00    +0.037 C 
ATOM     12  C   UNL     1      35.342  -4.578 -27.469  0.00  0.00    +0.000 C 
ATOM     13  C   UNL     1      33.246  -3.878 -29.170  0.00  0.00    +0.139 C 
ATOM     14  C   UNL     1      35.608  -3.919 -28.669  0.00  0.00    +0.003 C 
ATOM     15  C   UNL     1      34.560  -3.569 -29.520  0.00  0.00    +0.037 C 
BRANCH  13  16
ATOM     16  O   UNL     1      32.223  -3.535 -30.000  0.00  0.00    -0.471 OA
ATOM     17  C   UNL     1      31.260  -2.610 -29.498  0.00  0.00    +0.252 C 
ENDBRANCH  13  16
ENDBRANCH   8  10
BRANCH   2  18
ATOM     18  O   UNL     1      31.936  -5.549 -21.079  0.00  0.00    -0.384 OA
ATOM     19  H   UNL     1      31.254  -4.859 -21.099  0.00  0.00    +0.210 HD
ENDBRANCH   2  18
BRANCH   1  20
ATOM     20  C   UNL     1      32.378  -8.988 -22.440  0.00  0.00    +0.105 C 
BRANCH  20  22
ATOM     21  O   UNL     1      32.272  -9.255 -20.019  0.00  0.00    -0.250 OA
ATOM     22  C   UNL     1      31.949  -9.640 -21.135  0.00  0.00    +0.314 C 
BRANCH  22  23
ATOM     23  O   UNL     1      31.145 -10.717 -21.338  0.00  0.00    -0.480 OA
ATOM     24  H   UNL     1      30.466 -10.916 -20.723  0.00  0.00    +0.295 HD
ENDBRANCH  22  23
ENDBRANCH  20  22
BRANCH  20  25
ATOM     25  C   UNL     1      33.491  -9.799 -23.126  0.00  0.00    +0.012 C 
BRANCH  25  26
ATOM     26  C   UNL     1      33.061 -10.522 -24.409  0.00  0.00    +0.001 C 
BRANCH  26  27
ATOM     27  C   UNL     1      34.051 -11.632 -24.773  0.00  0.00    +0.008 C 
BRANCH  27  28
ATOM     28  C   UNL     1      33.456 -13.031 -24.607  0.00  0.00    +0.060 C 
BRANCH  28  31
ATOM     29  N   UNL     1      32.406 -13.326 -22.390  0.00  0.00    -0.346 N 
ATOM     30  N   UNL     1      34.615 -14.069 -22.760  0.00  0.00    -0.289 NA
ATOM     31  C   UNL     1      33.518 -13.510 -23.169  0.00  0.00    +0.093 C 
ATOM     32  H   UNL     1      32.407 -13.624 -21.451  0.00  0.00    +0.143 HD
ATOM     33  H   UNL     1      31.605 -12.898 -22.769  0.00  0.00    +0.143 HD
ATOM     34  H   UNL     1      34.687 -14.392 -21.833  0.00  0.00    +0.188 HD
ENDBRANCH  28  31
ENDBRANCH  27  28
ENDBRANCH  26  27
ENDBRANCH  25  26
ENDBRANCH  20  25
ENDBRANCH   1  20
TORSDOF 11
ENDMDL
