MODEL 1
REMARK VINA RESULT:      -8.6      0.000      0.000
REMARK  Name = 10286834
REMARK  12 active torsions:
REMARK  status: ('A' for Active; 'I' for Inactive)
REMARK    1  A    between atoms: C_1  and  C_19
REMARK    2  A    between atoms: C_2  and  O_7
REMARK    3  A    between atoms: C_3  and  O_16
REMARK    4  A    between atoms: O_7  and  C_8
REMARK    5  A    between atoms: C_8  and  C_11
REMARK    6  A    between atoms: N_10  and  C_12
REMARK    7  A    between atoms: N_10  and  C_14
REMARK    8  A    between atoms: O_16  and  C_17
REMARK    9  A    between atoms: C_19  and  C_21
REMARK   10  A    between atoms: C_21  and  O_22
REMARK   11  A    between atoms: O_22  and  C_23
REMARK   12  A    between atoms: C_23  and  C_24
REMARK                            x       y       z     vdW  Elec       q    Type
REMARK                         _______ _______ _______ _____ _____    ______ ____
ROOT
ATOM      1  C   UNL     1      34.967 -20.023 -20.818  0.00  0.00    -0.008 C 
ATOM      2  C   UNL     1      34.449 -21.959 -18.878  0.00  0.00    +0.173 C 
ATOM      3  C   UNL     1      35.760 -21.543 -19.117  0.00  0.00    +0.172 C 
ATOM      4  C   UNL     1      36.018 -20.575 -20.087  0.00  0.00    +0.036 C 
ATOM      5  C   UNL     1      33.656 -20.437 -20.580  0.00  0.00    -0.000 C 
ATOM      6  C   UNL     1      33.398 -21.406 -19.610  0.00  0.00    +0.040 C 
ENDROOT
BRANCH   2   7
ATOM      7  O   UNL     1      34.182 -22.912 -17.924  0.00  0.00    -0.463 OA
BRANCH   7   8
ATOM      8  C   UNL     1      32.845 -23.026 -17.485  0.00  0.00    +0.290 C 
BRANCH   8  11
ATOM      9  O   UNL     1      33.881 -23.184 -15.360  0.00  0.00    -0.271 OA
ATOM     10  N   UNL     1      31.574 -23.442 -15.387  0.00  0.00    -0.277 N 
ATOM     11  C   UNL     1      32.817 -23.226 -15.984  0.00  0.00    +0.270 C 
BRANCH  10  12
ATOM     12  C   UNL     1      30.294 -23.483 -16.088  0.00  0.00    +0.094 C 
ATOM     13  C   UNL     1      29.268 -22.587 -15.426  0.00  0.00    +0.023 C 
ENDBRANCH  10  12
BRANCH  10  14
ATOM     14  C   UNL     1      31.496 -23.630 -13.943  0.00  0.00    +0.094 C 
ATOM     15  C   UNL     1      31.308 -25.090 -13.585  0.00  0.00    +0.023 C 
ENDBRANCH  10  14
ENDBRANCH   8  11
ENDBRANCH   7   8
ENDBRANCH   2   7
BRANCH   3  16
ATOM     16  O   UNL     1      36.794 -22.076 -18.409  0.00  0.00    -0.472 OA
BRANCH  16  17
ATOM     17  C   UNL     1      37.084 -21.489 -17.142  0.00  0.00    +0.206 C 
ATOM     18  C   UNL     1      37.300 -22.590 -16.126  0.00  0.00    +0.051 C 
ENDBRANCH  16  17
ENDBRANCH   3  16
BRANCH   1  19
ATOM     19  C   UNL     1      35.243 -18.986 -21.855  0.00  0.00    +0.136 C 
BRANCH  19  21
ATOM     20  O   UNL     1      35.422 -17.111 -20.315  0.00  0.00    -0.250 OA
ATOM     21  C   UNL     1      35.007 -17.568 -21.371  0.00  0.00    +0.321 C 
BRANCH  21  22
ATOM     22  O   UNL     1      34.264 -16.892 -22.298  0.00  0.00    -0.448 OA
BRANCH  22  23
ATOM     23  C   UNL     1      35.012 -16.223 -23.317  0.00  0.00    +0.208 C 
BRANCH  23  24
ATOM     24  C   UNL     1      34.289 -16.388 -24.645  0.00  0.00    +0.047 C 
ATOM     25  C   UNL     1      34.496 -17.772 -25.233  0.00  0.00    +0.004 C 
ENDBRANCH  23  24
ENDBRANCH  22  23
ENDBRANCH  21  22
ENDBRANCH  19  21
ENDBRANCH   1  19
TORSDOF 12
ENDMDL
MODEL 2
REMARK VINA RESULT:      -8.4      0.994      1.556
REMARK  Name = 10286834
REMARK  12 active torsions:
REMARK  status: ('A' for Active; 'I' for Inactive)
REMARK    1  A    between atoms: C_1  and  C_19
REMARK    2  A    between atoms: C_2  and  O_7
REMARK    3  A    between atoms: C_3  and  O_16
REMARK    4  A    between atoms: O_7  and  C_8
REMARK    5  A    between atoms: C_8  and  C_11
REMARK    6  A    between atoms: N_10  and  C_12
REMARK    7  A    between atoms: N_10  and  C_14
REMARK    8  A    between atoms: O_16  and  C_17
REMARK    9  A    between atoms: C_19  and  C_21
REMARK   10  A    between atoms: C_21  and  O_22
REMARK   11  A    between atoms: O_22  and  C_23
REMARK   12  A    between atoms: C_23  and  C_24
REMARK                            x       y       z     vdW  Elec       q    Type
REMARK                         _______ _______ _______ _____ _____    ______ ____
ROOT
ATOM      1  C   UNL     1      35.323 -19.866 -20.621  0.00  0.00    -0.008 C 
ATOM      2  C   UNL     1      34.482 -22.029 -19.073  0.00  0.00    +0.173 C 
ATOM      3  C   UNL     1      35.813 -21.614 -19.027  0.00  0.00    +0.172 C 
ATOM      4  C   UNL     1      36.233 -20.531 -19.802  0.00  0.00    +0.036 C 
ATOM      5  C   UNL     1      33.991 -20.280 -20.668  0.00  0.00    -0.000 C 
ATOM      6  C   UNL     1      33.572 -21.363 -19.894  0.00  0.00    +0.040 C 
ENDROOT
BRANCH   2   7
ATOM      7  O   UNL     1      34.056 -23.093 -18.315  0.00  0.00    -0.463 OA
BRANCH   7   8
ATOM      8  C   UNL     1      32.848 -22.933 -17.602  0.00  0.00    +0.290 C 
BRANCH   8  11
ATOM      9  O   UNL     1      34.206 -23.019 -15.663  0.00  0.00    -0.271 OA
ATOM     10  N   UNL     1      31.997 -23.679 -15.387  0.00  0.00    -0.277 N 
ATOM     11  C   UNL     1      33.081 -23.216 -16.133  0.00  0.00    +0.270 C 
BRANCH  10  12
ATOM     12  C   UNL     1      30.651 -23.909 -15.903  0.00  0.00    +0.094 C 
ATOM     13  C   UNL     1      29.744 -22.724 -15.637  0.00  0.00    +0.023 C 
ENDBRANCH  10  12
BRANCH  10  14
ATOM     14  C   UNL     1      32.171 -23.956 -13.966  0.00  0.00    +0.094 C 
ATOM     15  C   UNL     1      31.295 -25.105 -13.514  0.00  0.00    +0.023 C 
ENDBRANCH  10  14
ENDBRANCH   8  11
ENDBRANCH   7   8
ENDBRANCH   2   7
BRANCH   3  16
ATOM     16  O   UNL     1      36.712 -22.256 -18.231  0.00  0.00    -0.472 OA
BRANCH  16  17
ATOM     17  C   UNL     1      37.108 -21.593 -17.033  0.00  0.00    +0.206 C 
ATOM     18  C   UNL     1      37.627 -22.618 -16.048  0.00  0.00    +0.051 C 
ENDBRANCH  16  17
ENDBRANCH   3  16
BRANCH   1  19
ATOM     19  C   UNL     1      35.771 -18.708 -21.449  0.00  0.00    +0.136 C 
BRANCH  19  21
ATOM     20  O   UNL     1      35.098 -19.417 -23.677  0.00  0.00    -0.250 OA
ATOM     21  C   UNL     1      35.042 -18.594 -22.774  0.00  0.00    +0.321 C 
BRANCH  21  22
ATOM     22  O   UNL     1      34.318 -17.435 -22.793  0.00  0.00    -0.448 OA
BRANCH  22  23
ATOM     23  C   UNL     1      35.086 -16.228 -22.777  0.00  0.00    +0.208 C 
BRANCH  23  24
ATOM     24  C   UNL     1      34.287 -15.146 -22.067  0.00  0.00    +0.047 C 
ATOM     25  C   UNL     1      34.459 -15.213 -20.560  0.00  0.00    +0.004 C 
ENDBRANCH  23  24
ENDBRANCH  22  23
ENDBRANCH  21  22
ENDBRANCH  19  21
ENDBRANCH   1  19
TORSDOF 12
ENDMDL
MODEL 3
REMARK VINA RESULT:      -8.2      6.605     11.371
REMARK  Name = 10286834
REMARK  12 active torsions:
REMARK  status: ('A' for Active; 'I' for Inactive)
REMARK    1  A    between atoms: C_1  and  C_19
REMARK    2  A    between atoms: C_2  and  O_7
REMARK    3  A    between atoms: C_3  and  O_16
REMARK    4  A    between atoms: O_7  and  C_8
REMARK    5  A    between atoms: C_8  and  C_11
REMARK    6  A    between atoms: N_10  and  C_12
REMARK    7  A    between atoms: N_10  and  C_14
REMARK    8  A    between atoms: O_16  and  C_17
REMARK    9  A    between atoms: C_19  and  C_21
REMARK   10  A    between atoms: C_21  and  O_22
REMARK   11  A    between atoms: O_22  and  C_23
REMARK   12  A    between atoms: C_23  and  C_24
REMARK                            x       y       z     vdW  Elec       q    Type
REMARK                         _______ _______ _______ _____ _____    ______ ____
ROOT
ATOM      1  C   UNL     1      34.091 -15.249 -21.404  0.00  0.00    -0.008 C 
ATOM      2  C   UNL     1      32.526 -13.099 -22.246  0.00  0.00    +0.173 C 
ATOM      3  C   UNL     1      33.439 -13.684 -23.124  0.00  0.00    +0.172 C 
ATOM      4  C   UNL     1      34.221 -14.759 -22.703  0.00  0.00    +0.036 C 
ATOM      5  C   UNL     1      33.179 -14.665 -20.525  0.00  0.00    -0.000 C 
ATOM      6  C   UNL     1      32.396 -13.590 -20.946  0.00  0.00    +0.040 C 
ENDROOT
BRANCH   2   7
ATOM      7  O   UNL     1      31.748 -12.040 -22.649  0.00  0.00    -0.463 OA
BRANCH   7   8
ATOM      8  C   UNL     1      31.889 -10.829 -21.936  0.00  0.00    +0.290 C 
BRANCH   8  11
ATOM      9  O   UNL     1      32.620 -10.031 -24.044  0.00  0.00    -0.271 OA
ATOM     10  N   UNL     1      32.756  -8.523 -22.283  0.00  0.00    -0.277 N 
ATOM     11  C   UNL     1      32.456  -9.763 -22.850  0.00  0.00    +0.270 C 
BRANCH  10  12
ATOM     12  C   UNL     1      32.561  -8.164 -20.882  0.00  0.00    +0.094 C 
ATOM     13  C   UNL     1      32.074  -6.737 -20.736  0.00  0.00    +0.023 C 
ENDBRANCH  10  12
BRANCH  10  14
ATOM     14  C   UNL     1      33.295  -7.462 -23.126  0.00  0.00    +0.094 C 
ATOM     15  C   UNL     1      34.796  -7.586 -23.279  0.00  0.00    +0.023 C 
ENDBRANCH  10  14
ENDBRANCH   8  11
ENDBRANCH   7   8
ENDBRANCH   2   7
BRANCH   3  16
ATOM     16  O   UNL     1      33.575 -13.214 -24.395  0.00  0.00    -0.472 OA
BRANCH  16  17
ATOM     17  C   UNL     1      33.067 -14.031 -25.447  0.00  0.00    +0.206 C 
ATOM     18  C   UNL     1      33.290 -13.329 -26.770  0.00  0.00    +0.051 C 
ENDBRANCH  16  17
ENDBRANCH   3  16
BRANCH   1  19
ATOM     19  C   UNL     1      34.928 -16.399 -20.953  0.00  0.00    +0.136 C 
BRANCH  19  21
ATOM     20  O   UNL     1      33.514 -18.379 -20.927  0.00  0.00    -0.250 OA
ATOM     21  C   UNL     1      34.423 -17.743 -21.443  0.00  0.00    +0.321 C 
BRANCH  21  22
ATOM     22  O   UNL     1      35.140 -18.122 -22.543  0.00  0.00    -0.448 OA
BRANCH  22  23
ATOM     23  C   UNL     1      34.640 -19.267 -23.239  0.00  0.00    +0.208 C 
BRANCH  23  24
ATOM     24  C   UNL     1      34.719 -19.006 -24.736  0.00  0.00    +0.047 C 
ATOM     25  C   UNL     1      34.411 -17.558 -25.073  0.00  0.00    +0.004 C 
ENDBRANCH  23  24
ENDBRANCH  22  23
ENDBRANCH  21  22
ENDBRANCH  19  21
ENDBRANCH   1  19
TORSDOF 12
ENDMDL
MODEL 4
REMARK VINA RESULT:      -8.2      5.831     11.353
REMARK  Name = 10286834
REMARK  12 active torsions:
REMARK  status: ('A' for Active; 'I' for Inactive)
REMARK    1  A    between atoms: C_1  and  C_19
REMARK    2  A    between atoms: C_2  and  O_7
REMARK    3  A    between atoms: C_3  and  O_16
REMARK    4  A    between atoms: O_7  and  C_8
REMARK    5  A    between atoms: C_8  and  C_11
REMARK    6  A    between atoms: N_10  and  C_12
REMARK    7  A    between atoms: N_10  and  C_14
REMARK    8  A    between atoms: O_16  and  C_17
REMARK    9  A    between atoms: C_19  and  C_21
REMARK   10  A    between atoms: C_21  and  O_22
REMARK   11  A    between atoms: O_22  and  C_23
REMARK   12  A    between atoms: C_23  and  C_24
REMARK                            x       y       z     vdW  Elec       q    Type
REMARK                         _______ _______ _______ _____ _____    ______ ____
ROOT
ATOM      1  C   UNL     1      34.170 -15.592 -21.558  0.00  0.00    -0.008 C 
ATOM      2  C   UNL     1      32.651 -13.394 -22.358  0.00  0.00    +0.173 C 
ATOM      3  C   UNL     1      33.524 -14.004 -23.260  0.00  0.00    +0.172 C 
ATOM      4  C   UNL     1      34.283 -15.104 -22.859  0.00  0.00    +0.036 C 
ATOM      5  C   UNL     1      33.298 -14.982 -20.656  0.00  0.00    -0.000 C 
ATOM      6  C   UNL     1      32.539 -13.883 -21.057  0.00  0.00    +0.040 C 
ENDROOT
BRANCH   2   7
ATOM      7  O   UNL     1      31.897 -12.310 -22.741  0.00  0.00    -0.463 OA
BRANCH   7   8
ATOM      8  C   UNL     1      31.996 -11.145 -21.950  0.00  0.00    +0.290 C 
BRANCH   8  11
ATOM      9  O   UNL     1      32.730 -10.196 -23.993  0.00  0.00    -0.271 OA
ATOM     10  N   UNL     1      32.650  -8.755 -22.173  0.00  0.00    -0.277 N 
ATOM     11  C   UNL     1      32.493  -9.993 -22.798  0.00  0.00    +0.270 C 
BRANCH  10  12
ATOM     12  C   UNL     1      32.367  -8.474 -20.769  0.00  0.00    +0.094 C 
ATOM     13  C   UNL     1      32.310  -6.984 -20.501  0.00  0.00    +0.023 C 
ENDBRANCH  10  12
BRANCH  10  14
ATOM     14  C   UNL     1      33.117  -7.614 -22.952  0.00  0.00    +0.094 C 
ATOM     15  C   UNL     1      34.608  -7.690 -23.206  0.00  0.00    +0.023 C 
ENDBRANCH  10  14
ENDBRANCH   8  11
ENDBRANCH   7   8
ENDBRANCH   2   7
BRANCH   3  16
ATOM     16  O   UNL     1      33.643 -13.536 -24.533  0.00  0.00    -0.472 OA
BRANCH  16  17
ATOM     17  C   UNL     1      32.990 -14.277 -25.561  0.00  0.00    +0.206 C 
ATOM     18  C   UNL     1      33.176 -13.561 -26.881  0.00  0.00    +0.051 C 
ENDBRANCH  16  17
ENDBRANCH   3  16
BRANCH   1  19
ATOM     19  C   UNL     1      34.981 -16.769 -21.130  0.00  0.00    +0.136 C 
BRANCH  19  21
ATOM     20  O   UNL     1      35.844 -17.926 -23.089  0.00  0.00    -0.250 OA
ATOM     21  C   UNL     1      35.040 -17.873 -22.167  0.00  0.00    +0.321 C 
BRANCH  21  22
ATOM     22  O   UNL     1      34.061 -18.791 -21.907  0.00  0.00    -0.448 OA
BRANCH  22  23
ATOM     23  C   UNL     1      34.339 -19.702 -20.840  0.00  0.00    +0.208 C 
BRANCH  23  24
ATOM     24  C   UNL     1      33.027 -20.279 -20.332  0.00  0.00    +0.047 C 
ATOM     25  C   UNL     1      33.248 -21.502 -19.460  0.00  0.00    +0.004 C 
ENDBRANCH  23  24
ENDBRANCH  22  23
ENDBRANCH  21  22
ENDBRANCH  19  21
ENDBRANCH   1  19
TORSDOF 12
ENDMDL
MODEL 5
REMARK VINA RESULT:      -8.2      4.108      7.851
REMARK  Name = 10286834
REMARK  12 active torsions:
REMARK  status: ('A' for Active; 'I' for Inactive)
REMARK    1  A    between atoms: C_1  and  C_19
REMARK    2  A    between atoms: C_2  and  O_7
REMARK    3  A    between atoms: C_3  and  O_16
REMARK    4  A    between atoms: O_7  and  C_8
REMARK    5  A    between atoms: C_8  and  C_11
REMARK    6  A    between atoms: N_10  and  C_12
REMARK    7  A    between atoms: N_10  and  C_14
REMARK    8  A    between atoms: O_16  and  C_17
REMARK    9  A    between atoms: C_19  and  C_21
REMARK   10  A    between atoms: C_21  and  O_22
REMARK   11  A    between atoms: O_22  and  C_23
REMARK   12  A    between atoms: C_23  and  C_24
REMARK                            x       y       z     vdW  Elec       q    Type
REMARK                         _______ _______ _______ _____ _____    ______ ____
ROOT
ATOM      1  C   UNL     1      31.346 -23.074 -15.466  0.00  0.00    -0.008 C 
ATOM      2  C   UNL     1      34.062 -23.616 -15.798  0.00  0.00    +0.173 C 
ATOM      3  C   UNL     1      33.247 -23.425 -16.914  0.00  0.00    +0.172 C 
ATOM      4  C   UNL     1      31.889 -23.153 -16.747  0.00  0.00    +0.036 C 
ATOM      5  C   UNL     1      32.160 -23.265 -14.349  0.00  0.00    -0.000 C 
ATOM      6  C   UNL     1      33.519 -23.537 -14.515  0.00  0.00    +0.040 C 
ENDROOT
BRANCH   2   7
ATOM      7  O   UNL     1      35.402 -23.883 -15.949  0.00  0.00    -0.463 OA
BRANCH   7   8
ATOM      8  C   UNL     1      36.201 -23.849 -14.785  0.00  0.00    +0.290 C 
BRANCH   8  11
ATOM      9  O   UNL     1      38.112 -22.950 -15.858  0.00  0.00    -0.271 OA
ATOM     10  N   UNL     1      38.432 -24.946 -14.716  0.00  0.00    -0.277 N 
ATOM     11  C   UNL     1      37.665 -23.873 -15.171  0.00  0.00    +0.270 C 
BRANCH  10  12
ATOM     12  C   UNL     1      37.943 -26.046 -13.890  0.00  0.00    +0.094 C 
ATOM     13  C   UNL     1      37.827 -25.640 -12.435  0.00  0.00    +0.023 C 
ENDBRANCH  10  12
BRANCH  10  14
ATOM     14  C   UNL     1      39.849 -25.008 -15.054  0.00  0.00    +0.094 C 
ATOM     15  C   UNL     1      40.511 -26.227 -14.446  0.00  0.00    +0.023 C 
ENDBRANCH  10  14
ENDBRANCH   8  11
ENDBRANCH   7   8
ENDBRANCH   2   7
BRANCH   3  16
ATOM     16  O   UNL     1      33.766 -23.500 -18.171  0.00  0.00    -0.472 OA
BRANCH  16  17
ATOM     17  C   UNL     1      33.878 -22.281 -18.901  0.00  0.00    +0.206 C 
ATOM     18  C   UNL     1      35.326 -21.840 -18.909  0.00  0.00    +0.051 C 
ENDBRANCH  16  17
ENDBRANCH   3  16
BRANCH   1  19
ATOM     19  C   UNL     1      29.894 -22.783 -15.287  0.00  0.00    +0.136 C 
BRANCH  19  21
ATOM     20  O   UNL     1      29.047 -25.004 -14.763  0.00  0.00    -0.250 OA
ATOM     21  C   UNL     1      29.007 -24.001 -15.463  0.00  0.00    +0.321 C 
BRANCH  21  22
ATOM     22  O   UNL     1      28.165 -23.798 -16.520  0.00  0.00    -0.448 OA
BRANCH  22  23
ATOM     23  C   UNL     1      28.025 -22.439 -16.944  0.00  0.00    +0.208 C 
BRANCH  23  24
ATOM     24  C   UNL     1      26.612 -21.970 -16.635  0.00  0.00    +0.047 C 
ATOM     25  C   UNL     1      26.016 -21.176 -17.784  0.00  0.00    +0.004 C 
ENDBRANCH  23  24
ENDBRANCH  22  23
ENDBRANCH  21  22
ENDBRANCH  19  21
ENDBRANCH   1  19
TORSDOF 12
ENDMDL
MODEL 6
REMARK VINA RESULT:      -8.2      2.172      3.846
REMARK  Name = 10286834
REMARK  12 active torsions:
REMARK  status: ('A' for Active; 'I' for Inactive)
REMARK    1  A    between atoms: C_1  and  C_19
REMARK    2  A    between atoms: C_2  and  O_7
REMARK    3  A    between atoms: C_3  and  O_16
REMARK    4  A    between atoms: O_7  and  C_8
REMARK    5  A    between atoms: C_8  and  C_11
REMARK    6  A    between atoms: N_10  and  C_12
REMARK    7  A    between atoms: N_10  and  C_14
REMARK    8  A    between atoms: O_16  and  C_17
REMARK    9  A    between atoms: C_19  and  C_21
REMARK   10  A    between atoms: C_21  and  O_22
REMARK   11  A    between atoms: O_22  and  C_23
REMARK   12  A    between atoms: C_23  and  C_24
REMARK                            x       y       z     vdW  Elec       q    Type
REMARK                         _______ _______ _______ _____ _____    ______ ____
ROOT
ATOM      1  C   UNL     1      34.570 -20.513 -20.344  0.00  0.00    -0.008 C 
ATOM      2  C   UNL     1      35.091 -22.292 -18.260  0.00  0.00    +0.173 C 
ATOM      3  C   UNL     1      33.804 -22.194 -18.788  0.00  0.00    +0.172 C 
ATOM      4  C   UNL     1      33.543 -21.304 -19.831  0.00  0.00    +0.036 C 
ATOM      5  C   UNL     1      35.858 -20.611 -19.817  0.00  0.00    -0.000 C 
ATOM      6  C   UNL     1      36.118 -21.500 -18.775  0.00  0.00    +0.040 C 
ENDROOT
BRANCH   2   7
ATOM      7  O   UNL     1      35.361 -23.166 -17.234  0.00  0.00    -0.463 OA
BRANCH   7   8
ATOM      8  C   UNL     1      35.673 -22.605 -15.976  0.00  0.00    +0.290 C 
BRANCH   8  11
ATOM      9  O   UNL     1      38.034 -22.803 -15.935  0.00  0.00    -0.271 OA
ATOM     10  N   UNL     1      36.873 -24.169 -14.459  0.00  0.00    -0.277 N 
ATOM     11  C   UNL     1      36.966 -23.200 -15.459  0.00  0.00    +0.270 C 
BRANCH  10  12
ATOM     12  C   UNL     1      35.632 -24.652 -13.861  0.00  0.00    +0.094 C 
ATOM     13  C   UNL     1      35.460 -24.140 -12.446  0.00  0.00    +0.023 C 
ENDBRANCH  10  12
BRANCH  10  14
ATOM     14  C   UNL     1      38.091 -24.764 -13.923  0.00  0.00    +0.094 C 
ATOM     15  C   UNL     1      38.288 -26.177 -14.432  0.00  0.00    +0.023 C 
ENDBRANCH  10  14
ENDBRANCH   8  11
ENDBRANCH   7   8
ENDBRANCH   2   7
BRANCH   3  16
ATOM     16  O   UNL     1      32.793 -22.961 -18.294  0.00  0.00    -0.472 OA
BRANCH  16  17
ATOM     17  C   UNL     1      32.049 -22.429 -17.200  0.00  0.00    +0.206 C 
ATOM     18  C   UNL     1      31.975 -23.467 -16.101  0.00  0.00    +0.051 C 
ENDBRANCH  16  17
ENDBRANCH   3  16
BRANCH   1  19
ATOM     19  C   UNL     1      34.292 -19.562 -21.460  0.00  0.00    +0.136 C 
BRANCH  19  21
ATOM     20  O   UNL     1      35.306 -17.526 -20.595  0.00  0.00    -0.250 OA
ATOM     21  C   UNL     1      35.225 -18.366 -21.481  0.00  0.00    +0.321 C 
BRANCH  21  22
ATOM     22  O   UNL     1      35.953 -18.380 -22.637  0.00  0.00    -0.448 OA
BRANCH  22  23
ATOM     23  C   UNL     1      35.197 -18.231 -23.843  0.00  0.00    +0.208 C 
BRANCH  23  24
ATOM     24  C   UNL     1      34.908 -16.754 -24.062  0.00  0.00    +0.047 C 
ATOM     25  C   UNL     1      34.104 -16.517 -25.328  0.00  0.00    +0.004 C 
ENDBRANCH  23  24
ENDBRANCH  22  23
ENDBRANCH  21  22
ENDBRANCH  19  21
ENDBRANCH   1  19
TORSDOF 12
ENDMDL
MODEL 7
REMARK VINA RESULT:      -8.2      5.847     10.103
REMARK  Name = 10286834
REMARK  12 active torsions:
REMARK  status: ('A' for Active; 'I' for Inactive)
REMARK    1  A    between atoms: C_1  and  C_19
REMARK    2  A    between atoms: C_2  and  O_7
REMARK    3  A    between atoms: C_3  and  O_16
REMARK    4  A    between atoms: O_7  and  C_8
REMARK    5  A    between atoms: C_8  and  C_11
REMARK    6  A    between atoms: N_10  and  C_12
REMARK    7  A    between atoms: N_10  and  C_14
REMARK    8  A    between atoms: O_16  and  C_17
REMARK    9  A    between atoms: C_19  and  C_21
REMARK   10  A    between atoms: C_21  and  O_22
REMARK   11  A    between atoms: O_22  and  C_23
REMARK   12  A    between atoms: C_23  and  C_24
REMARK                            x       y       z     vdW  Elec       q    Type
REMARK                         _______ _______ _______ _____ _____    ______ ____
ROOT
ATOM      1  C   UNL     1      31.877 -10.895 -21.770  0.00  0.00    -0.008 C 
ATOM      2  C   UNL     1      32.493 -13.607 -21.975  0.00  0.00    +0.173 C 
ATOM      3  C   UNL     1      32.717 -12.757 -23.059  0.00  0.00    +0.172 C 
ATOM      4  C   UNL     1      32.409 -11.400 -22.955  0.00  0.00    +0.036 C 
ATOM      5  C   UNL     1      31.652 -11.744 -20.686  0.00  0.00    -0.000 C 
ATOM      6  C   UNL     1      31.960 -13.101 -20.790  0.00  0.00    +0.040 C 
ENDROOT
BRANCH   2   7
ATOM      7  O   UNL     1      32.793 -14.946 -22.065  0.00  0.00    -0.463 OA
BRANCH   7   8
ATOM      8  C   UNL     1      34.034 -15.364 -21.537  0.00  0.00    +0.290 C 
BRANCH   8  11
ATOM      9  O   UNL     1      35.342 -15.614 -23.497  0.00  0.00    -0.271 OA
ATOM     10  N   UNL     1      34.772 -17.578 -22.397  0.00  0.00    -0.277 N 
ATOM     11  C   UNL     1      34.772 -16.193 -22.567  0.00  0.00    +0.270 C 
BRANCH  10  12
ATOM     12  C   UNL     1      34.124 -18.297 -21.304  0.00  0.00    +0.094 C 
ATOM     13  C   UNL     1      34.924 -19.515 -20.889  0.00  0.00    +0.023 C 
ENDBRANCH  10  12
BRANCH  10  14
ATOM     14  C   UNL     1      35.477 -18.418 -23.359  0.00  0.00    +0.094 C 
ATOM     15  C   UNL     1      34.558 -18.880 -24.470  0.00  0.00    +0.023 C 
ENDBRANCH  10  14
ENDBRANCH   8  11
ENDBRANCH   7   8
ENDBRANCH   2   7
BRANCH   3  16
ATOM     16  O   UNL     1      33.236 -13.239 -24.222  0.00  0.00    -0.472 OA
BRANCH  16  17
ATOM     17  C   UNL     1      33.834 -12.295 -25.107  0.00  0.00    +0.206 C 
ATOM     18  C   UNL     1      33.527 -12.692 -26.534  0.00  0.00    +0.051 C 
ENDBRANCH  16  17
ENDBRANCH   3  16
BRANCH   1  19
ATOM     19  C   UNL     1      31.548  -9.443 -21.659  0.00  0.00    +0.136 C 
BRANCH  19  21
ATOM     20  O   UNL     1      32.190  -8.635 -19.456  0.00  0.00    -0.250 OA
ATOM     21  C   UNL     1      32.412  -8.702 -20.657  0.00  0.00    +0.321 C 
BRANCH  21  22
ATOM     22  O   UNL     1      33.469  -8.130 -21.308  0.00  0.00    -0.448 OA
BRANCH  22  23
ATOM     23  C   UNL     1      33.152  -7.477 -22.541  0.00  0.00    +0.208 C 
BRANCH  23  24
ATOM     24  C   UNL     1      34.405  -7.420 -23.403  0.00  0.00    +0.047 C 
ATOM     25  C   UNL     1      34.727  -8.768 -24.021  0.00  0.00    +0.004 C 
ENDBRANCH  23  24
ENDBRANCH  22  23
ENDBRANCH  21  22
ENDBRANCH  19  21
ENDBRANCH   1  19
TORSDOF 12
ENDMDL
MODEL 8
REMARK VINA RESULT:      -8.1      2.644      7.928
REMARK  Name = 10286834
REMARK  12 active torsions:
REMARK  status: ('A' for Active; 'I' for Inactive)
REMARK    1  A    between atoms: C_1  and  C_19
REMARK    2  A    between atoms: C_2  and  O_7
REMARK    3  A    between atoms: C_3  and  O_16
REMARK    4  A    between atoms: O_7  and  C_8
REMARK    5  A    between atoms: C_8  and  C_11
REMARK    6  A    between atoms: N_10  and  C_12
REMARK    7  A    between atoms: N_10  and  C_14
REMARK    8  A    between atoms: O_16  and  C_17
REMARK    9  A    between atoms: C_19  and  C_21
REMARK   10  A    between atoms: C_21  and  O_22
REMARK   11  A    between atoms: O_22  and  C_23
REMARK   12  A    between atoms: C_23  and  C_24
REMARK                            x       y       z     vdW  Elec       q    Type
REMARK                         _______ _______ _______ _____ _____    ______ ____
ROOT
ATOM      1  C   UNL     1      32.371 -23.184 -15.479  0.00  0.00    -0.008 C 
ATOM      2  C   UNL     1      34.204 -22.901 -17.563  0.00  0.00    +0.173 C 
ATOM      3  C   UNL     1      34.648 -23.232 -16.282  0.00  0.00    +0.172 C 
ATOM      4  C   UNL     1      33.731 -23.374 -15.241  0.00  0.00    +0.036 C 
ATOM      5  C   UNL     1      31.925 -22.853 -16.759  0.00  0.00    -0.000 C 
ATOM      6  C   UNL     1      32.842 -22.711 -17.801  0.00  0.00    +0.040 C 
ENDROOT
BRANCH   2   7
ATOM      7  O   UNL     1      35.098 -22.759 -18.597  0.00  0.00    -0.463 OA
BRANCH   7   8
ATOM      8  C   UNL     1      34.676 -22.004 -19.713  0.00  0.00    +0.290 C 
BRANCH   8  11
ATOM      9  O   UNL     1      36.653 -20.773 -19.276  0.00  0.00    -0.271 OA
ATOM     10  N   UNL     1      35.139 -19.781 -20.730  0.00  0.00    -0.277 N 
ATOM     11  C   UNL     1      35.578 -20.799 -19.883  0.00  0.00    +0.270 C 
BRANCH  10  12
ATOM     12  C   UNL     1      33.883 -19.782 -21.475  0.00  0.00    +0.094 C 
ATOM     13  C   UNL     1      32.686 -19.796 -20.546  0.00  0.00    +0.023 C 
ENDBRANCH  10  12
BRANCH  10  14
ATOM     14  C   UNL     1      35.977 -18.605 -20.932  0.00  0.00    +0.094 C 
ATOM     15  C   UNL     1      35.154 -17.400 -21.335  0.00  0.00    +0.023 C 
ENDBRANCH  10  14
ENDBRANCH   8  11
ENDBRANCH   7   8
ENDBRANCH   2   7
BRANCH   3  16
ATOM     16  O   UNL     1      35.975 -23.419 -16.037  0.00  0.00    -0.472 OA
BRANCH  16  17
ATOM     17  C   UNL     1      36.325 -24.439 -15.104  0.00  0.00    +0.206 C 
ATOM     18  C   UNL     1      37.695 -24.140 -14.536  0.00  0.00    +0.051 C 
ENDBRANCH  16  17
ENDBRANCH   3  16
BRANCH   1  19
ATOM     19  C   UNL     1      31.389 -23.336 -14.366  0.00  0.00    +0.136 C 
BRANCH  19  21
ATOM     20  O   UNL     1      31.610 -25.373 -13.053  0.00  0.00    -0.250 OA
ATOM     21  C   UNL     1      31.109 -24.781 -14.000  0.00  0.00    +0.321 C 
BRANCH  21  22
ATOM     22  O   UNL     1      30.215 -25.307 -14.889  0.00  0.00    -0.448 OA
BRANCH  22  23
ATOM     23  C   UNL     1      28.975 -24.602 -15.006  0.00  0.00    +0.208 C 
BRANCH  23  24
ATOM     24  C   UNL     1      28.621 -24.473 -16.480  0.00  0.00    +0.047 C 
ATOM     25  C   UNL     1      28.193 -23.060 -16.836  0.00  0.00    +0.004 C 
ENDBRANCH  23  24
ENDBRANCH  22  23
ENDBRANCH  21  22
ENDBRANCH  19  21
ENDBRANCH   1  19
TORSDOF 12
ENDMDL
MODEL 9
REMARK VINA RESULT:      -8.1      3.872      9.803
REMARK  Name = 10286834
REMARK  12 active torsions:
REMARK  status: ('A' for Active; 'I' for Inactive)
REMARK    1  A    between atoms: C_1  and  C_19
REMARK    2  A    between atoms: C_2  and  O_7
REMARK    3  A    between atoms: C_3  and  O_16
REMARK    4  A    between atoms: O_7  and  C_8
REMARK    5  A    between atoms: C_8  and  C_11
REMARK    6  A    between atoms: N_10  and  C_12
REMARK    7  A    between atoms: N_10  and  C_14
REMARK    8  A    between atoms: O_16  and  C_17
REMARK    9  A    between atoms: C_19  and  C_21
REMARK   10  A    between atoms: C_21  and  O_22
REMARK   11  A    between atoms: O_22  and  C_23
REMARK   12  A    between atoms: C_23  and  C_24
REMARK                            x       y       z     vdW  Elec       q    Type
REMARK                         _______ _______ _______ _____ _____    ______ ____
ROOT
ATOM      1  C   UNL     1      34.929 -19.156 -21.568  0.00  0.00    -0.008 C 
ATOM      2  C   UNL     1      34.792 -17.116 -23.466  0.00  0.00    +0.173 C 
ATOM      3  C   UNL     1      34.881 -16.802 -22.110  0.00  0.00    +0.172 C 
ATOM      4  C   UNL     1      34.950 -17.823 -21.161  0.00  0.00    +0.036 C 
ATOM      5  C   UNL     1      34.840 -19.471 -22.925  0.00  0.00    -0.000 C 
ATOM      6  C   UNL     1      34.771 -18.450 -23.874  0.00  0.00    +0.040 C 
ENDROOT
BRANCH   2   7
ATOM      7  O   UNL     1      34.725 -16.120 -24.411  0.00  0.00    -0.463 OA
BRANCH   7   8
ATOM      8  C   UNL     1      33.439 -15.673 -24.785  0.00  0.00    +0.290 C 
BRANCH   8  11
ATOM      9  O   UNL     1      33.547 -14.665 -26.926  0.00  0.00    -0.271 OA
ATOM     10  N   UNL     1      33.681 -13.219 -25.114  0.00  0.00    -0.277 N 
ATOM     11  C   UNL     1      33.563 -14.477 -25.706  0.00  0.00    +0.270 C 
BRANCH  10  12
ATOM     12  C   UNL     1      33.688 -12.957 -23.678  0.00  0.00    +0.094 C 
ATOM     13  C   UNL     1      32.286 -12.741 -23.145  0.00  0.00    +0.023 C 
ENDBRANCH  10  12
BRANCH  10  14
ATOM     14  C   UNL     1      33.793 -12.037 -25.960  0.00  0.00    +0.094 C 
ATOM     15  C   UNL     1      34.641 -10.966 -25.306  0.00  0.00    +0.023 C 
ENDBRANCH  10  14
ENDBRANCH   8  11
ENDBRANCH   7   8
ENDBRANCH   2   7
BRANCH   3  16
ATOM     16  O   UNL     1      34.902 -15.504 -21.700  0.00  0.00    -0.472 OA
BRANCH  16  17
ATOM     17  C   UNL     1      34.374 -15.223 -20.406  0.00  0.00    +0.206 C 
ATOM     18  C   UNL     1      32.870 -15.087 -20.505  0.00  0.00    +0.051 C 
ENDBRANCH  16  17
ENDBRANCH   3  16
BRANCH   1  19
ATOM     19  C   UNL     1      35.003 -20.247 -20.554  0.00  0.00    +0.136 C 
BRANCH  19  21
ATOM     20  O   UNL     1      32.588 -20.160 -20.264  0.00  0.00    -0.250 OA
ATOM     21  C   UNL     1      33.644 -20.762 -20.119  0.00  0.00    +0.321 C 
BRANCH  21  22
ATOM     22  O   UNL     1      33.789 -21.994 -19.547  0.00  0.00    -0.448 OA
BRANCH  22  23
ATOM     23  C   UNL     1      34.857 -22.113 -18.603  0.00  0.00    +0.208 C 
BRANCH  23  24
ATOM     24  C   UNL     1      34.374 -22.931 -17.414  0.00  0.00    +0.047 C 
ATOM     25  C   UNL     1      32.859 -23.034 -17.378  0.00  0.00    +0.004 C 
ENDBRANCH  23  24
ENDBRANCH  22  23
ENDBRANCH  21  22
ENDBRANCH  19  21
ENDBRANCH   1  19
TORSDOF 12
ENDMDL
