MODEL 1
REMARK VINA RESULT:     -11.9      0.000      0.000
REMARK  Name = 448942
REMARK  8 active torsions:
REMARK  status: ('A' for Active; 'I' for Inactive)
REMARK    1  A    between atoms: C_2  and  C_20
REMARK    2  A    between atoms: C_3  and  C_6
REMARK    3  A    between atoms: C_7  and  C_13
REMARK    4  A    between atoms: N_19  and  C_22
REMARK    5  A    between atoms: C_22  and  C_23
REMARK    6  A    between atoms: C_22  and  C_29
REMARK    7  A    between atoms: C_29  and  C_31
REMARK    8  A    between atoms: C_31  and  O_32
REMARK                            x       y       z     vdW  Elec       q    Type
REMARK                         _______ _______ _______ _____ _____    ______ ____
ROOT
ATOM      1  S   UNL     1      32.711 -23.584 -16.508  0.00  0.00    -0.082 S 
ATOM      2  C   UNL     1      34.404 -23.551 -16.533  0.00  0.00    +0.083 C 
ATOM      3  C   UNL     1      33.915 -22.153 -18.271  0.00  0.00    +0.007 C 
ATOM      4  C   UNL     1      34.939 -22.770 -17.496  0.00  0.00    +0.012 C 
ATOM      5  C   UNL     1      32.656 -22.511 -17.842  0.00  0.00    +0.036 C 
ENDROOT
BRANCH   3   6
ATOM      6  C   UNL     1      34.088 -21.257 -19.382  0.00  0.00    +0.001 C 
ATOM      7  C   UNL     1      34.423 -19.517 -21.535  0.00  0.00    +0.000 C 
ATOM      8  C   UNL     1      35.365 -21.006 -19.881  0.00  0.00    +0.000 C 
ATOM      9  C   UNL     1      32.978 -20.639 -19.957  0.00  0.00    +0.000 C 
ATOM     10  C   UNL     1      35.533 -20.136 -20.958  0.00  0.00    +0.000 C 
ATOM     11  C   UNL     1      33.146 -19.769 -21.034  0.00  0.00    +0.000 C 
BRANCH   7  13
ATOM     12  N   UNL     1      34.932 -16.867 -24.807  0.00  0.00    -0.242 NA
ATOM     13  C   UNL     1      34.597 -18.614 -22.651  0.00  0.00    +0.003 C 
ATOM     14  C   UNL     1      34.810 -17.259 -22.424  0.00  0.00    +0.021 C 
ATOM     15  C   UNL     1      34.551 -19.096 -23.955  0.00  0.00    +0.021 C 
ATOM     16  C   UNL     1      34.971 -16.434 -23.526  0.00  0.00    +0.099 C 
ATOM     17  C   UNL     1      34.723 -18.190 -24.988  0.00  0.00    +0.099 C 
ENDBRANCH   7  13
ENDBRANCH   3   6
BRANCH   2  20
ATOM     18  O   UNL     1      35.154 -25.583 -15.573  0.00  0.00    -0.270 OA
ATOM     19  N   UNL     1      35.734 -23.631 -14.511  0.00  0.00    -0.298 N 
ATOM     20  C   UNL     1      35.120 -24.351 -15.531  0.00  0.00    +0.252 C 
ATOM     21  H   UNL     1      35.679 -22.648 -14.521  0.00  0.00    +0.150 HD
BRANCH  19  22
ATOM     22  C   UNL     1      36.451 -24.281 -13.435  0.00  0.00    +0.105 C 
BRANCH  22  23
ATOM     23  C   UNL     1      37.835 -24.688 -13.901  0.00  0.00    -0.004 C 
ATOM     24  C   UNL     1      38.345 -24.130 -15.059  0.00  0.00    -0.003 C 
ATOM     25  C   UNL     1      38.552 -25.607 -13.159  0.00  0.00    -0.003 C 
ATOM     26  C   UNL     1      39.618 -24.505 -15.489  0.00  0.00    -0.000 C 
ATOM     27  C   UNL     1      39.824 -25.983 -13.588  0.00  0.00    -0.000 C 
ATOM     28  C   UNL     1      40.357 -25.432 -14.755  0.00  0.00    -0.000 C 
ENDBRANCH  22  23
BRANCH  22  29
ATOM     29  C   UNL     1      36.462 -23.383 -12.185  0.00  0.00    +0.133 C 
BRANCH  29  31
ATOM     30  O   UNL     1      36.390 -23.908  -9.804  0.00  0.00    -0.250 OA
ATOM     31  C   UNL     1      35.966 -24.085 -10.938  0.00  0.00    +0.316 C 
BRANCH  31  32
ATOM     32  O   UNL     1      34.984 -24.979 -11.228  0.00  0.00    -0.480 OA
ATOM     33  H   UNL     1      34.560 -24.954 -12.063  0.00  0.00    +0.295 HD
ENDBRANCH  31  32
ENDBRANCH  29  31
ENDBRANCH  22  29
ENDBRANCH  19  22
ENDBRANCH   2  20
TORSDOF 8
ENDMDL
MODEL 2
REMARK VINA RESULT:     -11.8      2.819      4.486
REMARK  Name = 448942
REMARK  8 active torsions:
REMARK  status: ('A' for Active; 'I' for Inactive)
REMARK    1  A    between atoms: C_2  and  C_20
REMARK    2  A    between atoms: C_3  and  C_6
REMARK    3  A    between atoms: C_7  and  C_13
REMARK    4  A    between atoms: N_19  and  C_22
REMARK    5  A    between atoms: C_22  and  C_23
REMARK    6  A    between atoms: C_22  and  C_29
REMARK    7  A    between atoms: C_29  and  C_31
REMARK    8  A    between atoms: C_31  and  O_32
REMARK                            x       y       z     vdW  Elec       q    Type
REMARK                         _______ _______ _______ _____ _____    ______ ____
ROOT
ATOM      1  S   UNL     1      36.738 -21.207 -19.506  0.00  0.00    -0.082 S 
ATOM      2  C   UNL     1      35.058 -21.415 -19.492  0.00  0.00    +0.083 C 
ATOM      3  C   UNL     1      35.262 -19.606 -20.870  0.00  0.00    +0.007 C 
ATOM      4  C   UNL     1      34.372 -20.523 -20.239  0.00  0.00    +0.012 C 
ATOM      5  C   UNL     1      36.578 -19.864 -20.556  0.00  0.00    +0.036 C 
ENDROOT
BRANCH   3   6
ATOM      6  C   UNL     1      34.911 -18.516 -21.741  0.00  0.00    +0.001 C 
ATOM      7  C   UNL     1      34.231 -16.403 -23.427  0.00  0.00    +0.000 C 
ATOM      8  C   UNL     1      34.955 -18.688 -23.123  0.00  0.00    +0.000 C 
ATOM      9  C   UNL     1      34.527 -17.290 -21.199  0.00  0.00    +0.000 C 
ATOM     10  C   UNL     1      34.616 -17.630 -23.967  0.00  0.00    +0.000 C 
ATOM     11  C   UNL     1      34.188 -16.233 -22.043  0.00  0.00    +0.000 C 
BRANCH   7  13
ATOM     12  N   UNL     1      33.204 -13.187 -25.995  0.00  0.00    -0.242 NA
ATOM     13  C   UNL     1      33.880 -15.306 -24.302  0.00  0.00    +0.003 C 
ATOM     14  C   UNL     1      33.525 -15.554 -25.623  0.00  0.00    +0.021 C 
ATOM     15  C   UNL     1      33.897 -13.999 -23.826  0.00  0.00    +0.021 C 
ATOM     16  C   UNL     1      33.199 -14.470 -26.422  0.00  0.00    +0.099 C 
ATOM     17  C   UNL     1      33.555 -12.985 -24.705  0.00  0.00    +0.099 C 
ENDBRANCH   7  13
ENDBRANCH   3   6
BRANCH   2  20
ATOM     18  O   UNL     1      33.865 -23.440 -19.192  0.00  0.00    -0.270 OA
ATOM     19  N   UNL     1      34.740 -22.438 -17.319  0.00  0.00    -0.298 N 
ATOM     20  C   UNL     1      34.510 -22.517 -18.690  0.00  0.00    +0.252 C 
ATOM     21  H   UNL     1      35.261 -21.681 -16.966  0.00  0.00    +0.150 HD
BRANCH  19  22
ATOM     22  C   UNL     1      34.236 -23.433 -16.397  0.00  0.00    +0.105 C 
BRANCH  22  23
ATOM     23  C   UNL     1      35.341 -23.884 -15.462  0.00  0.00    -0.004 C 
ATOM     24  C   UNL     1      36.635 -23.457 -15.696  0.00  0.00    -0.003 C 
ATOM     25  C   UNL     1      35.028 -24.711 -14.399  0.00  0.00    -0.003 C 
ATOM     26  C   UNL     1      37.653 -23.872 -14.836  0.00  0.00    -0.000 C 
ATOM     27  C   UNL     1      36.044 -25.126 -13.540  0.00  0.00    -0.000 C 
ATOM     28  C   UNL     1      37.357 -24.708 -13.759  0.00  0.00    -0.000 C 
ENDBRANCH  22  23
BRANCH  22  29
ATOM     29  C   UNL     1      32.991 -22.899 -15.667  0.00  0.00    +0.133 C 
BRANCH  29  31
ATOM     30  O   UNL     1      30.874 -24.058 -16.017  0.00  0.00    -0.250 OA
ATOM     31  C   UNL     1      31.694 -23.224 -16.377  0.00  0.00    +0.316 C 
BRANCH  31  32
ATOM     32  O   UNL     1      31.547 -22.483 -17.507  0.00  0.00    -0.480 OA
ATOM     33  H   UNL     1      31.423 -21.557 -17.446  0.00  0.00    +0.295 HD
ENDBRANCH  31  32
ENDBRANCH  29  31
ENDBRANCH  22  29
ENDBRANCH  19  22
ENDBRANCH   2  20
TORSDOF 8
ENDMDL
MODEL 3
REMARK VINA RESULT:     -11.8      2.822      4.430
REMARK  Name = 448942
REMARK  8 active torsions:
REMARK  status: ('A' for Active; 'I' for Inactive)
REMARK    1  A    between atoms: C_2  and  C_20
REMARK    2  A    between atoms: C_3  and  C_6
REMARK    3  A    between atoms: C_7  and  C_13
REMARK    4  A    between atoms: N_19  and  C_22
REMARK    5  A    between atoms: C_22  and  C_23
REMARK    6  A    between atoms: C_22  and  C_29
REMARK    7  A    between atoms: C_29  and  C_31
REMARK    8  A    between atoms: C_31  and  O_32
REMARK                            x       y       z     vdW  Elec       q    Type
REMARK                         _______ _______ _______ _____ _____    ______ ____
ROOT
ATOM      1  S   UNL     1      36.732 -21.239 -19.515  0.00  0.00    -0.082 S 
ATOM      2  C   UNL     1      35.050 -21.424 -19.484  0.00  0.00    +0.083 C 
ATOM      3  C   UNL     1      35.265 -19.613 -20.857  0.00  0.00    +0.007 C 
ATOM      4  C   UNL     1      34.369 -20.520 -20.221  0.00  0.00    +0.012 C 
ATOM      5  C   UNL     1      36.580 -19.889 -20.558  0.00  0.00    +0.036 C 
ENDROOT
BRANCH   3   6
ATOM      6  C   UNL     1      34.920 -18.515 -21.720  0.00  0.00    +0.001 C 
ATOM      7  C   UNL     1      34.250 -16.389 -23.394  0.00  0.00    +0.000 C 
ATOM      8  C   UNL     1      34.538 -17.292 -21.172  0.00  0.00    +0.000 C 
ATOM      9  C   UNL     1      34.967 -18.678 -23.104  0.00  0.00    +0.000 C 
ATOM     10  C   UNL     1      34.203 -16.228 -22.009  0.00  0.00    +0.000 C 
ATOM     11  C   UNL     1      34.631 -17.613 -23.941  0.00  0.00    +0.000 C 
BRANCH   7  13
ATOM     12  N   UNL     1      33.224 -13.154 -25.938  0.00  0.00    -0.242 NA
ATOM     13  C   UNL     1      33.901 -15.286 -24.262  0.00  0.00    +0.003 C 
ATOM     14  C   UNL     1      33.919 -13.983 -23.776  0.00  0.00    +0.021 C 
ATOM     15  C   UNL     1      33.545 -15.523 -25.585  0.00  0.00    +0.021 C 
ATOM     16  C   UNL     1      33.575 -12.961 -24.646  0.00  0.00    +0.099 C 
ATOM     17  C   UNL     1      33.218 -14.433 -26.374  0.00  0.00    +0.099 C 
ENDBRANCH   7  13
ENDBRANCH   3   6
BRANCH   2  20
ATOM     18  O   UNL     1      33.843 -23.440 -19.182  0.00  0.00    -0.270 OA
ATOM     19  N   UNL     1      34.727 -22.444 -17.311  0.00  0.00    -0.298 N 
ATOM     20  C   UNL     1      34.495 -22.522 -18.681  0.00  0.00    +0.252 C 
ATOM     21  H   UNL     1      35.254 -21.691 -16.959  0.00  0.00    +0.150 HD
BRANCH  19  22
ATOM     22  C   UNL     1      34.217 -23.435 -16.387  0.00  0.00    +0.105 C 
BRANCH  22  23
ATOM     23  C   UNL     1      35.317 -23.885 -15.446  0.00  0.00    -0.004 C 
ATOM     24  C   UNL     1      36.615 -23.472 -15.684  0.00  0.00    -0.003 C 
ATOM     25  C   UNL     1      34.996 -24.698 -14.375  0.00  0.00    -0.003 C 
ATOM     26  C   UNL     1      37.628 -23.887 -14.818  0.00  0.00    -0.000 C 
ATOM     27  C   UNL     1      36.008 -25.113 -13.510  0.00  0.00    -0.000 C 
ATOM     28  C   UNL     1      37.324 -24.708 -13.732  0.00  0.00    -0.000 C 
ENDBRANCH  22  23
BRANCH  22  29
ATOM     29  C   UNL     1      32.970 -22.896 -15.665  0.00  0.00    +0.133 C 
BRANCH  29  31
ATOM     30  O   UNL     1      30.857 -24.060 -16.021  0.00  0.00    -0.250 OA
ATOM     31  C   UNL     1      31.675 -23.223 -16.377  0.00  0.00    +0.316 C 
BRANCH  31  32
ATOM     32  O   UNL     1      31.528 -22.480 -17.507  0.00  0.00    -0.480 OA
ATOM     33  H   UNL     1      30.680 -22.376 -17.891  0.00  0.00    +0.295 HD
ENDBRANCH  31  32
ENDBRANCH  29  31
ENDBRANCH  22  29
ENDBRANCH  19  22
ENDBRANCH   2  20
TORSDOF 8
ENDMDL
MODEL 4
REMARK VINA RESULT:     -11.5      8.884     14.971
REMARK  Name = 448942
REMARK  8 active torsions:
REMARK  status: ('A' for Active; 'I' for Inactive)
REMARK    1  A    between atoms: C_2  and  C_20
REMARK    2  A    between atoms: C_3  and  C_6
REMARK    3  A    between atoms: C_7  and  C_13
REMARK    4  A    between atoms: N_19  and  C_22
REMARK    5  A    between atoms: C_22  and  C_23
REMARK    6  A    between atoms: C_22  and  C_29
REMARK    7  A    between atoms: C_29  and  C_31
REMARK    8  A    between atoms: C_31  and  O_32
REMARK                            x       y       z     vdW  Elec       q    Type
REMARK                         _______ _______ _______ _____ _____    ______ ____
ROOT
ATOM      1  S   UNL     1      33.691 -11.459 -25.325  0.00  0.00    -0.082 S 
ATOM      2  C   UNL     1      33.300 -11.094 -23.719  0.00  0.00    +0.083 C 
ATOM      3  C   UNL     1      33.881 -13.294 -23.537  0.00  0.00    +0.007 C 
ATOM      4  C   UNL     1      33.432 -12.125 -22.857  0.00  0.00    +0.012 C 
ATOM      5  C   UNL     1      34.061 -13.072 -24.883  0.00  0.00    +0.036 C 
ENDROOT
BRANCH   3   6
ATOM      6  C   UNL     1      34.137 -14.587 -22.961  0.00  0.00    +0.001 C 
ATOM      7  C   UNL     1      34.633 -17.093 -21.844  0.00  0.00    +0.000 C 
ATOM      8  C   UNL     1      34.370 -15.683 -23.789  0.00  0.00    +0.000 C 
ATOM      9  C   UNL     1      34.151 -14.741 -21.575  0.00  0.00    +0.000 C 
ATOM     10  C   UNL     1      34.618 -16.938 -23.231  0.00  0.00    +0.000 C 
ATOM     11  C   UNL     1      34.399 -15.995 -21.017  0.00  0.00    +0.000 C 
BRANCH   7  13
ATOM     12  N   UNL     1      35.383 -20.908 -20.149  0.00  0.00    -0.242 NA
ATOM     13  C   UNL     1      34.888 -18.393 -21.266  0.00  0.00    +0.003 C 
ATOM     14  C   UNL     1      36.194 -18.806 -21.027  0.00  0.00    +0.021 C 
ATOM     15  C   UNL     1      33.829 -19.237 -20.947  0.00  0.00    +0.021 C 
ATOM     16  C   UNL     1      36.387 -20.061 -20.472  0.00  0.00    +0.099 C 
ATOM     17  C   UNL     1      34.127 -20.472 -20.396  0.00  0.00    +0.099 C 
ENDBRANCH   7  13
ENDBRANCH   3   6
BRANCH   2  20
ATOM     18  O   UNL     1      31.710  -9.341 -23.612  0.00  0.00    -0.270 OA
ATOM     19  N   UNL     1      33.848  -8.876 -22.914  0.00  0.00    -0.298 N 
ATOM     20  C   UNL     1      32.864  -9.724 -23.414  0.00  0.00    +0.252 C 
ATOM     21  H   UNL     1      34.756  -9.229 -22.774  0.00  0.00    +0.150 HD
BRANCH  19  22
ATOM     22  C   UNL     1      33.579  -7.490 -22.596  0.00  0.00    +0.105 C 
BRANCH  22  23
ATOM     23  C   UNL     1      33.464  -6.675 -23.869  0.00  0.00    -0.004 C 
ATOM     24  C   UNL     1      32.309  -5.951 -24.101  0.00  0.00    -0.003 C 
ATOM     25  C   UNL     1      34.515  -6.676 -24.767  0.00  0.00    -0.003 C 
ATOM     26  C   UNL     1      32.202  -5.201 -25.272  0.00  0.00    -0.000 C 
ATOM     27  C   UNL     1      34.408  -5.927 -25.938  0.00  0.00    -0.000 C 
ATOM     28  C   UNL     1      33.251  -5.190 -26.191  0.00  0.00    -0.000 C 
ENDBRANCH  22  23
BRANCH  22  29
ATOM     29  C   UNL     1      32.345  -7.384 -21.683  0.00  0.00    +0.133 C 
BRANCH  29  31
ATOM     30  O   UNL     1      32.251  -9.152 -20.005  0.00  0.00    -0.250 OA
ATOM     31  C   UNL     1      32.552  -8.008 -20.319  0.00  0.00    +0.316 C 
BRANCH  31  32
ATOM     32  O   UNL     1      33.103  -7.123 -19.447  0.00  0.00    -0.480 OA
ATOM     33  H   UNL     1      33.479  -7.429 -18.645  0.00  0.00    +0.295 HD
ENDBRANCH  31  32
ENDBRANCH  29  31
ENDBRANCH  22  29
ENDBRANCH  19  22
ENDBRANCH   2  20
TORSDOF 8
ENDMDL
MODEL 5
REMARK VINA RESULT:     -11.4      2.112      3.267
REMARK  Name = 448942
REMARK  8 active torsions:
REMARK  status: ('A' for Active; 'I' for Inactive)
REMARK    1  A    between atoms: C_2  and  C_20
REMARK    2  A    between atoms: C_3  and  C_6
REMARK    3  A    between atoms: C_7  and  C_13
REMARK    4  A    between atoms: N_19  and  C_22
REMARK    5  A    between atoms: C_22  and  C_23
REMARK    6  A    between atoms: C_22  and  C_29
REMARK    7  A    between atoms: C_29  and  C_31
REMARK    8  A    between atoms: C_31  and  O_32
REMARK                            x       y       z     vdW  Elec       q    Type
REMARK                         _______ _______ _______ _____ _____    ______ ____
ROOT
ATOM      1  S   UNL     1      34.857 -23.297 -17.097  0.00  0.00    -0.082 S 
ATOM      2  C   UNL     1      36.295 -22.416 -16.952  0.00  0.00    +0.083 C 
ATOM      3  C   UNL     1      35.395 -21.475 -18.828  0.00  0.00    +0.007 C 
ATOM      4  C   UNL     1      36.485 -21.482 -17.910  0.00  0.00    +0.012 C 
ATOM      5  C   UNL     1      34.440 -22.413 -18.504  0.00  0.00    +0.036 C 
ENDROOT
BRANCH   3   6
ATOM      6  C   UNL     1      35.234 -20.627 -19.978  0.00  0.00    +0.001 C 
ATOM      7  C   UNL     1      34.922 -18.981 -22.206  0.00  0.00    +0.000 C 
ATOM      8  C   UNL     1      36.351 -20.047 -20.576  0.00  0.00    +0.000 C 
ATOM      9  C   UNL     1      33.960 -20.385 -20.491  0.00  0.00    +0.000 C 
ATOM     10  C   UNL     1      36.196 -19.223 -21.691  0.00  0.00    +0.000 C 
ATOM     11  C   UNL     1      33.805 -19.561 -21.606  0.00  0.00    +0.000 C 
BRANCH   7  13
ATOM     12  N   UNL     1      34.446 -16.471 -25.592  0.00  0.00    -0.242 NA
ATOM     13  C   UNL     1      34.760 -18.126 -23.361  0.00  0.00    +0.003 C 
ATOM     14  C   UNL     1      34.806 -16.744 -23.217  0.00  0.00    +0.021 C 
ATOM     15  C   UNL     1      34.557 -18.681 -24.620  0.00  0.00    +0.021 C 
ATOM     16  C   UNL     1      34.645 -15.967 -24.353  0.00  0.00    +0.099 C 
ATOM     17  C   UNL     1      34.407 -17.819 -25.693  0.00  0.00    +0.099 C 
ENDBRANCH   7  13
ENDBRANCH   3   6
BRANCH   2  20
ATOM     18  O   UNL     1      37.900 -21.885 -15.292  0.00  0.00    -0.270 OA
ATOM     19  N   UNL     1      37.190 -24.066 -15.421  0.00  0.00    -0.298 N 
ATOM     20  C   UNL     1      37.184 -22.734 -15.827  0.00  0.00    +0.252 C 
ATOM     21  H   UNL     1      36.600 -24.706 -15.880  0.00  0.00    +0.150 HD
BRANCH  19  22
ATOM     22  C   UNL     1      38.037 -24.538 -14.347  0.00  0.00    +0.105 C 
BRANCH  22  23
ATOM     23  C   UNL     1      37.330 -24.374 -13.015  0.00  0.00    -0.004 C 
ATOM     24  C   UNL     1      36.329 -25.264 -12.672  0.00  0.00    -0.003 C 
ATOM     25  C   UNL     1      37.704 -23.340 -12.178  0.00  0.00    -0.003 C 
ATOM     26  C   UNL     1      35.678 -25.114 -11.448  0.00  0.00    -0.000 C 
ATOM     27  C   UNL     1      37.054 -23.189 -10.954  0.00  0.00    -0.000 C 
ATOM     28  C   UNL     1      36.040 -24.076 -10.589  0.00  0.00    -0.000 C 
ENDBRANCH  22  23
BRANCH  22  29
ATOM     29  C   UNL     1      38.496 -25.980 -14.627  0.00  0.00    +0.133 C 
BRANCH  29  31
ATOM     30  O   UNL     1      40.812 -26.446 -14.021  0.00  0.00    -0.250 OA
ATOM     31  C   UNL     1      39.988 -26.100 -14.857  0.00  0.00    +0.316 C 
BRANCH  31  32
ATOM     32  O   UNL     1      40.326 -25.745 -16.125  0.00  0.00    -0.480 OA
ATOM     33  H   UNL     1      39.657 -25.549 -16.750  0.00  0.00    +0.295 HD
ENDBRANCH  31  32
ENDBRANCH  29  31
ENDBRANCH  22  29
ENDBRANCH  19  22
ENDBRANCH   2  20
TORSDOF 8
ENDMDL
MODEL 6
REMARK VINA RESULT:     -11.4      6.631     12.757
REMARK  Name = 448942
REMARK  8 active torsions:
REMARK  status: ('A' for Active; 'I' for Inactive)
REMARK    1  A    between atoms: C_2  and  C_20
REMARK    2  A    between atoms: C_3  and  C_6
REMARK    3  A    between atoms: C_7  and  C_13
REMARK    4  A    between atoms: N_19  and  C_22
REMARK    5  A    between atoms: C_22  and  C_23
REMARK    6  A    between atoms: C_22  and  C_29
REMARK    7  A    between atoms: C_29  and  C_31
REMARK    8  A    between atoms: C_31  and  O_32
REMARK                            x       y       z     vdW  Elec       q    Type
REMARK                         _______ _______ _______ _____ _____    ______ ____
ROOT
ATOM      1  S   UNL     1      34.921 -16.871 -25.200  0.00  0.00    -0.082 S 
ATOM      2  C   UNL     1      33.977 -16.043 -24.065  0.00  0.00    +0.083 C 
ATOM      3  C   UNL     1      34.495 -17.939 -22.902  0.00  0.00    +0.007 C 
ATOM      4  C   UNL     1      33.812 -16.687 -22.889  0.00  0.00    +0.012 C 
ATOM      5  C   UNL     1      35.138 -18.164 -24.098  0.00  0.00    +0.036 C 
ENDROOT
BRANCH   3   6
ATOM      6  C   UNL     1      34.553 -18.906 -21.839  0.00  0.00    +0.001 C 
ATOM      7  C   UNL     1      34.668 -20.779 -19.778  0.00  0.00    +0.000 C 
ATOM      8  C   UNL     1      33.375 -19.418 -21.299  0.00  0.00    +0.000 C 
ATOM      9  C   UNL     1      35.789 -19.328 -21.351  0.00  0.00    +0.000 C 
ATOM     10  C   UNL     1      33.432 -20.355 -20.267  0.00  0.00    +0.000 C 
ATOM     11  C   UNL     1      35.846 -20.265 -20.319  0.00  0.00    +0.000 C 
BRANCH   7  13
ATOM     12  N   UNL     1      34.838 -23.624 -16.637  0.00  0.00    -0.242 NA
ATOM     13  C   UNL     1      34.727 -21.749 -18.707  0.00  0.00    +0.003 C 
ATOM     14  C   UNL     1      33.629 -22.559 -18.438  0.00  0.00    +0.021 C 
ATOM     15  C   UNL     1      35.881 -21.876 -17.941  0.00  0.00    +0.021 C 
ATOM     16  C   UNL     1      33.734 -23.472 -17.402  0.00  0.00    +0.099 C 
ATOM     17  C   UNL     1      35.885 -22.820 -16.927  0.00  0.00    +0.099 C 
ENDBRANCH   7  13
ENDBRANCH   3   6
BRANCH   2  20
ATOM     18  O   UNL     1      32.809 -14.559 -25.495  0.00  0.00    -0.270 OA
ATOM     19  N   UNL     1      33.705 -13.688 -23.567  0.00  0.00    -0.298 N 
ATOM     20  C   UNL     1      33.437 -14.732 -24.448  0.00  0.00    +0.252 C 
ATOM     21  H   UNL     1      34.211 -13.877 -22.744  0.00  0.00    +0.150 HD
BRANCH  19  22
ATOM     22  C   UNL     1      33.265 -12.334 -23.823  0.00  0.00    +0.105 C 
BRANCH  22  23
ATOM     23  C   UNL     1      32.514 -11.793 -22.622  0.00  0.00    -0.004 C 
ATOM     24  C   UNL     1      32.167 -12.659 -21.602  0.00  0.00    -0.003 C 
ATOM     25  C   UNL     1      32.194 -10.449 -22.577  0.00  0.00    -0.003 C 
ATOM     26  C   UNL     1      31.475 -12.163 -20.496  0.00  0.00    -0.000 C 
ATOM     27  C   UNL     1      31.503  -9.953 -21.473  0.00  0.00    -0.000 C 
ATOM     28  C   UNL     1      31.142 -10.810 -20.432  0.00  0.00    -0.000 C 
ENDBRANCH  22  23
BRANCH  22  29
ATOM     29  C   UNL     1      34.457 -11.459 -24.249  0.00  0.00    +0.133 C 
BRANCH  29  31
ATOM     30  O   UNL     1      35.354 -10.543 -26.323  0.00  0.00    -0.250 OA
ATOM     31  C   UNL     1      34.566 -11.281 -25.749  0.00  0.00    +0.316 C 
BRANCH  31  32
ATOM     32  O   UNL     1      33.647 -12.037 -26.406  0.00  0.00    -0.480 OA
ATOM     33  H   UNL     1      33.901 -12.849 -26.796  0.00  0.00    +0.295 HD
ENDBRANCH  31  32
ENDBRANCH  29  31
ENDBRANCH  22  29
ENDBRANCH  19  22
ENDBRANCH   2  20
TORSDOF 8
ENDMDL
MODEL 7
REMARK VINA RESULT:     -11.2      2.382      4.239
REMARK  Name = 448942
REMARK  8 active torsions:
REMARK  status: ('A' for Active; 'I' for Inactive)
REMARK    1  A    between atoms: C_2  and  C_20
REMARK    2  A    between atoms: C_3  and  C_6
REMARK    3  A    between atoms: C_7  and  C_13
REMARK    4  A    between atoms: N_19  and  C_22
REMARK    5  A    between atoms: C_22  and  C_23
REMARK    6  A    between atoms: C_22  and  C_29
REMARK    7  A    between atoms: C_29  and  C_31
REMARK    8  A    between atoms: C_31  and  O_32
REMARK                            x       y       z     vdW  Elec       q    Type
REMARK                         _______ _______ _______ _____ _____    ______ ____
ROOT
ATOM      1  S   UNL     1      37.181 -22.470 -16.574  0.00  0.00    -0.082 S 
ATOM      2  C   UNL     1      35.507 -22.701 -16.687  0.00  0.00    +0.083 C 
ATOM      3  C   UNL     1      35.889 -21.380 -18.510  0.00  0.00    +0.007 C 
ATOM      4  C   UNL     1      34.922 -22.087 -17.738  0.00  0.00    +0.012 C 
ATOM      5  C   UNL     1      37.157 -21.503 -17.988  0.00  0.00    +0.036 C 
ENDROOT
BRANCH   3   6
ATOM      6  C   UNL     1      35.653 -20.606 -19.699  0.00  0.00    +0.001 C 
ATOM      7  C   UNL     1      35.193 -19.107 -22.004  0.00  0.00    +0.000 C 
ATOM      8  C   UNL     1      36.698 -19.896 -20.286  0.00  0.00    +0.000 C 
ATOM      9  C   UNL     1      34.378 -20.569 -20.262  0.00  0.00    +0.000 C 
ATOM     10  C   UNL     1      36.469 -19.145 -21.439  0.00  0.00    +0.000 C 
ATOM     11  C   UNL     1      34.148 -19.818 -21.415  0.00  0.00    +0.000 C 
BRANCH   7  13
ATOM     12  N   UNL     1      34.492 -16.819 -25.506  0.00  0.00    -0.242 NA
ATOM     13  C   UNL     1      34.955 -18.327 -23.198  0.00  0.00    +0.003 C 
ATOM     14  C   UNL     1      35.103 -16.945 -23.170  0.00  0.00    +0.021 C 
ATOM     15  C   UNL     1      34.576 -18.956 -24.379  0.00  0.00    +0.021 C 
ATOM     16  C   UNL     1      34.862 -16.243 -24.340  0.00  0.00    +0.099 C 
ATOM     17  C   UNL     1      34.358 -18.165 -25.495  0.00  0.00    +0.099 C 
ENDBRANCH   7  13
ENDBRANCH   3   6
BRANCH   2  20
ATOM     18  O   UNL     1      34.888 -24.758 -15.689  0.00  0.00    -0.270 OA
ATOM     19  N   UNL     1      34.179 -22.828 -14.665  0.00  0.00    -0.298 N 
ATOM     20  C   UNL     1      34.858 -23.526 -15.660  0.00  0.00    +0.252 C 
ATOM     21  H   UNL     1      34.184 -21.844 -14.686  0.00  0.00    +0.150 HD
BRANCH  19  22
ATOM     22  C   UNL     1      33.465 -23.503 -13.603  0.00  0.00    +0.105 C 
BRANCH  22  23
ATOM     23  C   UNL     1      32.057 -23.840 -14.054  0.00  0.00    -0.004 C 
ATOM     24  C   UNL     1      31.599 -25.137 -13.912  0.00  0.00    -0.003 C 
ATOM     25  C   UNL     1      31.266 -22.844 -14.595  0.00  0.00    -0.003 C 
ATOM     26  C   UNL     1      30.304 -25.449 -14.327  0.00  0.00    -0.000 C 
ATOM     27  C   UNL     1      29.972 -23.155 -15.010  0.00  0.00    -0.000 C 
ATOM     28  C   UNL     1      29.491 -24.458 -14.877  0.00  0.00    -0.000 C 
ENDBRANCH  22  23
BRANCH  22  29
ATOM     29  C   UNL     1      34.265 -24.724 -13.116  0.00  0.00    +0.133 C 
BRANCH  29  31
ATOM     30  O   UNL     1      35.360 -25.093 -10.969  0.00  0.00    -0.250 OA
ATOM     31  C   UNL     1      35.202 -24.408 -11.970  0.00  0.00    +0.316 C 
BRANCH  31  32
ATOM     32  O   UNL     1      35.852 -23.231 -12.169  0.00  0.00    -0.480 OA
ATOM     33  H   UNL     1      35.425 -22.422 -11.971  0.00  0.00    +0.295 HD
ENDBRANCH  31  32
ENDBRANCH  29  31
ENDBRANCH  22  29
ENDBRANCH  19  22
ENDBRANCH   2  20
TORSDOF 8
ENDMDL
MODEL 8
REMARK VINA RESULT:     -11.0      6.921     10.988
REMARK  Name = 448942
REMARK  8 active torsions:
REMARK  status: ('A' for Active; 'I' for Inactive)
REMARK    1  A    between atoms: C_2  and  C_20
REMARK    2  A    between atoms: C_3  and  C_6
REMARK    3  A    between atoms: C_7  and  C_13
REMARK    4  A    between atoms: N_19  and  C_22
REMARK    5  A    between atoms: C_22  and  C_23
REMARK    6  A    between atoms: C_22  and  C_29
REMARK    7  A    between atoms: C_29  and  C_31
REMARK    8  A    between atoms: C_31  and  O_32
REMARK                            x       y       z     vdW  Elec       q    Type
REMARK                         _______ _______ _______ _____ _____    ______ ____
ROOT
ATOM      1  S   UNL     1      32.272 -15.224 -20.215  0.00  0.00    -0.082 S 
ATOM      2  C   UNL     1      33.652 -15.215 -21.195  0.00  0.00    +0.083 C 
ATOM      3  C   UNL     1      32.796 -13.144 -21.630  0.00  0.00    +0.007 C 
ATOM      4  C   UNL     1      33.839 -14.077 -21.899  0.00  0.00    +0.012 C 
ATOM      5  C   UNL     1      31.877 -13.639 -20.733  0.00  0.00    +0.036 C 
ENDROOT
BRANCH   3   6
ATOM      6  C   UNL     1      32.647 -11.826 -22.187  0.00  0.00    +0.001 C 
ATOM      7  C   UNL     1      32.358  -9.271 -23.265  0.00  0.00    +0.000 C 
ATOM      8  C   UNL     1      33.378 -11.461 -23.316  0.00  0.00    +0.000 C 
ATOM      9  C   UNL     1      31.771 -10.916 -21.595  0.00  0.00    +0.000 C 
ATOM     10  C   UNL     1      33.234 -10.183 -23.855  0.00  0.00    +0.000 C 
ATOM     11  C   UNL     1      31.627  -9.638 -22.135  0.00  0.00    +0.000 C 
BRANCH   7  13
ATOM     12  N   UNL     1      31.924  -5.382 -24.900  0.00  0.00    -0.242 NA
ATOM     13  C   UNL     1      32.209  -7.946 -23.823  0.00  0.00    +0.003 C 
ATOM     14  C   UNL     1      33.330  -7.230 -24.227  0.00  0.00    +0.021 C 
ATOM     15  C   UNL     1      30.945  -7.381 -23.957  0.00  0.00    +0.021 C 
ATOM     16  C   UNL     1      33.136  -5.963 -24.755  0.00  0.00    +0.099 C 
ATOM     17  C   UNL     1      30.858  -6.108 -24.496  0.00  0.00    +0.099 C 
ENDBRANCH   7  13
ENDBRANCH   3   6
BRANCH   2  20
ATOM     18  O   UNL     1      35.365 -16.607 -20.335  0.00  0.00    -0.270 OA
ATOM     19  N   UNL     1      34.291 -17.304 -22.242  0.00  0.00    -0.298 N 
ATOM     20  C   UNL     1      34.502 -16.413 -21.193  0.00  0.00    +0.252 C 
ATOM     21  H   UNL     1      33.589 -17.105 -22.903  0.00  0.00    +0.150 HD
BRANCH  19  22
ATOM     22  C   UNL     1      35.071 -18.513 -22.392  0.00  0.00    +0.105 C 
BRANCH  22  23
ATOM     23  C   UNL     1      34.640 -19.543 -21.366  0.00  0.00    -0.004 C 
ATOM     24  C   UNL     1      33.291 -19.750 -21.147  0.00  0.00    -0.003 C 
ATOM     25  C   UNL     1      35.607 -20.249 -20.674  0.00  0.00    -0.003 C 
ATOM     26  C   UNL     1      32.894 -20.697 -20.203  0.00  0.00    -0.000 C 
ATOM     27  C   UNL     1      35.210 -21.195 -19.730  0.00  0.00    -0.000 C 
ATOM     28  C   UNL     1      33.854 -21.419 -19.493  0.00  0.00    -0.000 C 
ENDBRANCH  22  23
BRANCH  22  29
ATOM     29  C   UNL     1      34.993 -19.020 -23.843  0.00  0.00    +0.133 C 
BRANCH  29  31
ATOM     30  O   UNL     1      33.675 -18.011 -25.629  0.00  0.00    -0.250 OA
ATOM     31  C   UNL     1      34.601 -17.944 -24.834  0.00  0.00    +0.316 C 
BRANCH  31  32
ATOM     32  O   UNL     1      35.433 -16.872 -24.758  0.00  0.00    -0.480 OA
ATOM     33  H   UNL     1      36.360 -16.995 -24.800  0.00  0.00    +0.295 HD
ENDBRANCH  31  32
ENDBRANCH  29  31
ENDBRANCH  22  29
ENDBRANCH  19  22
ENDBRANCH   2  20
TORSDOF 8
ENDMDL
MODEL 9
REMARK VINA RESULT:     -10.4      5.098     11.784
REMARK  Name = 448942
REMARK  8 active torsions:
REMARK  status: ('A' for Active; 'I' for Inactive)
REMARK    1  A    between atoms: C_2  and  C_20
REMARK    2  A    between atoms: C_3  and  C_6
REMARK    3  A    between atoms: C_7  and  C_13
REMARK    4  A    between atoms: N_19  and  C_22
REMARK    5  A    between atoms: C_22  and  C_23
REMARK    6  A    between atoms: C_22  and  C_29
REMARK    7  A    between atoms: C_29  and  C_31
REMARK    8  A    between atoms: C_31  and  O_32
REMARK                            x       y       z     vdW  Elec       q    Type
REMARK                         _______ _______ _______ _____ _____    ______ ____
ROOT
ATOM      1  S   UNL     1      34.653 -18.565 -23.969  0.00  0.00    -0.082 S 
ATOM      2  C   UNL     1      34.772 -17.400 -22.746  0.00  0.00    +0.083 C 
ATOM      3  C   UNL     1      34.883 -19.327 -21.525  0.00  0.00    +0.007 C 
ATOM      4  C   UNL     1      34.889 -17.902 -21.497  0.00  0.00    +0.012 C 
ATOM      5  C   UNL     1      34.760 -19.818 -22.805  0.00  0.00    +0.036 C 
ENDROOT
BRANCH   3   6
ATOM      6  C   UNL     1      34.986 -20.217 -20.400  0.00  0.00    +0.001 C 
ATOM      7  C   UNL     1      35.189 -21.941 -18.218  0.00  0.00    +0.000 C 
ATOM      8  C   UNL     1      33.847 -20.845 -19.902  0.00  0.00    +0.000 C 
ATOM      9  C   UNL     1      36.228 -20.448 -19.809  0.00  0.00    +0.000 C 
ATOM     10  C   UNL     1      33.947 -21.708 -18.811  0.00  0.00    +0.000 C 
ATOM     11  C   UNL     1      36.329 -21.310 -18.717  0.00  0.00    +0.000 C 
BRANCH   7  13
ATOM     12  N   UNL     1      35.496 -24.561 -14.898  0.00  0.00    -0.242 NA
ATOM     13  C   UNL     1      35.293 -22.834 -17.086  0.00  0.00    +0.003 C 
ATOM     14  C   UNL     1      36.494 -22.946 -16.394  0.00  0.00    +0.021 C 
ATOM     15  C   UNL     1      34.194 -23.585 -16.684  0.00  0.00    +0.021 C 
ATOM     16  C   UNL     1      36.544 -23.816 -15.317  0.00  0.00    +0.099 C 
ATOM     17  C   UNL     1      34.346 -24.426 -15.595  0.00  0.00    +0.099 C 
ENDBRANCH   7  13
ENDBRANCH   3   6
BRANCH   2  20
ATOM     18  O   UNL     1      35.671 -15.448 -23.742  0.00  0.00    -0.270 OA
ATOM     19  N   UNL     1      33.599 -15.281 -22.765  0.00  0.00    -0.298 N 
ATOM     20  C   UNL     1      34.739 -15.986 -23.141  0.00  0.00    +0.252 C 
ATOM     21  H   UNL     1      32.882 -15.756 -22.285  0.00  0.00    +0.150 HD
BRANCH  19  22
ATOM     22  C   UNL     1      33.435 -13.873 -23.055  0.00  0.00    +0.105 C 
BRANCH  22  23
ATOM     23  C   UNL     1      33.367 -13.654 -24.554  0.00  0.00    -0.004 C 
ATOM     24  C   UNL     1      33.787 -12.445 -25.076  0.00  0.00    -0.003 C 
ATOM     25  C   UNL     1      32.886 -14.668 -25.361  0.00  0.00    -0.003 C 
ATOM     26  C   UNL     1      33.724 -12.243 -26.455  0.00  0.00    -0.000 C 
ATOM     27  C   UNL     1      32.823 -14.467 -26.740  0.00  0.00    -0.000 C 
ATOM     28  C   UNL     1      33.241 -13.253 -27.287  0.00  0.00    -0.000 C 
ENDBRANCH  22  23
BRANCH  22  29
ATOM     29  C   UNL     1      32.222 -13.311 -22.295  0.00  0.00    +0.133 C 
BRANCH  29  31
ATOM     30  O   UNL     1      32.691 -14.470 -20.201  0.00  0.00    -0.250 OA
ATOM     31  C   UNL     1      32.333 -13.460 -20.792  0.00  0.00    +0.316 C 
BRANCH  31  32
ATOM     32  O   UNL     1      31.958 -12.322 -20.150  0.00  0.00    -0.480 OA
ATOM     33  H   UNL     1      32.010 -12.273 -19.217  0.00  0.00    +0.295 HD
ENDBRANCH  31  32
ENDBRANCH  29  31
ENDBRANCH  22  29
ENDBRANCH  19  22
ENDBRANCH   2  20
TORSDOF 8
ENDMDL
