MODEL 1
REMARK VINA RESULT:      -9.8      0.000      0.000
REMARK  Name = 11700495
REMARK  4 active torsions:
REMARK  status: ('A' for Active; 'I' for Inactive)
REMARK    1  A    between atoms: S_1  and  C_9
REMARK    2  A    between atoms: S_1  and  N_16
REMARK    3  A    between atoms: C_11  and  O_14
REMARK    4  A    between atoms: N_16  and  C_20
REMARK                            x       y       z     vdW  Elec       q    Type
REMARK                         _______ _______ _______ _____ _____    ______ ____
ROOT
ATOM      1  S   UNL     1      33.244 -14.466 -23.560  0.00  0.00    +0.142 S 
ATOM      2  O   UNL     1      32.894 -14.773 -24.945  0.00  0.00    -0.139 OA
ATOM      3  O   UNL     1      32.349 -14.887 -22.485  0.00  0.00    -0.139 OA
ENDROOT
BRANCH   1   9
ATOM      4  F   UNL     1      35.316  -9.438 -25.303  0.00  0.00    -0.198 F 
ATOM      5  N   UNL     1      32.946 -10.799 -22.983  0.00  0.00    -0.101 N 
ATOM      6  N   UNL     1      32.551 -12.042 -22.672  0.00  0.00    -0.084 NA
ATOM      7  N   UNL     1      34.158 -12.046 -24.314  0.00  0.00    -0.313 NA
ATOM      8  N   UNL     1      32.893  -8.458 -22.758  0.00  0.00    -0.192 NA
ATOM      9  C   UNL     1      33.314 -12.759 -23.504  0.00  0.00    +0.235 C 
ATOM     10  C   UNL     1      33.906 -10.806 -23.964  0.00  0.00    +0.252 C 
ATOM     11  C   UNL     1      32.470  -9.634 -22.411  0.00  0.00    +0.314 C 
ATOM     12  C   UNL     1      34.373  -9.534 -24.347  0.00  0.00    +0.206 C 
ATOM     13  C   UNL     1      33.864  -8.444 -23.747  0.00  0.00    +0.137 C 
BRANCH  11  14
ATOM     14  O   UNL     1      31.533  -9.878 -21.473  0.00  0.00    -0.444 OA
ATOM     15  C   UNL     1      31.891  -9.426 -20.176  0.00  0.00    +0.256 C 
ENDBRANCH  11  14
ENDBRANCH   1   9
BRANCH   1  16
ATOM     16  N   UNL     1      34.835 -15.098 -23.264  0.00  0.00    -0.201 N 
ATOM     17  H   UNL     1      35.641 -14.536 -23.325  0.00  0.00    +0.175 HD
BRANCH  16  20
ATOM     18  F   UNL     1      34.935 -17.079 -25.226  0.00  0.00    -0.203 F 
ATOM     19  F   UNL     1      34.869 -15.959 -20.611  0.00  0.00    -0.203 F 
ATOM     20  C   UNL     1      34.901 -16.497 -22.924  0.00  0.00    +0.120 C 
ATOM     21  C   UNL     1      34.949 -17.446 -23.936  0.00  0.00    +0.157 C 
ATOM     22  C   UNL     1      34.916 -16.876 -21.589  0.00  0.00    +0.157 C 
ATOM     23  C   UNL     1      35.013 -18.800 -23.606  0.00  0.00    +0.031 C 
ATOM     24  C   UNL     1      34.979 -18.230 -21.259  0.00  0.00    +0.031 C 
ATOM     25  C   UNL     1      35.028 -19.192 -22.268  0.00  0.00    +0.005 C 
ENDBRANCH  16  20
ENDBRANCH   1  16
TORSDOF 4
ENDMDL
MODEL 2
REMARK VINA RESULT:      -9.8      3.702      5.363
REMARK  Name = 11700495
REMARK  4 active torsions:
REMARK  status: ('A' for Active; 'I' for Inactive)
REMARK    1  A    between atoms: S_1  and  C_9
REMARK    2  A    between atoms: S_1  and  N_16
REMARK    3  A    between atoms: C_11  and  O_14
REMARK    4  A    between atoms: N_16  and  C_20
REMARK                            x       y       z     vdW  Elec       q    Type
REMARK                         _______ _______ _______ _____ _____    ______ ____
ROOT
ATOM      1  S   UNL     1      35.475 -18.511 -22.364  0.00  0.00    +0.142 S 
ATOM      2  O   UNL     1      36.835 -18.221 -22.813  0.00  0.00    -0.139 OA
ATOM      3  O   UNL     1      34.711 -19.563 -23.029  0.00  0.00    -0.139 OA
ENDROOT
BRANCH   1   9
ATOM      4  F   UNL     1      32.609 -13.958 -20.449  0.00  0.00    -0.198 F 
ATOM      5  N   UNL     1      33.728 -15.432 -23.520  0.00  0.00    -0.101 N 
ATOM      6  N   UNL     1      34.416 -16.543 -23.827  0.00  0.00    -0.084 NA
ATOM      7  N   UNL     1      34.111 -16.331 -21.560  0.00  0.00    -0.313 NA
ATOM      8  N   UNL     1      32.590 -13.447 -24.062  0.00  0.00    -0.192 NA
ATOM      9  C   UNL     1      34.623 -17.051 -22.607  0.00  0.00    +0.235 C 
ATOM     10  C   UNL     1      33.550 -15.310 -22.164  0.00  0.00    +0.252 C 
ATOM     11  C   UNL     1      33.248 -14.505 -24.424  0.00  0.00    +0.314 C 
ATOM     12  C   UNL     1      32.836 -14.166 -21.760  0.00  0.00    +0.206 C 
ATOM     13  C   UNL     1      32.397 -13.306 -22.696  0.00  0.00    +0.137 C 
BRANCH  11  14
ATOM     14  O   UNL     1      33.545 -14.837 -25.696  0.00  0.00    -0.444 OA
ATOM     15  C   UNL     1      33.066 -13.910 -26.657  0.00  0.00    +0.256 C 
ENDBRANCH  11  14
ENDBRANCH   1   9
BRANCH   1  16
ATOM     16  N   UNL     1      35.541 -18.840 -20.659  0.00  0.00    -0.201 N 
ATOM     17  H   UNL     1      35.974 -18.225 -20.023  0.00  0.00    +0.175 HD
BRANCH  16  20
ATOM     18  F   UNL     1      37.053 -21.056 -19.895  0.00  0.00    -0.203 F 
ATOM     19  F   UNL     1      32.768 -19.120 -20.556  0.00  0.00    -0.203 F 
ATOM     20  C   UNL     1      34.921 -20.069 -20.232  0.00  0.00    +0.120 C 
ATOM     21  C   UNL     1      35.716 -21.145 -19.861  0.00  0.00    +0.157 C 
ATOM     22  C   UNL     1      33.535 -20.159 -20.197  0.00  0.00    +0.157 C 
ATOM     23  C   UNL     1      35.114 -22.334 -19.448  0.00  0.00    +0.031 C 
ATOM     24  C   UNL     1      32.934 -21.349 -19.785  0.00  0.00    +0.031 C 
ATOM     25  C   UNL     1      33.724 -22.435 -19.410  0.00  0.00    +0.005 C 
ENDBRANCH  16  20
ENDBRANCH   1  16
TORSDOF 4
ENDMDL
MODEL 3
REMARK VINA RESULT:      -9.7      3.357      4.909
REMARK  Name = 11700495
REMARK  4 active torsions:
REMARK  status: ('A' for Active; 'I' for Inactive)
REMARK    1  A    between atoms: S_1  and  C_9
REMARK    2  A    between atoms: S_1  and  N_16
REMARK    3  A    between atoms: C_11  and  O_14
REMARK    4  A    between atoms: N_16  and  C_20
REMARK                            x       y       z     vdW  Elec       q    Type
REMARK                         _______ _______ _______ _____ _____    ______ ____
ROOT
ATOM      1  S   UNL     1      35.340 -18.516 -22.574  0.00  0.00    +0.142 S 
ATOM      2  O   UNL     1      36.783 -18.317 -22.682  0.00  0.00    -0.139 OA
ATOM      3  O   UNL     1      34.717 -19.637 -23.273  0.00  0.00    -0.139 OA
ENDROOT
BRANCH   1   9
ATOM      4  F   UNL     1      33.340 -15.406 -26.926  0.00  0.00    -0.198 F 
ATOM      5  N   UNL     1      33.881 -15.188 -23.389  0.00  0.00    -0.101 N 
ATOM      6  N   UNL     1      34.375 -16.026 -22.466  0.00  0.00    -0.084 NA
ATOM      7  N   UNL     1      34.378 -16.970 -24.560  0.00  0.00    -0.313 NA
ATOM      8  N   UNL     1      32.948 -13.145 -24.089  0.00  0.00    -0.192 NA
ATOM      9  C   UNL     1      34.661 -17.089 -23.225  0.00  0.00    +0.235 C 
ATOM     10  C   UNL     1      33.884 -15.757 -24.638  0.00  0.00    +0.252 C 
ATOM     11  C   UNL     1      33.416 -13.908 -23.151  0.00  0.00    +0.314 C 
ATOM     12  C   UNL     1      33.378 -14.936 -25.665  0.00  0.00    +0.206 C 
ATOM     13  C   UNL     1      32.943 -13.701 -25.359  0.00  0.00    +0.137 C 
BRANCH  11  14
ATOM     14  O   UNL     1      33.513 -13.569 -21.849  0.00  0.00    -0.444 OA
ATOM     15  C   UNL     1      32.267 -13.260 -21.244  0.00  0.00    +0.256 C 
ENDBRANCH  11  14
ENDBRANCH   1   9
BRANCH   1  16
ATOM     16  N   UNL     1      34.943 -18.600 -20.885  0.00  0.00    -0.201 N 
ATOM     17  H   UNL     1      34.874 -17.794 -20.322  0.00  0.00    +0.175 HD
BRANCH  16  20
ATOM     18  F   UNL     1      32.373 -19.602 -20.471  0.00  0.00    -0.203 F 
ATOM     19  F   UNL     1      37.066 -20.286 -20.225  0.00  0.00    -0.203 F 
ATOM     20  C   UNL     1      34.722 -19.923 -20.357  0.00  0.00    +0.120 C 
ATOM     21  C   UNL     1      33.424 -20.377 -20.168  0.00  0.00    +0.157 C 
ATOM     22  C   UNL     1      35.812 -20.725 -20.044  0.00  0.00    +0.157 C 
ATOM     23  C   UNL     1      33.211 -21.657 -19.658  0.00  0.00    +0.031 C 
ATOM     24  C   UNL     1      35.598 -22.005 -19.533  0.00  0.00    +0.031 C 
ATOM     25  C   UNL     1      34.298 -22.471 -19.340  0.00  0.00    +0.005 C 
ENDBRANCH  16  20
ENDBRANCH   1  16
TORSDOF 4
ENDMDL
MODEL 4
REMARK VINA RESULT:      -9.6      3.396      5.013
REMARK  Name = 11700495
REMARK  4 active torsions:
REMARK  status: ('A' for Active; 'I' for Inactive)
REMARK    1  A    between atoms: S_1  and  C_9
REMARK    2  A    between atoms: S_1  and  N_16
REMARK    3  A    between atoms: C_11  and  O_14
REMARK    4  A    between atoms: N_16  and  C_20
REMARK                            x       y       z     vdW  Elec       q    Type
REMARK                         _______ _______ _______ _____ _____    ______ ____
ROOT
ATOM      1  S   UNL     1      35.711 -18.191 -21.805  0.00  0.00    +0.142 S 
ATOM      2  O   UNL     1      35.644 -17.875 -20.380  0.00  0.00    -0.139 OA
ATOM      3  O   UNL     1      37.014 -18.268 -22.461  0.00  0.00    -0.139 OA
ENDROOT
BRANCH   1   9
ATOM      4  F   UNL     1      33.704 -15.521 -26.437  0.00  0.00    -0.198 F 
ATOM      5  N   UNL     1      33.729 -15.222 -22.865  0.00  0.00    -0.101 N 
ATOM      6  N   UNL     1      34.259 -15.949 -21.870  0.00  0.00    -0.084 NA
ATOM      7  N   UNL     1      34.722 -16.859 -23.928  0.00  0.00    -0.313 NA
ATOM      8  N   UNL     1      32.501 -13.407 -23.719  0.00  0.00    -0.192 NA
ATOM      9  C   UNL     1      34.849 -16.927 -22.566  0.00  0.00    +0.235 C 
ATOM     10  C   UNL     1      34.007 -15.770 -24.092  0.00  0.00    +0.252 C 
ATOM     11  C   UNL     1      32.989 -14.065 -22.713  0.00  0.00    +0.314 C 
ATOM     12  C   UNL     1      33.483 -15.062 -25.191  0.00  0.00    +0.206 C 
ATOM     13  C   UNL     1      32.773 -13.943 -24.968  0.00  0.00    +0.137 C 
BRANCH  11  14
ATOM     14  O   UNL     1      32.846 -13.722 -21.417  0.00  0.00    -0.444 OA
ATOM     15  C   UNL     1      31.951 -12.641 -21.206  0.00  0.00    +0.256 C 
ENDBRANCH  11  14
ENDBRANCH   1   9
BRANCH   1  16
ATOM     16  N   UNL     1      34.853 -19.681 -22.057  0.00  0.00    -0.201 N 
ATOM     17  H   UNL     1      34.532 -19.957 -22.946  0.00  0.00    +0.175 HD
BRANCH  16  20
ATOM     18  F   UNL     1      36.976 -20.854 -20.679  0.00  0.00    -0.203 F 
ATOM     19  F   UNL     1      32.294 -20.149 -21.047  0.00  0.00    -0.203 F 
ATOM     20  C   UNL     1      34.639 -20.488 -20.882  0.00  0.00    +0.120 C 
ATOM     21  C   UNL     1      35.728 -21.051 -20.231  0.00  0.00    +0.157 C 
ATOM     22  C   UNL     1      33.346 -20.691 -20.418  0.00  0.00    +0.157 C 
ATOM     23  C   UNL     1      35.520 -21.832 -19.094  0.00  0.00    +0.031 C 
ATOM     24  C   UNL     1      33.139 -21.474 -19.281  0.00  0.00    +0.031 C 
ATOM     25  C   UNL     1      34.226 -22.043 -18.619  0.00  0.00    +0.005 C 
ENDBRANCH  16  20
ENDBRANCH   1  16
TORSDOF 4
ENDMDL
MODEL 5
REMARK VINA RESULT:      -9.5      2.846      4.056
REMARK  Name = 11700495
REMARK  4 active torsions:
REMARK  status: ('A' for Active; 'I' for Inactive)
REMARK    1  A    between atoms: S_1  and  C_9
REMARK    2  A    between atoms: S_1  and  N_16
REMARK    3  A    between atoms: C_11  and  O_14
REMARK    4  A    between atoms: N_16  and  C_20
REMARK                            x       y       z     vdW  Elec       q    Type
REMARK                         _______ _______ _______ _____ _____    ______ ____
ROOT
ATOM      1  S   UNL     1      34.118 -16.606 -21.632  0.00  0.00    +0.142 S 
ATOM      2  O   UNL     1      32.811 -16.663 -20.981  0.00  0.00    -0.139 OA
ATOM      3  O   UNL     1      35.277 -16.144 -20.873  0.00  0.00    -0.139 OA
ENDROOT
BRANCH   1   9
ATOM      4  F   UNL     1      33.043 -15.407 -27.112  0.00  0.00    -0.198 F 
ATOM      5  N   UNL     1      33.766 -13.761 -24.009  0.00  0.00    -0.101 N 
ATOM      6  N   UNL     1      34.003 -14.186 -22.759  0.00  0.00    -0.084 NA
ATOM      7  N   UNL     1      33.621 -15.938 -24.195  0.00  0.00    -0.313 NA
ATOM      8  N   UNL     1      33.505 -12.096 -25.650  0.00  0.00    -0.192 NA
ATOM      9  C   UNL     1      33.904 -15.509 -22.925  0.00  0.00    +0.235 C 
ATOM     10  C   UNL     1      33.537 -14.811 -24.863  0.00  0.00    +0.252 C 
ATOM     11  C   UNL     1      33.743 -12.442 -24.423  0.00  0.00    +0.314 C 
ATOM     12  C   UNL     1      33.279 -14.446 -26.199  0.00  0.00    +0.206 C 
ATOM     13  C   UNL     1      33.273 -13.143 -26.529  0.00  0.00    +0.137 C 
BRANCH  11  14
ATOM     14  O   UNL     1      33.994 -11.590 -23.409  0.00  0.00    -0.444 OA
ATOM     15  C   UNL     1      33.485 -10.282 -23.621  0.00  0.00    +0.256 C 
ENDBRANCH  11  14
ENDBRANCH   1   9
BRANCH   1  16
ATOM     16  N   UNL     1      34.451 -18.181 -22.288  0.00  0.00    -0.201 N 
ATOM     17  H   UNL     1      34.410 -18.365 -23.254  0.00  0.00    +0.175 HD
BRANCH  16  20
ATOM     18  F   UNL     1      32.501 -19.788 -21.105  0.00  0.00    -0.203 F 
ATOM     19  F   UNL     1      37.091 -18.646 -21.519  0.00  0.00    -0.203 F 
ATOM     20  C   UNL     1      34.790 -19.201 -21.328  0.00  0.00    +0.120 C 
ATOM     21  C   UNL     1      33.784 -19.975 -20.766  0.00  0.00    +0.157 C 
ATOM     22  C   UNL     1      36.120 -19.394 -20.978  0.00  0.00    +0.157 C 
ATOM     23  C   UNL     1      34.114 -20.962 -19.838  0.00  0.00    +0.031 C 
ATOM     24  C   UNL     1      36.449 -20.381 -20.048  0.00  0.00    +0.031 C 
ATOM     25  C   UNL     1      35.446 -21.165 -19.479  0.00  0.00    +0.005 C 
ENDBRANCH  16  20
ENDBRANCH   1  16
TORSDOF 4
ENDMDL
MODEL 6
REMARK VINA RESULT:      -9.3      1.726      2.963
REMARK  Name = 11700495
REMARK  4 active torsions:
REMARK  status: ('A' for Active; 'I' for Inactive)
REMARK    1  A    between atoms: S_1  and  C_9
REMARK    2  A    between atoms: S_1  and  N_16
REMARK    3  A    between atoms: C_11  and  O_14
REMARK    4  A    between atoms: N_16  and  C_20
REMARK                            x       y       z     vdW  Elec       q    Type
REMARK                         _______ _______ _______ _____ _____    ______ ____
ROOT
ATOM      1  S   UNL     1      33.216 -14.452 -23.452  0.00  0.00    +0.142 S 
ATOM      2  O   UNL     1      32.856 -14.819 -24.820  0.00  0.00    -0.139 OA
ATOM      3  O   UNL     1      32.316 -14.803 -22.357  0.00  0.00    -0.139 OA
ENDROOT
BRANCH   1   9
ATOM      4  F   UNL     1      31.282  -9.252 -22.099  0.00  0.00    -0.198 F 
ATOM      5  N   UNL     1      33.981 -10.830 -23.853  0.00  0.00    -0.101 N 
ATOM      6  N   UNL     1      34.319 -12.105 -24.098  0.00  0.00    -0.084 NA
ATOM      7  N   UNL     1      32.385 -11.958 -22.865  0.00  0.00    -0.313 NA
ATOM      8  N   UNL     1      34.304  -8.505 -24.001  0.00  0.00    -0.192 NA
ATOM      9  C   UNL     1      33.321 -12.747 -23.479  0.00  0.00    +0.235 C 
ATOM     10  C   UNL     1      32.826 -10.747 -23.116  0.00  0.00    +0.252 C 
ATOM     11  C   UNL     1      34.683  -9.715 -24.272  0.00  0.00    +0.314 C 
ATOM     12  C   UNL     1      32.405  -9.436 -22.817  0.00  0.00    +0.206 C 
ATOM     13  C   UNL     1      33.138  -8.399 -23.258  0.00  0.00    +0.137 C 
BRANCH  11  14
ATOM     14  O   UNL     1      35.783 -10.046 -24.979  0.00  0.00    -0.444 OA
ATOM     15  C   UNL     1      35.524 -10.312 -26.348  0.00  0.00    +0.256 C 
ENDBRANCH  11  14
ENDBRANCH   1   9
BRANCH   1  16
ATOM     16  N   UNL     1      34.795 -15.102 -23.130  0.00  0.00    -0.201 N 
ATOM     17  H   UNL     1      35.606 -14.544 -23.155  0.00  0.00    +0.175 HD
BRANCH  16  20
ATOM     18  F   UNL     1      34.727 -16.032 -20.500  0.00  0.00    -0.203 F 
ATOM     19  F   UNL     1      34.963 -17.032 -25.136  0.00  0.00    -0.203 F 
ATOM     20  C   UNL     1      34.844 -16.510 -22.823  0.00  0.00    +0.120 C 
ATOM     21  C   UNL     1      34.807 -16.923 -21.498  0.00  0.00    +0.157 C 
ATOM     22  C   UNL     1      34.927 -17.432 -23.857  0.00  0.00    +0.157 C 
ATOM     23  C   UNL     1      34.854 -18.286 -21.203  0.00  0.00    +0.031 C 
ATOM     24  C   UNL     1      34.975 -18.795 -23.561  0.00  0.00    +0.031 C 
ATOM     25  C   UNL     1      34.938 -19.221 -22.233  0.00  0.00    +0.005 C 
ENDBRANCH  16  20
ENDBRANCH   1  16
TORSDOF 4
ENDMDL
MODEL 7
REMARK VINA RESULT:      -9.2      3.317      4.566
REMARK  Name = 11700495
REMARK  4 active torsions:
REMARK  status: ('A' for Active; 'I' for Inactive)
REMARK    1  A    between atoms: S_1  and  C_9
REMARK    2  A    between atoms: S_1  and  N_16
REMARK    3  A    between atoms: C_11  and  O_14
REMARK    4  A    between atoms: N_16  and  C_20
REMARK                            x       y       z     vdW  Elec       q    Type
REMARK                         _______ _______ _______ _____ _____    ______ ____
ROOT
ATOM      1  S   UNL     1      34.052 -16.730 -21.272  0.00  0.00    +0.142 S 
ATOM      2  O   UNL     1      32.714 -16.825 -20.693  0.00  0.00    -0.139 OA
ATOM      3  O   UNL     1      35.173 -16.334 -20.423  0.00  0.00    -0.139 OA
ENDROOT
BRANCH   1   9
ATOM      4  F   UNL     1      33.635 -11.304 -23.002  0.00  0.00    -0.198 F 
ATOM      5  N   UNL     1      33.744 -14.631 -24.333  0.00  0.00    -0.101 N 
ATOM      6  N   UNL     1      33.848 -15.852 -23.788  0.00  0.00    -0.084 NA
ATOM      7  N   UNL     1      33.851 -14.204 -22.187  0.00  0.00    -0.313 NA
ATOM      8  N   UNL     1      33.551 -13.149 -26.149  0.00  0.00    -0.192 NA
ATOM      9  C   UNL     1      33.909 -15.539 -22.489  0.00  0.00    +0.235 C 
ATOM     10  C   UNL     1      33.748 -13.650 -23.373  0.00  0.00    +0.252 C 
ATOM     11  C   UNL     1      33.648 -14.356 -25.684  0.00  0.00    +0.314 C 
ATOM     12  C   UNL     1      33.642 -12.335 -23.867  0.00  0.00    +0.206 C 
ATOM     13  C   UNL     1      33.550 -12.143 -25.195  0.00  0.00    +0.137 C 
BRANCH  11  14
ATOM     14  O   UNL     1      33.666 -15.478 -26.431  0.00  0.00    -0.444 OA
ATOM     15  C   UNL     1      32.378 -15.925 -26.824  0.00  0.00    +0.256 C 
ENDBRANCH  11  14
ENDBRANCH   1   9
BRANCH   1  16
ATOM     16  N   UNL     1      34.412 -18.254 -22.025  0.00  0.00    -0.201 N 
ATOM     17  H   UNL     1      34.403 -18.370 -23.002  0.00  0.00    +0.175 HD
BRANCH  16  20
ATOM     18  F   UNL     1      37.040 -18.859 -21.313  0.00  0.00    -0.203 F 
ATOM     19  F   UNL     1      32.414 -19.855 -20.915  0.00  0.00    -0.203 F 
ATOM     20  C   UNL     1      34.723 -19.339 -21.128  0.00  0.00    +0.120 C 
ATOM     21  C   UNL     1      36.047 -19.601 -20.804  0.00  0.00    +0.157 C 
ATOM     22  C   UNL     1      33.693 -20.107 -20.601  0.00  0.00    +0.157 C 
ATOM     23  C   UNL     1      36.347 -20.651 -19.936  0.00  0.00    +0.031 C 
ATOM     24  C   UNL     1      33.994 -21.158 -19.734  0.00  0.00    +0.031 C 
ATOM     25  C   UNL     1      35.320 -21.429 -19.401  0.00  0.00    +0.005 C 
ENDBRANCH  16  20
ENDBRANCH   1  16
TORSDOF 4
ENDMDL
MODEL 8
REMARK VINA RESULT:      -9.2      1.891      3.312
REMARK  Name = 11700495
REMARK  4 active torsions:
REMARK  status: ('A' for Active; 'I' for Inactive)
REMARK    1  A    between atoms: S_1  and  C_9
REMARK    2  A    between atoms: S_1  and  N_16
REMARK    3  A    between atoms: C_11  and  O_14
REMARK    4  A    between atoms: N_16  and  C_20
REMARK                            x       y       z     vdW  Elec       q    Type
REMARK                         _______ _______ _______ _____ _____    ______ ____
ROOT
ATOM      1  S   UNL     1      32.704 -14.302 -22.589  0.00  0.00    +0.142 S 
ATOM      2  O   UNL     1      32.324 -14.147 -23.992  0.00  0.00    -0.139 OA
ATOM      3  O   UNL     1      32.002 -15.279 -21.761  0.00  0.00    -0.139 OA
ENDROOT
BRANCH   1   9
ATOM      4  F   UNL     1      31.354 -10.924 -18.187  0.00  0.00    -0.198 F 
ATOM      5  N   UNL     1      32.202 -10.729 -21.665  0.00  0.00    -0.101 N 
ATOM      6  N   UNL     1      32.506 -11.637 -22.605  0.00  0.00    -0.084 NA
ATOM      7  N   UNL     1      32.076 -12.625 -20.576  0.00  0.00    -0.313 NA
ATOM      8  N   UNL     1      31.848  -8.534 -20.899  0.00  0.00    -0.192 NA
ATOM      9  C   UNL     1      32.415 -12.767 -21.896  0.00  0.00    +0.235 C 
ATOM     10  C   UNL     1      31.948 -11.324 -20.455  0.00  0.00    +0.252 C 
ATOM     11  C   UNL     1      32.147  -9.361 -21.852  0.00  0.00    +0.314 C 
ATOM     12  C   UNL     1      31.621 -10.435 -19.413  0.00  0.00    +0.206 C 
ATOM     13  C   UNL     1      31.585  -9.115 -19.668  0.00  0.00    +0.137 C 
BRANCH  11  14
ATOM     14  O   UNL     1      32.436  -9.012 -23.122  0.00  0.00    -0.444 OA
ATOM     15  C   UNL     1      33.585  -8.189 -23.242  0.00  0.00    +0.256 C 
ENDBRANCH  11  14
ENDBRANCH   1   9
BRANCH   1  16
ATOM     16  N   UNL     1      34.410 -14.624 -22.537  0.00  0.00    -0.201 N 
ATOM     17  H   UNL     1      35.080 -13.902 -22.544  0.00  0.00    +0.175 HD
BRANCH  16  20
ATOM     18  F   UNL     1      34.866 -15.923 -20.110  0.00  0.00    -0.203 F 
ATOM     19  F   UNL     1      34.718 -16.150 -24.851  0.00  0.00    -0.203 F 
ATOM     20  C   UNL     1      34.785 -16.014 -22.481  0.00  0.00    +0.120 C 
ATOM     21  C   UNL     1      35.001 -16.617 -21.249  0.00  0.00    +0.157 C 
ATOM     22  C   UNL     1      34.925 -16.732 -23.662  0.00  0.00    +0.157 C 
ATOM     23  C   UNL     1      35.364 -17.963 -21.197  0.00  0.00    +0.031 C 
ATOM     24  C   UNL     1      35.289 -18.078 -23.608  0.00  0.00    +0.031 C 
ATOM     25  C   UNL     1      35.508 -18.693 -22.376  0.00  0.00    +0.005 C 
ENDBRANCH  16  20
ENDBRANCH   1  16
TORSDOF 4
ENDMDL
MODEL 9
REMARK VINA RESULT:      -9.0      2.307      7.162
REMARK  Name = 11700495
REMARK  4 active torsions:
REMARK  status: ('A' for Active; 'I' for Inactive)
REMARK    1  A    between atoms: S_1  and  C_9
REMARK    2  A    between atoms: S_1  and  N_16
REMARK    3  A    between atoms: C_11  and  O_14
REMARK    4  A    between atoms: N_16  and  C_20
REMARK                            x       y       z     vdW  Elec       q    Type
REMARK                         _______ _______ _______ _____ _____    ______ ____
ROOT
ATOM      1  S   UNL     1      31.353 -11.118 -21.387  0.00  0.00    +0.142 S 
ATOM      2  O   UNL     1      32.169 -10.443 -20.381  0.00  0.00    -0.139 OA
ATOM      3  O   UNL     1      29.990 -11.522 -21.050  0.00  0.00    -0.139 OA
ENDROOT
BRANCH   1   9
ATOM      4  F   UNL     1      34.533 -15.616 -19.880  0.00  0.00    -0.198 F 
ATOM      5  N   UNL     1      33.055 -14.121 -22.784  0.00  0.00    -0.101 N 
ATOM      6  N   UNL     1      32.308 -13.027 -22.995  0.00  0.00    -0.084 NA
ATOM      7  N   UNL     1      32.855 -13.270 -20.777  0.00  0.00    -0.313 NA
ATOM      8  N   UNL     1      34.186 -16.061 -23.485  0.00  0.00    -0.192 NA
ATOM      9  C   UNL     1      32.216 -12.548 -21.749  0.00  0.00    +0.235 C 
ATOM     10  C   UNL     1      33.378 -14.262 -21.458  0.00  0.00    +0.252 C 
ATOM     11  C   UNL     1      33.464 -15.018 -23.754  0.00  0.00    +0.314 C 
ATOM     12  C   UNL     1      34.164 -15.392 -21.155  0.00  0.00    +0.206 C 
ATOM     13  C   UNL     1      34.525 -16.221 -22.150  0.00  0.00    +0.137 C 
BRANCH  11  14
ATOM     14  O   UNL     1      33.024 -14.672 -24.980  0.00  0.00    -0.444 OA
ATOM     15  C   UNL     1      33.409 -15.577 -26.003  0.00  0.00    +0.256 C 
ENDBRANCH  11  14
ENDBRANCH   1   9
BRANCH   1  16
ATOM     16  N   UNL     1      31.321 -10.113 -22.804  0.00  0.00    -0.201 N 
ATOM     17  H   UNL     1      30.562 -10.117 -23.431  0.00  0.00    +0.175 HD
BRANCH  16  20
ATOM     18  F   UNL     1      33.442 -10.897 -24.437  0.00  0.00    -0.203 F 
ATOM     19  F   UNL     1      31.544  -7.619 -21.573  0.00  0.00    -0.203 F 
ATOM     20  C   UNL     1      32.474  -9.272 -23.003  0.00  0.00    +0.120 C 
ATOM     21  C   UNL     1      33.505  -9.706 -23.825  0.00  0.00    +0.157 C 
ATOM     22  C   UNL     1      32.538  -8.038 -22.368  0.00  0.00    +0.157 C 
ATOM     23  C   UNL     1      34.621  -8.891 -24.017  0.00  0.00    +0.031 C 
ATOM     24  C   UNL     1      33.655  -7.224 -22.560  0.00  0.00    +0.031 C 
ATOM     25  C   UNL     1      34.696  -7.651 -23.384  0.00  0.00    +0.005 C 
ENDBRANCH  16  20
ENDBRANCH   1  16
TORSDOF 4
ENDMDL
