MODEL 1
REMARK VINA RESULT:     -10.3      0.000      0.000
REMARK  Name = 1511
REMARK  3 active torsions:
REMARK  status: ('A' for Active; 'I' for Inactive)
REMARK    1  A    between atoms: C_5  and  C_12
REMARK    2  A    between atoms: C_6  and  C_22
REMARK    3  A    between atoms: C_15  and  O_18
REMARK                            x       y       z     vdW  Elec       q    Type
REMARK                         _______ _______ _______ _____ _____    ______ ____
ROOT
ATOM      1  N   UNL     1      34.791 -19.363 -22.861  0.00  0.00    -0.315 N 
ATOM      2  N   UNL     1      34.539 -17.849 -21.254  0.00  0.00    -0.314 N 
ATOM      3  C   UNL     1      34.660 -18.161 -23.508  0.00  0.00    +0.059 C 
ATOM      4  C   UNL     1      34.503 -17.231 -22.483  0.00  0.00    +0.064 C 
ATOM      5  C   UNL     1      34.712 -19.124 -21.517  0.00  0.00    +0.168 C 
ATOM      6  C   UNL     1      34.341 -15.875 -22.809  0.00  0.00    +0.067 C 
ATOM      7  C   UNL     1      34.664 -17.817 -24.860  0.00  0.00    +0.016 C 
ATOM      8  C   UNL     1      34.341 -15.507 -24.160  0.00  0.00    +0.006 C 
ATOM      9  C   UNL     1      34.500 -16.462 -25.166  0.00  0.00    +0.001 C 
ATOM     10  H   UNL     1      34.919 -20.241 -23.288  0.00  0.00    +0.149 HD
ATOM     11  H   UNL     1      34.452 -17.426 -20.368  0.00  0.00    +0.149 HD
ENDROOT
BRANCH   5  12
ATOM     12  C   UNL     1      34.814 -20.186 -20.545  0.00  0.00    +0.017 C 
ATOM     13  C   UNL     1      33.657 -20.779 -20.038  0.00  0.00    +0.036 C 
ATOM     14  C   UNL     1      36.067 -20.619 -20.114  0.00  0.00    -0.001 C 
ATOM     15  C   UNL     1      33.755 -21.806 -19.098  0.00  0.00    +0.139 C 
ATOM     16  C   UNL     1      36.165 -21.646 -19.175  0.00  0.00    +0.003 C 
ATOM     17  C   UNL     1      35.009 -22.239 -18.667  0.00  0.00    +0.037 C 
BRANCH  15  18
ATOM     18  O   UNL     1      32.628 -22.384 -18.602  0.00  0.00    -0.471 OA
ATOM     19  C   UNL     1      32.753 -23.104 -17.377  0.00  0.00    +0.252 C 
ENDBRANCH  15  18
ENDBRANCH   5  12
BRANCH   6  22
ATOM     20  O   UNL     1      34.849 -14.902 -20.724  0.00  0.00    -0.270 OA
ATOM     21  N   UNL     1      33.242 -13.862 -21.987  0.00  0.00    -0.325 N 
ATOM     22  C   UNL     1      34.174 -14.873 -21.770  0.00  0.00    +0.244 C 
ATOM     23  H   UNL     1      33.102 -13.165 -21.304  0.00  0.00    +0.145 HD
ATOM     24  H   UNL     1      32.722 -13.841 -22.823  0.00  0.00    +0.145 HD
ENDBRANCH   6  22
TORSDOF 3
ENDMDL
MODEL 2
REMARK VINA RESULT:     -10.1      1.815      2.566
REMARK  Name = 1511
REMARK  3 active torsions:
REMARK  status: ('A' for Active; 'I' for Inactive)
REMARK    1  A    between atoms: C_5  and  C_12
REMARK    2  A    between atoms: C_6  and  C_22
REMARK    3  A    between atoms: C_15  and  O_18
REMARK                            x       y       z     vdW  Elec       q    Type
REMARK                         _______ _______ _______ _____ _____    ______ ____
ROOT
ATOM      1  N   UNL     1      34.790 -17.053 -20.675  0.00  0.00    -0.315 N 
ATOM      2  N   UNL     1      34.572 -18.027 -22.660  0.00  0.00    -0.314 N 
ATOM      3  C   UNL     1      34.569 -16.031 -21.562  0.00  0.00    +0.059 C 
ATOM      4  C   UNL     1      34.436 -16.664 -22.794  0.00  0.00    +0.064 C 
ATOM      5  C   UNL     1      34.783 -18.225 -21.379  0.00  0.00    +0.168 C 
ATOM      6  C   UNL     1      34.196 -15.888 -23.940  0.00  0.00    +0.067 C 
ATOM      7  C   UNL     1      34.476 -14.649 -21.396  0.00  0.00    +0.016 C 
ATOM      8  C   UNL     1      34.099 -14.498 -23.798  0.00  0.00    +0.006 C 
ATOM      9  C   UNL     1      34.237 -13.891 -22.548  0.00  0.00    +0.001 C 
ATOM     10  H   UNL     1      34.929 -16.960 -19.704  0.00  0.00    +0.149 HD
ATOM     11  H   UNL     1      34.523 -18.707 -23.372  0.00  0.00    +0.149 HD
ENDROOT
BRANCH   5  12
ATOM     12  C   UNL     1      34.989 -19.502 -20.739  0.00  0.00    +0.017 C 
ATOM     13  C   UNL     1      33.893 -20.255 -20.318  0.00  0.00    +0.036 C 
ATOM     14  C   UNL     1      36.283 -19.983 -20.543  0.00  0.00    -0.001 C 
ATOM     15  C   UNL     1      34.092 -21.491 -19.700  0.00  0.00    +0.139 C 
ATOM     16  C   UNL     1      36.482 -21.218 -19.925  0.00  0.00    +0.003 C 
ATOM     17  C   UNL     1      35.386 -21.971 -19.503  0.00  0.00    +0.037 C 
BRANCH  15  18
ATOM     18  O   UNL     1      33.023 -22.225 -19.288  0.00  0.00    -0.471 OA
ATOM     19  C   UNL     1      33.110 -22.831 -18.000  0.00  0.00    +0.252 C 
ENDBRANCH  15  18
ENDBRANCH   5  12
BRANCH   6  22
ATOM     20  O   UNL     1      34.610 -17.588 -25.517  0.00  0.00    -0.270 OA
ATOM     21  N   UNL     1      33.251 -15.866 -26.185  0.00  0.00    -0.325 N 
ATOM     22  C   UNL     1      34.051 -16.509 -25.245  0.00  0.00    +0.244 C 
ATOM     23  H   UNL     1      33.130 -16.259 -27.081  0.00  0.00    +0.145 HD
ATOM     24  H   UNL     1      32.804 -15.020 -25.956  0.00  0.00    +0.145 HD
ENDBRANCH   6  22
TORSDOF 3
ENDMDL
MODEL 3
REMARK VINA RESULT:      -9.7      3.339      7.393
REMARK  Name = 1511
REMARK  3 active torsions:
REMARK  status: ('A' for Active; 'I' for Inactive)
REMARK    1  A    between atoms: C_5  and  C_12
REMARK    2  A    between atoms: C_6  and  C_22
REMARK    3  A    between atoms: C_15  and  O_18
REMARK                            x       y       z     vdW  Elec       q    Type
REMARK                         _______ _______ _______ _____ _____    ______ ____
ROOT
ATOM      1  N   UNL     1      33.590 -14.989 -24.576  0.00  0.00    -0.315 N 
ATOM      2  N   UNL     1      34.143 -15.120 -22.427  0.00  0.00    -0.314 N 
ATOM      3  C   UNL     1      34.086 -16.256 -24.402  0.00  0.00    +0.059 C 
ATOM      4  C   UNL     1      34.425 -16.312 -23.053  0.00  0.00    +0.064 C 
ATOM      5  C   UNL     1      33.646 -14.350 -23.369  0.00  0.00    +0.168 C 
ATOM      6  C   UNL     1      34.972 -17.498 -22.535  0.00  0.00    +0.067 C 
ATOM      7  C   UNL     1      34.261 -17.324 -25.282  0.00  0.00    +0.016 C 
ATOM      8  C   UNL     1      35.158 -18.583 -23.400  0.00  0.00    +0.006 C 
ATOM      9  C   UNL     1      34.808 -18.496 -24.749  0.00  0.00    +0.001 C 
ATOM     10  H   UNL     1      33.254 -14.608 -25.419  0.00  0.00    +0.149 HD
ATOM     11  H   UNL     1      34.286 -14.891 -21.480  0.00  0.00    +0.149 HD
ENDROOT
BRANCH   5  12
ATOM     12  C   UNL     1      33.196 -12.988 -23.203  0.00  0.00    +0.017 C 
ATOM     13  C   UNL     1      32.180 -12.696 -22.294  0.00  0.00    +0.036 C 
ATOM     14  C   UNL     1      33.778 -11.966 -23.952  0.00  0.00    -0.001 C 
ATOM     15  C   UNL     1      31.746 -11.379 -22.133  0.00  0.00    +0.139 C 
ATOM     16  C   UNL     1      33.344 -10.650 -23.792  0.00  0.00    +0.003 C 
ATOM     17  C   UNL     1      32.327 -10.357 -22.882  0.00  0.00    +0.037 C 
BRANCH  15  18
ATOM     18  O   UNL     1      30.753 -11.093 -21.247  0.00  0.00    -0.471 OA
ATOM     19  C   UNL     1      31.134 -10.898 -19.887  0.00  0.00    +0.252 C 
ENDBRANCH  15  18
ENDBRANCH   5  12
BRANCH   6  22
ATOM     20  O   UNL     1      35.230 -16.629 -20.360  0.00  0.00    -0.270 OA
ATOM     21  N   UNL     1      35.808 -18.826 -20.671  0.00  0.00    -0.325 N 
ATOM     22  C   UNL     1      35.340 -17.599 -21.133  0.00  0.00    +0.244 C 
ATOM     23  H   UNL     1      36.067 -18.931 -19.726  0.00  0.00    +0.145 HD
ATOM     24  H   UNL     1      35.880 -19.590 -21.287  0.00  0.00    +0.145 HD
ENDBRANCH   6  22
TORSDOF 3
ENDMDL
MODEL 4
REMARK VINA RESULT:      -9.7      2.161      6.940
REMARK  Name = 1511
REMARK  3 active torsions:
REMARK  status: ('A' for Active; 'I' for Inactive)
REMARK    1  A    between atoms: C_5  and  C_12
REMARK    2  A    between atoms: C_6  and  C_22
REMARK    3  A    between atoms: C_15  and  O_18
REMARK                            x       y       z     vdW  Elec       q    Type
REMARK                         _______ _______ _______ _____ _____    ______ ____
ROOT
ATOM      1  N   UNL     1      36.167 -17.876 -21.765  0.00  0.00    -0.315 N 
ATOM      2  N   UNL     1      34.032 -18.457 -21.558  0.00  0.00    -0.314 N 
ATOM      3  C   UNL     1      36.173 -19.039 -21.040  0.00  0.00    +0.059 C 
ATOM      4  C   UNL     1      34.829 -19.382 -20.923  0.00  0.00    +0.064 C 
ATOM      5  C   UNL     1      34.866 -17.569 -22.050  0.00  0.00    +0.168 C 
ATOM      6  C   UNL     1      34.478 -20.548 -20.223  0.00  0.00    +0.067 C 
ATOM      7  C   UNL     1      37.208 -19.798 -20.492  0.00  0.00    +0.016 C 
ATOM      8  C   UNL     1      35.500 -21.325 -19.664  0.00  0.00    +0.006 C 
ATOM      9  C   UNL     1      36.840 -20.956 -19.798  0.00  0.00    +0.001 C 
ATOM     10  H   UNL     1      36.958 -17.354 -22.033  0.00  0.00    +0.149 HD
ATOM     11  H   UNL     1      33.049 -18.459 -21.627  0.00  0.00    +0.149 HD
ENDROOT
BRANCH   5  12
ATOM     12  C   UNL     1      34.506 -16.394 -22.808  0.00  0.00    +0.017 C 
ATOM     13  C   UNL     1      34.254 -16.498 -24.176  0.00  0.00    +0.036 C 
ATOM     14  C   UNL     1      34.409 -15.157 -22.172  0.00  0.00    -0.001 C 
ATOM     15  C   UNL     1      33.905 -15.362 -24.908  0.00  0.00    +0.139 C 
ATOM     16  C   UNL     1      34.061 -14.022 -22.904  0.00  0.00    +0.003 C 
ATOM     17  C   UNL     1      33.809 -14.125 -24.273  0.00  0.00    +0.037 C 
BRANCH  15  18
ATOM     18  O   UNL     1      33.660 -15.462 -26.243  0.00  0.00    -0.471 OA
ATOM     19  C   UNL     1      33.171 -14.296 -26.903  0.00  0.00    +0.252 C 
ENDBRANCH  15  18
ENDBRANCH   5  12
BRANCH   6  22
ATOM     20  O   UNL     1      32.205 -20.507 -20.843  0.00  0.00    -0.270 OA
ATOM     21  N   UNL     1      32.768 -21.837 -19.061  0.00  0.00    -0.325 N 
ATOM     22  C   UNL     1      33.087 -20.941 -20.078  0.00  0.00    +0.244 C 
ATOM     23  H   UNL     1      31.835 -22.126 -18.933  0.00  0.00    +0.145 HD
ATOM     24  H   UNL     1      33.475 -22.184 -18.470  0.00  0.00    +0.145 HD
ENDBRANCH   6  22
TORSDOF 3
ENDMDL
MODEL 5
REMARK VINA RESULT:      -9.6      3.863      8.443
REMARK  Name = 1511
REMARK  3 active torsions:
REMARK  status: ('A' for Active; 'I' for Inactive)
REMARK    1  A    between atoms: C_5  and  C_12
REMARK    2  A    between atoms: C_6  and  C_22
REMARK    3  A    between atoms: C_15  and  O_18
REMARK                            x       y       z     vdW  Elec       q    Type
REMARK                         _______ _______ _______ _____ _____    ______ ____
ROOT
ATOM      1  N   UNL     1      33.720 -23.165 -16.555  0.00  0.00    -0.315 N 
ATOM      2  N   UNL     1      31.869 -22.562 -17.626  0.00  0.00    -0.314 N 
ATOM      3  C   UNL     1      32.685 -23.644 -15.794  0.00  0.00    +0.059 C 
ATOM      4  C   UNL     1      31.540 -23.254 -16.484  0.00  0.00    +0.064 C 
ATOM      5  C   UNL     1      33.183 -22.526 -17.637  0.00  0.00    +0.168 C 
ATOM      6  C   UNL     1      30.280 -23.593 -15.964  0.00  0.00    +0.067 C 
ATOM      7  C   UNL     1      32.652 -24.363 -14.599  0.00  0.00    +0.016 C 
ATOM      8  C   UNL     1      30.223 -24.314 -14.765  0.00  0.00    +0.006 C 
ATOM      9  C   UNL     1      31.389 -24.692 -14.096  0.00  0.00    +0.001 C 
ATOM     10  H   UNL     1      34.680 -23.264 -16.357  0.00  0.00    +0.149 HD
ATOM     11  H   UNL     1      31.254 -22.174 -18.291  0.00  0.00    +0.149 HD
ENDROOT
BRANCH   5  12
ATOM     12  C   UNL     1      34.007 -21.904 -18.644  0.00  0.00    +0.017 C 
ATOM     13  C   UNL     1      33.422 -21.107 -19.629  0.00  0.00    +0.036 C 
ATOM     14  C   UNL     1      35.388 -22.098 -18.633  0.00  0.00    -0.001 C 
ATOM     15  C   UNL     1      34.220 -20.504 -20.603  0.00  0.00    +0.139 C 
ATOM     16  C   UNL     1      36.185 -21.496 -19.607  0.00  0.00    +0.003 C 
ATOM     17  C   UNL     1      35.600 -20.699 -20.592  0.00  0.00    +0.037 C 
BRANCH  15  18
ATOM     18  O   UNL     1      33.650 -19.727 -21.564  0.00  0.00    -0.471 OA
ATOM     19  C   UNL     1      34.524 -18.920 -22.350  0.00  0.00    +0.252 C 
ENDBRANCH  15  18
ENDBRANCH   5  12
BRANCH   6  22
ATOM     20  O   UNL     1      28.846 -22.023 -16.980  0.00  0.00    -0.270 OA
ATOM     21  N   UNL     1      28.137 -24.204 -16.951  0.00  0.00    -0.325 N 
ATOM     22  C   UNL     1      29.060 -23.205 -16.652  0.00  0.00    +0.244 C 
ATOM     23  H   UNL     1      27.299 -23.977 -17.417  0.00  0.00    +0.145 HD
ATOM     24  H   UNL     1      28.321 -25.137 -16.698  0.00  0.00    +0.145 HD
ENDBRANCH   6  22
TORSDOF 3
ENDMDL
MODEL 6
REMARK VINA RESULT:      -9.5      3.372      7.955
REMARK  Name = 1511
REMARK  3 active torsions:
REMARK  status: ('A' for Active; 'I' for Inactive)
REMARK    1  A    between atoms: C_5  and  C_12
REMARK    2  A    between atoms: C_6  and  C_22
REMARK    3  A    between atoms: C_15  and  O_18
REMARK                            x       y       z     vdW  Elec       q    Type
REMARK                         _______ _______ _______ _____ _____    ______ ____
ROOT
ATOM      1  N   UNL     1      33.441 -14.711 -24.458  0.00  0.00    -0.315 N 
ATOM      2  N   UNL     1      33.964 -14.959 -22.313  0.00  0.00    -0.314 N 
ATOM      3  C   UNL     1      33.987 -15.965 -24.357  0.00  0.00    +0.059 C 
ATOM      4  C   UNL     1      34.306 -16.096 -23.009  0.00  0.00    +0.064 C 
ATOM      5  C   UNL     1      33.449 -14.150 -23.212  0.00  0.00    +0.168 C 
ATOM      6  C   UNL     1      34.895 -17.289 -22.558  0.00  0.00    +0.067 C 
ATOM      7  C   UNL     1      34.222 -16.965 -25.301  0.00  0.00    +0.016 C 
ATOM      8  C   UNL     1      35.141 -18.306 -23.488  0.00  0.00    +0.006 C 
ATOM      9  C   UNL     1      34.810 -18.146 -24.835  0.00  0.00    +0.001 C 
ATOM     10  H   UNL     1      33.103 -14.290 -25.282  0.00  0.00    +0.149 HD
ATOM     11  H   UNL     1      34.081 -14.787 -21.350  0.00  0.00    +0.149 HD
ENDROOT
BRANCH   5  12
ATOM     12  C   UNL     1      32.940 -12.823 -22.967  0.00  0.00    +0.017 C 
ATOM     13  C   UNL     1      33.477 -11.733 -23.653  0.00  0.00    +0.036 C 
ATOM     14  C   UNL     1      31.910 -12.629 -22.047  0.00  0.00    -0.001 C 
ATOM     15  C   UNL     1      32.984 -10.449 -23.418  0.00  0.00    +0.139 C 
ATOM     16  C   UNL     1      31.418 -11.346 -21.811  0.00  0.00    +0.003 C 
ATOM     17  C   UNL     1      31.955 -10.255 -22.496  0.00  0.00    +0.037 C 
BRANCH  15  18
ATOM     18  O   UNL     1      33.508  -9.385 -24.085  0.00  0.00    -0.471 OA
ATOM     19  C   UNL     1      34.918  -9.381 -24.296  0.00  0.00    +0.252 C 
ENDBRANCH  15  18
ENDBRANCH   5  12
BRANCH   6  22
ATOM     20  O   UNL     1      35.188 -16.521 -20.349  0.00  0.00    -0.270 OA
ATOM     21  N   UNL     1      35.630 -18.737 -20.741  0.00  0.00    -0.325 N 
ATOM     22  C   UNL     1      35.243 -17.466 -21.159  0.00  0.00    +0.244 C 
ATOM     23  H   UNL     1      35.873 -18.894 -19.800  0.00  0.00    +0.145 HD
ATOM     24  H   UNL     1      35.659 -19.480 -21.386  0.00  0.00    +0.145 HD
ENDBRANCH   6  22
TORSDOF 3
ENDMDL
MODEL 7
REMARK VINA RESULT:      -9.5      8.083     10.034
REMARK  Name = 1511
REMARK  3 active torsions:
REMARK  status: ('A' for Active; 'I' for Inactive)
REMARK    1  A    between atoms: C_5  and  C_12
REMARK    2  A    between atoms: C_6  and  C_22
REMARK    3  A    between atoms: C_15  and  O_18
REMARK                            x       y       z     vdW  Elec       q    Type
REMARK                         _______ _______ _______ _____ _____    ______ ____
ROOT
ATOM      1  N   UNL     1      33.848 -23.392 -15.864  0.00  0.00    -0.315 N 
ATOM      2  N   UNL     1      33.595 -23.946 -13.727  0.00  0.00    -0.314 N 
ATOM      3  C   UNL     1      35.107 -23.348 -15.323  0.00  0.00    +0.059 C 
ATOM      4  C   UNL     1      34.923 -23.697 -13.988  0.00  0.00    +0.064 C 
ATOM      5  C   UNL     1      32.980 -23.753 -14.872  0.00  0.00    +0.168 C 
ATOM      6  C   UNL     1      36.038 -23.750 -13.134  0.00  0.00    +0.067 C 
ATOM      7  C   UNL     1      36.354 -23.042 -15.870  0.00  0.00    +0.016 C 
ATOM      8  C   UNL     1      37.299 -23.446 -13.662  0.00  0.00    +0.006 C 
ATOM      9  C   UNL     1      37.452 -23.099 -15.006  0.00  0.00    +0.001 C 
ATOM     10  H   UNL     1      33.611 -23.197 -16.800  0.00  0.00    +0.149 HD
ATOM     11  H   UNL     1      33.193 -24.210 -12.867  0.00  0.00    +0.149 HD
ENDROOT
BRANCH   5  12
ATOM     12  C   UNL     1      31.563 -23.892 -15.109  0.00  0.00    +0.017 C 
ATOM     13  C   UNL     1      30.912 -23.013 -15.974  0.00  0.00    +0.036 C 
ATOM     14  C   UNL     1      30.846 -24.905 -14.474  0.00  0.00    -0.001 C 
ATOM     15  C   UNL     1      29.542 -23.148 -16.205  0.00  0.00    +0.139 C 
ATOM     16  C   UNL     1      29.477 -25.040 -14.703  0.00  0.00    +0.003 C 
ATOM     17  C   UNL     1      28.825 -24.161 -15.568  0.00  0.00    +0.037 C 
BRANCH  15  18
ATOM     18  O   UNL     1      28.906 -22.290 -17.048  0.00  0.00    -0.471 OA
ATOM     19  C   UNL     1      27.481 -22.340 -17.071  0.00  0.00    +0.252 C 
ENDBRANCH  15  18
ENDBRANCH   5  12
BRANCH   6  22
ATOM     20  O   UNL     1      35.013 -24.911 -11.359  0.00  0.00    -0.270 OA
ATOM     21  N   UNL     1      36.772 -23.541 -10.821  0.00  0.00    -0.325 N 
ATOM     22  C   UNL     1      35.889 -24.110 -11.735  0.00  0.00    +0.244 C 
ATOM     23  H   UNL     1      36.700 -23.762  -9.863  0.00  0.00    +0.145 HD
ATOM     24  H   UNL     1      37.468 -22.919 -11.130  0.00  0.00    +0.145 HD
ENDBRANCH   6  22
TORSDOF 3
ENDMDL
MODEL 8
REMARK VINA RESULT:      -9.5      6.740      9.069
REMARK  Name = 1511
REMARK  3 active torsions:
REMARK  status: ('A' for Active; 'I' for Inactive)
REMARK    1  A    between atoms: C_5  and  C_12
REMARK    2  A    between atoms: C_6  and  C_22
REMARK    3  A    between atoms: C_15  and  O_18
REMARK                            x       y       z     vdW  Elec       q    Type
REMARK                         _______ _______ _______ _____ _____    ______ ____
ROOT
ATOM      1  N   UNL     1      33.760 -24.596 -14.223  0.00  0.00    -0.315 N 
ATOM      2  N   UNL     1      33.877 -23.186 -15.937  0.00  0.00    -0.314 N 
ATOM      3  C   UNL     1      35.096 -24.337 -14.393  0.00  0.00    +0.059 C 
ATOM      4  C   UNL     1      35.143 -23.455 -15.469  0.00  0.00    +0.064 C 
ATOM      5  C   UNL     1      33.073 -23.886 -15.168  0.00  0.00    +0.168 C 
ATOM      6  C   UNL     1      36.389 -22.981 -15.911  0.00  0.00    +0.067 C 
ATOM      7  C   UNL     1      36.232 -24.785 -13.719  0.00  0.00    +0.016 C 
ATOM      8  C   UNL     1      37.544 -23.418 -15.250  0.00  0.00    +0.006 C 
ATOM      9  C   UNL     1      37.465 -24.304 -14.173  0.00  0.00    +0.001 C 
ATOM     10  H   UNL     1      33.365 -25.188 -13.541  0.00  0.00    +0.149 HD
ATOM     11  H   UNL     1      33.627 -22.598 -16.686  0.00  0.00    +0.149 HD
ENDROOT
BRANCH   5  12
ATOM     12  C   UNL     1      31.634 -23.936 -15.266  0.00  0.00    +0.017 C 
ATOM     13  C   UNL     1      30.962 -23.048 -16.106  0.00  0.00    +0.036 C 
ATOM     14  C   UNL     1      30.917 -24.872 -14.522  0.00  0.00    -0.001 C 
ATOM     15  C   UNL     1      29.571 -23.097 -16.201  0.00  0.00    +0.139 C 
ATOM     16  C   UNL     1      29.526 -24.920 -14.616  0.00  0.00    +0.003 C 
ATOM     17  C   UNL     1      28.853 -24.032 -15.456  0.00  0.00    +0.037 C 
BRANCH  15  18
ATOM     18  O   UNL     1      28.914 -22.230 -17.019  0.00  0.00    -0.471 OA
ATOM     19  C   UNL     1      27.512 -22.431 -17.186  0.00  0.00    +0.252 C 
ENDBRANCH  15  18
ENDBRANCH   5  12
BRANCH   6  22
ATOM     20  O   UNL     1      35.864 -22.261 -18.092  0.00  0.00    -0.270 OA
ATOM     21  N   UNL     1      37.278 -20.928 -16.876  0.00  0.00    -0.325 N 
ATOM     22  C   UNL     1      36.482 -22.060 -17.031  0.00  0.00    +0.244 C 
ATOM     23  H   UNL     1      37.364 -20.281 -17.614  0.00  0.00    +0.145 HD
ATOM     24  H   UNL     1      37.753 -20.772 -16.028  0.00  0.00    +0.145 HD
ENDBRANCH   6  22
TORSDOF 3
ENDMDL
MODEL 9
REMARK VINA RESULT:      -9.5      3.204      5.489
REMARK  Name = 1511
REMARK  3 active torsions:
REMARK  status: ('A' for Active; 'I' for Inactive)
REMARK    1  A    between atoms: C_5  and  C_12
REMARK    2  A    between atoms: C_6  and  C_22
REMARK    3  A    between atoms: C_15  and  O_18
REMARK                            x       y       z     vdW  Elec       q    Type
REMARK                         _______ _______ _______ _____ _____    ______ ____
ROOT
ATOM      1  N   UNL     1      32.818 -14.364 -22.089  0.00  0.00    -0.315 N 
ATOM      2  N   UNL     1      34.228 -13.707 -23.676  0.00  0.00    -0.314 N 
ATOM      3  C   UNL     1      32.551 -13.034 -22.289  0.00  0.00    +0.059 C 
ATOM      4  C   UNL     1      33.444 -12.647 -23.283  0.00  0.00    +0.064 C 
ATOM      5  C   UNL     1      33.828 -14.719 -22.940  0.00  0.00    +0.168 C 
ATOM      6  C   UNL     1      33.433 -11.316 -23.732  0.00  0.00    +0.067 C 
ATOM      7  C   UNL     1      31.632 -12.163 -21.702  0.00  0.00    +0.016 C 
ATOM      8  C   UNL     1      32.519 -10.424 -23.157  0.00  0.00    +0.006 C 
ATOM      9  C   UNL     1      31.635 -10.842 -22.160  0.00  0.00    +0.001 C 
ATOM     10  H   UNL     1      32.365 -14.958 -21.447  0.00  0.00    +0.149 HD
ATOM     11  H   UNL     1      34.938 -13.707 -24.359  0.00  0.00    +0.149 HD
ENDROOT
BRANCH   5  12
ATOM     12  C   UNL     1      34.353 -16.062 -22.984  0.00  0.00    +0.017 C 
ATOM     13  C   UNL     1      34.726 -16.704 -21.803  0.00  0.00    +0.036 C 
ATOM     14  C   UNL     1      34.488 -16.718 -24.207  0.00  0.00    -0.001 C 
ATOM     15  C   UNL     1      35.233 -18.003 -21.845  0.00  0.00    +0.139 C 
ATOM     16  C   UNL     1      34.996 -18.017 -24.250  0.00  0.00    +0.003 C 
ATOM     17  C   UNL     1      35.369 -18.659 -23.068  0.00  0.00    +0.037 C 
BRANCH  15  18
ATOM     18  O   UNL     1      35.598 -18.630 -20.693  0.00  0.00    -0.471 OA
ATOM     19  C   UNL     1      35.384 -20.038 -20.624  0.00  0.00    +0.252 C 
ENDBRANCH  15  18
ENDBRANCH   5  12
BRANCH   6  22
ATOM     20  O   UNL     1      34.335 -11.371 -25.908  0.00  0.00    -0.270 OA
ATOM     21  N   UNL     1      35.239  -9.847 -24.452  0.00  0.00    -0.325 N 
ATOM     22  C   UNL     1      34.349 -10.870 -24.768  0.00  0.00    +0.244 C 
ATOM     23  H   UNL     1      35.875  -9.520 -25.130  0.00  0.00    +0.145 HD
ATOM     24  H   UNL     1      35.233  -9.449 -23.552  0.00  0.00    +0.145 HD
ENDBRANCH   6  22
TORSDOF 3
ENDMDL
