MODEL 1
REMARK VINA RESULT:      -7.8      0.000      0.000
REMARK  Name = 24764430
REMARK  7 active torsions:
REMARK  status: ('A' for Active; 'I' for Inactive)
REMARK    1  A    between atoms: C_1  and  C_7
REMARK    2  A    between atoms: C_2  and  C_17
REMARK    3  A    between atoms: C_7  and  CA_8
REMARK    4  A    between atoms: CA_8  and  N_9
REMARK    5  A    between atoms: CA_8  and  C_14
REMARK    6  A    between atoms: C_14  and  O_15
REMARK    7  A    between atoms: C_17  and  C_21
REMARK                            x       y       z     vdW  Elec       q    Type
REMARK                         _______ _______ _______ _____ _____    ______ ____
ROOT
ATOM      1  C   UNL     1      33.958 -21.840 -19.375  0.00  0.00    -0.024 C 
ATOM      2  C   UNL     1      34.484 -19.519 -20.830  0.00  0.00    -0.014 C 
ATOM      3  C   UNL     1      32.904 -21.054 -19.840  0.00  0.00    -0.005 C 
ATOM      4  C   UNL     1      35.275 -21.466 -19.638  0.00  0.00    -0.005 C 
ATOM      5  C   UNL     1      33.166 -19.893 -20.567  0.00  0.00    -0.004 C 
ATOM      6  C   UNL     1      35.538 -20.305 -20.366  0.00  0.00    -0.004 C 
ENDROOT
BRANCH   1   7
ATOM      7  C   UNL     1      33.673 -23.098 -18.587  0.00  0.00    +0.015 C 
BRANCH   7   8
ATOM      8  CA  UNL     1      33.476 -22.831 -17.087  0.00  0.00    +0.040 C 
BRANCH   8   9
ATOM      9  N   UNL     1      34.390 -23.665 -16.312  0.00  0.00    +0.389 N 
ATOM     10  H1  UNL     1      33.878 -24.455 -15.917  0.00  0.00    -0.088 HD
ATOM     11  H2  UNL     1      34.797 -23.114 -15.556  0.00  0.00    -0.088 HD
ATOM     12  H3  UNL     1      35.133 -24.011 -16.919  0.00  0.00    -0.088 HD
ENDBRANCH   8   9
BRANCH   8  14
ATOM     13  OXT UNL     1      31.807 -23.980 -15.736  0.00  0.00    -0.253 OA
ATOM     14  C   UNL     1      32.071 -23.180 -16.625  0.00  0.00    +0.293 C 
BRANCH  14  15
ATOM     15  O   UNL     1      31.119 -22.474 -17.287  0.00  0.00    -0.482 OA
ATOM     16  H   UNL     1      31.090 -22.491 -18.224  0.00  0.00    +0.295 HD
ENDBRANCH  14  15
ENDBRANCH   8  14
ENDBRANCH   7   8
ENDBRANCH   1   7
BRANCH   2  17
ATOM     17  C   UNL     1      34.766 -18.277 -21.607  0.00  0.00    +0.130 C 
BRANCH  17  21
ATOM     18  F   UNL     1      36.660 -18.568 -22.996  0.00  0.00    -0.170 F 
ATOM     19  F   UNL     1      34.911 -17.620 -23.883  0.00  0.00    -0.170 F 
ATOM     20  F   UNL     1      34.896 -19.762 -23.454  0.00  0.00    -0.170 F 
ATOM     21  C   UNL     1      35.307 -18.560 -22.999  0.00  0.00    +0.402 C 
ENDBRANCH  17  21
ENDBRANCH   2  17
TORSDOF 7
ENDMDL
MODEL 2
REMARK VINA RESULT:      -7.6      2.270      3.064
REMARK  Name = 24764430
REMARK  7 active torsions:
REMARK  status: ('A' for Active; 'I' for Inactive)
REMARK    1  A    between atoms: C_1  and  C_7
REMARK    2  A    between atoms: C_2  and  C_17
REMARK    3  A    between atoms: C_7  and  CA_8
REMARK    4  A    between atoms: CA_8  and  N_9
REMARK    5  A    between atoms: CA_8  and  C_14
REMARK    6  A    between atoms: C_14  and  O_15
REMARK    7  A    between atoms: C_17  and  C_21
REMARK                            x       y       z     vdW  Elec       q    Type
REMARK                         _______ _______ _______ _____ _____    ______ ____
ROOT
ATOM      1  C   UNL     1      35.349 -20.625 -20.231  0.00  0.00    -0.024 C 
ATOM      2  C   UNL     1      34.971 -18.163 -21.487  0.00  0.00    -0.014 C 
ATOM      3  C   UNL     1      36.449 -19.841 -20.576  0.00  0.00    -0.005 C 
ATOM      4  C   UNL     1      34.059 -20.177 -20.513  0.00  0.00    -0.005 C 
ATOM      5  C   UNL     1      36.261 -18.611 -21.204  0.00  0.00    -0.004 C 
ATOM      6  C   UNL     1      33.870 -18.946 -21.143  0.00  0.00    -0.004 C 
ENDROOT
BRANCH   1   7
ATOM      7  C   UNL     1      35.553 -21.958 -19.549  0.00  0.00    +0.015 C 
BRANCH   7   8
ATOM      8  CA  UNL     1      34.834 -22.051 -18.194  0.00  0.00    +0.040 C 
BRANCH   8   9
ATOM      9  N   UNL     1      35.788 -22.430 -17.154  0.00  0.00    +0.389 N 
ATOM     10  H1  UNL     1      35.281 -22.683 -16.305  0.00  0.00    -0.088 HD
ATOM     11  H2  UNL     1      36.408 -21.645 -16.958  0.00  0.00    -0.088 HD
ATOM     12  H3  UNL     1      36.338 -23.228 -17.471  0.00  0.00    -0.088 HD
ENDBRANCH   8   9
BRANCH   8  14
ATOM     13  OXT UNL     1      32.873 -23.220 -17.347  0.00  0.00    -0.253 OA
ATOM     14  C   UNL     1      33.748 -23.114 -18.196  0.00  0.00    +0.293 C 
BRANCH  14  15
ATOM     15  O   UNL     1      33.827 -23.931 -19.278  0.00  0.00    -0.482 OA
ATOM     16  H   UNL     1      34.652 -24.299 -19.527  0.00  0.00    +0.295 HD
ENDBRANCH  14  15
ENDBRANCH   8  14
ENDBRANCH   7   8
ENDBRANCH   1   7
BRANCH   2  17
ATOM     17  C   UNL     1      34.768 -16.848 -22.161  0.00  0.00    +0.130 C 
BRANCH  17  21
ATOM     18  F   UNL     1      33.003 -15.765 -21.014  0.00  0.00    -0.170 F 
ATOM     19  F   UNL     1      34.671 -14.528 -21.668  0.00  0.00    -0.170 F 
ATOM     20  F   UNL     1      34.920 -15.903 -19.988  0.00  0.00    -0.170 F 
ATOM     21  C   UNL     1      34.343 -15.750 -21.199  0.00  0.00    +0.402 C 
ENDBRANCH  17  21
ENDBRANCH   2  17
TORSDOF 7
ENDMDL
MODEL 3
REMARK VINA RESULT:      -7.6      2.699      3.994
REMARK  Name = 24764430
REMARK  7 active torsions:
REMARK  status: ('A' for Active; 'I' for Inactive)
REMARK    1  A    between atoms: C_1  and  C_7
REMARK    2  A    between atoms: C_2  and  C_17
REMARK    3  A    between atoms: C_7  and  CA_8
REMARK    4  A    between atoms: CA_8  and  N_9
REMARK    5  A    between atoms: CA_8  and  C_14
REMARK    6  A    between atoms: C_14  and  O_15
REMARK    7  A    between atoms: C_17  and  C_21
REMARK                            x       y       z     vdW  Elec       q    Type
REMARK                         _______ _______ _______ _____ _____    ______ ____
ROOT
ATOM      1  C   UNL     1      35.026 -19.189 -21.380  0.00  0.00    -0.024 C 
ATOM      2  C   UNL     1      34.895 -17.177 -23.307  0.00  0.00    -0.014 C 
ATOM      3  C   UNL     1      35.248 -17.861 -21.018  0.00  0.00    -0.005 C 
ATOM      4  C   UNL     1      34.738 -19.511 -22.705  0.00  0.00    -0.005 C 
ATOM      5  C   UNL     1      35.183 -16.854 -21.981  0.00  0.00    -0.004 C 
ATOM      6  C   UNL     1      34.673 -18.505 -23.669  0.00  0.00    -0.004 C 
ENDROOT
BRANCH   1   7
ATOM      7  C   UNL     1      35.096 -20.279 -20.335  0.00  0.00    +0.015 C 
BRANCH   7   8
ATOM      8  CA  UNL     1      33.811 -21.119 -20.263  0.00  0.00    +0.040 C 
BRANCH   8   9
ATOM      9  N   UNL     1      32.668 -20.251 -19.993  0.00  0.00    +0.389 N 
ATOM     10  H1  UNL     1      32.819 -19.343 -20.434  0.00  0.00    -0.088 HD
ATOM     11  H2  UNL     1      32.566 -20.126 -18.986  0.00  0.00    -0.088 HD
ATOM     12  H3  UNL     1      31.821 -20.676 -20.370  0.00  0.00    -0.088 HD
ENDBRANCH   8   9
BRANCH   8  14
ATOM     13  OXT UNL     1      34.872 -22.706 -18.751  0.00  0.00    -0.253 OA
ATOM     14  C   UNL     1      33.858 -22.138 -19.137  0.00  0.00    +0.293 C 
BRANCH  14  15
ATOM     15  O   UNL     1      32.641 -22.335 -18.567  0.00  0.00    -0.482 OA
ATOM     16  H   UNL     1      31.938 -21.743 -18.748  0.00  0.00    +0.295 HD
ENDBRANCH  14  15
ENDBRANCH   8  14
ENDBRANCH   7   8
ENDBRANCH   1   7
BRANCH   2  17
ATOM     17  C   UNL     1      34.827 -16.101 -24.338  0.00  0.00    +0.130 C 
BRANCH  17  21
ATOM     18  F   UNL     1      33.136 -14.607 -25.053  0.00  0.00    -0.170 F 
ATOM     19  F   UNL     1      34.500 -13.902 -23.507  0.00  0.00    -0.170 F 
ATOM     20  F   UNL     1      32.978 -15.395 -23.028  0.00  0.00    -0.170 F 
ATOM     21  C   UNL     1      33.853 -14.992 -23.972  0.00  0.00    +0.402 C 
ENDBRANCH  17  21
ENDBRANCH   2  17
TORSDOF 7
ENDMDL
MODEL 4
REMARK VINA RESULT:      -7.5      6.682      7.976
REMARK  Name = 24764430
REMARK  7 active torsions:
REMARK  status: ('A' for Active; 'I' for Inactive)
REMARK    1  A    between atoms: C_1  and  C_7
REMARK    2  A    between atoms: C_2  and  C_17
REMARK    3  A    between atoms: C_7  and  CA_8
REMARK    4  A    between atoms: CA_8  and  N_9
REMARK    5  A    between atoms: CA_8  and  C_14
REMARK    6  A    between atoms: C_14  and  O_15
REMARK    7  A    between atoms: C_17  and  C_21
REMARK                            x       y       z     vdW  Elec       q    Type
REMARK                         _______ _______ _______ _____ _____    ______ ____
ROOT
ATOM      1  C   UNL     1      34.590 -24.057 -15.275  0.00  0.00    -0.024 C 
ATOM      2  C   UNL     1      31.867 -23.451 -15.247  0.00  0.00    -0.014 C 
ATOM      3  C   UNL     1      33.833 -24.296 -14.128  0.00  0.00    -0.005 C 
ATOM      4  C   UNL     1      33.985 -23.516 -16.408  0.00  0.00    -0.005 C 
ATOM      5  C   UNL     1      32.472 -23.993 -14.113  0.00  0.00    -0.004 C 
ATOM      6  C   UNL     1      32.623 -23.212 -16.394  0.00  0.00    -0.004 C 
ENDROOT
BRANCH   1   7
ATOM      7  C   UNL     1      36.065 -24.386 -15.290  0.00  0.00    +0.015 C 
BRANCH   7   8
ATOM      8  CA  UNL     1      36.428 -25.539 -14.341  0.00  0.00    +0.040 C 
BRANCH   8   9
ATOM      9  N   UNL     1      37.255 -25.037 -13.247  0.00  0.00    +0.389 N 
ATOM     10  H1  UNL     1      37.655 -25.824 -12.734  0.00  0.00    -0.088 HD
ATOM     11  H2  UNL     1      36.682 -24.478 -12.616  0.00  0.00    -0.088 HD
ATOM     12  H3  UNL     1      38.007 -24.461 -13.625  0.00  0.00    -0.088 HD
ENDBRANCH   8   9
BRANCH   8  14
ATOM     13  OXT UNL     1      38.292 -27.082 -14.620  0.00  0.00    -0.253 OA
ATOM     14  C   UNL     1      37.239 -26.618 -15.039  0.00  0.00    +0.293 C 
BRANCH  14  15
ATOM     15  O   UNL     1      36.648 -27.051 -16.182  0.00  0.00    -0.482 OA
ATOM     16  H   UNL     1      35.779 -26.771 -16.395  0.00  0.00    +0.295 HD
ENDBRANCH  14  15
ENDBRANCH   8  14
ENDBRANCH   7   8
ENDBRANCH   1   7
BRANCH   2  17
ATOM     17  C   UNL     1      30.411 -23.126 -15.233  0.00  0.00    +0.130 C 
BRANCH  17  21
ATOM     18  F   UNL     1      28.323 -24.041 -15.868  0.00  0.00    -0.170 F 
ATOM     19  F   UNL     1      29.308 -24.917 -14.134  0.00  0.00    -0.170 F 
ATOM     20  F   UNL     1      30.084 -25.294 -16.141  0.00  0.00    -0.170 F 
ATOM     21  C   UNL     1      29.528 -24.359 -15.343  0.00  0.00    +0.402 C 
ENDBRANCH  17  21
ENDBRANCH   2  17
TORSDOF 7
ENDMDL
MODEL 5
REMARK VINA RESULT:      -7.4      5.721      7.661
REMARK  Name = 24764430
REMARK  7 active torsions:
REMARK  status: ('A' for Active; 'I' for Inactive)
REMARK    1  A    between atoms: C_1  and  C_7
REMARK    2  A    between atoms: C_2  and  C_17
REMARK    3  A    between atoms: C_7  and  CA_8
REMARK    4  A    between atoms: CA_8  and  N_9
REMARK    5  A    between atoms: CA_8  and  C_14
REMARK    6  A    between atoms: C_14  and  O_15
REMARK    7  A    between atoms: C_17  and  C_21
REMARK                            x       y       z     vdW  Elec       q    Type
REMARK                         _______ _______ _______ _____ _____    ______ ____
ROOT
ATOM      1  C   UNL     1      34.794 -16.964 -23.235  0.00  0.00    -0.024 C 
ATOM      2  C   UNL     1      34.711 -19.103 -21.447  0.00  0.00    -0.014 C 
ATOM      3  C   UNL     1      34.881 -18.273 -23.708  0.00  0.00    -0.005 C 
ATOM      4  C   UNL     1      34.664 -16.725 -21.867  0.00  0.00    -0.005 C 
ATOM      5  C   UNL     1      34.840 -19.343 -22.815  0.00  0.00    -0.004 C 
ATOM      6  C   UNL     1      34.623 -17.795 -20.973  0.00  0.00    -0.004 C 
ENDROOT
BRANCH   1   7
ATOM      7  C   UNL     1      34.838 -15.805 -24.204  0.00  0.00    +0.015 C 
BRANCH   7   8
ATOM      8  CA  UNL     1      33.456 -15.176 -24.444  0.00  0.00    +0.040 C 
BRANCH   8   9
ATOM      9  N   UNL     1      33.321 -14.802 -25.849  0.00  0.00    +0.389 N 
ATOM     10  H1  UNL     1      32.375 -15.017 -26.168  0.00  0.00    -0.088 HD
ATOM     11  H2  UNL     1      33.994 -15.325 -26.407  0.00  0.00    -0.088 HD
ATOM     12  H3  UNL     1      33.496 -13.802 -25.954  0.00  0.00    -0.088 HD
ENDBRANCH   8   9
BRANCH   8  14
ATOM     13  OXT UNL     1      32.352 -13.718 -22.835  0.00  0.00    -0.253 OA
ATOM     14  C   UNL     1      33.260 -13.905 -23.635  0.00  0.00    +0.293 C 
BRANCH  14  15
ATOM     15  O   UNL     1      34.235 -12.988 -23.868  0.00  0.00    -0.482 OA
ATOM     16  H   UNL     1      35.119 -13.170 -23.614  0.00  0.00    +0.295 HD
ENDBRANCH  14  15
ENDBRANCH   8  14
ENDBRANCH   7   8
ENDBRANCH   1   7
BRANCH   2  17
ATOM     17  C   UNL     1      34.668 -20.247 -20.490  0.00  0.00    +0.130 C 
BRANCH  17  21
ATOM     18  F   UNL     1      36.993 -19.813 -20.399  0.00  0.00    -0.170 F 
ATOM     19  F   UNL     1      36.378 -21.877 -20.724  0.00  0.00    -0.170 F 
ATOM     20  F   UNL     1      36.129 -20.957 -18.758  0.00  0.00    -0.170 F 
ATOM     21  C   UNL     1      36.051 -20.733 -20.087  0.00  0.00    +0.402 C 
ENDBRANCH  17  21
ENDBRANCH   2  17
TORSDOF 7
ENDMDL
MODEL 6
REMARK VINA RESULT:      -7.4      5.204      6.879
REMARK  Name = 24764430
REMARK  7 active torsions:
REMARK  status: ('A' for Active; 'I' for Inactive)
REMARK    1  A    between atoms: C_1  and  C_7
REMARK    2  A    between atoms: C_2  and  C_17
REMARK    3  A    between atoms: C_7  and  CA_8
REMARK    4  A    between atoms: CA_8  and  N_9
REMARK    5  A    between atoms: CA_8  and  C_14
REMARK    6  A    between atoms: C_14  and  O_15
REMARK    7  A    between atoms: C_17  and  C_21
REMARK                            x       y       z     vdW  Elec       q    Type
REMARK                         _______ _______ _______ _____ _____    ______ ____
ROOT
ATOM      1  C   UNL     1      35.300 -19.809 -20.665  0.00  0.00    -0.024 C 
ATOM      2  C   UNL     1      34.278 -22.034 -19.329  0.00  0.00    -0.014 C 
ATOM      3  C   UNL     1      33.921 -19.968 -20.529  0.00  0.00    -0.005 C 
ATOM      4  C   UNL     1      36.167 -20.761 -20.133  0.00  0.00    -0.005 C 
ATOM      5  C   UNL     1      33.410 -21.080 -19.861  0.00  0.00    -0.004 C 
ATOM      6  C   UNL     1      35.656 -21.875 -19.466  0.00  0.00    -0.004 C 
ENDROOT
BRANCH   1   7
ATOM      7  C   UNL     1      35.854 -18.603 -21.388  0.00  0.00    +0.015 C 
BRANCH   7   8
ATOM      8  CA  UNL     1      34.852 -17.989 -22.379  0.00  0.00    +0.040 C 
BRANCH   8   9
ATOM      9  N   UNL     1      35.056 -18.563 -23.707  0.00  0.00    +0.389 N 
ATOM     10  H1  UNL     1      36.056 -18.618 -23.903  0.00  0.00    -0.088 HD
ATOM     11  H2  UNL     1      34.605 -17.974 -24.406  0.00  0.00    -0.088 HD
ATOM     12  H3  UNL     1      34.651 -19.499 -23.739  0.00  0.00    -0.088 HD
ENDBRANCH   8   9
BRANCH   8  14
ATOM     13  OXT UNL     1      34.672 -15.658 -21.700  0.00  0.00    -0.253 OA
ATOM     14  C   UNL     1      35.037 -16.488 -22.522  0.00  0.00    +0.293 C 
BRANCH  14  15
ATOM     15  O   UNL     1      35.693 -16.154 -23.663  0.00  0.00    -0.482 OA
ATOM     16  H   UNL     1      36.630 -16.125 -23.673  0.00  0.00    +0.295 HD
ENDBRANCH  14  15
ENDBRANCH   8  14
ENDBRANCH   7   8
ENDBRANCH   1   7
BRANCH   2  17
ATOM     17  C   UNL     1      33.732 -23.225 -18.616  0.00  0.00    +0.130 C 
BRANCH  17  21
ATOM     18  F   UNL     1      34.103 -24.315 -16.548  0.00  0.00    -0.170 F 
ATOM     19  F   UNL     1      32.690 -22.657 -16.560  0.00  0.00    -0.170 F 
ATOM     20  F   UNL     1      34.833 -22.271 -16.742  0.00  0.00    -0.170 F 
ATOM     21  C   UNL     1      33.839 -23.110 -17.104  0.00  0.00    +0.402 C 
ENDBRANCH  17  21
ENDBRANCH   2  17
TORSDOF 7
ENDMDL
MODEL 7
REMARK VINA RESULT:      -7.4      5.812      7.960
REMARK  Name = 24764430
REMARK  7 active torsions:
REMARK  status: ('A' for Active; 'I' for Inactive)
REMARK    1  A    between atoms: C_1  and  C_7
REMARK    2  A    between atoms: C_2  and  C_17
REMARK    3  A    between atoms: C_7  and  CA_8
REMARK    4  A    between atoms: CA_8  and  N_9
REMARK    5  A    between atoms: CA_8  and  C_14
REMARK    6  A    between atoms: C_14  and  O_15
REMARK    7  A    between atoms: C_17  and  C_21
REMARK                            x       y       z     vdW  Elec       q    Type
REMARK                         _______ _______ _______ _____ _____    ______ ____
ROOT
ATOM      1  C   UNL     1      34.755 -17.022 -23.441  0.00  0.00    -0.024 C 
ATOM      2  C   UNL     1      34.598 -19.041 -21.523  0.00  0.00    -0.014 C 
ATOM      3  C   UNL     1      34.994 -18.348 -23.802  0.00  0.00    -0.005 C 
ATOM      4  C   UNL     1      34.438 -16.706 -22.120  0.00  0.00    -0.005 C 
ATOM      5  C   UNL     1      34.915 -19.358 -22.844  0.00  0.00    -0.004 C 
ATOM      6  C   UNL     1      34.360 -17.716 -21.161  0.00  0.00    -0.004 C 
ENDROOT
BRANCH   1   7
ATOM      7  C   UNL     1      34.839 -15.928 -24.480  0.00  0.00    +0.015 C 
BRANCH   7   8
ATOM      8  CA  UNL     1      33.554 -15.090 -24.569  0.00  0.00    +0.040 C 
BRANCH   8   9
ATOM      9  N   UNL     1      33.013 -15.157 -25.924  0.00  0.00    +0.389 N 
ATOM     10  H1  UNL     1      32.324 -14.414 -26.052  0.00  0.00    -0.088 HD
ATOM     11  H2  UNL     1      32.566 -16.062 -26.068  0.00  0.00    -0.088 HD
ATOM     12  H3  UNL     1      33.769 -15.039 -26.598  0.00  0.00    -0.088 HD
ENDBRANCH   8   9
BRANCH   8  14
ATOM     13  OXT UNL     1      33.573 -12.702 -25.049  0.00  0.00    -0.253 OA
ATOM     14  C   UNL     1      33.809 -13.621 -24.275  0.00  0.00    +0.293 C 
BRANCH  14  15
ATOM     15  O   UNL     1      34.304 -13.422 -23.026  0.00  0.00    -0.482 OA
ATOM     16  H   UNL     1      33.723 -13.397 -22.291  0.00  0.00    +0.295 HD
ENDBRANCH  14  15
ENDBRANCH   8  14
ENDBRANCH   7   8
ENDBRANCH   1   7
BRANCH   2  17
ATOM     17  C   UNL     1      34.516 -20.121 -20.497  0.00  0.00    +0.130 C 
BRANCH  17  21
ATOM     18  F   UNL     1      33.153 -22.041 -20.251  0.00  0.00    -0.170 F 
ATOM     19  F   UNL     1      32.344 -20.388 -21.417  0.00  0.00    -0.170 F 
ATOM     20  F   UNL     1      32.502 -20.222 -19.244  0.00  0.00    -0.170 F 
ATOM     21  C   UNL     1      33.114 -20.692 -20.351  0.00  0.00    +0.402 C 
ENDBRANCH  17  21
ENDBRANCH   2  17
TORSDOF 7
ENDMDL
MODEL 8
REMARK VINA RESULT:      -7.4      6.639      7.625
REMARK  Name = 24764430
REMARK  7 active torsions:
REMARK  status: ('A' for Active; 'I' for Inactive)
REMARK    1  A    between atoms: C_1  and  C_7
REMARK    2  A    between atoms: C_2  and  C_17
REMARK    3  A    between atoms: C_7  and  CA_8
REMARK    4  A    between atoms: CA_8  and  N_9
REMARK    5  A    between atoms: CA_8  and  C_14
REMARK    6  A    between atoms: C_14  and  O_15
REMARK    7  A    between atoms: C_17  and  C_21
REMARK                            x       y       z     vdW  Elec       q    Type
REMARK                         _______ _______ _______ _____ _____    ______ ____
ROOT
ATOM      1  C   UNL     1      33.675 -23.686 -14.736  0.00  0.00    -0.024 C 
ATOM      2  C   UNL     1      31.175 -23.093 -15.824  0.00  0.00    -0.014 C 
ATOM      3  C   UNL     1      32.565 -23.552 -13.903  0.00  0.00    -0.005 C 
ATOM      4  C   UNL     1      33.534 -23.523 -16.114  0.00  0.00    -0.005 C 
ATOM      5  C   UNL     1      31.315 -23.256 -14.446  0.00  0.00    -0.004 C 
ATOM      6  C   UNL     1      32.285 -23.226 -16.658  0.00  0.00    -0.004 C 
ENDROOT
BRANCH   1   7
ATOM      7  C   UNL     1      35.028 -24.008 -14.147  0.00  0.00    +0.015 C 
BRANCH   7   8
ATOM      8  CA  UNL     1      35.927 -24.795 -15.114  0.00  0.00    +0.040 C 
BRANCH   8   9
ATOM      9  N   UNL     1      35.734 -26.229 -14.912  0.00  0.00    +0.389 N 
ATOM     10  H1  UNL     1      35.257 -26.386 -14.023  0.00  0.00    -0.088 HD
ATOM     11  H2  UNL     1      36.641 -26.696 -14.897  0.00  0.00    -0.088 HD
ATOM     12  H3  UNL     1      35.169 -26.607 -15.672  0.00  0.00    -0.088 HD
ENDBRANCH   8   9
BRANCH   8  14
ATOM     13  OXT UNL     1      37.845 -23.519 -14.323  0.00  0.00    -0.253 OA
ATOM     14  C   UNL     1      37.402 -24.518 -14.877  0.00  0.00    +0.293 C 
BRANCH  14  15
ATOM     15  O   UNL     1      38.196 -25.527 -15.318  0.00  0.00    -0.482 OA
ATOM     16  H   UNL     1      37.961 -26.417 -15.146  0.00  0.00    +0.295 HD
ENDBRANCH  14  15
ENDBRANCH   8  14
ENDBRANCH   7   8
ENDBRANCH   1   7
BRANCH   2  17
ATOM     17  C   UNL     1      29.839 -22.774 -16.406  0.00  0.00    +0.130 C 
BRANCH  17  21
ATOM     18  F   UNL     1      29.514 -25.117 -16.352  0.00  0.00    -0.170 F 
ATOM     19  F   UNL     1      27.982 -23.923 -17.336  0.00  0.00    -0.170 F 
ATOM     20  F   UNL     1      28.160 -23.897 -15.159  0.00  0.00    -0.170 F 
ATOM     21  C   UNL     1      28.861 -23.934 -16.311  0.00  0.00    +0.402 C 
ENDBRANCH  17  21
ENDBRANCH   2  17
TORSDOF 7
ENDMDL
MODEL 9
REMARK VINA RESULT:      -7.3      3.418      4.949
REMARK  Name = 24764430
REMARK  7 active torsions:
REMARK  status: ('A' for Active; 'I' for Inactive)
REMARK    1  A    between atoms: C_1  and  C_7
REMARK    2  A    between atoms: C_2  and  C_17
REMARK    3  A    between atoms: C_7  and  CA_8
REMARK    4  A    between atoms: CA_8  and  N_9
REMARK    5  A    between atoms: CA_8  and  C_14
REMARK    6  A    between atoms: C_14  and  O_15
REMARK    7  A    between atoms: C_17  and  C_21
REMARK                            x       y       z     vdW  Elec       q    Type
REMARK                         _______ _______ _______ _____ _____    ______ ____
ROOT
ATOM      1  C   UNL     1      34.847 -18.317 -22.085  0.00  0.00    -0.024 C 
ATOM      2  C   UNL     1      34.553 -15.584 -22.561  0.00  0.00    -0.014 C 
ATOM      3  C   UNL     1      34.756 -17.428 -21.014  0.00  0.00    -0.005 C 
ATOM      4  C   UNL     1      34.790 -17.840 -23.394  0.00  0.00    -0.005 C 
ATOM      5  C   UNL     1      34.609 -16.062 -21.252  0.00  0.00    -0.004 C 
ATOM      6  C   UNL     1      34.644 -16.473 -23.632  0.00  0.00    -0.004 C 
ENDROOT
BRANCH   1   7
ATOM      7  C   UNL     1      35.006 -19.798 -21.827  0.00  0.00    +0.015 C 
BRANCH   7   8
ATOM      8  CA  UNL     1      34.681 -20.189 -20.377  0.00  0.00    +0.040 C 
BRANCH   8   9
ATOM      9  N   UNL     1      35.681 -21.132 -19.883  0.00  0.00    +0.389 N 
ATOM     10  H1  UNL     1      35.498 -22.057 -20.273  0.00  0.00    -0.088 HD
ATOM     11  H2  UNL     1      35.633 -21.178 -18.866  0.00  0.00    -0.088 HD
ATOM     12  H3  UNL     1      36.611 -20.822 -20.167  0.00  0.00    -0.088 HD
ENDBRANCH   8   9
BRANCH   8  14
ATOM     13  OXT UNL     1      33.144 -21.946 -19.685  0.00  0.00    -0.253 OA
ATOM     14  C   UNL     1      33.335 -20.882 -20.260  0.00  0.00    +0.293 C 
BRANCH  14  15
ATOM     15  O   UNL     1      32.335 -20.171 -20.842  0.00  0.00    -0.482 OA
ATOM     16  H   UNL     1      32.528 -19.369 -21.286  0.00  0.00    +0.295 HD
ENDBRANCH  14  15
ENDBRANCH   8  14
ENDBRANCH   7   8
ENDBRANCH   1   7
BRANCH   2  17
ATOM     17  C   UNL     1      34.397 -14.123 -22.817  0.00  0.00    +0.130 C 
BRANCH  17  21
ATOM     18  F   UNL     1      32.109 -14.342 -22.251  0.00  0.00    -0.170 F 
ATOM     19  F   UNL     1      32.592 -14.062 -24.357  0.00  0.00    -0.170 F 
ATOM     20  F   UNL     1      32.778 -12.393 -22.959  0.00  0.00    -0.170 F 
ATOM     21  C   UNL     1      32.958 -13.723 -23.103  0.00  0.00    +0.402 C 
ENDBRANCH  17  21
ENDBRANCH   2  17
TORSDOF 7
ENDMDL
