MODEL 1
REMARK VINA RESULT:      -8.3      0.000      0.000
REMARK  Name = 65782
REMARK  13 active torsions:
REMARK  status: ('A' for Active; 'I' for Inactive)
REMARK    1  A    between atoms: O_1  and  C_3
REMARK    2  A    between atoms: O_1  and  C_15
REMARK    3  A    between atoms: C_3  and  C_4
REMARK    4  A    between atoms: C_4  and  C_5
REMARK    5  A    between atoms: C_5  and  C_7
REMARK    6  A    between atoms: C_7  and  O_8
REMARK    7  A    between atoms: O_8  and  C_9
REMARK    8  A    between atoms: C_9  and  C_10
REMARK    9  A    between atoms: C_10  and  N_11
REMARK   10  A    between atoms: C_15  and  C_17
REMARK   11  A    between atoms: C_18  and  C_25
REMARK   12  A    between atoms: C_19  and  O_23
REMARK   13  A    between atoms: C_25  and  O_26
REMARK                            x       y       z     vdW  Elec       q    Type
REMARK                         _______ _______ _______ _____ _____    ______ ____
ROOT
ATOM      1  O   UNL     1      34.689 -19.138 -22.186  0.00  0.00    -0.443 OA
ENDROOT
BRANCH   1   3
ATOM      2  O   UNL     1      36.137 -19.082 -20.390  0.00  0.00    -0.250 OA
ATOM      3  C   UNL     1      35.130 -19.500 -20.944  0.00  0.00    +0.318 C 
BRANCH   3   4
ATOM      4  C   UNL     1      34.160 -20.502 -20.355  0.00  0.00    +0.121 C 
BRANCH   4   5
ATOM      5  C   UNL     1      34.854 -21.582 -19.528  0.00  0.00    +0.121 C 
BRANCH   5   7
ATOM      6  O   UNL     1      32.683 -22.354 -18.740  0.00  0.00    -0.250 OA
ATOM      7  C   UNL     1      33.900 -22.326 -18.619  0.00  0.00    +0.317 C 
BRANCH   7   8
ATOM      8  O   UNL     1      34.621 -22.953 -17.641  0.00  0.00    -0.451 OA
BRANCH   8   9
ATOM      9  C   UNL     1      33.890 -23.293 -16.459  0.00  0.00    +0.186 C 
BRANCH   9  10
ATOM     10  C   UNL     1      34.832 -23.234 -15.267  0.00  0.00    -0.029 C 
BRANCH  10  11
ATOM     11  N   UNL     1      36.091 -23.897 -15.572  0.00  0.00    +0.387 N 
ATOM     12  C   UNL     1      36.132 -25.233 -14.972  0.00  0.00    -0.101 C 
ATOM     13  C   UNL     1      37.226 -23.097 -15.102  0.00  0.00    -0.101 C 
ATOM     14  H   UNL     1      36.158 -23.993 -16.586  0.00  0.00    -0.080 HD
ENDBRANCH  10  11
ENDBRANCH   9  10
ENDBRANCH   8   9
ENDBRANCH   7   8
ENDBRANCH   5   7
ENDBRANCH   4   5
ENDBRANCH   3   4
ENDBRANCH   1   3
BRANCH   1  15
ATOM     15  C   UNL     1      35.633 -18.421 -22.988  0.00  0.00    +0.236 C 
BRANCH  15  17
ATOM     16  N   UNL     1      34.021 -16.658 -25.907  0.00  0.00    -0.245 NA
ATOM     17  C   UNL     1      34.907 -17.367 -23.773  0.00  0.00    +0.042 C 
ATOM     18  C   UNL     1      34.458 -16.189 -23.186  0.00  0.00    +0.043 C 
ATOM     19  C   UNL     1      33.791 -15.245 -23.959  0.00  0.00    +0.145 C 
ATOM     20  C   UNL     1      33.600 -15.524 -25.302  0.00  0.00    +0.093 C 
ATOM     21  C   UNL     1      34.666 -17.551 -25.125  0.00  0.00    +0.098 C 
ATOM     22  C   UNL     1      32.889 -14.544 -26.177  0.00  0.00    +0.055 C 
BRANCH  19  23
ATOM     23  O   UNL     1      33.340 -14.086 -23.411  0.00  0.00    -0.505 OA
ATOM     24  H   UNL     1      33.671 -13.263 -23.715  0.00  0.00    +0.292 HD
ENDBRANCH  19  23
BRANCH  18  25
ATOM     25  C   UNL     1      34.690 -15.935 -21.731  0.00  0.00    +0.167 C 
BRANCH  25  26
ATOM     26  O   UNL     1      33.442 -15.922 -21.052  0.00  0.00    -0.377 OA
ATOM     27  H   UNL     1      33.492 -16.496 -20.272  0.00  0.00    +0.211 HD
ENDBRANCH  25  26
ENDBRANCH  18  25
ENDBRANCH  15  17
ENDBRANCH   1  15
TORSDOF 13
ENDMDL
MODEL 2
REMARK VINA RESULT:      -8.2      1.787      2.214
REMARK  Name = 65782
REMARK  13 active torsions:
REMARK  status: ('A' for Active; 'I' for Inactive)
REMARK    1  A    between atoms: O_1  and  C_3
REMARK    2  A    between atoms: O_1  and  C_15
REMARK    3  A    between atoms: C_3  and  C_4
REMARK    4  A    between atoms: C_4  and  C_5
REMARK    5  A    between atoms: C_5  and  C_7
REMARK    6  A    between atoms: C_7  and  O_8
REMARK    7  A    between atoms: O_8  and  C_9
REMARK    8  A    between atoms: C_9  and  C_10
REMARK    9  A    between atoms: C_10  and  N_11
REMARK   10  A    between atoms: C_15  and  C_17
REMARK   11  A    between atoms: C_18  and  C_25
REMARK   12  A    between atoms: C_19  and  O_23
REMARK   13  A    between atoms: C_25  and  O_26
REMARK                            x       y       z     vdW  Elec       q    Type
REMARK                         _______ _______ _______ _____ _____    ______ ____
ROOT
ATOM      1  O   UNL     1      34.774 -19.186 -22.160  0.00  0.00    -0.443 OA
ENDROOT
BRANCH   1   3
ATOM      2  O   UNL     1      36.177 -19.229 -20.329  0.00  0.00    -0.250 OA
ATOM      3  C   UNL     1      35.161 -19.583 -20.911  0.00  0.00    +0.318 C 
BRANCH   3   4
ATOM      4  C   UNL     1      34.119 -20.529 -20.354  0.00  0.00    +0.121 C 
BRANCH   4   5
ATOM      5  C   UNL     1      34.703 -21.540 -19.371  0.00  0.00    +0.121 C 
BRANCH   5   7
ATOM      6  O   UNL     1      34.048 -23.866 -19.675  0.00  0.00    -0.250 OA
ATOM      7  C   UNL     1      33.826 -22.762 -19.197  0.00  0.00    +0.317 C 
BRANCH   7   8
ATOM      8  O   UNL     1      32.747 -22.425 -18.429  0.00  0.00    -0.451 OA
BRANCH   8   9
ATOM      9  C   UNL     1      32.671 -23.074 -17.156  0.00  0.00    +0.186 C 
BRANCH   9  10
ATOM     10  C   UNL     1      31.260 -22.921 -16.612  0.00  0.00    -0.029 C 
BRANCH  10  11
ATOM     11  N   UNL     1      31.154 -23.500 -15.282  0.00  0.00    +0.387 N 
ATOM     12  C   UNL     1      32.476 -23.871 -14.772  0.00  0.00    -0.101 C 
ATOM     13  C   UNL     1      30.271 -24.670 -15.294  0.00  0.00    -0.101 C 
ATOM     14  H   UNL     1      30.752 -22.796 -14.662  0.00  0.00    -0.080 HD
ENDBRANCH  10  11
ENDBRANCH   9  10
ENDBRANCH   8   9
ENDBRANCH   7   8
ENDBRANCH   5   7
ENDBRANCH   4   5
ENDBRANCH   3   4
ENDBRANCH   1   3
BRANCH   1  15
ATOM     15  C   UNL     1      35.713 -18.367 -22.863  0.00  0.00    +0.236 C 
BRANCH  15  17
ATOM     16  N   UNL     1      34.062 -16.751 -25.845  0.00  0.00    -0.245 NA
ATOM     17  C   UNL     1      34.963 -17.360 -23.686  0.00  0.00    +0.042 C 
ATOM     18  C   UNL     1      34.486 -16.171 -23.143  0.00  0.00    +0.043 C 
ATOM     19  C   UNL     1      33.798 -15.273 -23.951  0.00  0.00    +0.145 C 
ATOM     20  C   UNL     1      33.614 -15.606 -25.283  0.00  0.00    +0.093 C 
ATOM     21  C   UNL     1      34.727 -17.600 -25.031  0.00  0.00    +0.098 C 
ATOM     22  C   UNL     1      32.880 -14.676 -26.193  0.00  0.00    +0.055 C 
BRANCH  19  23
ATOM     23  O   UNL     1      33.319 -14.105 -23.446  0.00  0.00    -0.505 OA
ATOM     24  H   UNL     1      33.907 -13.484 -23.063  0.00  0.00    +0.292 HD
ENDBRANCH  19  23
BRANCH  18  25
ATOM     25  C   UNL     1      34.711 -15.858 -21.699  0.00  0.00    +0.167 C 
BRANCH  25  26
ATOM     26  O   UNL     1      33.467 -15.886 -21.013  0.00  0.00    -0.377 OA
ATOM     27  H   UNL     1      33.619 -15.762 -20.063  0.00  0.00    +0.211 HD
ENDBRANCH  25  26
ENDBRANCH  18  25
ENDBRANCH  15  17
ENDBRANCH   1  15
TORSDOF 13
ENDMDL
MODEL 3
REMARK VINA RESULT:      -8.2      1.958     10.533
REMARK  Name = 65782
REMARK  13 active torsions:
REMARK  status: ('A' for Active; 'I' for Inactive)
REMARK    1  A    between atoms: O_1  and  C_3
REMARK    2  A    between atoms: O_1  and  C_15
REMARK    3  A    between atoms: C_3  and  C_4
REMARK    4  A    between atoms: C_4  and  C_5
REMARK    5  A    between atoms: C_5  and  C_7
REMARK    6  A    between atoms: C_7  and  O_8
REMARK    7  A    between atoms: O_8  and  C_9
REMARK    8  A    between atoms: C_9  and  C_10
REMARK    9  A    between atoms: C_10  and  N_11
REMARK   10  A    between atoms: C_15  and  C_17
REMARK   11  A    between atoms: C_18  and  C_25
REMARK   12  A    between atoms: C_19  and  O_23
REMARK   13  A    between atoms: C_25  and  O_26
REMARK                            x       y       z     vdW  Elec       q    Type
REMARK                         _______ _______ _______ _____ _____    ______ ____
ROOT
ATOM      1  O   UNL     1      35.097 -22.832 -17.779  0.00  0.00    -0.443 OA
ENDROOT
BRANCH   1   3
ATOM      2  O   UNL     1      33.085 -22.626 -18.890  0.00  0.00    -0.250 OA
ATOM      3  C   UNL     1      34.268 -22.346 -18.750  0.00  0.00    +0.318 C 
BRANCH   3   4
ATOM      4  C   UNL     1      35.049 -21.389 -19.625  0.00  0.00    +0.121 C 
BRANCH   4   5
ATOM      5  C   UNL     1      34.153 -20.406 -20.374  0.00  0.00    +0.121 C 
BRANCH   5   7
ATOM      6  O   UNL     1      35.670 -18.518 -20.627  0.00  0.00    -0.250 OA
ATOM      7  C   UNL     1      34.939 -19.358 -21.133  0.00  0.00    +0.317 C 
BRANCH   7   8
ATOM      8  O   UNL     1      34.692 -19.503 -22.469  0.00  0.00    -0.451 OA
BRANCH   8   9
ATOM      9  C   UNL     1      35.543 -18.748 -23.338  0.00  0.00    +0.186 C 
BRANCH   9  10
ATOM     10  C   UNL     1      34.693 -18.128 -24.436  0.00  0.00    -0.029 C 
BRANCH  10  11
ATOM     11  N   UNL     1      34.978 -16.707 -24.566  0.00  0.00    +0.387 N 
ATOM     12  C   UNL     1      35.031 -16.066 -23.250  0.00  0.00    -0.101 C 
ATOM     13  C   UNL     1      33.973 -16.052 -25.408  0.00  0.00    -0.101 C 
ATOM     14  H   UNL     1      35.891 -16.609 -25.013  0.00  0.00    -0.080 HD
ENDBRANCH  10  11
ENDBRANCH   9  10
ENDBRANCH   8   9
ENDBRANCH   7   8
ENDBRANCH   5   7
ENDBRANCH   4   5
ENDBRANCH   3   4
ENDBRANCH   1   3
BRANCH   1  15
ATOM     15  C   UNL     1      34.550 -22.853 -16.457  0.00  0.00    +0.236 C 
BRANCH  15  17
ATOM     16  N   UNL     1      37.905 -23.718 -14.967  0.00  0.00    -0.245 NA
ATOM     17  C   UNL     1      35.569 -23.423 -15.514  0.00  0.00    +0.042 C 
ATOM     18  C   UNL     1      35.204 -24.140 -14.380  0.00  0.00    +0.043 C 
ATOM     19  C   UNL     1      36.190 -24.648 -13.539  0.00  0.00    +0.145 C 
ATOM     20  C   UNL     1      37.513 -24.412 -13.874  0.00  0.00    +0.093 C 
ATOM     21  C   UNL     1      36.920 -23.242 -15.761  0.00  0.00    +0.098 C 
ATOM     22  C   UNL     1      38.610 -24.933 -13.005  0.00  0.00    +0.055 C 
BRANCH  19  23
ATOM     23  O   UNL     1      35.862 -25.351 -12.424  0.00  0.00    -0.505 OA
ATOM     24  H   UNL     1      36.276 -26.173 -12.249  0.00  0.00    +0.292 HD
ENDBRANCH  19  23
BRANCH  18  25
ATOM     25  C   UNL     1      33.762 -24.368 -14.063  0.00  0.00    +0.167 C 
BRANCH  25  26
ATOM     26  O   UNL     1      33.429 -23.677 -12.866  0.00  0.00    -0.377 OA
ATOM     27  H   UNL     1      34.220 -23.236 -12.517  0.00  0.00    +0.211 HD
ENDBRANCH  25  26
ENDBRANCH  18  25
ENDBRANCH  15  17
ENDBRANCH   1  15
TORSDOF 13
ENDMDL
MODEL 4
REMARK VINA RESULT:      -8.2      2.383      8.798
REMARK  Name = 65782
REMARK  13 active torsions:
REMARK  status: ('A' for Active; 'I' for Inactive)
REMARK    1  A    between atoms: O_1  and  C_3
REMARK    2  A    between atoms: O_1  and  C_15
REMARK    3  A    between atoms: C_3  and  C_4
REMARK    4  A    between atoms: C_4  and  C_5
REMARK    5  A    between atoms: C_5  and  C_7
REMARK    6  A    between atoms: C_7  and  O_8
REMARK    7  A    between atoms: O_8  and  C_9
REMARK    8  A    between atoms: C_9  and  C_10
REMARK    9  A    between atoms: C_10  and  N_11
REMARK   10  A    between atoms: C_15  and  C_17
REMARK   11  A    between atoms: C_18  and  C_25
REMARK   12  A    between atoms: C_19  and  O_23
REMARK   13  A    between atoms: C_25  and  O_26
REMARK                            x       y       z     vdW  Elec       q    Type
REMARK                         _______ _______ _______ _____ _____    ______ ____
ROOT
ATOM      1  O   UNL     1      34.690 -19.415 -21.103  0.00  0.00    -0.443 OA
ENDROOT
BRANCH   1   3
ATOM      2  O   UNL     1      35.303 -17.253 -20.580  0.00  0.00    -0.250 OA
ATOM      3  C   UNL     1      35.298 -18.214 -21.337  0.00  0.00    +0.318 C 
BRANCH   3   4
ATOM      4  C   UNL     1      35.979 -18.267 -22.687  0.00  0.00    +0.121 C 
BRANCH   4   5
ATOM      5  C   UNL     1      34.989 -18.360 -23.846  0.00  0.00    +0.121 C 
BRANCH   5   7
ATOM      6  O   UNL     1      34.690 -16.979 -25.830  0.00  0.00    -0.250 OA
ATOM      7  C   UNL     1      34.875 -17.066 -24.623  0.00  0.00    +0.317 C 
BRANCH   7   8
ATOM      8  O   UNL     1      35.018 -16.017 -23.758  0.00  0.00    -0.451 OA
BRANCH   8   9
ATOM      9  C   UNL     1      34.064 -14.962 -23.905  0.00  0.00    +0.186 C 
BRANCH   9  10
ATOM     10  C   UNL     1      34.014 -14.163 -22.613  0.00  0.00    -0.029 C 
BRANCH  10  11
ATOM     11  N   UNL     1      32.697 -14.253 -22.002  0.00  0.00    +0.387 N 
ATOM     12  C   UNL     1      32.086 -12.927 -21.888  0.00  0.00    -0.101 C 
ATOM     13  C   UNL     1      32.780 -14.886 -20.683  0.00  0.00    -0.101 C 
ATOM     14  H   UNL     1      32.110 -14.831 -22.604  0.00  0.00    -0.080 HD
ENDBRANCH  10  11
ENDBRANCH   9  10
ENDBRANCH   8   9
ENDBRANCH   7   8
ENDBRANCH   5   7
ENDBRANCH   4   5
ENDBRANCH   3   4
ENDBRANCH   1   3
BRANCH   1  15
ATOM     15  C   UNL     1      35.545 -20.452 -20.610  0.00  0.00    +0.236 C 
BRANCH  15  17
ATOM     16  N   UNL     1      32.679 -22.156 -18.846  0.00  0.00    -0.245 NA
ATOM     17  C   UNL     1      34.797 -21.258 -19.588  0.00  0.00    +0.042 C 
ATOM     18  C   UNL     1      35.434 -21.836 -18.495  0.00  0.00    +0.043 C 
ATOM     19  C   UNL     1      34.694 -22.573 -17.577  0.00  0.00    +0.145 C 
ATOM     20  C   UNL     1      33.332 -22.702 -17.796  0.00  0.00    +0.093 C 
ATOM     21  C   UNL     1      33.430 -21.446 -19.717  0.00  0.00    +0.098 C 
ATOM     22  C   UNL     1      32.491 -23.485 -16.841  0.00  0.00    +0.055 C 
BRANCH  19  23
ATOM     23  O   UNL     1      35.290 -23.151 -16.501  0.00  0.00    -0.505 OA
ATOM     24  H   UNL     1      35.124 -24.050 -16.299  0.00  0.00    +0.292 HD
ENDBRANCH  19  23
BRANCH  18  25
ATOM     25  C   UNL     1      36.906 -21.667 -18.304  0.00  0.00    +0.167 C 
BRANCH  25  26
ATOM     26  O   UNL     1      37.143 -20.893 -17.136  0.00  0.00    -0.377 OA
ATOM     27  H   UNL     1      37.352 -21.483 -16.394  0.00  0.00    +0.211 HD
ENDBRANCH  25  26
ENDBRANCH  18  25
ENDBRANCH  15  17
ENDBRANCH   1  15
TORSDOF 13
ENDMDL
MODEL 5
REMARK VINA RESULT:      -8.2      2.620      9.780
REMARK  Name = 65782
REMARK  13 active torsions:
REMARK  status: ('A' for Active; 'I' for Inactive)
REMARK    1  A    between atoms: O_1  and  C_3
REMARK    2  A    between atoms: O_1  and  C_15
REMARK    3  A    between atoms: C_3  and  C_4
REMARK    4  A    between atoms: C_4  and  C_5
REMARK    5  A    between atoms: C_5  and  C_7
REMARK    6  A    between atoms: C_7  and  O_8
REMARK    7  A    between atoms: O_8  and  C_9
REMARK    8  A    between atoms: C_9  and  C_10
REMARK    9  A    between atoms: C_10  and  N_11
REMARK   10  A    between atoms: C_15  and  C_17
REMARK   11  A    between atoms: C_18  and  C_25
REMARK   12  A    between atoms: C_19  and  O_23
REMARK   13  A    between atoms: C_25  and  O_26
REMARK                            x       y       z     vdW  Elec       q    Type
REMARK                         _______ _______ _______ _____ _____    ______ ____
ROOT
ATOM      1  O   UNL     1      35.572 -22.865 -17.354  0.00  0.00    -0.443 OA
ENDROOT
BRANCH   1   3
ATOM      2  O   UNL     1      36.998 -21.051 -17.327  0.00  0.00    -0.250 OA
ATOM      3  C   UNL     1      36.195 -21.777 -17.897  0.00  0.00    +0.318 C 
BRANCH   3   4
ATOM      4  C   UNL     1      35.737 -21.617 -19.331  0.00  0.00    +0.121 C 
BRANCH   4   5
ATOM      5  C   UNL     1      34.217 -21.646 -19.473  0.00  0.00    +0.121 C 
BRANCH   5   7
ATOM      6  O   UNL     1      32.507 -20.278 -20.538  0.00  0.00    -0.250 OA
ATOM      7  C   UNL     1      33.689 -20.528 -20.347  0.00  0.00    +0.317 C 
BRANCH   7   8
ATOM      8  O   UNL     1      34.748 -19.855 -20.889  0.00  0.00    -0.451 OA
BRANCH   8   9
ATOM      9  C   UNL     1      34.408 -18.783 -21.774  0.00  0.00    +0.186 C 
BRANCH   9  10
ATOM     10  C   UNL     1      35.138 -18.987 -23.092  0.00  0.00    -0.029 C 
BRANCH  10  11
ATOM     11  N   UNL     1      35.436 -17.708 -23.719  0.00  0.00    +0.387 N 
ATOM     12  C   UNL     1      35.183 -16.604 -22.790  0.00  0.00    -0.101 C 
ATOM     13  C   UNL     1      34.645 -17.532 -24.940  0.00  0.00    -0.101 C 
ATOM     14  H   UNL     1      36.425 -17.703 -23.968  0.00  0.00    -0.080 HD
ENDBRANCH  10  11
ENDBRANCH   9  10
ENDBRANCH   8   9
ENDBRANCH   7   8
ENDBRANCH   5   7
ENDBRANCH   4   5
ENDBRANCH   3   4
ENDBRANCH   1   3
BRANCH   1  15
ATOM     15  C   UNL     1      35.392 -22.826 -15.935  0.00  0.00    +0.236 C 
BRANCH  15  17
ATOM     16  N   UNL     1      31.718 -23.608 -16.268  0.00  0.00    -0.245 NA
ATOM     17  C   UNL     1      34.026 -23.350 -15.600  0.00  0.00    +0.042 C 
ATOM     18  C   UNL     1      33.765 -24.022 -14.410  0.00  0.00    +0.043 C 
ATOM     19  C   UNL     1      32.480 -24.486 -14.150  0.00  0.00    +0.145 C 
ATOM     20  C   UNL     1      31.501 -24.256 -15.101  0.00  0.00    +0.093 C 
ATOM     21  C   UNL     1      32.977 -23.170 -16.487  0.00  0.00    +0.098 C 
ATOM     22  C   UNL     1      30.105 -24.735 -14.871  0.00  0.00    +0.055 C 
BRANCH  19  23
ATOM     23  O   UNL     1      32.198 -25.148 -12.996  0.00  0.00    -0.505 OA
ATOM     24  H   UNL     1      31.307 -25.302 -12.750  0.00  0.00    +0.292 HD
ENDBRANCH  19  23
BRANCH  18  25
ATOM     25  C   UNL     1      34.857 -24.245 -13.415  0.00  0.00    +0.167 C 
BRANCH  25  26
ATOM     26  O   UNL     1      34.495 -23.646 -12.178  0.00  0.00    -0.377 OA
ATOM     27  H   UNL     1      34.276 -22.712 -12.323  0.00  0.00    +0.211 HD
ENDBRANCH  25  26
ENDBRANCH  18  25
ENDBRANCH  15  17
ENDBRANCH   1  15
TORSDOF 13
ENDMDL
MODEL 6
REMARK VINA RESULT:      -8.1      2.986      5.326
REMARK  Name = 65782
REMARK  13 active torsions:
REMARK  status: ('A' for Active; 'I' for Inactive)
REMARK    1  A    between atoms: O_1  and  C_3
REMARK    2  A    between atoms: O_1  and  C_15
REMARK    3  A    between atoms: C_3  and  C_4
REMARK    4  A    between atoms: C_4  and  C_5
REMARK    5  A    between atoms: C_5  and  C_7
REMARK    6  A    between atoms: C_7  and  O_8
REMARK    7  A    between atoms: O_8  and  C_9
REMARK    8  A    between atoms: C_9  and  C_10
REMARK    9  A    between atoms: C_10  and  N_11
REMARK   10  A    between atoms: C_15  and  C_17
REMARK   11  A    between atoms: C_18  and  C_25
REMARK   12  A    between atoms: C_19  and  O_23
REMARK   13  A    between atoms: C_25  and  O_26
REMARK                            x       y       z     vdW  Elec       q    Type
REMARK                         _______ _______ _______ _____ _____    ______ ____
ROOT
ATOM      1  O   UNL     1      32.494 -22.386 -18.290  0.00  0.00    -0.443 OA
ENDROOT
BRANCH   1   3
ATOM      2  O   UNL     1      31.471 -22.943 -16.298  0.00  0.00    -0.250 OA
ATOM      3  C   UNL     1      32.446 -22.927 -17.037  0.00  0.00    +0.318 C 
BRANCH   3   4
ATOM      4  C   UNL     1      33.801 -23.518 -16.709  0.00  0.00    +0.121 C 
BRANCH   4   5
ATOM      5  C   UNL     1      34.283 -23.151 -15.307  0.00  0.00    +0.121 C 
BRANCH   5   7
ATOM      6  O   UNL     1      36.582 -23.314 -16.091  0.00  0.00    -0.250 OA
ATOM      7  C   UNL     1      35.787 -23.236 -15.165  0.00  0.00    +0.317 C 
BRANCH   7   8
ATOM      8  O   UNL     1      36.107 -23.218 -13.836  0.00  0.00    -0.451 OA
BRANCH   8   9
ATOM      9  C   UNL     1      37.267 -23.971 -13.470  0.00  0.00    +0.186 C 
BRANCH   9  10
ATOM     10  C   UNL     1      36.843 -25.395 -13.147  0.00  0.00    -0.029 C 
BRANCH  10  11
ATOM     11  N   UNL     1      37.694 -26.354 -13.834  0.00  0.00    +0.387 N 
ATOM     12  C   UNL     1      39.003 -25.767 -14.130  0.00  0.00    -0.101 C 
ATOM     13  C   UNL     1      37.058 -26.820 -15.069  0.00  0.00    -0.101 C 
ATOM     14  H   UNL     1      37.829 -27.155 -13.215  0.00  0.00    -0.080 HD
ENDBRANCH  10  11
ENDBRANCH   9  10
ENDBRANCH   8   9
ENDBRANCH   7   8
ENDBRANCH   5   7
ENDBRANCH   4   5
ENDBRANCH   3   4
ENDBRANCH   1   3
BRANCH   1  15
ATOM     15  C   UNL     1      33.737 -22.542 -18.981  0.00  0.00    +0.236 C 
BRANCH  15  17
ATOM     16  N   UNL     1      33.175 -19.416 -21.015  0.00  0.00    -0.245 NA
ATOM     17  C   UNL     1      34.034 -21.285 -19.746  0.00  0.00    +0.042 C 
ATOM     18  C   UNL     1      35.331 -20.812 -19.912  0.00  0.00    +0.043 C 
ATOM     19  C   UNL     1      35.551 -19.642 -20.630  0.00  0.00    +0.145 C 
ATOM     20  C   UNL     1      34.450 -18.987 -21.157  0.00  0.00    +0.093 C 
ATOM     21  C   UNL     1      33.000 -20.557 -20.312  0.00  0.00    +0.098 C 
ATOM     22  C   UNL     1      34.630 -17.726 -21.936  0.00  0.00    +0.055 C 
BRANCH  19  23
ATOM     23  O   UNL     1      36.808 -19.156 -20.807  0.00  0.00    -0.505 OA
ATOM     24  H   UNL     1      37.053 -18.776 -21.628  0.00  0.00    +0.292 HD
ENDBRANCH  19  23
BRANCH  18  25
ATOM     25  C   UNL     1      36.486 -21.556 -19.324  0.00  0.00    +0.167 C 
BRANCH  25  26
ATOM     26  O   UNL     1      36.852 -20.955 -18.089  0.00  0.00    -0.377 OA
ATOM     27  H   UNL     1      36.079 -20.514 -17.702  0.00  0.00    +0.211 HD
ENDBRANCH  25  26
ENDBRANCH  18  25
ENDBRANCH  15  17
ENDBRANCH   1  15
TORSDOF 13
ENDMDL
MODEL 7
REMARK VINA RESULT:      -8.0      2.271      9.750
REMARK  Name = 65782
REMARK  13 active torsions:
REMARK  status: ('A' for Active; 'I' for Inactive)
REMARK    1  A    between atoms: O_1  and  C_3
REMARK    2  A    between atoms: O_1  and  C_15
REMARK    3  A    between atoms: C_3  and  C_4
REMARK    4  A    between atoms: C_4  and  C_5
REMARK    5  A    between atoms: C_5  and  C_7
REMARK    6  A    between atoms: C_7  and  O_8
REMARK    7  A    between atoms: O_8  and  C_9
REMARK    8  A    between atoms: C_9  and  C_10
REMARK    9  A    between atoms: C_10  and  N_11
REMARK   10  A    between atoms: C_15  and  C_17
REMARK   11  A    between atoms: C_18  and  C_25
REMARK   12  A    between atoms: C_19  and  O_23
REMARK   13  A    between atoms: C_25  and  O_26
REMARK                            x       y       z     vdW  Elec       q    Type
REMARK                         _______ _______ _______ _____ _____    ______ ____
ROOT
ATOM      1  O   UNL     1      32.999 -22.406 -19.056  0.00  0.00    -0.443 OA
ENDROOT
BRANCH   1   3
ATOM      2  O   UNL     1      32.375 -20.304 -19.777  0.00  0.00    -0.250 OA
ATOM      3  C   UNL     1      33.221 -21.168 -19.593  0.00  0.00    +0.318 C 
BRANCH   3   4
ATOM      4  C   UNL     1      34.693 -21.034 -19.917  0.00  0.00    +0.121 C 
BRANCH   4   5
ATOM      5  C   UNL     1      34.958 -20.089 -21.087  0.00  0.00    +0.121 C 
BRANCH   5   7
ATOM      6  O   UNL     1      37.273 -19.411 -20.755  0.00  0.00    -0.250 OA
ATOM      7  C   UNL     1      36.087 -19.119 -20.811  0.00  0.00    +0.317 C 
BRANCH   7   8
ATOM      8  O   UNL     1      35.561 -17.870 -20.630  0.00  0.00    -0.451 OA
BRANCH   8   9
ATOM      9  C   UNL     1      34.548 -17.486 -21.564  0.00  0.00    +0.186 C 
BRANCH   9  10
ATOM     10  C   UNL     1      34.576 -15.974 -21.723  0.00  0.00    -0.029 C 
BRANCH  10  11
ATOM     11  N   UNL     1      34.924 -15.606 -23.086  0.00  0.00    +0.387 N 
ATOM     12  C   UNL     1      34.088 -14.498 -23.554  0.00  0.00    -0.101 C 
ATOM     13  C   UNL     1      34.789 -16.756 -23.984  0.00  0.00    -0.101 C 
ATOM     14  H   UNL     1      35.899 -15.303 -23.092  0.00  0.00    -0.080 HD
ENDBRANCH  10  11
ENDBRANCH   9  10
ENDBRANCH   8   9
ENDBRANCH   7   8
ENDBRANCH   5   7
ENDBRANCH   4   5
ENDBRANCH   3   4
ENDBRANCH   1   3
BRANCH   1  15
ATOM     15  C   UNL     1      33.913 -22.803 -18.029  0.00  0.00    +0.236 C 
BRANCH  15  17
ATOM     16  N   UNL     1      30.975 -23.405 -15.742  0.00  0.00    -0.245 NA
ATOM     17  C   UNL     1      33.137 -23.158 -16.794  0.00  0.00    +0.042 C 
ATOM     18  C   UNL     1      33.764 -23.548 -15.616  0.00  0.00    +0.043 C 
ATOM     19  C   UNL     1      32.997 -23.866 -14.500  0.00  0.00    +0.145 C 
ATOM     20  C   UNL     1      31.619 -23.779 -14.613  0.00  0.00    +0.093 C 
ATOM     21  C   UNL     1      31.752 -23.103 -16.805  0.00  0.00    +0.098 C 
ATOM     22  C   UNL     1      30.749 -24.111 -13.445  0.00  0.00    +0.055 C 
BRANCH  19  23
ATOM     23  O   UNL     1      33.583 -24.252 -13.336  0.00  0.00    -0.505 OA
ATOM     24  H   UNL     1      33.127 -24.820 -12.747  0.00  0.00    +0.292 HD
ENDBRANCH  19  23
BRANCH  18  25
ATOM     25  C   UNL     1      35.255 -23.625 -15.545  0.00  0.00    +0.167 C 
BRANCH  25  26
ATOM     26  O   UNL     1      35.654 -24.989 -15.546  0.00  0.00    -0.377 OA
ATOM     27  H   UNL     1      35.174 -25.466 -16.241  0.00  0.00    +0.211 HD
ENDBRANCH  25  26
ENDBRANCH  18  25
ENDBRANCH  15  17
ENDBRANCH   1  15
TORSDOF 13
ENDMDL
MODEL 8
REMARK VINA RESULT:      -8.0      5.985     10.872
REMARK  Name = 65782
REMARK  13 active torsions:
REMARK  status: ('A' for Active; 'I' for Inactive)
REMARK    1  A    between atoms: O_1  and  C_3
REMARK    2  A    between atoms: O_1  and  C_15
REMARK    3  A    between atoms: C_3  and  C_4
REMARK    4  A    between atoms: C_4  and  C_5
REMARK    5  A    between atoms: C_5  and  C_7
REMARK    6  A    between atoms: C_7  and  O_8
REMARK    7  A    between atoms: O_8  and  C_9
REMARK    8  A    between atoms: C_9  and  C_10
REMARK    9  A    between atoms: C_10  and  N_11
REMARK   10  A    between atoms: C_15  and  C_17
REMARK   11  A    between atoms: C_18  and  C_25
REMARK   12  A    between atoms: C_19  and  O_23
REMARK   13  A    between atoms: C_25  and  O_26
REMARK                            x       y       z     vdW  Elec       q    Type
REMARK                         _______ _______ _______ _____ _____    ______ ____
ROOT
ATOM      1  O   UNL     1      32.053 -13.136 -22.839  0.00  0.00    -0.443 OA
ENDROOT
BRANCH   1   3
ATOM      2  O   UNL     1      32.421 -13.190 -20.562  0.00  0.00    -0.250 OA
ATOM      3  C   UNL     1      31.922 -12.682 -21.557  0.00  0.00    +0.318 C 
BRANCH   3   4
ATOM      4  C   UNL     1      31.063 -11.436 -21.565  0.00  0.00    +0.121 C 
BRANCH   4   5
ATOM      5  C   UNL     1      31.831 -10.186 -21.139  0.00  0.00    +0.121 C 
BRANCH   5   7
ATOM      6  O   UNL     1      31.178 -10.625 -18.834  0.00  0.00    -0.250 OA
ATOM      7  C   UNL     1      31.674  -9.877 -19.666  0.00  0.00    +0.317 C 
BRANCH   7   8
ATOM      8  O   UNL     1      32.169  -8.627 -19.422  0.00  0.00    -0.451 OA
BRANCH   8   9
ATOM      9  C   UNL     1      32.680  -7.933 -20.564  0.00  0.00    +0.186 C 
BRANCH   9  10
ATOM     10  C   UNL     1      32.104  -6.526 -20.580  0.00  0.00    -0.029 C 
BRANCH  10  11
ATOM     11  N   UNL     1      32.120  -5.979 -21.928  0.00  0.00    +0.387 N 
ATOM     12  C   UNL     1      30.758  -5.710 -22.395  0.00  0.00    -0.101 C 
ATOM     13  C   UNL     1      32.799  -6.892 -22.851  0.00  0.00    -0.101 C 
ATOM     14  H   UNL     1      32.635  -5.098 -21.904  0.00  0.00    -0.080 HD
ENDBRANCH  10  11
ENDBRANCH   9  10
ENDBRANCH   8   9
ENDBRANCH   7   8
ENDBRANCH   5   7
ENDBRANCH   4   5
ENDBRANCH   3   4
ENDBRANCH   1   3
BRANCH   1  15
ATOM     15  C   UNL     1      33.380 -13.099 -23.372  0.00  0.00    +0.236 C 
BRANCH  15  17
ATOM     16  N   UNL     1      35.091 -16.352 -22.523  0.00  0.00    -0.245 NA
ATOM     17  C   UNL     1      33.889 -14.504 -23.515  0.00  0.00    +0.042 C 
ATOM     18  C   UNL     1      33.674 -15.253 -24.667  0.00  0.00    +0.043 C 
ATOM     19  C   UNL     1      34.168 -16.551 -24.748  0.00  0.00    +0.145 C 
ATOM     20  C   UNL     1      34.864 -17.049 -23.659  0.00  0.00    +0.093 C 
ATOM     21  C   UNL     1      34.598 -15.095 -22.481  0.00  0.00    +0.098 C 
ATOM     22  C   UNL     1      35.414 -18.437 -23.693  0.00  0.00    +0.055 C 
BRANCH  19  23
ATOM     23  O   UNL     1      33.971 -17.305 -25.861  0.00  0.00    -0.505 OA
ATOM     24  H   UNL     1      33.887 -18.236 -25.788  0.00  0.00    +0.292 HD
ENDBRANCH  19  23
BRANCH  18  25
ATOM     25  C   UNL     1      32.917 -14.669 -25.815  0.00  0.00    +0.167 C 
BRANCH  25  26
ATOM     26  O   UNL     1      33.686 -14.803 -27.003  0.00  0.00    -0.377 OA
ATOM     27  H   UNL     1      33.607 -13.995 -27.533  0.00  0.00    +0.211 HD
ENDBRANCH  25  26
ENDBRANCH  18  25
ENDBRANCH  15  17
ENDBRANCH   1  15
TORSDOF 13
ENDMDL
MODEL 9
REMARK VINA RESULT:      -7.9      5.994     10.519
REMARK  Name = 65782
REMARK  13 active torsions:
REMARK  status: ('A' for Active; 'I' for Inactive)
REMARK    1  A    between atoms: O_1  and  C_3
REMARK    2  A    between atoms: O_1  and  C_15
REMARK    3  A    between atoms: C_3  and  C_4
REMARK    4  A    between atoms: C_4  and  C_5
REMARK    5  A    between atoms: C_5  and  C_7
REMARK    6  A    between atoms: C_7  and  O_8
REMARK    7  A    between atoms: O_8  and  C_9
REMARK    8  A    between atoms: C_9  and  C_10
REMARK    9  A    between atoms: C_10  and  N_11
REMARK   10  A    between atoms: C_15  and  C_17
REMARK   11  A    between atoms: C_18  and  C_25
REMARK   12  A    between atoms: C_19  and  O_23
REMARK   13  A    between atoms: C_25  and  O_26
REMARK                            x       y       z     vdW  Elec       q    Type
REMARK                         _______ _______ _______ _____ _____    ______ ____
ROOT
ATOM      1  O   UNL     1      33.979 -12.155 -23.758  0.00  0.00    -0.443 OA
ENDROOT
BRANCH   1   3
ATOM      2  O   UNL     1      33.915 -11.745 -26.028  0.00  0.00    -0.250 OA
ATOM      3  C   UNL     1      34.127 -11.386 -24.877  0.00  0.00    +0.318 C 
BRANCH   3   4
ATOM      4  C   UNL     1      34.588 -10.005 -24.463  0.00  0.00    +0.121 C 
BRANCH   4   5
ATOM      5  C   UNL     1      33.466  -9.162 -23.862  0.00  0.00    +0.121 C 
BRANCH   5   7
ATOM      6  O   UNL     1      35.097  -7.475 -23.210  0.00  0.00    -0.250 OA
ATOM      7  C   UNL     1      33.981  -7.964 -23.094  0.00  0.00    +0.317 C 
BRANCH   7   8
ATOM      8  O   UNL     1      33.000  -7.526 -22.249  0.00  0.00    -0.451 OA
BRANCH   8   9
ATOM      9  C   UNL     1      31.998  -8.491 -21.916  0.00  0.00    +0.186 C 
BRANCH   9  10
ATOM     10  C   UNL     1      32.198  -8.925 -20.472  0.00  0.00    -0.029 C 
BRANCH  10  11
ATOM     11  N   UNL     1      31.885 -10.336 -20.311  0.00  0.00    +0.387 N 
ATOM     12  C   UNL     1      31.181 -10.849 -21.488  0.00  0.00    -0.101 C 
ATOM     13  C   UNL     1      31.081 -10.555 -19.106  0.00  0.00    -0.101 C 
ATOM     14  H   UNL     1      32.765 -10.844 -20.212  0.00  0.00    -0.080 HD
ENDBRANCH  10  11
ENDBRANCH   9  10
ENDBRANCH   8   9
ENDBRANCH   7   8
ENDBRANCH   5   7
ENDBRANCH   4   5
ENDBRANCH   3   4
ENDBRANCH   1   3
BRANCH   1  15
ATOM     15  C   UNL     1      32.977 -13.174 -23.840  0.00  0.00    +0.236 C 
BRANCH  15  17
ATOM     16  N   UNL     1      34.956 -16.113 -22.545  0.00  0.00    -0.245 NA
ATOM     17  C   UNL     1      33.643 -14.519 -23.802  0.00  0.00    +0.042 C 
ATOM     18  C   UNL     1      33.598 -15.395 -24.881  0.00  0.00    +0.043 C 
ATOM     19  C   UNL     1      34.232 -16.630 -24.793  0.00  0.00    +0.145 C 
ATOM     20  C   UNL     1      34.892 -16.938 -23.615  0.00  0.00    +0.093 C 
ATOM     21  C   UNL     1      34.329 -14.922 -22.667  0.00  0.00    +0.098 C 
ATOM     22  C   UNL     1      35.588 -18.251 -23.468  0.00  0.00    +0.055 C 
BRANCH  19  23
ATOM     23  O   UNL     1      34.203 -17.506 -25.832  0.00  0.00    -0.505 OA
ATOM     24  H   UNL     1      34.990 -17.705 -26.299  0.00  0.00    +0.292 HD
ENDBRANCH  19  23
BRANCH  18  25
ATOM     25  C   UNL     1      32.873 -15.015 -26.131  0.00  0.00    +0.167 C 
BRANCH  25  26
ATOM     26  O   UNL     1      33.817 -14.651 -27.130  0.00  0.00    -0.377 OA
ATOM     27  H   UNL     1      34.098 -13.734 -26.990  0.00  0.00    +0.211 HD
ENDBRANCH  25  26
ENDBRANCH  18  25
ENDBRANCH  15  17
ENDBRANCH   1  15
TORSDOF 13
ENDMDL
