MODEL 1
REMARK VINA RESULT:      -9.4      0.000      0.000
REMARK  Name = 4369101
REMARK  5 active torsions:
REMARK  status: ('A' for Active; 'I' for Inactive)
REMARK    1  A    between atoms: N_5  and  C_12
REMARK    2  A    between atoms: C_6  and  N_20
REMARK    3  A    between atoms: C_11  and  S_24
REMARK    4  A    between atoms: C_15  and  O_18
REMARK    5  A    between atoms: S_24  and  N_27
REMARK                            x       y       z     vdW  Elec       q    Type
REMARK                         _______ _______ _______ _____ _____    ______ ____
ROOT
ATOM      1  S   UNL     1      33.790 -16.478 -21.184  0.00  0.00    +0.082 S 
ATOM      2  S   UNL     1      33.414 -13.701 -22.193  0.00  0.00    -0.048 S 
ATOM      3  O   UNL     1      34.820 -16.104 -20.235  0.00  0.00    -0.149 OA
ATOM      4  O   UNL     1      32.388 -16.526 -20.824  0.00  0.00    -0.149 OA
ATOM      5  N   UNL     1      34.245 -17.931 -22.020  0.00  0.00    -0.192 N 
ATOM      6  C   UNL     1      34.964 -16.844 -24.178  0.00  0.00    -0.015 C 
ATOM      7  C   UNL     1      35.379 -17.764 -23.001  0.00  0.00    +0.099 C 
ATOM      8  C   UNL     1      34.452 -15.499 -23.728  0.00  0.00    -0.013 C 
ATOM      9  C   UNL     1      33.923 -15.288 -22.473  0.00  0.00    +0.150 C 
ATOM     10  C   UNL     1      34.430 -14.286 -24.485  0.00  0.00    +0.022 C 
ATOM     11  C   UNL     1      33.890 -13.235 -23.774  0.00  0.00    +0.152 C 
ENDROOT
BRANCH   5  12
ATOM     12  C   UNL     1      34.280 -19.104 -21.175  0.00  0.00    +0.072 C 
ATOM     13  C   UNL     1      35.503 -19.600 -20.734  0.00  0.00    +0.053 C 
ATOM     14  C   UNL     1      33.091 -19.727 -20.808  0.00  0.00    +0.016 C 
ATOM     15  C   UNL     1      35.537 -20.732 -19.918  0.00  0.00    +0.140 C 
ATOM     16  C   UNL     1      33.126 -20.858 -19.993  0.00  0.00    +0.004 C 
ATOM     17  C   UNL     1      34.348 -21.361 -19.548  0.00  0.00    +0.037 C 
BRANCH  15  18
ATOM     18  O   UNL     1      36.731 -21.221 -19.484  0.00  0.00    -0.471 OA
ATOM     19  C   UNL     1      36.798 -21.659 -18.128  0.00  0.00    +0.252 C 
ENDBRANCH  15  18
ENDBRANCH   5  12
BRANCH   6  20
ATOM     20  N   UNL     1      33.916 -17.487 -24.974  0.00  0.00    +0.387 N 
ATOM     21  C   UNL     1      34.223 -18.892 -25.187  0.00  0.00    -0.105 C 
ATOM     22  H   UNL     1      33.847 -17.018 -25.877  0.00  0.00    -0.084 HD
ATOM     23  H   UNL     1      33.031 -17.418 -24.471  0.00  0.00    -0.084 HD
ENDBRANCH   6  20
BRANCH  11  24
ATOM     24  S   UNL     1      33.601 -11.544 -24.160  0.00  0.00    +0.063 S 
ATOM     25  O   UNL     1      33.273 -11.507 -25.581  0.00  0.00    -0.153 OA
ATOM     26  O   UNL     1      32.639 -11.087 -23.165  0.00  0.00    -0.153 OA
BRANCH  24  27
ATOM     27  N   UNL     1      35.065 -10.672 -23.938  0.00  0.00    -0.203 NA
ATOM     28  H   UNL     1      35.439 -10.400 -24.847  0.00  0.00    +0.144 HD
ATOM     29  H   UNL     1      35.742 -11.262 -23.455  0.00  0.00    +0.144 HD
ENDBRANCH  24  27
ENDBRANCH  11  24
TORSDOF 5
ENDMDL
MODEL 2
REMARK VINA RESULT:      -9.4      1.129      1.616
REMARK  Name = 4369101
REMARK  5 active torsions:
REMARK  status: ('A' for Active; 'I' for Inactive)
REMARK    1  A    between atoms: N_5  and  C_12
REMARK    2  A    between atoms: C_6  and  N_20
REMARK    3  A    between atoms: C_11  and  S_24
REMARK    4  A    between atoms: C_15  and  O_18
REMARK    5  A    between atoms: S_24  and  N_27
REMARK                            x       y       z     vdW  Elec       q    Type
REMARK                         _______ _______ _______ _____ _____    ______ ____
ROOT
ATOM      1  S   UNL     1      34.166 -16.918 -21.118  0.00  0.00    +0.082 S 
ATOM      2  S   UNL     1      33.513 -14.237 -22.237  0.00  0.00    -0.048 S 
ATOM      3  O   UNL     1      35.216 -16.416 -20.253  0.00  0.00    -0.149 OA
ATOM      4  O   UNL     1      32.795 -17.054 -20.671  0.00  0.00    -0.149 OA
ATOM      5  N   UNL     1      34.687 -18.375 -21.908  0.00  0.00    -0.192 N 
ATOM      6  C   UNL     1      35.192 -17.354 -24.156  0.00  0.00    -0.015 C 
ATOM      7  C   UNL     1      35.746 -18.174 -22.963  0.00  0.00    +0.099 C 
ATOM      8  C   UNL     1      34.601 -16.030 -23.743  0.00  0.00    -0.013 C 
ATOM      9  C   UNL     1      34.130 -15.792 -22.470  0.00  0.00    +0.150 C 
ATOM     10  C   UNL     1      34.439 -14.865 -24.556  0.00  0.00    +0.022 C 
ATOM     11  C   UNL     1      33.859 -13.821 -23.866  0.00  0.00    +0.152 C 
ENDROOT
BRANCH   5  12
ATOM     12  C   UNL     1      34.863 -19.495 -21.010  0.00  0.00    +0.072 C 
ATOM     13  C   UNL     1      33.749 -20.181 -20.535  0.00  0.00    +0.053 C 
ATOM     14  C   UNL     1      36.145 -19.879 -20.626  0.00  0.00    +0.016 C 
ATOM     15  C   UNL     1      33.919 -21.261 -19.668  0.00  0.00    +0.140 C 
ATOM     16  C   UNL     1      36.314 -20.958 -19.760  0.00  0.00    +0.004 C 
ATOM     17  C   UNL     1      35.202 -21.649 -19.280  0.00  0.00    +0.037 C 
BRANCH  15  18
ATOM     18  O   UNL     1      32.833 -21.935 -19.200  0.00  0.00    -0.471 OA
ATOM     19  C   UNL     1      33.013 -22.716 -18.020  0.00  0.00    +0.252 C 
ENDBRANCH  15  18
ENDBRANCH   5  12
BRANCH   6  20
ATOM     20  N   UNL     1      34.155 -18.118 -24.855  0.00  0.00    +0.387 N 
ATOM     21  C   UNL     1      34.572 -19.497 -25.041  0.00  0.00    -0.105 C 
ATOM     22  H   UNL     1      33.984 -17.693 -25.766  0.00  0.00    -0.084 HD
ATOM     23  H   UNL     1      33.304 -18.105 -24.293  0.00  0.00    -0.084 HD
ENDBRANCH   6  20
BRANCH  11  24
ATOM     24  S   UNL     1      33.415 -12.181 -24.316  0.00  0.00    +0.063 S 
ATOM     25  O   UNL     1      33.148 -12.217 -25.750  0.00  0.00    -0.153 OA
ATOM     26  O   UNL     1      32.368 -11.801 -23.376  0.00  0.00    -0.153 OA
BRANCH  24  27
ATOM     27  N   UNL     1      34.769 -11.155 -24.061  0.00  0.00    -0.203 NA
ATOM     28  H   UNL     1      35.567 -11.715 -23.760  0.00  0.00    +0.144 HD
ATOM     29  H   UNL     1      34.546 -10.468 -23.341  0.00  0.00    +0.144 HD
ENDBRANCH  24  27
ENDBRANCH  11  24
TORSDOF 5
ENDMDL
MODEL 3
REMARK VINA RESULT:      -9.4      1.926      2.389
REMARK  Name = 4369101
REMARK  5 active torsions:
REMARK  status: ('A' for Active; 'I' for Inactive)
REMARK    1  A    between atoms: N_5  and  C_12
REMARK    2  A    between atoms: C_6  and  N_20
REMARK    3  A    between atoms: C_11  and  S_24
REMARK    4  A    between atoms: C_15  and  O_18
REMARK    5  A    between atoms: S_24  and  N_27
REMARK                            x       y       z     vdW  Elec       q    Type
REMARK                         _______ _______ _______ _____ _____    ______ ____
ROOT
ATOM      1  S   UNL     1      33.503 -15.659 -20.878  0.00  0.00    +0.082 S 
ATOM      2  S   UNL     1      32.390 -12.914 -21.187  0.00  0.00    -0.048 S 
ATOM      3  O   UNL     1      34.522 -15.251 -19.930  0.00  0.00    -0.149 OA
ATOM      4  O   UNL     1      32.199 -16.130 -20.457  0.00  0.00    -0.149 OA
ATOM      5  N   UNL     1      34.180 -16.742 -22.056  0.00  0.00    -0.192 N 
ATOM      6  C   UNL     1      34.381 -15.077 -23.939  0.00  0.00    -0.015 C 
ATOM      7  C   UNL     1      35.126 -16.094 -23.036  0.00  0.00    +0.099 C 
ATOM      8  C   UNL     1      33.629 -14.030 -23.158  0.00  0.00    -0.013 C 
ATOM      9  C   UNL     1      33.212 -14.227 -21.859  0.00  0.00    +0.150 C 
ATOM     10  C   UNL     1      33.244 -12.727 -23.608  0.00  0.00    +0.022 C 
ATOM     11  C   UNL     1      32.563 -12.019 -22.640  0.00  0.00    +0.152 C 
ENDROOT
BRANCH   5  12
ATOM     12  C   UNL     1      34.578 -18.021 -21.512  0.00  0.00    +0.072 C 
ATOM     13  C   UNL     1      33.606 -18.934 -21.112  0.00  0.00    +0.053 C 
ATOM     14  C   UNL     1      35.929 -18.331 -21.391  0.00  0.00    +0.016 C 
ATOM     15  C   UNL     1      33.990 -20.168 -20.587  0.00  0.00    +0.140 C 
ATOM     16  C   UNL     1      36.312 -19.564 -20.865  0.00  0.00    +0.004 C 
ATOM     17  C   UNL     1      35.343 -20.483 -20.463  0.00  0.00    +0.037 C 
BRANCH  15  18
ATOM     18  O   UNL     1      33.043 -21.064 -20.195  0.00  0.00    -0.471 OA
ATOM     19  C   UNL     1      33.399 -21.967 -19.149  0.00  0.00    +0.252 C 
ENDBRANCH  15  18
ENDBRANCH   5  12
BRANCH   6  20
ATOM     20  N   UNL     1      33.423 -15.777 -24.800  0.00  0.00    +0.387 N 
ATOM     21  C   UNL     1      33.381 -15.168 -26.119  0.00  0.00    -0.105 C 
ATOM     22  H   UNL     1      32.496 -15.728 -24.378  0.00  0.00    -0.084 HD
ATOM     23  H   UNL     1      33.718 -16.748 -24.897  0.00  0.00    -0.084 HD
ENDBRANCH   6  20
BRANCH  11  24
ATOM     24  S   UNL     1      31.853 -10.411 -22.603  0.00  0.00    +0.063 S 
ATOM     25  O   UNL     1      32.449  -9.684 -23.719  0.00  0.00    -0.153 OA
ATOM     26  O   UNL     1      30.414 -10.634 -22.547  0.00  0.00    -0.153 OA
BRANCH  24  27
ATOM     27  N   UNL     1      32.338  -9.631 -21.151  0.00  0.00    -0.203 NA
ATOM     28  H   UNL     1      33.344  -9.462 -21.175  0.00  0.00    +0.144 HD
ATOM     29  H   UNL     1      32.112 -10.225 -20.353  0.00  0.00    +0.144 HD
ENDBRANCH  24  27
ENDBRANCH  11  24
TORSDOF 5
ENDMDL
MODEL 4
REMARK VINA RESULT:      -8.7      8.995     10.972
REMARK  Name = 4369101
REMARK  5 active torsions:
REMARK  status: ('A' for Active; 'I' for Inactive)
REMARK    1  A    between atoms: N_5  and  C_12
REMARK    2  A    between atoms: C_6  and  N_20
REMARK    3  A    between atoms: C_11  and  S_24
REMARK    4  A    between atoms: C_15  and  O_18
REMARK    5  A    between atoms: S_24  and  N_27
REMARK                            x       y       z     vdW  Elec       q    Type
REMARK                         _______ _______ _______ _____ _____    ______ ____
ROOT
ATOM      1  S   UNL     1      32.560 -24.363 -13.962  0.00  0.00    +0.082 S 
ATOM      2  S   UNL     1      29.810 -23.878 -14.997  0.00  0.00    -0.048 S 
ATOM      3  O   UNL     1      32.405 -23.465 -12.834  0.00  0.00    -0.149 OA
ATOM      4  O   UNL     1      32.266 -25.778 -13.871  0.00  0.00    -0.149 OA
ATOM      5  N   UNL     1      34.108 -24.120 -14.713  0.00  0.00    -0.192 N 
ATOM      6  C   UNL     1      33.296 -22.780 -16.688  0.00  0.00    -0.015 C 
ATOM      7  C   UNL     1      34.246 -22.818 -15.463  0.00  0.00    +0.099 C 
ATOM      8  C   UNL     1      31.854 -23.033 -16.329  0.00  0.00    -0.013 C 
ATOM      9  C   UNL     1      31.480 -23.718 -15.192  0.00  0.00    +0.150 C 
ATOM     10  C   UNL     1      30.696 -22.627 -17.065  0.00  0.00    +0.022 C 
ATOM     11  C   UNL     1      29.524 -23.024 -16.457  0.00  0.00    +0.152 C 
ENDROOT
BRANCH   5  12
ATOM     12  C   UNL     1      35.226 -24.519 -13.887  0.00  0.00    +0.072 C 
ATOM     13  C   UNL     1      36.222 -25.332 -14.420  0.00  0.00    +0.053 C 
ATOM     14  C   UNL     1      35.298 -24.089 -12.565  0.00  0.00    +0.016 C 
ATOM     15  C   UNL     1      37.301 -25.717 -13.624  0.00  0.00    +0.140 C 
ATOM     16  C   UNL     1      36.376 -24.475 -11.770  0.00  0.00    +0.004 C 
ATOM     17  C   UNL     1      37.378 -25.289 -12.298  0.00  0.00    +0.037 C 
BRANCH  15  18
ATOM     18  O   UNL     1      38.278 -26.512 -14.141  0.00  0.00    -0.471 OA
ATOM     19  C   UNL     1      39.482 -25.871 -14.558  0.00  0.00    +0.252 C 
ENDBRANCH  15  18
ENDBRANCH   5  12
BRANCH   6  20
ATOM     20  N   UNL     1      33.703 -23.787 -17.672  0.00  0.00    +0.387 N 
ATOM     21  C   UNL     1      33.950 -23.169 -18.964  0.00  0.00    -0.105 C 
ATOM     22  H   UNL     1      32.961 -24.479 -17.768  0.00  0.00    -0.084 HD
ATOM     23  H   UNL     1      34.563 -24.231 -17.351  0.00  0.00    -0.084 HD
ENDBRANCH   6  20
BRANCH  11  24
ATOM     24  S   UNL     1      27.827 -22.828 -16.873  0.00  0.00    +0.063 S 
ATOM     25  O   UNL     1      27.725 -21.536 -17.543  0.00  0.00    -0.153 OA
ATOM     26  O   UNL     1      27.464 -24.055 -17.571  0.00  0.00    -0.153 OA
BRANCH  24  27
ATOM     27  N   UNL     1      26.912 -22.740 -15.422  0.00  0.00    -0.203 NA
ATOM     28  H   UNL     1      27.504 -22.393 -14.667  0.00  0.00    +0.144 HD
ATOM     29  H   UNL     1      26.565 -23.669 -15.181  0.00  0.00    +0.144 HD
ENDBRANCH  24  27
ENDBRANCH  11  24
TORSDOF 5
ENDMDL
MODEL 5
REMARK VINA RESULT:      -8.5      9.094     12.033
REMARK  Name = 4369101
REMARK  5 active torsions:
REMARK  status: ('A' for Active; 'I' for Inactive)
REMARK    1  A    between atoms: N_5  and  C_12
REMARK    2  A    between atoms: C_6  and  N_20
REMARK    3  A    between atoms: C_11  and  S_24
REMARK    4  A    between atoms: C_15  and  O_18
REMARK    5  A    between atoms: S_24  and  N_27
REMARK                            x       y       z     vdW  Elec       q    Type
REMARK                         _______ _______ _______ _____ _____    ______ ____
ROOT
ATOM      1  S   UNL     1      32.562 -24.005 -13.751  0.00  0.00    +0.082 S 
ATOM      2  S   UNL     1      35.245 -24.057 -12.459  0.00  0.00    -0.048 S 
ATOM      3  O   UNL     1      32.231 -25.360 -13.356  0.00  0.00    -0.149 OA
ATOM      4  O   UNL     1      32.207 -22.855 -12.945  0.00  0.00    -0.149 OA
ATOM      5  N   UNL     1      32.112 -23.737 -15.408  0.00  0.00    -0.192 N 
ATOM      6  C   UNL     1      34.422 -23.927 -16.399  0.00  0.00    -0.015 C 
ATOM      7  C   UNL     1      32.967 -24.463 -16.417  0.00  0.00    +0.099 C 
ATOM      8  C   UNL     1      35.057 -23.979 -15.033  0.00  0.00    -0.013 C 
ATOM      9  C   UNL     1      34.317 -23.995 -13.870  0.00  0.00    +0.150 C 
ATOM     10  C   UNL     1      36.455 -24.021 -14.731  0.00  0.00    +0.022 C 
ATOM     11  C   UNL     1      36.696 -24.061 -13.374  0.00  0.00    +0.152 C 
ENDROOT
BRANCH   5  12
ATOM     12  C   UNL     1      30.683 -23.750 -15.633  0.00  0.00    +0.072 C 
ATOM     13  C   UNL     1      30.087 -22.707 -16.337  0.00  0.00    +0.053 C 
ATOM     14  C   UNL     1      29.915 -24.803 -15.146  0.00  0.00    +0.016 C 
ATOM     15  C   UNL     1      28.708 -22.718 -16.554  0.00  0.00    +0.140 C 
ATOM     16  C   UNL     1      28.538 -24.813 -15.363  0.00  0.00    +0.004 C 
ATOM     17  C   UNL     1      27.934 -23.772 -16.067  0.00  0.00    +0.037 C 
BRANCH  15  18
ATOM     18  O   UNL     1      28.120 -21.701 -17.241  0.00  0.00    -0.471 OA
ATOM     19  C   UNL     1      26.696 -21.712 -17.323  0.00  0.00    +0.252 C 
ENDBRANCH  15  18
ENDBRANCH   5  12
BRANCH   6  20
ATOM     20  N   UNL     1      34.452 -22.536 -16.862  0.00  0.00    +0.387 N 
ATOM     21  C   UNL     1      34.229 -22.469 -18.296  0.00  0.00    -0.105 C 
ATOM     22  H   UNL     1      35.362 -22.131 -16.644  0.00  0.00    -0.084 HD
ATOM     23  H   UNL     1      33.712 -22.017 -16.390  0.00  0.00    -0.084 HD
ENDBRANCH   6  20
BRANCH  11  24
ATOM     24  S   UNL     1      38.169 -24.118 -12.415  0.00  0.00    +0.063 S 
ATOM     25  O   UNL     1      37.883 -25.007 -11.294  0.00  0.00    -0.153 OA
ATOM     26  O   UNL     1      39.226 -24.439 -13.365  0.00  0.00    -0.153 OA
BRANCH  24  27
ATOM     27  N   UNL     1      38.470 -22.552 -11.777  0.00  0.00    -0.203 NA
ATOM     28  H   UNL     1      39.192 -22.610 -11.059  0.00  0.00    +0.144 HD
ATOM     29  H   UNL     1      37.613 -22.181 -11.367  0.00  0.00    +0.144 HD
ENDBRANCH  24  27
ENDBRANCH  11  24
TORSDOF 5
ENDMDL
MODEL 6
REMARK VINA RESULT:      -7.9      2.314      3.156
REMARK  Name = 4369101
REMARK  5 active torsions:
REMARK  status: ('A' for Active; 'I' for Inactive)
REMARK    1  A    between atoms: N_5  and  C_12
REMARK    2  A    between atoms: C_6  and  N_20
REMARK    3  A    between atoms: C_11  and  S_24
REMARK    4  A    between atoms: C_15  and  O_18
REMARK    5  A    between atoms: S_24  and  N_27
REMARK                            x       y       z     vdW  Elec       q    Type
REMARK                         _______ _______ _______ _____ _____    ______ ____
ROOT
ATOM      1  S   UNL     1      33.431 -15.379 -21.107  0.00  0.00    +0.082 S 
ATOM      2  S   UNL     1      32.253 -12.749 -20.355  0.00  0.00    -0.048 S 
ATOM      3  O   UNL     1      34.597 -15.215 -20.262  0.00  0.00    -0.149 OA
ATOM      4  O   UNL     1      32.227 -16.039 -20.645  0.00  0.00    -0.149 OA
ATOM      5  N   UNL     1      33.899 -16.003 -22.660  0.00  0.00    -0.192 N 
ATOM      6  C   UNL     1      33.747 -13.834 -23.934  0.00  0.00    -0.015 C 
ATOM      7  C   UNL     1      34.651 -15.027 -23.530  0.00  0.00    +0.099 C 
ATOM      8  C   UNL     1      33.135 -13.126 -22.753  0.00  0.00    -0.013 C 
ATOM      9  C   UNL     1      32.957 -13.738 -21.530  0.00  0.00    +0.150 C 
ATOM     10  C   UNL     1      32.663 -11.776 -22.703  0.00  0.00    +0.022 C 
ATOM     11  C   UNL     1      32.157 -11.443 -21.464  0.00  0.00    +0.152 C 
ENDROOT
BRANCH   5  12
ATOM     12  C   UNL     1      34.401 -17.359 -22.615  0.00  0.00    +0.072 C 
ATOM     13  C   UNL     1      34.712 -17.940 -21.389  0.00  0.00    +0.053 C 
ATOM     14  C   UNL     1      34.568 -18.074 -23.798  0.00  0.00    +0.016 C 
ATOM     15  C   UNL     1      35.196 -19.248 -21.346  0.00  0.00    +0.140 C 
ATOM     16  C   UNL     1      35.052 -19.380 -23.754  0.00  0.00    +0.004 C 
ATOM     17  C   UNL     1      35.366 -19.968 -22.529  0.00  0.00    +0.037 C 
BRANCH  15  18
ATOM     18  O   UNL     1      35.502 -19.820 -20.150  0.00  0.00    -0.471 OA
ATOM     19  C   UNL     1      35.923 -21.184 -20.172  0.00  0.00    +0.252 C 
ENDBRANCH  15  18
ENDBRANCH   5  12
BRANCH   6  20
ATOM     20  N   UNL     1      32.659 -14.297 -24.800  0.00  0.00    +0.387 N 
ATOM     21  C   UNL     1      33.187 -14.824 -26.048  0.00  0.00    -0.105 C 
ATOM     22  H   UNL     1      32.037 -13.515 -25.003  0.00  0.00    -0.084 HD
ATOM     23  H   UNL     1      32.150 -15.039 -24.321  0.00  0.00    -0.084 HD
ENDBRANCH   6  20
BRANCH  11  24
ATOM     24  S   UNL     1      31.449  -9.973 -20.810  0.00  0.00    +0.063 S 
ATOM     25  O   UNL     1      31.232  -9.090 -21.951  0.00  0.00    -0.153 OA
ATOM     26  O   UNL     1      30.325 -10.423 -19.997  0.00  0.00    -0.153 OA
BRANCH  24  27
ATOM     27  N   UNL     1      32.598  -9.223 -19.777  0.00  0.00    -0.203 NA
ATOM     28  H   UNL     1      33.182  -8.589 -20.323  0.00  0.00    +0.144 HD
ATOM     29  H   UNL     1      33.184  -9.936 -19.344  0.00  0.00    +0.144 HD
ENDBRANCH  24  27
ENDBRANCH  11  24
TORSDOF 5
ENDMDL
MODEL 7
REMARK VINA RESULT:      -7.6      4.801     10.215
REMARK  Name = 4369101
REMARK  5 active torsions:
REMARK  status: ('A' for Active; 'I' for Inactive)
REMARK    1  A    between atoms: N_5  and  C_12
REMARK    2  A    between atoms: C_6  and  N_20
REMARK    3  A    between atoms: C_11  and  S_24
REMARK    4  A    between atoms: C_15  and  O_18
REMARK    5  A    between atoms: S_24  and  N_27
REMARK                            x       y       z     vdW  Elec       q    Type
REMARK                         _______ _______ _______ _____ _____    ______ ____
ROOT
ATOM      1  S   UNL     1      31.811 -10.209 -21.548  0.00  0.00    +0.082 S 
ATOM      2  S   UNL     1      32.425 -13.082 -21.058  0.00  0.00    -0.048 S 
ATOM      3  O   UNL     1      30.390 -10.435 -21.723  0.00  0.00    -0.149 OA
ATOM      4  O   UNL     1      32.389  -9.877 -20.262  0.00  0.00    -0.149 OA
ATOM      5  N   UNL     1      32.400  -9.122 -22.769  0.00  0.00    -0.192 N 
ATOM      6  C   UNL     1      33.491 -10.854 -24.239  0.00  0.00    -0.015 C 
ATOM      7  C   UNL     1      32.453  -9.705 -24.158  0.00  0.00    +0.099 C 
ATOM      8  C   UNL     1      33.256 -11.939 -23.219  0.00  0.00    -0.013 C 
ATOM      9  C   UNL     1      32.565 -11.719 -22.046  0.00  0.00    +0.150 C 
ATOM     10  C   UNL     1      33.684 -13.302 -23.293  0.00  0.00    +0.022 C 
ATOM     11  C   UNL     1      33.303 -14.031 -22.185  0.00  0.00    +0.152 C 
ENDROOT
BRANCH   5  12
ATOM     12  C   UNL     1      31.888  -7.774 -22.645  0.00  0.00    +0.072 C 
ATOM     13  C   UNL     1      31.449  -7.096 -23.778  0.00  0.00    +0.053 C 
ATOM     14  C   UNL     1      31.838  -7.166 -21.394  0.00  0.00    +0.016 C 
ATOM     15  C   UNL     1      30.956  -5.796 -23.659  0.00  0.00    +0.140 C 
ATOM     16  C   UNL     1      31.346  -5.867 -21.276  0.00  0.00    +0.004 C 
ATOM     17  C   UNL     1      30.904  -5.182 -22.408  0.00  0.00    +0.037 C 
BRANCH  15  18
ATOM     18  O   UNL     1      30.525  -5.129 -24.764  0.00  0.00    -0.471 OA
ATOM     19  C   UNL     1      31.187  -3.905 -25.081  0.00  0.00    +0.252 C 
ENDBRANCH  15  18
ENDBRANCH   5  12
BRANCH   6  20
ATOM     20  N   UNL     1      34.843 -10.326 -24.038  0.00  0.00    +0.387 N 
ATOM     21  C   UNL     1      35.476 -10.040 -25.315  0.00  0.00    -0.105 C 
ATOM     22  H   UNL     1      35.400 -11.017 -23.535  0.00  0.00    -0.084 HD
ATOM     23  H   UNL     1      34.782  -9.462 -23.501  0.00  0.00    -0.084 HD
ENDBRANCH   6  20
BRANCH  11  24
ATOM     24  S   UNL     1      33.534 -15.708 -21.712  0.00  0.00    +0.063 S 
ATOM     25  O   UNL     1      32.302 -16.109 -21.042  0.00  0.00    -0.153 OA
ATOM     26  O   UNL     1      33.973 -16.387 -22.925  0.00  0.00    -0.153 OA
BRANCH  24  27
ATOM     27  N   UNL     1      34.805 -15.784 -20.559  0.00  0.00    -0.203 NA
ATOM     28  H   UNL     1      35.045 -14.840 -20.255  0.00  0.00    +0.144 HD
ATOM     29  H   UNL     1      35.624 -16.222 -20.982  0.00  0.00    +0.144 HD
ENDBRANCH  24  27
ENDBRANCH  11  24
TORSDOF 5
ENDMDL
MODEL 8
REMARK VINA RESULT:      -7.4      6.787     10.204
REMARK  Name = 4369101
REMARK  5 active torsions:
REMARK  status: ('A' for Active; 'I' for Inactive)
REMARK    1  A    between atoms: N_5  and  C_12
REMARK    2  A    between atoms: C_6  and  N_20
REMARK    3  A    between atoms: C_11  and  S_24
REMARK    4  A    between atoms: C_15  and  O_18
REMARK    5  A    between atoms: S_24  and  N_27
REMARK                            x       y       z     vdW  Elec       q    Type
REMARK                         _______ _______ _______ _____ _____    ______ ____
ROOT
ATOM      1  S   UNL     1      33.573  -8.032 -23.495  0.00  0.00    +0.082 S 
ATOM      2  S   UNL     1      34.611  -6.258 -25.651  0.00  0.00    -0.048 S 
ATOM      3  O   UNL     1      33.372  -9.163 -24.380  0.00  0.00    -0.149 OA
ATOM      4  O   UNL     1      34.804  -7.837 -22.756  0.00  0.00    -0.149 OA
ATOM      5  N   UNL     1      32.205  -7.846 -22.441  0.00  0.00    -0.192 N 
ATOM      6  C   UNL     1      31.133  -5.912 -23.651  0.00  0.00    -0.015 C 
ATOM      7  C   UNL     1      30.950  -7.357 -23.119  0.00  0.00    +0.099 C 
ATOM      8  C   UNL     1      32.321  -5.762 -24.566  0.00  0.00    -0.013 C 
ATOM      9  C   UNL     1      33.398  -6.621 -24.532  0.00  0.00    +0.150 C 
ATOM     10  C   UNL     1      32.519  -4.759 -25.567  0.00  0.00    +0.022 C 
ATOM     11  C   UNL     1      33.721  -4.909 -26.227  0.00  0.00    +0.152 C 
ENDROOT
BRANCH   5  12
ATOM     12  C   UNL     1      32.055  -8.921 -21.485  0.00  0.00    +0.072 C 
ATOM     13  C   UNL     1      31.836 -10.219 -21.936  0.00  0.00    +0.053 C 
ATOM     14  C   UNL     1      32.130  -8.650 -20.122  0.00  0.00    +0.016 C 
ATOM     15  C   UNL     1      31.691 -11.257 -21.014  0.00  0.00    +0.140 C 
ATOM     16  C   UNL     1      31.984  -9.687 -19.201  0.00  0.00    +0.004 C 
ATOM     17  C   UNL     1      31.765 -10.990 -19.647  0.00  0.00    +0.037 C 
BRANCH  15  18
ATOM     18  O   UNL     1      31.477 -12.528 -21.450  0.00  0.00    -0.471 OA
ATOM     19  C   UNL     1      32.239 -12.965 -22.575  0.00  0.00    +0.252 C 
ENDBRANCH  15  18
ENDBRANCH   5  12
BRANCH   6  20
ATOM     20  N   UNL     1      31.300  -4.981 -22.531  0.00  0.00    +0.387 N 
ATOM     21  C   UNL     1      30.206  -5.117 -21.584  0.00  0.00    -0.105 C 
ATOM     22  H   UNL     1      31.317  -4.027 -22.890  0.00  0.00    -0.084 HD
ATOM     23  H   UNL     1      32.175  -5.196 -22.054  0.00  0.00    -0.084 HD
ENDBRANCH   6  20
BRANCH  11  24
ATOM     24  S   UNL     1      34.504  -4.010 -27.519  0.00  0.00    +0.063 S 
ATOM     25  O   UNL     1      34.320  -2.599 -27.194  0.00  0.00    -0.153 OA
ATOM     26  O   UNL     1      35.842  -4.579 -27.619  0.00  0.00    -0.153 OA
BRANCH  24  27
ATOM     27  N   UNL     1      33.672  -4.322 -28.988  0.00  0.00    -0.203 NA
ATOM     28  H   UNL     1      34.294  -4.143 -29.776  0.00  0.00    +0.144 HD
ATOM     29  H   UNL     1      32.857  -3.711 -29.055  0.00  0.00    +0.144 HD
ENDBRANCH  24  27
ENDBRANCH  11  24
TORSDOF 5
ENDMDL
MODEL 9
REMARK VINA RESULT:      -7.3      3.720      6.457
REMARK  Name = 4369101
REMARK  5 active torsions:
REMARK  status: ('A' for Active; 'I' for Inactive)
REMARK    1  A    between atoms: N_5  and  C_12
REMARK    2  A    between atoms: C_6  and  N_20
REMARK    3  A    between atoms: C_11  and  S_24
REMARK    4  A    between atoms: C_15  and  O_18
REMARK    5  A    between atoms: S_24  and  N_27
REMARK                            x       y       z     vdW  Elec       q    Type
REMARK                         _______ _______ _______ _____ _____    ______ ____
ROOT
ATOM      1  S   UNL     1      33.596 -11.351 -24.064  0.00  0.00    +0.082 S 
ATOM      2  S   UNL     1      33.043  -8.445 -23.719  0.00  0.00    -0.048 S 
ATOM      3  O   UNL     1      32.984 -11.418 -25.377  0.00  0.00    -0.149 OA
ATOM      4  O   UNL     1      35.010 -11.093 -23.882  0.00  0.00    -0.149 OA
ATOM      5  N   UNL     1      33.107 -12.715 -23.105  0.00  0.00    -0.192 N 
ATOM      6  C   UNL     1      31.406 -11.512 -21.687  0.00  0.00    -0.015 C 
ATOM      7  C   UNL     1      31.666 -12.688 -22.663  0.00  0.00    +0.099 C 
ATOM      8  C   UNL     1      31.811 -10.174 -22.249  0.00  0.00    -0.013 C 
ATOM      9  C   UNL     1      32.752 -10.041 -23.247  0.00  0.00    +0.150 C 
ATOM     10  C   UNL     1      31.314  -8.889 -21.863  0.00  0.00    +0.022 C 
ATOM     11  C   UNL     1      31.900  -7.865 -22.578  0.00  0.00    +0.152 C 
ENDROOT
BRANCH   5  12
ATOM     12  C   UNL     1      33.621 -13.979 -23.585  0.00  0.00    +0.072 C 
ATOM     13  C   UNL     1      34.423 -14.758 -22.756  0.00  0.00    +0.053 C 
ATOM     14  C   UNL     1      33.308 -14.408 -24.872  0.00  0.00    +0.016 C 
ATOM     15  C   UNL     1      34.918 -15.977 -23.219  0.00  0.00    +0.140 C 
ATOM     16  C   UNL     1      33.804 -15.627 -25.334  0.00  0.00    +0.004 C 
ATOM     17  C   UNL     1      34.609 -16.412 -24.509  0.00  0.00    +0.037 C 
BRANCH  15  18
ATOM     18  O   UNL     1      35.703 -16.743 -22.413  0.00  0.00    -0.471 OA
ATOM     19  C   UNL     1      35.079 -17.340 -21.277  0.00  0.00    +0.252 C 
ENDBRANCH  15  18
ENDBRANCH   5  12
BRANCH   6  20
ATOM     20  N   UNL     1      32.143 -11.723 -20.437  0.00  0.00    +0.387 N 
ATOM     21  C   UNL     1      31.419 -11.153 -19.313  0.00  0.00    -0.105 C 
ATOM     22  H   UNL     1      33.057 -11.276 -20.509  0.00  0.00    -0.084 HD
ATOM     23  H   UNL     1      32.250 -12.725 -20.284  0.00  0.00    -0.084 HD
ENDBRANCH   6  20
BRANCH  11  24
ATOM     24  S   UNL     1      31.708  -6.118 -22.553  0.00  0.00    +0.063 S 
ATOM     25  O   UNL     1      32.617  -5.600 -23.571  0.00  0.00    -0.153 OA
ATOM     26  O   UNL     1      30.273  -5.893 -22.659  0.00  0.00    -0.153 OA
BRANCH  24  27
ATOM     27  N   UNL     1      32.239  -5.528 -21.029  0.00  0.00    -0.203 NA
ATOM     28  H   UNL     1      31.562  -5.786 -20.311  0.00  0.00    +0.144 HD
ATOM     29  H   UNL     1      32.322  -4.512 -21.067  0.00  0.00    +0.144 HD
ENDBRANCH  24  27
ENDBRANCH  11  24
TORSDOF 5
ENDMDL
