MODEL 1
REMARK VINA RESULT:      -7.9      0.000      0.000
REMARK  Name = 64718
REMARK  14 active torsions:
REMARK  status: ('A' for Active; 'I' for Inactive)
REMARK    1  A    between atoms: C_2  and  C_21
REMARK    2  A    between atoms: C_3  and  O_13
REMARK    3  A    between atoms: O_13  and  C_15
REMARK    4  A    between atoms: C_15  and  C_16
REMARK    5  A    between atoms: C_16  and  C_19
REMARK    6  A    between atoms: C_21  and  C_22
REMARK    7  A    between atoms: C_22  and  C_23
REMARK    8  A    between atoms: C_23  and  O_24
REMARK    9  A    between atoms: C_23  and  C_26
REMARK   10  A    between atoms: C_26  and  C_27
REMARK   11  A    between atoms: C_27  and  O_28
REMARK   12  A    between atoms: C_27  and  C_30
REMARK   13  A    between atoms: C_30  and  C_32
REMARK   14  A    between atoms: C_32  and  O_33
REMARK                            x       y       z     vdW  Elec       q    Type
REMARK                         _______ _______ _______ _____ _____    ______ ____
ROOT
ATOM      1  C   UNL     1      32.898  -9.569 -23.803  0.00  0.00    +0.062 C 
ATOM      2  C   UNL     1      33.777 -10.850 -23.685  0.00  0.00    +0.012 C 
ATOM      3  C   UNL     1      31.961  -9.355 -22.592  0.00  0.00    +0.173 C 
ATOM      4  C   UNL     1      34.686 -11.027 -24.937  0.00  0.00    +0.022 C 
ATOM      5  C   UNL     1      33.765  -8.342 -24.071  0.00  0.00    -0.024 C 
ATOM      6  C   UNL     1      31.266  -7.992 -22.661  0.00  0.00    +0.048 C 
ATOM      7  C   UNL     1      32.246  -6.811 -22.755  0.00  0.00    +0.025 C 
ATOM      8  C   UNL     1      33.457  -7.121 -23.594  0.00  0.00    -0.030 C 
ATOM      9  C   UNL     1      35.374  -9.734 -25.293  0.00  0.00    -0.027 C 
ATOM     10  C   UNL     1      34.955  -8.531 -24.880  0.00  0.00    -0.009 C 
ATOM     11  C   UNL     1      33.963 -11.565 -26.176  0.00  0.00    +0.005 C 
ATOM     12  C   UNL     1      32.683  -6.311 -21.376  0.00  0.00    +0.005 C 
ENDROOT
BRANCH   3  13
ATOM     13  O   UNL     1      32.687  -9.479 -21.373  0.00  0.00    -0.452 OA
BRANCH  13  15
ATOM     14  O   UNL     1      31.667  -8.558 -19.528  0.00  0.00    -0.250 OA
ATOM     15  C   UNL     1      31.936  -9.527 -20.229  0.00  0.00    +0.316 C 
BRANCH  15  16
ATOM     16  C   UNL     1      31.479 -10.962 -19.935  0.00  0.00    +0.090 C 
ATOM     17  C   UNL     1      31.096 -11.050 -18.446  0.00  0.00    +0.011 C 
ATOM     18  C   UNL     1      30.229 -11.286 -20.771  0.00  0.00    +0.011 C 
BRANCH  16  19
ATOM     19  C   UNL     1      32.615 -11.974 -20.229  0.00  0.00    +0.011 C 
ATOM     20  C   UNL     1      32.184 -13.437 -20.245  0.00  0.00    +0.001 C 
ENDBRANCH  16  19
ENDBRANCH  15  16
ENDBRANCH  13  15
ENDBRANCH   3  13
BRANCH   2  21
ATOM     21  C   UNL     1      32.956 -12.112 -23.399  0.00  0.00    +0.003 C 
BRANCH  21  22
ATOM     22  C   UNL     1      33.844 -13.355 -23.416  0.00  0.00    +0.029 C 
BRANCH  22  23
ATOM     23  C   UNL     1      33.144 -14.607 -23.961  0.00  0.00    +0.113 C 
BRANCH  23  24
ATOM     24  O   UNL     1      32.261 -14.205 -25.010  0.00  0.00    -0.384 OA
ATOM     25  H   UNL     1      32.756 -13.699 -25.673  0.00  0.00    +0.210 HD
ENDBRANCH  23  24
BRANCH  23  26
ATOM     26  C   UNL     1      34.078 -15.702 -24.502  0.00  0.00    +0.059 C 
BRANCH  26  27
ATOM     27  C   UNL     1      34.556 -16.723 -23.463  0.00  0.00    +0.124 C 
BRANCH  27  28
ATOM     28  O   UNL     1      35.946 -16.533 -23.210  0.00  0.00    -0.384 OA
ATOM     29  H   UNL     1      36.060 -16.054 -22.374  0.00  0.00    +0.210 HD
ENDBRANCH  27  28
BRANCH  27  30
ATOM     30  C   UNL     1      33.804 -16.540 -22.144  0.00  0.00    +0.139 C 
BRANCH  30  32
ATOM     31  O   UNL     1      34.992 -15.347 -20.410  0.00  0.00    -0.250 OA
ATOM     32  C   UNL     1      34.763 -16.403 -20.986  0.00  0.00    +0.316 C 
BRANCH  32  33
ATOM     33  O   UNL     1      35.333 -17.583 -20.637  0.00  0.00    -0.480 OA
ATOM     34  H   UNL     1      35.660 -18.159 -21.299  0.00  0.00    +0.295 HD
ENDBRANCH  32  33
ENDBRANCH  30  32
ENDBRANCH  27  30
ENDBRANCH  26  27
ENDBRANCH  23  26
ENDBRANCH  22  23
ENDBRANCH  21  22
ENDBRANCH   2  21
TORSDOF 14
ENDMDL
MODEL 2
REMARK VINA RESULT:      -7.9     10.992     14.462
REMARK  Name = 64718
REMARK  14 active torsions:
REMARK  status: ('A' for Active; 'I' for Inactive)
REMARK    1  A    between atoms: C_2  and  C_21
REMARK    2  A    between atoms: C_3  and  O_13
REMARK    3  A    between atoms: O_13  and  C_15
REMARK    4  A    between atoms: C_15  and  C_16
REMARK    5  A    between atoms: C_16  and  C_19
REMARK    6  A    between atoms: C_21  and  C_22
REMARK    7  A    between atoms: C_22  and  C_23
REMARK    8  A    between atoms: C_23  and  O_24
REMARK    9  A    between atoms: C_23  and  C_26
REMARK   10  A    between atoms: C_26  and  C_27
REMARK   11  A    between atoms: C_27  and  O_28
REMARK   12  A    between atoms: C_27  and  C_30
REMARK   13  A    between atoms: C_30  and  C_32
REMARK   14  A    between atoms: C_32  and  O_33
REMARK                            x       y       z     vdW  Elec       q    Type
REMARK                         _______ _______ _______ _____ _____    ______ ____
ROOT
ATOM      1  C   UNL     1      35.350 -22.979 -17.253  0.00  0.00    +0.062 C 
ATOM      2  C   UNL     1      35.707 -22.799 -15.748  0.00  0.00    +0.012 C 
ATOM      3  C   UNL     1      33.873 -23.369 -17.491  0.00  0.00    +0.173 C 
ATOM      4  C   UNL     1      37.207 -22.426 -15.564  0.00  0.00    +0.022 C 
ATOM      5  C   UNL     1      35.744 -21.740 -18.053  0.00  0.00    -0.024 C 
ATOM      6  C   UNL     1      33.525 -23.341 -18.982  0.00  0.00    +0.048 C 
ATOM      7  C   UNL     1      33.801 -21.984 -19.650  0.00  0.00    +0.025 C 
ATOM      8  C   UNL     1      35.039 -21.313 -19.117  0.00  0.00    -0.030 C 
ATOM      9  C   UNL     1      37.613 -21.331 -16.516  0.00  0.00    -0.027 C 
ATOM     10  C   UNL     1      36.932 -21.022 -17.627  0.00  0.00    -0.009 C 
ATOM     11  C   UNL     1      38.178 -23.603 -15.714  0.00  0.00    +0.005 C 
ATOM     12  C   UNL     1      32.607 -21.033 -19.543  0.00  0.00    +0.005 C 
ENDROOT
BRANCH   3  13
ATOM     13  O   UNL     1      33.007 -22.503 -16.765  0.00  0.00    -0.452 OA
BRANCH  13  15
ATOM     14  O   UNL     1      30.909 -23.026 -17.551  0.00  0.00    -0.250 OA
ATOM     15  C   UNL     1      31.711 -22.926 -16.630  0.00  0.00    +0.316 C 
BRANCH  15  16
ATOM     16  C   UNL     1      31.392 -23.252 -15.164  0.00  0.00    +0.090 C 
ATOM     17  C   UNL     1      32.306 -22.394 -14.270  0.00  0.00    +0.011 C 
ATOM     18  C   UNL     1      29.932 -22.875 -14.860  0.00  0.00    +0.011 C 
BRANCH  16  19
ATOM     19  C   UNL     1      31.647 -24.750 -14.864  0.00  0.00    +0.011 C 
ATOM     20  C   UNL     1      31.957 -25.071 -13.406  0.00  0.00    +0.001 C 
ENDBRANCH  16  19
ENDBRANCH  15  16
ENDBRANCH  13  15
ENDBRANCH   3  13
BRANCH   2  21
ATOM     21  C   UNL     1      35.316 -24.011 -14.894  0.00  0.00    +0.003 C 
BRANCH  21  22
ATOM     22  C   UNL     1      35.705 -23.796 -13.432  0.00  0.00    +0.029 C 
BRANCH  22  23
ATOM     23  C   UNL     1      36.457 -24.981 -12.812  0.00  0.00    +0.113 C 
BRANCH  23  24
ATOM     24  O   UNL     1      35.811 -25.327 -11.584  0.00  0.00    -0.384 OA
ATOM     25  H   UNL     1      35.035 -24.761 -11.456  0.00  0.00    +0.210 HD
ENDBRANCH  23  24
BRANCH  23  26
ATOM     26  C   UNL     1      36.544 -26.239 -13.690  0.00  0.00    +0.059 C 
BRANCH  26  27
ATOM     27  C   UNL     1      37.966 -26.688 -14.047  0.00  0.00    +0.124 C 
BRANCH  27  28
ATOM     28  O   UNL     1      38.146 -26.628 -15.460  0.00  0.00    -0.384 OA
ATOM     29  H   UNL     1      37.286 -26.712 -15.899  0.00  0.00    +0.210 HD
ENDBRANCH  27  28
BRANCH  27  30
ATOM     30  C   UNL     1      38.998 -25.767 -13.397  0.00  0.00    +0.139 C 
BRANCH  30  32
ATOM     31  O   UNL     1      40.784 -26.870 -14.595  0.00  0.00    -0.250 OA
ATOM     32  C   UNL     1      40.323 -25.841 -14.118  0.00  0.00    +0.316 C 
BRANCH  32  33
ATOM     33  O   UNL     1      40.943 -24.638 -14.198  0.00  0.00    -0.480 OA
ATOM     34  H   UNL     1      41.789 -24.572 -14.594  0.00  0.00    +0.295 HD
ENDBRANCH  32  33
ENDBRANCH  30  32
ENDBRANCH  27  30
ENDBRANCH  26  27
ENDBRANCH  23  26
ENDBRANCH  22  23
ENDBRANCH  21  22
ENDBRANCH   2  21
TORSDOF 14
ENDMDL
MODEL 3
REMARK VINA RESULT:      -7.7      8.452     13.595
REMARK  Name = 64718
REMARK  14 active torsions:
REMARK  status: ('A' for Active; 'I' for Inactive)
REMARK    1  A    between atoms: C_2  and  C_21
REMARK    2  A    between atoms: C_3  and  O_13
REMARK    3  A    between atoms: O_13  and  C_15
REMARK    4  A    between atoms: C_15  and  C_16
REMARK    5  A    between atoms: C_16  and  C_19
REMARK    6  A    between atoms: C_21  and  C_22
REMARK    7  A    between atoms: C_22  and  C_23
REMARK    8  A    between atoms: C_23  and  O_24
REMARK    9  A    between atoms: C_23  and  C_26
REMARK   10  A    between atoms: C_26  and  C_27
REMARK   11  A    between atoms: C_27  and  O_28
REMARK   12  A    between atoms: C_27  and  C_30
REMARK   13  A    between atoms: C_30  and  C_32
REMARK   14  A    between atoms: C_32  and  O_33
REMARK                            x       y       z     vdW  Elec       q    Type
REMARK                         _______ _______ _______ _____ _____    ______ ____
ROOT
ATOM      1  C   UNL     1      33.694 -23.135 -14.960  0.00  0.00    +0.062 C 
ATOM      2  C   UNL     1      34.330 -23.440 -16.349  0.00  0.00    +0.012 C 
ATOM      3  C   UNL     1      32.222 -22.668 -15.049  0.00  0.00    +0.173 C 
ATOM      4  C   UNL     1      35.814 -23.887 -16.203  0.00  0.00    +0.022 C 
ATOM      5  C   UNL     1      33.852 -24.326 -14.019  0.00  0.00    -0.024 C 
ATOM      6  C   UNL     1      31.585 -22.571 -13.660  0.00  0.00    +0.048 C 
ATOM      7  C   UNL     1      31.649 -23.885 -12.865  0.00  0.00    +0.025 C 
ATOM      8  C   UNL     1      32.929 -24.644 -13.093  0.00  0.00    -0.030 C 
ATOM      9  C   UNL     1      35.963 -24.925 -15.120  0.00  0.00    -0.027 C 
ATOM     10  C   UNL     1      35.060 -25.122 -14.150  0.00  0.00    -0.009 C 
ATOM     11  C   UNL     1      36.799 -22.743 -15.936  0.00  0.00    +0.005 C 
ATOM     12  C   UNL     1      30.449 -24.792 -13.148  0.00  0.00    +0.005 C 
ENDROOT
BRANCH   3  13
ATOM     13  O   UNL     1      31.470 -23.549 -15.878  0.00  0.00    -0.452 OA
BRANCH  13  15
ATOM     14  O   UNL     1      30.706 -22.116 -17.507  0.00  0.00    -0.250 OA
ATOM     15  C   UNL     1      30.500 -22.967 -16.649  0.00  0.00    +0.316 C 
BRANCH  15  16
ATOM     16  C   UNL     1      29.113 -23.516 -16.291  0.00  0.00    +0.090 C 
ATOM     17  C   UNL     1      28.269 -23.570 -17.578  0.00  0.00    +0.011 C 
ATOM     18  C   UNL     1      29.252 -24.949 -15.749  0.00  0.00    +0.011 C 
BRANCH  16  19
ATOM     19  C   UNL     1      28.408 -22.604 -15.257  0.00  0.00    +0.011 C 
ATOM     20  C   UNL     1      27.000 -22.163 -15.641  0.00  0.00    +0.001 C 
ENDBRANCH  16  19
ENDBRANCH  15  16
ENDBRANCH  13  15
ENDBRANCH   3  13
BRANCH   2  21
ATOM     21  C   UNL     1      34.183 -22.281 -17.340  0.00  0.00    +0.003 C 
BRANCH  21  22
ATOM     22  C   UNL     1      33.779 -22.793 -18.722  0.00  0.00    +0.029 C 
BRANCH  22  23
ATOM     23  C   UNL     1      33.626 -21.684 -19.771  0.00  0.00    +0.113 C 
BRANCH  23  24
ATOM     24  O   UNL     1      32.524 -20.857 -19.391  0.00  0.00    -0.384 OA
ATOM     25  H   UNL     1      31.863 -21.393 -18.927  0.00  0.00    +0.210 HD
ENDBRANCH  23  24
BRANCH  23  26
ATOM     26  C   UNL     1      34.861 -20.790 -19.972  0.00  0.00    +0.059 C 
BRANCH  26  27
ATOM     27  C   UNL     1      34.815 -19.883 -21.207  0.00  0.00    +0.124 C 
BRANCH  27  28
ATOM     28  O   UNL     1      33.572 -19.188 -21.245  0.00  0.00    -0.384 OA
ATOM     29  H   UNL     1      33.075 -19.456 -22.033  0.00  0.00    +0.210 HD
ENDBRANCH  27  28
BRANCH  27  30
ATOM     30  C   UNL     1      35.938 -18.847 -21.153  0.00  0.00    +0.139 C 
BRANCH  30  32
ATOM     31  O   UNL     1      35.159 -16.688 -20.394  0.00  0.00    -0.250 OA
ATOM     32  C   UNL     1      35.394 -17.448 -21.325  0.00  0.00    +0.316 C 
BRANCH  32  33
ATOM     33  O   UNL     1      35.212 -17.114 -22.626  0.00  0.00    -0.480 OA
ATOM     34  H   UNL     1      34.588 -16.454 -22.857  0.00  0.00    +0.295 HD
ENDBRANCH  32  33
ENDBRANCH  30  32
ENDBRANCH  27  30
ENDBRANCH  26  27
ENDBRANCH  23  26
ENDBRANCH  22  23
ENDBRANCH  21  22
ENDBRANCH   2  21
TORSDOF 14
ENDMDL
MODEL 4
REMARK VINA RESULT:      -7.7     12.348     15.114
REMARK  Name = 64718
REMARK  14 active torsions:
REMARK  status: ('A' for Active; 'I' for Inactive)
REMARK    1  A    between atoms: C_2  and  C_21
REMARK    2  A    between atoms: C_3  and  O_13
REMARK    3  A    between atoms: O_13  and  C_15
REMARK    4  A    between atoms: C_15  and  C_16
REMARK    5  A    between atoms: C_16  and  C_19
REMARK    6  A    between atoms: C_21  and  C_22
REMARK    7  A    between atoms: C_22  and  C_23
REMARK    8  A    between atoms: C_23  and  O_24
REMARK    9  A    between atoms: C_23  and  C_26
REMARK   10  A    between atoms: C_26  and  C_27
REMARK   11  A    between atoms: C_27  and  O_28
REMARK   12  A    between atoms: C_27  and  C_30
REMARK   13  A    between atoms: C_30  and  C_32
REMARK   14  A    between atoms: C_32  and  O_33
REMARK                            x       y       z     vdW  Elec       q    Type
REMARK                         _______ _______ _______ _____ _____    ______ ____
ROOT
ATOM      1  C   UNL     1      34.609 -22.583 -16.160  0.00  0.00    +0.062 C 
ATOM      2  C   UNL     1      33.463 -23.613 -16.388  0.00  0.00    +0.012 C 
ATOM      3  C   UNL     1      35.486 -22.906 -14.928  0.00  0.00    +0.173 C 
ATOM      4  C   UNL     1      32.600 -23.231 -17.627  0.00  0.00    +0.022 C 
ATOM      5  C   UNL     1      35.447 -22.419 -17.424  0.00  0.00    -0.024 C 
ATOM      6  C   UNL     1      36.708 -21.985 -14.859  0.00  0.00    +0.048 C 
ATOM      7  C   UNL     1      37.580 -22.031 -16.125  0.00  0.00    +0.025 C 
ATOM      8  C   UNL     1      36.770 -22.174 -17.387  0.00  0.00    -0.030 C 
ATOM      9  C   UNL     1      33.471 -22.879 -18.805  0.00  0.00    -0.027 C 
ATOM     10  C   UNL     1      34.760 -22.530 -18.698  0.00  0.00    -0.009 C 
ATOM     11  C   UNL     1      31.606 -22.090 -17.382  0.00  0.00    +0.005 C 
ATOM     12  C   UNL     1      38.639 -23.133 -16.058  0.00  0.00    +0.005 C 
ENDROOT
BRANCH   3  13
ATOM     13  O   UNL     1      35.896 -24.270 -14.953  0.00  0.00    -0.452 OA
BRANCH  13  15
ATOM     14  O   UNL     1      35.101 -24.848 -12.873  0.00  0.00    -0.250 OA
ATOM     15  C   UNL     1      35.967 -24.897 -13.738  0.00  0.00    +0.316 C 
BRANCH  15  16
ATOM     16  C   UNL     1      37.287 -25.669 -13.598  0.00  0.00    +0.090 C 
ATOM     17  C   UNL     1      37.133 -26.682 -12.449  0.00  0.00    +0.011 C 
ATOM     18  C   UNL     1      37.565 -26.450 -14.893  0.00  0.00    +0.011 C 
BRANCH  16  19
ATOM     19  C   UNL     1      38.457 -24.706 -13.274  0.00  0.00    +0.011 C 
ATOM     20  C   UNL     1      38.305 -23.922 -11.975  0.00  0.00    +0.001 C 
ENDBRANCH  16  19
ENDBRANCH  15  16
ENDBRANCH  13  15
ENDBRANCH   3  13
BRANCH   2  21
ATOM     21  C   UNL     1      32.598 -23.829 -15.141  0.00  0.00    +0.003 C 
BRANCH  21  22
ATOM     22  C   UNL     1      31.478 -24.830 -15.422  0.00  0.00    +0.029 C 
BRANCH  22  23
ATOM     23  C   UNL     1      30.337 -24.783 -14.397  0.00  0.00    +0.113 C 
BRANCH  23  24
ATOM     24  O   UNL     1      30.549 -23.659 -13.542  0.00  0.00    -0.384 OA
ATOM     25  H   UNL     1      29.984 -23.738 -12.757  0.00  0.00    +0.210 HD
ENDBRANCH  23  24
BRANCH  23  26
ATOM     26  C   UNL     1      28.922 -24.686 -14.990  0.00  0.00    +0.059 C 
BRANCH  26  27
ATOM     27  C   UNL     1      28.771 -23.704 -16.158  0.00  0.00    +0.124 C 
BRANCH  27  28
ATOM     28  O   UNL     1      27.850 -24.231 -17.110  0.00  0.00    -0.384 OA
ATOM     29  H   UNL     1      27.950 -25.194 -17.159  0.00  0.00    +0.210 HD
ENDBRANCH  27  28
BRANCH  27  30
ATOM     30  C   UNL     1      28.229 -22.362 -15.665  0.00  0.00    +0.139 C 
BRANCH  30  32
ATOM     31  O   UNL     1      25.821 -22.229 -15.821  0.00  0.00    -0.250 OA
ATOM     32  C   UNL     1      26.915 -22.029 -16.332  0.00  0.00    +0.316 C 
BRANCH  32  33
ATOM     33  O   UNL     1      27.077 -21.464 -17.554  0.00  0.00    -0.480 OA
ATOM     34  H   UNL     1      26.418 -20.895 -17.898  0.00  0.00    +0.295 HD
ENDBRANCH  32  33
ENDBRANCH  30  32
ENDBRANCH  27  30
ENDBRANCH  26  27
ENDBRANCH  23  26
ENDBRANCH  22  23
ENDBRANCH  21  22
ENDBRANCH   2  21
TORSDOF 14
ENDMDL
MODEL 5
REMARK VINA RESULT:      -7.6      1.219      2.084
REMARK  Name = 64718
REMARK  14 active torsions:
REMARK  status: ('A' for Active; 'I' for Inactive)
REMARK    1  A    between atoms: C_2  and  C_21
REMARK    2  A    between atoms: C_3  and  O_13
REMARK    3  A    between atoms: O_13  and  C_15
REMARK    4  A    between atoms: C_15  and  C_16
REMARK    5  A    between atoms: C_16  and  C_19
REMARK    6  A    between atoms: C_21  and  C_22
REMARK    7  A    between atoms: C_22  and  C_23
REMARK    8  A    between atoms: C_23  and  O_24
REMARK    9  A    between atoms: C_23  and  C_26
REMARK   10  A    between atoms: C_26  and  C_27
REMARK   11  A    between atoms: C_27  and  O_28
REMARK   12  A    between atoms: C_27  and  C_30
REMARK   13  A    between atoms: C_30  and  C_32
REMARK   14  A    between atoms: C_32  and  O_33
REMARK                            x       y       z     vdW  Elec       q    Type
REMARK                         _______ _______ _______ _____ _____    ______ ____
ROOT
ATOM      1  C   UNL     1      32.660  -9.194 -24.073  0.00  0.00    +0.062 C 
ATOM      2  C   UNL     1      33.548 -10.411 -23.674  0.00  0.00    +0.012 C 
ATOM      3  C   UNL     1      31.299  -9.164 -23.340  0.00  0.00    +0.173 C 
ATOM      4  C   UNL     1      34.897 -10.403 -24.452  0.00  0.00    +0.022 C 
ATOM      5  C   UNL     1      33.425  -7.886 -23.897  0.00  0.00    -0.024 C 
ATOM      6  C   UNL     1      30.549  -7.857 -23.614  0.00  0.00    +0.048 C 
ATOM      7  C   UNL     1      31.353  -6.602 -23.237  0.00  0.00    +0.025 C 
ATOM      8  C   UNL     1      32.824  -6.741 -23.523  0.00  0.00    -0.030 C 
ATOM      9  C   UNL     1      35.528  -9.035 -24.427  0.00  0.00    -0.027 C 
ATOM     10  C   UNL     1      34.854  -7.910 -24.158  0.00  0.00    -0.009 C 
ATOM     11  C   UNL     1      34.794 -10.878 -25.906  0.00  0.00    +0.005 C 
ATOM     12  C   UNL     1      31.143  -6.199 -21.775  0.00  0.00    +0.005 C 
ENDROOT
BRANCH   3  13
ATOM     13  O   UNL     1      31.482  -9.345 -21.940  0.00  0.00    -0.452 OA
BRANCH  13  15
ATOM     14  O   UNL     1      30.180 -11.241 -21.985  0.00  0.00    -0.250 OA
ATOM     15  C   UNL     1      30.966 -10.497 -21.410  0.00  0.00    +0.316 C 
BRANCH  15  16
ATOM     16  C   UNL     1      31.498 -10.732 -19.990  0.00  0.00    +0.090 C 
ATOM     17  C   UNL     1      30.319 -10.608 -19.007  0.00  0.00    +0.011 C 
ATOM     18  C   UNL     1      32.064 -12.158 -19.881  0.00  0.00    +0.011 C 
BRANCH  16  19
ATOM     19  C   UNL     1      32.578  -9.683 -19.624  0.00  0.00    +0.011 C 
ATOM     20  C   UNL     1      32.040  -8.297 -19.283  0.00  0.00    +0.001 C 
ENDBRANCH  16  19
ENDBRANCH  15  16
ENDBRANCH  13  15
ENDBRANCH   3  13
BRANCH   2  21
ATOM     21  C   UNL     1      32.821 -11.752 -23.815  0.00  0.00    +0.003 C 
BRANCH  21  22
ATOM     22  C   UNL     1      33.636 -12.883 -23.189  0.00  0.00    +0.029 C 
BRANCH  22  23
ATOM     23  C   UNL     1      32.919 -14.239 -23.197  0.00  0.00    +0.113 C 
BRANCH  23  24
ATOM     24  O   UNL     1      33.435 -15.011 -24.283  0.00  0.00    -0.384 OA
ATOM     25  H   UNL     1      33.603 -15.918 -23.984  0.00  0.00    +0.210 HD
ENDBRANCH  23  24
BRANCH  23  26
ATOM     26  C   UNL     1      33.051 -15.063 -21.906  0.00  0.00    +0.059 C 
BRANCH  26  27
ATOM     27  C   UNL     1      34.475 -15.519 -21.566  0.00  0.00    +0.124 C 
BRANCH  27  28
ATOM     28  O   UNL     1      34.870 -14.963 -20.315  0.00  0.00    -0.384 OA
ATOM     29  H   UNL     1      35.253 -15.658 -19.758  0.00  0.00    +0.210 HD
ENDBRANCH  27  28
BRANCH  27  30
ATOM     30  C   UNL     1      34.539 -17.042 -21.451  0.00  0.00    +0.139 C 
BRANCH  30  32
ATOM     31  O   UNL     1      34.813 -18.826 -23.058  0.00  0.00    -0.250 OA
ATOM     32  C   UNL     1      35.028 -17.664 -22.737  0.00  0.00    +0.316 C 
BRANCH  32  33
ATOM     33  O   UNL     1      35.719 -16.792 -23.511  0.00  0.00    -0.480 OA
ATOM     34  H   UNL     1      35.575 -15.870 -23.421  0.00  0.00    +0.295 HD
ENDBRANCH  32  33
ENDBRANCH  30  32
ENDBRANCH  27  30
ENDBRANCH  26  27
ENDBRANCH  23  26
ENDBRANCH  22  23
ENDBRANCH  21  22
ENDBRANCH   2  21
TORSDOF 14
ENDMDL
MODEL 6
REMARK VINA RESULT:      -7.6      1.179      1.542
REMARK  Name = 64718
REMARK  14 active torsions:
REMARK  status: ('A' for Active; 'I' for Inactive)
REMARK    1  A    between atoms: C_2  and  C_21
REMARK    2  A    between atoms: C_3  and  O_13
REMARK    3  A    between atoms: O_13  and  C_15
REMARK    4  A    between atoms: C_15  and  C_16
REMARK    5  A    between atoms: C_16  and  C_19
REMARK    6  A    between atoms: C_21  and  C_22
REMARK    7  A    between atoms: C_22  and  C_23
REMARK    8  A    between atoms: C_23  and  O_24
REMARK    9  A    between atoms: C_23  and  C_26
REMARK   10  A    between atoms: C_26  and  C_27
REMARK   11  A    between atoms: C_27  and  O_28
REMARK   12  A    between atoms: C_27  and  C_30
REMARK   13  A    between atoms: C_30  and  C_32
REMARK   14  A    between atoms: C_32  and  O_33
REMARK                            x       y       z     vdW  Elec       q    Type
REMARK                         _______ _______ _______ _____ _____    ______ ____
ROOT
ATOM      1  C   UNL     1      32.787  -9.455 -24.024  0.00  0.00    +0.062 C 
ATOM      2  C   UNL     1      33.701 -10.696 -23.796  0.00  0.00    +0.012 C 
ATOM      3  C   UNL     1      31.507  -9.468 -23.156  0.00  0.00    +0.173 C 
ATOM      4  C   UNL     1      34.962 -10.642 -24.706  0.00  0.00    +0.022 C 
ATOM      5  C   UNL     1      33.577  -8.162 -23.846  0.00  0.00    -0.024 C 
ATOM      6  C   UNL     1      30.746  -8.144 -23.270  0.00  0.00    +0.048 C 
ATOM      7  C   UNL     1      31.594  -6.917 -22.899  0.00  0.00    +0.025 C 
ATOM      8  C   UNL     1      33.027  -7.042 -23.342  0.00  0.00    -0.030 C 
ATOM      9  C   UNL     1      35.605  -9.280 -24.660  0.00  0.00    -0.027 C 
ATOM     10  C   UNL     1      34.971  -8.172 -24.254  0.00  0.00    -0.009 C 
ATOM     11  C   UNL     1      34.708 -11.024 -26.168  0.00  0.00    +0.005 C 
ATOM     12  C   UNL     1      31.538  -6.606 -21.401  0.00  0.00    +0.005 C 
ENDROOT
BRANCH   3  13
ATOM     13  O   UNL     1      31.832  -9.737 -21.796  0.00  0.00    -0.452 OA
BRANCH  13  15
ATOM     14  O   UNL     1      30.204 -11.361 -21.718  0.00  0.00    -0.250 OA
ATOM     15  C   UNL     1      31.051 -10.668 -21.165  0.00  0.00    +0.316 C 
BRANCH  15  16
ATOM     16  C   UNL     1      31.371 -10.724 -19.665  0.00  0.00    +0.090 C 
ATOM     17  C   UNL     1      32.390  -9.615 -19.348  0.00  0.00    +0.011 C 
ATOM     18  C   UNL     1      30.093 -10.447 -18.856  0.00  0.00    +0.011 C 
BRANCH  16  19
ATOM     19  C   UNL     1      31.977 -12.098 -19.282  0.00  0.00    +0.011 C 
ATOM     20  C   UNL     1      32.287 -13.016 -20.459  0.00  0.00    +0.001 C 
ENDBRANCH  16  19
ENDBRANCH  15  16
ENDBRANCH  13  15
ENDBRANCH   3  13
BRANCH   2  21
ATOM     21  C   UNL     1      32.951 -12.024 -23.945  0.00  0.00    +0.003 C 
BRANCH  21  22
ATOM     22  C   UNL     1      33.911 -13.207 -23.834  0.00  0.00    +0.029 C 
BRANCH  22  23
ATOM     23  C   UNL     1      33.207 -14.558 -23.649  0.00  0.00    +0.113 C 
BRANCH  23  24
ATOM     24  O   UNL     1      33.503 -15.376 -24.783  0.00  0.00    -0.384 OA
ATOM     25  H   UNL     1      34.462 -15.511 -24.842  0.00  0.00    +0.210 HD
ENDBRANCH  23  24
BRANCH  23  26
ATOM     26  C   UNL     1      33.589 -15.332 -22.376  0.00  0.00    +0.059 C 
BRANCH  26  27
ATOM     27  C   UNL     1      34.502 -16.543 -22.598  0.00  0.00    +0.124 C 
BRANCH  27  28
ATOM     28  O   UNL     1      35.654 -16.145 -23.339  0.00  0.00    -0.384 OA
ATOM     29  H   UNL     1      35.557 -16.425 -24.262  0.00  0.00    +0.210 HD
ENDBRANCH  27  28
BRANCH  27  30
ATOM     30  C   UNL     1      34.972 -17.114 -21.260  0.00  0.00    +0.139 C 
BRANCH  30  32
ATOM     31  O   UNL     1      36.371 -18.989 -20.653  0.00  0.00    -0.250 OA
ATOM     32  C   UNL     1      35.576 -18.486 -21.437  0.00  0.00    +0.316 C 
BRANCH  32  33
ATOM     33  O   UNL     1      35.130 -19.114 -22.553  0.00  0.00    -0.480 OA
ATOM     34  H   UNL     1      34.980 -18.625 -23.337  0.00  0.00    +0.295 HD
ENDBRANCH  32  33
ENDBRANCH  30  32
ENDBRANCH  27  30
ENDBRANCH  26  27
ENDBRANCH  23  26
ENDBRANCH  22  23
ENDBRANCH  21  22
ENDBRANCH   2  21
TORSDOF 14
ENDMDL
MODEL 7
REMARK VINA RESULT:      -7.4      1.770      7.217
REMARK  Name = 64718
REMARK  14 active torsions:
REMARK  status: ('A' for Active; 'I' for Inactive)
REMARK    1  A    between atoms: C_2  and  C_21
REMARK    2  A    between atoms: C_3  and  O_13
REMARK    3  A    between atoms: O_13  and  C_15
REMARK    4  A    between atoms: C_15  and  C_16
REMARK    5  A    between atoms: C_16  and  C_19
REMARK    6  A    between atoms: C_21  and  C_22
REMARK    7  A    between atoms: C_22  and  C_23
REMARK    8  A    between atoms: C_23  and  O_24
REMARK    9  A    between atoms: C_23  and  C_26
REMARK   10  A    between atoms: C_26  and  C_27
REMARK   11  A    between atoms: C_27  and  O_28
REMARK   12  A    between atoms: C_27  and  C_30
REMARK   13  A    between atoms: C_30  and  C_32
REMARK   14  A    between atoms: C_32  and  O_33
REMARK                            x       y       z     vdW  Elec       q    Type
REMARK                         _______ _______ _______ _____ _____    ______ ____
ROOT
ATOM      1  C   UNL     1      34.536 -15.666 -24.506  0.00  0.00    +0.062 C 
ATOM      2  C   UNL     1      33.504 -14.499 -24.477  0.00  0.00    +0.012 C 
ATOM      3  C   UNL     1      35.095 -16.023 -23.109  0.00  0.00    +0.173 C 
ATOM      4  C   UNL     1      32.987 -14.167 -25.907  0.00  0.00    +0.022 C 
ATOM      5  C   UNL     1      33.951 -16.886 -25.210  0.00  0.00    -0.024 C 
ATOM      6  C   UNL     1      35.948 -17.294 -23.162  0.00  0.00    +0.048 C 
ATOM      7  C   UNL     1      35.200 -18.510 -23.732  0.00  0.00    +0.025 C 
ATOM      8  C   UNL     1      34.259 -18.146 -24.849  0.00  0.00    -0.030 C 
ATOM      9  C   UNL     1      32.606 -15.422 -26.649  0.00  0.00    -0.027 C 
ATOM     10  C   UNL     1      33.036 -16.644 -26.312  0.00  0.00    -0.009 C 
ATOM     11  C   UNL     1      33.967 -13.358 -26.765  0.00  0.00    +0.005 C 
ATOM     12  C   UNL     1      34.446 -19.285 -22.648  0.00  0.00    +0.005 C 
ENDROOT
BRANCH   3  13
ATOM     13  O   UNL     1      34.034 -16.179 -22.173  0.00  0.00    -0.452 OA
BRANCH  13  15
ATOM     14  O   UNL     1      35.077 -14.882 -20.585  0.00  0.00    -0.250 OA
ATOM     15  C   UNL     1      34.059 -15.339 -21.091  0.00  0.00    +0.316 C 
BRANCH  15  16
ATOM     16  C   UNL     1      32.638 -15.050 -20.590  0.00  0.00    +0.090 C 
ATOM     17  C   UNL     1      31.796 -16.328 -20.766  0.00  0.00    +0.011 C 
ATOM     18  C   UNL     1      32.681 -14.708 -19.091  0.00  0.00    +0.011 C 
BRANCH  16  19
ATOM     19  C   UNL     1      31.991 -13.898 -21.398  0.00  0.00    +0.011 C 
ATOM     20  C   UNL     1      31.981 -12.545 -20.695  0.00  0.00    +0.001 C 
ENDBRANCH  16  19
ENDBRANCH  15  16
ENDBRANCH  13  15
ENDBRANCH   3  13
BRANCH   2  21
ATOM     21  C   UNL     1      34.035 -13.251 -23.763  0.00  0.00    +0.003 C 
BRANCH  21  22
ATOM     22  C   UNL     1      33.243 -12.010 -24.173  0.00  0.00    +0.029 C 
BRANCH  22  23
ATOM     23  C   UNL     1      33.847 -10.695 -23.663  0.00  0.00    +0.113 C 
BRANCH  23  24
ATOM     24  O   UNL     1      34.983 -10.381 -24.472  0.00  0.00    -0.384 OA
ATOM     25  H   UNL     1      34.685 -10.081 -25.345  0.00  0.00    +0.210 HD
ENDBRANCH  23  24
BRANCH  23  26
ATOM     26  C   UNL     1      32.896  -9.487 -23.667  0.00  0.00    +0.059 C 
BRANCH  26  27
ATOM     27  C   UNL     1      33.014  -8.560 -22.452  0.00  0.00    +0.124 C 
BRANCH  27  28
ATOM     28  O   UNL     1      32.892  -7.203 -22.870  0.00  0.00    -0.384 OA
ATOM     29  H   UNL     1      32.005  -6.877 -22.656  0.00  0.00    +0.210 HD
ENDBRANCH  27  28
BRANCH  27  30
ATOM     30  C   UNL     1      31.900  -8.849 -21.446  0.00  0.00    +0.139 C 
BRANCH  30  32
ATOM     31  O   UNL     1      32.166  -9.484 -19.130  0.00  0.00    -0.250 OA
ATOM     32  C   UNL     1      32.390  -8.683 -20.028  0.00  0.00    +0.316 C 
BRANCH  32  33
ATOM     33  O   UNL     1      33.125  -7.557 -19.857  0.00  0.00    -0.480 OA
ATOM     34  H   UNL     1      33.930  -7.447 -20.324  0.00  0.00    +0.295 HD
ENDBRANCH  32  33
ENDBRANCH  30  32
ENDBRANCH  27  30
ENDBRANCH  26  27
ENDBRANCH  23  26
ENDBRANCH  22  23
ENDBRANCH  21  22
ENDBRANCH   2  21
TORSDOF 14
ENDMDL
MODEL 8
REMARK VINA RESULT:      -7.2      1.784      4.030
REMARK  Name = 64718
REMARK  14 active torsions:
REMARK  status: ('A' for Active; 'I' for Inactive)
REMARK    1  A    between atoms: C_2  and  C_21
REMARK    2  A    between atoms: C_3  and  O_13
REMARK    3  A    between atoms: O_13  and  C_15
REMARK    4  A    between atoms: C_15  and  C_16
REMARK    5  A    between atoms: C_16  and  C_19
REMARK    6  A    between atoms: C_21  and  C_22
REMARK    7  A    between atoms: C_22  and  C_23
REMARK    8  A    between atoms: C_23  and  O_24
REMARK    9  A    between atoms: C_23  and  C_26
REMARK   10  A    between atoms: C_26  and  C_27
REMARK   11  A    between atoms: C_27  and  O_28
REMARK   12  A    between atoms: C_27  and  C_30
REMARK   13  A    between atoms: C_30  and  C_32
REMARK   14  A    between atoms: C_32  and  O_33
REMARK                            x       y       z     vdW  Elec       q    Type
REMARK                         _______ _______ _______ _____ _____    ______ ____
ROOT
ATOM      1  C   UNL     1      31.861  -9.579 -22.013  0.00  0.00    +0.062 C 
ATOM      2  C   UNL     1      33.054  -9.552 -23.014  0.00  0.00    +0.012 C 
ATOM      3  C   UNL     1      31.312 -11.001 -21.752  0.00  0.00    +0.173 C 
ATOM      4  C   UNL     1      33.555  -8.098 -23.255  0.00  0.00    +0.022 C 
ATOM      5  C   UNL     1      32.230  -8.869 -20.714  0.00  0.00    -0.024 C 
ATOM      6  C   UNL     1      30.279 -10.999 -20.621  0.00  0.00    +0.048 C 
ATOM      7  C   UNL     1      30.817 -10.416 -19.303  0.00  0.00    +0.025 C 
ATOM      8  C   UNL     1      31.755  -9.258 -19.516  0.00  0.00    -0.030 C 
ATOM      9  C   UNL     1      33.717  -7.359 -21.952  0.00  0.00    -0.027 C 
ATOM     10  C   UNL     1      33.125  -7.729 -20.809  0.00  0.00    -0.009 C 
ATOM     11  C   UNL     1      32.671  -7.268 -24.193  0.00  0.00    +0.005 C 
ATOM     12  C   UNL     1      31.492 -11.480 -18.434  0.00  0.00    +0.005 C 
ENDROOT
BRANCH   3  13
ATOM     13  O   UNL     1      32.376 -11.897 -21.448  0.00  0.00    -0.452 OA
BRANCH  13  15
ATOM     14  O   UNL     1      31.690 -13.395 -23.053  0.00  0.00    -0.250 OA
ATOM     15  C   UNL     1      32.297 -13.139 -22.020  0.00  0.00    +0.316 C 
BRANCH  15  16
ATOM     16  C   UNL     1      33.066 -14.174 -21.188  0.00  0.00    +0.090 C 
ATOM     17  C   UNL     1      34.573 -13.927 -21.385  0.00  0.00    +0.011 C 
ATOM     18  C   UNL     1      32.739 -13.981 -19.697  0.00  0.00    +0.011 C 
BRANCH  16  19
ATOM     19  C   UNL     1      32.723 -15.614 -21.644  0.00  0.00    +0.011 C 
ATOM     20  C   UNL     1      33.722 -16.682 -21.212  0.00  0.00    +0.001 C 
ENDBRANCH  16  19
ENDBRANCH  15  16
ENDBRANCH  13  15
ENDBRANCH   3  13
BRANCH   2  21
ATOM     21  C   UNL     1      32.742 -10.269 -24.333  0.00  0.00    +0.003 C 
BRANCH  21  22
ATOM     22  C   UNL     1      34.025 -10.756 -25.005  0.00  0.00    +0.029 C 
BRANCH  22  23
ATOM     23  C   UNL     1      33.824 -11.985 -25.901  0.00  0.00    +0.113 C 
BRANCH  23  24
ATOM     24  O   UNL     1      34.712 -11.876 -27.015  0.00  0.00    -0.384 OA
ATOM     25  H   UNL     1      35.038 -10.965 -27.081  0.00  0.00    +0.210 HD
ENDBRANCH  23  24
BRANCH  23  26
ATOM     26  C   UNL     1      34.059 -13.343 -25.221  0.00  0.00    +0.059 C 
BRANCH  26  27
ATOM     27  C   UNL     1      33.256 -14.512 -25.803  0.00  0.00    +0.124 C 
BRANCH  27  28
ATOM     28  O   UNL     1      33.780 -14.863 -27.081  0.00  0.00    -0.384 OA
ATOM     29  H   UNL     1      33.185 -14.540 -27.775  0.00  0.00    +0.210 HD
ENDBRANCH  27  28
BRANCH  27  30
ATOM     30  C   UNL     1      33.358 -15.738 -24.896  0.00  0.00    +0.139 C 
BRANCH  30  32
ATOM     31  O   UNL     1      34.956 -17.171 -26.006  0.00  0.00    -0.250 OA
ATOM     32  C   UNL     1      34.687 -16.433 -25.067  0.00  0.00    +0.316 C 
BRANCH  32  33
ATOM     33  O   UNL     1      35.564 -16.138 -24.075  0.00  0.00    -0.480 OA
ATOM     34  H   UNL     1      36.313 -16.681 -23.935  0.00  0.00    +0.295 HD
ENDBRANCH  32  33
ENDBRANCH  30  32
ENDBRANCH  27  30
ENDBRANCH  26  27
ENDBRANCH  23  26
ENDBRANCH  22  23
ENDBRANCH  21  22
ENDBRANCH   2  21
TORSDOF 14
ENDMDL
MODEL 9
REMARK VINA RESULT:      -7.0      3.166      8.074
REMARK  Name = 64718
REMARK  14 active torsions:
REMARK  status: ('A' for Active; 'I' for Inactive)
REMARK    1  A    between atoms: C_2  and  C_21
REMARK    2  A    between atoms: C_3  and  O_13
REMARK    3  A    between atoms: O_13  and  C_15
REMARK    4  A    between atoms: C_15  and  C_16
REMARK    5  A    between atoms: C_16  and  C_19
REMARK    6  A    between atoms: C_21  and  C_22
REMARK    7  A    between atoms: C_22  and  C_23
REMARK    8  A    between atoms: C_23  and  O_24
REMARK    9  A    between atoms: C_23  and  C_26
REMARK   10  A    between atoms: C_26  and  C_27
REMARK   11  A    between atoms: C_27  and  O_28
REMARK   12  A    between atoms: C_27  and  C_30
REMARK   13  A    between atoms: C_30  and  C_32
REMARK   14  A    between atoms: C_32  and  O_33
REMARK                            x       y       z     vdW  Elec       q    Type
REMARK                         _______ _______ _______ _____ _____    ______ ____
ROOT
ATOM      1  C   UNL     1      31.761  -9.204 -21.755  0.00  0.00    +0.062 C 
ATOM      2  C   UNL     1      32.855  -8.223 -22.273  0.00  0.00    +0.012 C 
ATOM      3  C   UNL     1      31.715 -10.538 -22.535  0.00  0.00    +0.173 C 
ATOM      4  C   UNL     1      32.845  -6.891 -21.467  0.00  0.00    +0.022 C 
ATOM      5  C   UNL     1      31.908  -9.432 -20.253  0.00  0.00    -0.024 C 
ATOM      6  C   UNL     1      30.766 -11.538 -21.869  0.00  0.00    +0.048 C 
ATOM      7  C   UNL     1      31.114 -11.826 -20.399  0.00  0.00    +0.025 C 
ATOM      8  C   UNL     1      31.614 -10.608 -19.669  0.00  0.00    -0.030 C 
ATOM      9  C   UNL     1      32.787  -7.156 -19.984  0.00  0.00    -0.027 C 
ATOM     10  C   UNL     1      32.376  -8.315 -19.452  0.00  0.00    -0.009 C 
ATOM     11  C   UNL     1      31.717  -5.926 -21.846  0.00  0.00    +0.005 C 
ATOM     12  C   UNL     1      32.121 -12.970 -20.256  0.00  0.00    +0.005 C 
ENDROOT
BRANCH   3  13
ATOM     13  O   UNL     1      33.021 -11.094 -22.647  0.00  0.00    -0.452 OA
BRANCH  13  15
ATOM     14  O   UNL     1      33.618 -10.812 -24.850  0.00  0.00    -0.250 OA
ATOM     15  C   UNL     1      33.381 -11.538 -23.891  0.00  0.00    +0.316 C 
BRANCH  15  16
ATOM     16  C   UNL     1      33.439 -13.071 -23.930  0.00  0.00    +0.090 C 
ATOM     17  C   UNL     1      32.007 -13.612 -23.765  0.00  0.00    +0.011 C 
ATOM     18  C   UNL     1      33.971 -13.531 -25.298  0.00  0.00    +0.011 C 
BRANCH  16  19
ATOM     19  C   UNL     1      34.326 -13.618 -22.783  0.00  0.00    +0.011 C 
ATOM     20  C   UNL     1      34.554 -15.125 -22.810  0.00  0.00    +0.001 C 
ENDBRANCH  16  19
ENDBRANCH  15  16
ENDBRANCH  13  15
ENDBRANCH   3  13
BRANCH   2  21
ATOM     21  C   UNL     1      32.764  -7.972 -23.782  0.00  0.00    +0.003 C 
BRANCH  21  22
ATOM     22  C   UNL     1      34.055  -7.347 -24.309  0.00  0.00    +0.029 C 
BRANCH  22  23
ATOM     23  C   UNL     1      33.862  -5.953 -24.922  0.00  0.00    +0.113 C 
BRANCH  23  24
ATOM     24  O   UNL     1      34.555  -5.913 -26.171  0.00  0.00    -0.384 OA
ATOM     25  H   UNL     1      35.509  -5.853 -26.008  0.00  0.00    +0.210 HD
ENDBRANCH  23  24
BRANCH  23  26
ATOM     26  C   UNL     1      32.402  -5.534 -25.161  0.00  0.00    +0.059 C 
BRANCH  26  27
ATOM     27  C   UNL     1      32.194  -4.050 -25.483  0.00  0.00    +0.124 C 
BRANCH  27  28
ATOM     28  O   UNL     1      32.057  -3.880 -26.891  0.00  0.00    -0.384 OA
ATOM     29  H   UNL     1      31.447  -3.149 -27.071  0.00  0.00    +0.210 HD
ENDBRANCH  27  28
BRANCH  27  30
ATOM     30  C   UNL     1      30.921  -3.529 -24.816  0.00  0.00    +0.139 C 
BRANCH  30  32
ATOM     31  O   UNL     1      32.173  -1.867 -23.587  0.00  0.00    -0.250 OA
ATOM     32  C   UNL     1      31.247  -2.668 -23.619  0.00  0.00    +0.316 C 
BRANCH  32  33
ATOM     33  O   UNL     1      30.391  -2.861 -22.586  0.00  0.00    -0.480 OA
ATOM     34  H   UNL     1      30.486  -3.611 -22.033  0.00  0.00    +0.295 HD
ENDBRANCH  32  33
ENDBRANCH  30  32
ENDBRANCH  27  30
ENDBRANCH  26  27
ENDBRANCH  23  26
ENDBRANCH  22  23
ENDBRANCH  21  22
ENDBRANCH   2  21
TORSDOF 14
ENDMDL
