MODEL 1
REMARK VINA RESULT:      -6.3      0.000      0.000
REMARK  Name = 190
REMARK  0 active torsions:
REMARK  status: ('A' for Active; 'I' for Inactive)
REMARK                            x       y       z     vdW  Elec       q    Type
REMARK                         _______ _______ _______ _____ _____    ______ ____
ROOT
ATOM      1  N   UNL     1      36.008 -25.315 -12.430  0.00  0.00    -0.270 NA
ATOM      2  N   UNL     1      37.692 -24.102 -11.617  0.00  0.00    -0.307 N 
ATOM      3  N   UNL     1      39.376 -24.860 -13.199  0.00  0.00    -0.232 NA
ATOM      4  N   UNL     1      38.544 -26.472 -14.830  0.00  0.00    -0.233 NA
ATOM      5  C   UNL     1      37.088 -25.610 -13.212  0.00  0.00    +0.164 C 
ATOM      6  C   UNL     1      38.121 -24.844 -12.687  0.00  0.00    +0.125 C 
ATOM      7  C   UNL     1      37.301 -26.435 -14.298  0.00  0.00    +0.121 C 
ATOM      8  C   UNL     1      36.419 -24.408 -11.489  0.00  0.00    +0.163 C 
ATOM      9  C   UNL     1      39.491 -25.693 -14.255  0.00  0.00    +0.252 C 
ATOM     10  H   UNL     1      35.101 -25.687 -12.526  0.00  0.00    +0.126 HD
ATOM     11  H   UNL     1      38.219 -23.479 -11.067  0.00  0.00    +0.149 HD
ATOM     12  N   UNL     1      36.264 -27.215 -14.838  0.00  0.00    -0.345 N 
ATOM     13  H   UNL     1      36.438 -27.796 -15.612  0.00  0.00    +0.143 HD
ATOM     14  H   UNL     1      35.364 -27.179 -14.441  0.00  0.00    +0.143 HD
ENDROOT
TORSDOF 0
ENDMDL
MODEL 2
REMARK VINA RESULT:      -6.0     15.403     15.716
REMARK  Name = 190
REMARK  0 active torsions:
REMARK  status: ('A' for Active; 'I' for Inactive)
REMARK                            x       y       z     vdW  Elec       q    Type
REMARK                         _______ _______ _______ _____ _____    ______ ____
ROOT
ATOM      1  N   UNL     1      33.944 -17.052 -25.649  0.00  0.00    -0.270 NA
ATOM      2  N   UNL     1      35.215 -17.224 -23.826  0.00  0.00    -0.307 N 
ATOM      3  N   UNL     1      34.802 -14.983 -22.980  0.00  0.00    -0.232 NA
ATOM      4  N   UNL     1      33.310 -13.657 -24.382  0.00  0.00    -0.233 NA
ATOM      5  C   UNL     1      33.843 -15.848 -25.011  0.00  0.00    +0.164 C 
ATOM      6  C   UNL     1      34.641 -15.980 -23.882  0.00  0.00    +0.125 C 
ATOM      7  C   UNL     1      33.168 -14.671 -25.266  0.00  0.00    +0.121 C 
ATOM      8  C   UNL     1      34.776 -17.843 -24.901  0.00  0.00    +0.163 C 
ATOM      9  C   UNL     1      34.107 -13.873 -23.309  0.00  0.00    +0.252 C 
ATOM     10  H   UNL     1      33.500 -17.304 -26.490  0.00  0.00    +0.126 HD
ATOM     11  H   UNL     1      35.820 -17.577 -23.135  0.00  0.00    +0.149 HD
ATOM     12  N   UNL     1      32.358 -14.525 -26.404  0.00  0.00    -0.345 N 
ATOM     13  H   UNL     1      31.885 -13.677 -26.567  0.00  0.00    +0.143 HD
ATOM     14  H   UNL     1      32.263 -15.271 -27.040  0.00  0.00    +0.143 HD
ENDROOT
TORSDOF 0
ENDMDL
MODEL 3
REMARK VINA RESULT:      -6.0      8.265      8.914
REMARK  Name = 190
REMARK  0 active torsions:
REMARK  status: ('A' for Active; 'I' for Inactive)
REMARK                            x       y       z     vdW  Elec       q    Type
REMARK                         _______ _______ _______ _____ _____    ______ ____
ROOT
ATOM      1  N   UNL     1      34.906 -22.434 -18.522  0.00  0.00    -0.270 NA
ATOM      2  N   UNL     1      32.690 -22.261 -18.692  0.00  0.00    -0.307 N 
ATOM      3  N   UNL     1      32.671 -20.479 -20.345  0.00  0.00    -0.232 NA
ATOM      4  N   UNL     1      34.894 -19.737 -21.023  0.00  0.00    -0.233 NA
ATOM      5  C   UNL     1      34.680 -21.447 -19.439  0.00  0.00    +0.164 C 
ATOM      6  C   UNL     1      33.297 -21.359 -19.527  0.00  0.00    +0.125 C 
ATOM      7  C   UNL     1      35.490 -20.625 -20.197  0.00  0.00    +0.121 C 
ATOM      8  C   UNL     1      33.684 -22.891 -18.103  0.00  0.00    +0.163 C 
ATOM      9  C   UNL     1      33.540 -19.719 -21.046  0.00  0.00    +0.252 C 
ATOM     10  H   UNL     1      35.785 -22.756 -18.218  0.00  0.00    +0.126 HD
ATOM     11  H   UNL     1      31.725 -22.407 -18.562  0.00  0.00    +0.149 HD
ATOM     12  N   UNL     1      36.891 -20.705 -20.116  0.00  0.00    -0.345 N 
ATOM     13  H   UNL     1      37.450 -20.110 -20.666  0.00  0.00    +0.143 HD
ATOM     14  H   UNL     1      37.313 -21.356 -19.510  0.00  0.00    +0.143 HD
ENDROOT
TORSDOF 0
ENDMDL
MODEL 4
REMARK VINA RESULT:      -6.0      2.240      2.476
REMARK  Name = 190
REMARK  0 active torsions:
REMARK  status: ('A' for Active; 'I' for Inactive)
REMARK                            x       y       z     vdW  Elec       q    Type
REMARK                         _______ _______ _______ _____ _____    ______ ____
ROOT
ATOM      1  N   UNL     1      35.736 -24.253 -15.526  0.00  0.00    -0.270 NA
ATOM      2  N   UNL     1      37.378 -22.751 -15.396  0.00  0.00    -0.307 N 
ATOM      3  N   UNL     1      39.147 -24.314 -14.816  0.00  0.00    -0.232 NA
ATOM      4  N   UNL     1      38.402 -26.631 -14.648  0.00  0.00    -0.233 NA
ATOM      5  C   UNL     1      36.859 -24.958 -15.197  0.00  0.00    +0.164 C 
ATOM      6  C   UNL     1      37.864 -24.003 -15.123  0.00  0.00    +0.125 C 
ATOM      7  C   UNL     1      37.130 -26.291 -14.957  0.00  0.00    +0.121 C 
ATOM      8  C   UNL     1      36.097 -22.935 -15.634  0.00  0.00    +0.163 C 
ATOM      9  C   UNL     1      39.319 -25.636 -14.598  0.00  0.00    +0.252 C 
ATOM     10  H   UNL     1      34.835 -24.624 -15.660  0.00  0.00    +0.126 HD
ATOM     11  H   UNL     1      37.876 -21.902 -15.411  0.00  0.00    +0.149 HD
ATOM     12  N   UNL     1      36.121 -27.266 -15.030  0.00  0.00    -0.345 N 
ATOM     13  H   UNL     1      36.336 -28.210 -14.855  0.00  0.00    +0.143 HD
ATOM     14  H   UNL     1      35.199 -27.005 -15.255  0.00  0.00    +0.143 HD
ENDROOT
TORSDOF 0
ENDMDL
MODEL 5
REMARK VINA RESULT:      -6.0      8.070      8.820
REMARK  Name = 190
REMARK  0 active torsions:
REMARK  status: ('A' for Active; 'I' for Inactive)
REMARK                            x       y       z     vdW  Elec       q    Type
REMARK                         _______ _______ _______ _____ _____    ______ ____
ROOT
ATOM      1  N   UNL     1      34.771 -20.006 -20.699  0.00  0.00    -0.270 NA
ATOM      2  N   UNL     1      32.576 -20.367 -20.557  0.00  0.00    -0.307 N 
ATOM      3  N   UNL     1      32.686 -22.118 -18.874  0.00  0.00    -0.232 NA
ATOM      4  N   UNL     1      34.954 -22.653 -18.153  0.00  0.00    -0.233 NA
ATOM      5  C   UNL     1      34.617 -20.994 -19.769  0.00  0.00    +0.164 C 
ATOM      6  C   UNL     1      33.246 -21.201 -19.699  0.00  0.00    +0.125 C 
ATOM      7  C   UNL     1      35.484 -21.730 -18.986  0.00  0.00    +0.121 C 
ATOM      8  C   UNL     1      33.520 -19.663 -21.143  0.00  0.00    +0.163 C 
ATOM      9  C   UNL     1      33.607 -22.789 -18.148  0.00  0.00    +0.252 C 
ATOM     10  H   UNL     1      35.623 -19.613 -20.996  0.00  0.00    +0.126 HD
ATOM     11  H   UNL     1      31.605 -20.309 -20.703  0.00  0.00    +0.149 HD
ATOM     12  N   UNL     1      36.874 -21.530 -19.048  0.00  0.00    -0.345 N 
ATOM     13  H   UNL     1      37.474 -22.066 -18.481  0.00  0.00    +0.143 HD
ATOM     14  H   UNL     1      37.247 -20.855 -19.659  0.00  0.00    +0.143 HD
ENDROOT
TORSDOF 0
ENDMDL
MODEL 6
REMARK VINA RESULT:      -5.9      8.135      8.556
REMARK  Name = 190
REMARK  0 active torsions:
REMARK  status: ('A' for Active; 'I' for Inactive)
REMARK                            x       y       z     vdW  Elec       q    Type
REMARK                         _______ _______ _______ _____ _____    ______ ____
ROOT
ATOM      1  N   UNL     1      32.655 -20.943 -20.162  0.00  0.00    -0.270 NA
ATOM      2  N   UNL     1      34.197 -19.562 -20.990  0.00  0.00    -0.307 N 
ATOM      3  N   UNL     1      36.094 -20.514 -19.805  0.00  0.00    -0.232 NA
ATOM      4  N   UNL     1      35.516 -22.394 -18.363  0.00  0.00    -0.233 NA
ATOM      5  C   UNL     1      33.838 -21.327 -19.598  0.00  0.00    +0.164 C 
ATOM      6  C   UNL     1      34.780 -20.454 -20.127  0.00  0.00    +0.125 C 
ATOM      7  C   UNL     1      34.210 -22.311 -18.703  0.00  0.00    +0.121 C 
ATOM      8  C   UNL     1      32.921 -19.882 -20.988  0.00  0.00    +0.163 C 
ATOM      9  C   UNL     1      36.365 -21.503 -18.927  0.00  0.00    +0.252 C 
ATOM     10  H   UNL     1      31.774 -21.353 -20.005  0.00  0.00    +0.126 HD
ATOM     11  H   UNL     1      34.635 -18.842 -21.497  0.00  0.00    +0.149 HD
ATOM     12  N   UNL     1      33.266 -23.199 -18.161  0.00  0.00    -0.345 N 
ATOM     13  H   UNL     1      33.553 -23.893 -17.525  0.00  0.00    +0.143 HD
ATOM     14  H   UNL     1      32.319 -23.128 -18.417  0.00  0.00    +0.143 HD
ENDROOT
TORSDOF 0
ENDMDL
MODEL 7
REMARK VINA RESULT:      -5.9     11.747     12.848
REMARK  Name = 190
REMARK  0 active torsions:
REMARK  status: ('A' for Active; 'I' for Inactive)
REMARK                            x       y       z     vdW  Elec       q    Type
REMARK                         _______ _______ _______ _____ _____    ______ ____
ROOT
ATOM      1  N   UNL     1      42.298 -12.315 -16.198  0.00  0.00    -0.270 NA
ATOM      2  N   UNL     1      43.008 -13.739 -17.759  0.00  0.00    -0.307 N 
ATOM      3  N   UNL     1      41.989 -15.732 -16.810  0.00  0.00    -0.232 NA
ATOM      4  N   UNL     1      40.751 -15.321 -14.749  0.00  0.00    -0.233 NA
ATOM      5  C   UNL     1      41.812 -13.539 -15.833  0.00  0.00    +0.164 C 
ATOM      6  C   UNL     1      42.267 -14.406 -16.818  0.00  0.00    +0.125 C 
ATOM      7  C   UNL     1      41.043 -14.002 -14.783  0.00  0.00    +0.121 C 
ATOM      8  C   UNL     1      43.007 -12.486 -17.358  0.00  0.00    +0.163 C 
ATOM      9  C   UNL     1      41.235 -16.094 -15.750  0.00  0.00    +0.252 C 
ATOM     10  H   UNL     1      42.162 -11.468 -15.716  0.00  0.00    +0.126 HD
ATOM     11  H   UNL     1      43.444 -14.114 -18.558  0.00  0.00    +0.149 HD
ATOM     12  N   UNL     1      40.578 -13.135 -13.781  0.00  0.00    -0.345 N 
ATOM     13  H   UNL     1      40.031 -13.486 -13.041  0.00  0.00    +0.143 HD
ATOM     14  H   UNL     1      40.798 -12.176 -13.818  0.00  0.00    +0.143 HD
ENDROOT
TORSDOF 0
ENDMDL
MODEL 8
REMARK VINA RESULT:      -5.8      1.724      3.606
REMARK  Name = 190
REMARK  0 active torsions:
REMARK  status: ('A' for Active; 'I' for Inactive)
REMARK                            x       y       z     vdW  Elec       q    Type
REMARK                         _______ _______ _______ _____ _____    ______ ____
ROOT
ATOM      1  N   UNL     1      36.642 -25.422 -15.359  0.00  0.00    -0.270 NA
ATOM      2  N   UNL     1      37.441 -26.900 -13.893  0.00  0.00    -0.307 N 
ATOM      3  N   UNL     1      36.694 -25.744 -11.889  0.00  0.00    -0.232 NA
ATOM      4  N   UNL     1      35.505 -23.661 -12.336  0.00  0.00    -0.233 NA
ATOM      5  C   UNL     1      36.313 -24.936 -14.125  0.00  0.00    +0.164 C 
ATOM      6  C   UNL     1      36.820 -25.872 -13.232  0.00  0.00    +0.125 C 
ATOM      7  C   UNL     1      35.646 -23.815 -13.671  0.00  0.00    +0.121 C 
ATOM      8  C   UNL     1      37.316 -26.600 -15.168  0.00  0.00    +0.163 C 
ATOM      9  C   UNL     1      36.030 -24.622 -11.538  0.00  0.00    +0.252 C 
ATOM     10  H   UNL     1      36.432 -25.003 -16.224  0.00  0.00    +0.126 HD
ATOM     11  H   UNL     1      37.882 -27.688 -13.502  0.00  0.00    +0.149 HD
ATOM     12  N   UNL     1      35.128 -22.862 -14.565  0.00  0.00    -0.345 N 
ATOM     13  H   UNL     1      34.656 -22.070 -14.220  0.00  0.00    +0.143 HD
ATOM     14  H   UNL     1      35.238 -22.987 -15.535  0.00  0.00    +0.143 HD
ENDROOT
TORSDOF 0
ENDMDL
MODEL 9
REMARK VINA RESULT:      -5.7     15.237     15.664
REMARK  Name = 190
REMARK  0 active torsions:
REMARK  status: ('A' for Active; 'I' for Inactive)
REMARK                            x       y       z     vdW  Elec       q    Type
REMARK                         _______ _______ _______ _____ _____    ______ ____
ROOT
ATOM      1  N   UNL     1      35.050 -16.727 -23.286  0.00  0.00    -0.270 NA
ATOM      2  N   UNL     1      34.556 -17.840 -25.154  0.00  0.00    -0.307 N 
ATOM      3  N   UNL     1      33.411 -16.013 -26.277  0.00  0.00    -0.232 NA
ATOM      4  N   UNL     1      33.320 -13.954 -24.973  0.00  0.00    -0.233 NA
ATOM      5  C   UNL     1      34.378 -15.841 -24.080  0.00  0.00    +0.164 C 
ATOM      6  C   UNL     1      34.083 -16.555 -25.233  0.00  0.00    +0.125 C 
ATOM      7  C   UNL     1      33.992 -14.522 -23.947  0.00  0.00    +0.121 C 
ATOM      8  C   UNL     1      35.132 -17.910 -23.973  0.00  0.00    +0.163 C 
ATOM      9  C   UNL     1      33.074 -14.724 -26.059  0.00  0.00    +0.252 C 
ATOM     10  H   UNL     1      35.409 -16.548 -22.388  0.00  0.00    +0.126 HD
ATOM     11  H   UNL     1      34.482 -18.551 -25.830  0.00  0.00    +0.149 HD
ATOM     12  N   UNL     1      34.286 -13.789 -22.785  0.00  0.00    -0.345 N 
ATOM     13  H   UNL     1      34.001 -12.849 -22.710  0.00  0.00    +0.143 HD
ATOM     14  H   UNL     1      34.776 -14.214 -22.045  0.00  0.00    +0.143 HD
ENDROOT
TORSDOF 0
ENDMDL
