MODEL 1
REMARK VINA RESULT:     -10.1      0.000      0.000
REMARK  Name = 446134
REMARK  4 active torsions:
REMARK  status: ('A' for Active; 'I' for Inactive)
REMARK    1  A    between atoms: C_2  and  C_14
REMARK    2  A    between atoms: C_3  and  C_8
REMARK    3  A    between atoms: C_14  and  C_17
REMARK    4  A    between atoms: C_17  and  O_18
REMARK                            x       y       z     vdW  Elec       q    Type
REMARK                         _______ _______ _______ _____ _____    ______ ____
ROOT
ATOM      1  F   UNL     1      35.055 -19.899 -23.599  0.00  0.00    -0.204 F 
ATOM      2  C   UNL     1      34.499 -16.341 -23.312  0.00  0.00    -0.010 C 
ATOM      3  C   UNL     1      34.570 -18.570 -21.686  0.00  0.00    +0.027 C 
ATOM      4  C   UNL     1      34.763 -17.572 -23.878  0.00  0.00    +0.026 C 
ATOM      5  C   UNL     1      34.269 -16.189 -21.959  0.00  0.00    -0.004 C 
ATOM      6  C   UNL     1      34.799 -18.699 -23.056  0.00  0.00    +0.140 C 
ATOM      7  C   UNL     1      34.306 -17.315 -21.138  0.00  0.00    +0.002 C 
ENDROOT
BRANCH   3   8
ATOM      8  C   UNL     1      34.608 -19.736 -20.829  0.00  0.00    +0.002 C 
ATOM      9  C   UNL     1      35.834 -20.266 -20.428  0.00  0.00    +0.000 C 
ATOM     10  C   UNL     1      33.419 -20.329 -20.405  0.00  0.00    +0.000 C 
ATOM     11  C   UNL     1      35.871 -21.390 -19.602  0.00  0.00    +0.000 C 
ATOM     12  C   UNL     1      33.456 -21.452 -19.578  0.00  0.00    +0.000 C 
ATOM     13  C   UNL     1      34.682 -21.983 -19.177  0.00  0.00    +0.000 C 
ENDBRANCH   3   8
BRANCH   2  14
ATOM     14  C   UNL     1      34.459 -15.113 -24.208  0.00  0.00    +0.121 C 
ATOM     15  C   UNL     1      33.960 -13.869 -23.469  0.00  0.00    +0.016 C 
BRANCH  14  17
ATOM     16  O   UNL     1      33.633 -16.380 -26.127  0.00  0.00    -0.250 OA
ATOM     17  C   UNL     1      33.628 -15.351 -25.462  0.00  0.00    +0.321 C 
BRANCH  17  18
ATOM     18  O   UNL     1      32.855 -14.252 -25.714  0.00  0.00    -0.444 OA
ATOM     19  C   UNL     1      33.148 -13.555 -26.929  0.00  0.00    +0.256 C 
ENDBRANCH  17  18
ENDBRANCH  14  17
ENDBRANCH   2  14
TORSDOF 4
ENDMDL
MODEL 2
REMARK VINA RESULT:     -10.1      0.041      1.109
REMARK  Name = 446134
REMARK  4 active torsions:
REMARK  status: ('A' for Active; 'I' for Inactive)
REMARK    1  A    between atoms: C_2  and  C_14
REMARK    2  A    between atoms: C_3  and  C_8
REMARK    3  A    between atoms: C_14  and  C_17
REMARK    4  A    between atoms: C_17  and  O_18
REMARK                            x       y       z     vdW  Elec       q    Type
REMARK                         _______ _______ _______ _____ _____    ______ ____
ROOT
ATOM      1  F   UNL     1      35.035 -19.874 -23.602  0.00  0.00    -0.204 F 
ATOM      2  C   UNL     1      34.475 -16.317 -23.310  0.00  0.00    -0.010 C 
ATOM      3  C   UNL     1      34.536 -18.550 -21.689  0.00  0.00    +0.027 C 
ATOM      4  C   UNL     1      34.744 -17.546 -23.877  0.00  0.00    +0.026 C 
ATOM      5  C   UNL     1      34.236 -16.168 -21.959  0.00  0.00    -0.004 C 
ATOM      6  C   UNL     1      34.775 -18.675 -23.057  0.00  0.00    +0.140 C 
ATOM      7  C   UNL     1      34.267 -17.297 -21.139  0.00  0.00    +0.002 C 
ENDROOT
BRANCH   3   8
ATOM      8  C   UNL     1      34.568 -19.718 -20.835  0.00  0.00    +0.002 C 
ATOM      9  C   UNL     1      33.376 -20.299 -20.404  0.00  0.00    +0.000 C 
ATOM     10  C   UNL     1      35.791 -20.263 -20.443  0.00  0.00    +0.000 C 
ATOM     11  C   UNL     1      33.406 -21.425 -19.581  0.00  0.00    +0.000 C 
ATOM     12  C   UNL     1      35.821 -21.389 -19.621  0.00  0.00    +0.000 C 
ATOM     13  C   UNL     1      34.629 -21.970 -19.190  0.00  0.00    +0.000 C 
ENDBRANCH   3   8
BRANCH   2  14
ATOM     14  C   UNL     1      34.441 -15.087 -24.203  0.00  0.00    +0.121 C 
ATOM     15  C   UNL     1      33.934 -13.845 -23.465  0.00  0.00    +0.016 C 
BRANCH  14  17
ATOM     16  O   UNL     1      33.637 -16.349 -26.134  0.00  0.00    -0.250 OA
ATOM     17  C   UNL     1      33.622 -15.323 -25.465  0.00  0.00    +0.321 C 
BRANCH  17  18
ATOM     18  O   UNL     1      32.847 -14.226 -25.719  0.00  0.00    -0.444 OA
ATOM     19  C   UNL     1      33.160 -13.511 -26.918  0.00  0.00    +0.256 C 
ENDBRANCH  17  18
ENDBRANCH  14  17
ENDBRANCH   2  14
TORSDOF 4
ENDMDL
MODEL 3
REMARK VINA RESULT:      -9.9      4.420      8.098
REMARK  Name = 446134
REMARK  4 active torsions:
REMARK  status: ('A' for Active; 'I' for Inactive)
REMARK    1  A    between atoms: C_2  and  C_14
REMARK    2  A    between atoms: C_3  and  C_8
REMARK    3  A    between atoms: C_14  and  C_17
REMARK    4  A    between atoms: C_17  and  O_18
REMARK                            x       y       z     vdW  Elec       q    Type
REMARK                         _______ _______ _______ _____ _____    ______ ____
ROOT
ATOM      1  F   UNL     1      36.818 -20.370 -20.481  0.00  0.00    -0.204 F 
ATOM      2  C   UNL     1      34.062 -22.008 -18.815  0.00  0.00    -0.010 C 
ATOM      3  C   UNL     1      34.474 -20.020 -20.686  0.00  0.00    +0.027 C 
ATOM      4  C   UNL     1      35.356 -21.689 -19.178  0.00  0.00    +0.026 C 
ATOM      5  C   UNL     1      32.968 -21.364 -19.358  0.00  0.00    -0.004 C 
ATOM      6  C   UNL     1      35.563 -20.685 -20.124  0.00  0.00    +0.140 C 
ATOM      7  C   UNL     1      33.176 -20.360 -20.303  0.00  0.00    +0.002 C 
ENDROOT
BRANCH   3   8
ATOM      8  C   UNL     1      34.684 -18.978 -21.668  0.00  0.00    +0.002 C 
ATOM      9  C   UNL     1      34.782 -17.648 -21.263  0.00  0.00    +0.000 C 
ATOM     10  C   UNL     1      34.791 -19.305 -23.020  0.00  0.00    +0.000 C 
ATOM     11  C   UNL     1      34.985 -16.644 -22.209  0.00  0.00    +0.000 C 
ATOM     12  C   UNL     1      34.994 -18.301 -23.967  0.00  0.00    +0.000 C 
ATOM     13  C   UNL     1      35.092 -16.970 -23.561  0.00  0.00    +0.000 C 
ENDBRANCH   3   8
BRANCH   2  14
ATOM     14  C   UNL     1      33.836 -23.102 -17.784  0.00  0.00    +0.121 C 
ATOM     15  C   UNL     1      32.401 -23.111 -17.250  0.00  0.00    +0.016 C 
BRANCH  14  17
ATOM     16  O   UNL     1      36.046 -22.962 -16.753  0.00  0.00    -0.250 OA
ATOM     17  C   UNL     1      34.828 -23.012 -16.632  0.00  0.00    +0.321 C 
BRANCH  17  18
ATOM     18  O   UNL     1      34.149 -22.967 -15.447  0.00  0.00    -0.444 OA
ATOM     19  C   UNL     1      34.790 -23.612 -14.342  0.00  0.00    +0.256 C 
ENDBRANCH  17  18
ENDBRANCH  14  17
ENDBRANCH   2  14
TORSDOF 4
ENDMDL
MODEL 4
REMARK VINA RESULT:      -9.9      3.837      7.586
REMARK  Name = 446134
REMARK  4 active torsions:
REMARK  status: ('A' for Active; 'I' for Inactive)
REMARK    1  A    between atoms: C_2  and  C_14
REMARK    2  A    between atoms: C_3  and  C_8
REMARK    3  A    between atoms: C_14  and  C_17
REMARK    4  A    between atoms: C_17  and  O_18
REMARK                            x       y       z     vdW  Elec       q    Type
REMARK                         _______ _______ _______ _____ _____    ______ ____
ROOT
ATOM      1  F   UNL     1      37.219 -18.648 -21.552  0.00  0.00    -0.204 F 
ATOM      2  C   UNL     1      35.037 -20.971 -19.852  0.00  0.00    -0.010 C 
ATOM      3  C   UNL     1      34.844 -18.739 -21.464  0.00  0.00    +0.027 C 
ATOM      4  C   UNL     1      36.195 -20.368 -20.299  0.00  0.00    +0.026 C 
ATOM      5  C   UNL     1      33.785 -20.494 -20.185  0.00  0.00    -0.004 C 
ATOM      6  C   UNL     1      36.097 -19.240 -21.114  0.00  0.00    +0.140 C 
ATOM      7  C   UNL     1      33.687 -19.366 -21.000  0.00  0.00    +0.002 C 
ENDROOT
BRANCH   3   8
ATOM      8  C   UNL     1      34.737 -17.570 -22.310  0.00  0.00    +0.002 C 
ATOM      9  C   UNL     1      34.548 -16.311 -21.740  0.00  0.00    +0.000 C 
ATOM     10  C   UNL     1      34.825 -17.701 -23.696  0.00  0.00    +0.000 C 
ATOM     11  C   UNL     1      34.446 -15.184 -22.555  0.00  0.00    +0.000 C 
ATOM     12  C   UNL     1      34.723 -16.573 -24.511  0.00  0.00    +0.000 C 
ATOM     13  C   UNL     1      34.533 -15.315 -23.941  0.00  0.00    +0.000 C 
ENDBRANCH   3   8
BRANCH   2  14
ATOM     14  C   UNL     1      35.144 -22.200 -18.963  0.00  0.00    +0.121 C 
ATOM     15  C   UNL     1      33.776 -22.694 -18.485  0.00  0.00    +0.016 C 
BRANCH  14  17
ATOM     16  O   UNL     1      36.880 -21.054 -17.683  0.00  0.00    -0.250 OA
ATOM     17  C   UNL     1      36.066 -21.964 -17.774  0.00  0.00    +0.321 C 
BRANCH  17  18
ATOM     18  O   UNL     1      35.824 -22.906 -16.814  0.00  0.00    -0.444 OA
ATOM     19  C   UNL     1      36.695 -22.870 -15.679  0.00  0.00    +0.256 C 
ENDBRANCH  17  18
ENDBRANCH  14  17
ENDBRANCH   2  14
TORSDOF 4
ENDMDL
MODEL 5
REMARK VINA RESULT:      -9.9      4.451      8.138
REMARK  Name = 446134
REMARK  4 active torsions:
REMARK  status: ('A' for Active; 'I' for Inactive)
REMARK    1  A    between atoms: C_2  and  C_14
REMARK    2  A    between atoms: C_3  and  C_8
REMARK    3  A    between atoms: C_14  and  C_17
REMARK    4  A    between atoms: C_17  and  O_18
REMARK                            x       y       z     vdW  Elec       q    Type
REMARK                         _______ _______ _______ _____ _____    ______ ____
ROOT
ATOM      1  F   UNL     1      32.230 -19.774 -20.763  0.00  0.00    -0.204 F 
ATOM      2  C   UNL     1      34.266 -22.024 -18.803  0.00  0.00    -0.010 C 
ATOM      3  C   UNL     1      34.593 -20.041 -20.695  0.00  0.00    +0.027 C 
ATOM      4  C   UNL     1      33.147 -21.394 -19.310  0.00  0.00    +0.026 C 
ATOM      5  C   UNL     1      35.543 -21.695 -19.212  0.00  0.00    -0.004 C 
ATOM      6  C   UNL     1      33.313 -20.391 -20.265  0.00  0.00    +0.140 C 
ATOM      7  C   UNL     1      35.708 -20.693 -20.168  0.00  0.00    +0.002 C 
ENDROOT
BRANCH   3   8
ATOM      8  C   UNL     1      34.769 -19.001 -21.686  0.00  0.00    +0.002 C 
ATOM      9  C   UNL     1      34.856 -17.667 -21.288  0.00  0.00    +0.000 C 
ATOM     10  C   UNL     1      34.853 -19.332 -23.038  0.00  0.00    +0.000 C 
ATOM     11  C   UNL     1      35.027 -16.665 -22.242  0.00  0.00    +0.000 C 
ATOM     12  C   UNL     1      35.024 -18.329 -23.992  0.00  0.00    +0.000 C 
ATOM     13  C   UNL     1      35.111 -16.996 -23.595  0.00  0.00    +0.000 C 
ENDBRANCH   3   8
BRANCH   2  14
ATOM     14  C   UNL     1      34.085 -23.117 -17.761  0.00  0.00    +0.121 C 
ATOM     15  C   UNL     1      32.642 -23.212 -17.260  0.00  0.00    +0.016 C 
BRANCH  14  17
ATOM     16  O   UNL     1      36.261 -22.868 -16.678  0.00  0.00    -0.250 OA
ATOM     17  C   UNL     1      35.041 -22.948 -16.588  0.00  0.00    +0.321 C 
BRANCH  17  18
ATOM     18  O   UNL     1      34.328 -22.870 -15.424  0.00  0.00    -0.444 OA
ATOM     19  C   UNL     1      34.839 -23.643 -14.333  0.00  0.00    +0.256 C 
ENDBRANCH  17  18
ENDBRANCH  14  17
ENDBRANCH   2  14
TORSDOF 4
ENDMDL
MODEL 6
REMARK VINA RESULT:      -9.8      3.782      7.319
REMARK  Name = 446134
REMARK  4 active torsions:
REMARK  status: ('A' for Active; 'I' for Inactive)
REMARK    1  A    between atoms: C_2  and  C_14
REMARK    2  A    between atoms: C_3  and  C_8
REMARK    3  A    between atoms: C_14  and  C_17
REMARK    4  A    between atoms: C_17  and  O_18
REMARK                            x       y       z     vdW  Elec       q    Type
REMARK                         _______ _______ _______ _____ _____    ______ ____
ROOT
ATOM      1  F   UNL     1      37.014 -18.856 -21.693  0.00  0.00    -0.204 F 
ATOM      2  C   UNL     1      34.649 -20.775 -19.750  0.00  0.00    -0.010 C 
ATOM      3  C   UNL     1      34.647 -19.011 -21.873  0.00  0.00    +0.027 C 
ATOM      4  C   UNL     1      35.851 -20.256 -20.189  0.00  0.00    +0.026 C 
ATOM      5  C   UNL     1      33.447 -20.440 -20.340  0.00  0.00    -0.004 C 
ATOM      6  C   UNL     1      35.850 -19.365 -21.262  0.00  0.00    +0.140 C 
ATOM      7  C   UNL     1      33.445 -19.549 -21.413  0.00  0.00    +0.002 C 
ENDROOT
BRANCH   3   8
ATOM      8  C   UNL     1      34.641 -18.087 -22.988  0.00  0.00    +0.002 C 
ATOM      9  C   UNL     1      34.601 -18.573 -24.295  0.00  0.00    +0.000 C 
ATOM     10  C   UNL     1      34.675 -16.713 -22.756  0.00  0.00    +0.000 C 
ATOM     11  C   UNL     1      34.595 -17.683 -25.369  0.00  0.00    +0.000 C 
ATOM     12  C   UNL     1      34.669 -15.823 -23.830  0.00  0.00    +0.000 C 
ATOM     13  C   UNL     1      34.628 -16.308 -25.137  0.00  0.00    +0.000 C 
ENDBRANCH   3   8
BRANCH   2  14
ATOM     14  C   UNL     1      34.651 -21.746 -18.580  0.00  0.00    +0.121 C 
ATOM     15  C   UNL     1      36.065 -22.181 -18.186  0.00  0.00    +0.016 C 
BRANCH  14  17
ATOM     16  O   UNL     1      34.087 -23.904 -19.577  0.00  0.00    -0.250 OA
ATOM     17  C   UNL     1      33.780 -22.965 -18.852  0.00  0.00    +0.321 C 
BRANCH  17  18
ATOM     18  O   UNL     1      32.617 -22.864 -18.142  0.00  0.00    -0.444 OA
ATOM     19  C   UNL     1      32.685 -23.295 -16.778  0.00  0.00    +0.256 C 
ENDBRANCH  17  18
ENDBRANCH  14  17
ENDBRANCH   2  14
TORSDOF 4
ENDMDL
MODEL 7
REMARK VINA RESULT:      -9.4      1.245      2.004
REMARK  Name = 446134
REMARK  4 active torsions:
REMARK  status: ('A' for Active; 'I' for Inactive)
REMARK    1  A    between atoms: C_2  and  C_14
REMARK    2  A    between atoms: C_3  and  C_8
REMARK    3  A    between atoms: C_14  and  C_17
REMARK    4  A    between atoms: C_17  and  O_18
REMARK                            x       y       z     vdW  Elec       q    Type
REMARK                         _______ _______ _______ _____ _____    ______ ____
ROOT
ATOM      1  F   UNL     1      34.876 -16.674 -20.168  0.00  0.00    -0.204 F 
ATOM      2  C   UNL     1      34.502 -16.029 -23.703  0.00  0.00    -0.010 C 
ATOM      3  C   UNL     1      34.902 -18.175 -22.013  0.00  0.00    +0.027 C 
ATOM      4  C   UNL     1      34.589 -15.803 -22.344  0.00  0.00    +0.026 C 
ATOM      5  C   UNL     1      34.609 -17.295 -24.244  0.00  0.00    -0.004 C 
ATOM      6  C   UNL     1      34.790 -16.887 -21.490  0.00  0.00    +0.140 C 
ATOM      7  C   UNL     1      34.811 -18.380 -23.390  0.00  0.00    +0.002 C 
ENDROOT
BRANCH   3   8
ATOM      8  C   UNL     1      35.111 -19.304 -21.131  0.00  0.00    +0.002 C 
ATOM      9  C   UNL     1      34.019 -20.038 -20.670  0.00  0.00    +0.000 C 
ATOM     10  C   UNL     1      36.403 -19.657 -20.743  0.00  0.00    +0.000 C 
ATOM     11  C   UNL     1      34.219 -21.126 -19.820  0.00  0.00    +0.000 C 
ATOM     12  C   UNL     1      36.603 -20.745 -19.893  0.00  0.00    +0.000 C 
ATOM     13  C   UNL     1      35.511 -21.480 -19.432  0.00  0.00    +0.000 C 
ENDBRANCH   3   8
BRANCH   2  14
ATOM     14  C   UNL     1      34.283 -14.847 -24.633  0.00  0.00    +0.121 C 
ATOM     15  C   UNL     1      33.769 -13.610 -23.892  0.00  0.00    +0.016 C 
BRANCH  14  17
ATOM     16  O   UNL     1      33.191 -16.320 -26.248  0.00  0.00    -0.250 OA
ATOM     17  C   UNL     1      33.351 -15.196 -25.786  0.00  0.00    +0.321 C 
BRANCH  17  18
ATOM     18  O   UNL     1      32.701 -14.070 -26.206  0.00  0.00    -0.444 OA
ATOM     19  C   UNL     1      33.313 -13.373 -27.296  0.00  0.00    +0.256 C 
ENDBRANCH  17  18
ENDBRANCH  14  17
ENDBRANCH   2  14
TORSDOF 4
ENDMDL
MODEL 8
REMARK VINA RESULT:      -9.2      2.923      7.033
REMARK  Name = 446134
REMARK  4 active torsions:
REMARK  status: ('A' for Active; 'I' for Inactive)
REMARK    1  A    between atoms: C_2  and  C_14
REMARK    2  A    between atoms: C_3  and  C_8
REMARK    3  A    between atoms: C_14  and  C_17
REMARK    4  A    between atoms: C_17  and  O_18
REMARK                            x       y       z     vdW  Elec       q    Type
REMARK                         _______ _______ _______ _____ _____    ______ ____
ROOT
ATOM      1  F   UNL     1      33.152 -14.723 -25.223  0.00  0.00    -0.204 F 
ATOM      2  C   UNL     1      34.791 -16.951 -22.898  0.00  0.00    -0.010 C 
ATOM      3  C   UNL     1      33.773 -14.385 -22.951  0.00  0.00    +0.027 C 
ATOM      4  C   UNL     1      34.221 -16.482 -24.065  0.00  0.00    +0.026 C 
ATOM      5  C   UNL     1      34.868 -16.178 -21.757  0.00  0.00    -0.004 C 
ATOM      6  C   UNL     1      33.707 -15.186 -24.092  0.00  0.00    +0.140 C 
ATOM      7  C   UNL     1      34.353 -14.881 -21.784  0.00  0.00    +0.002 C 
ENDROOT
BRANCH   3   8
ATOM      8  C   UNL     1      33.240 -13.040 -22.974  0.00  0.00    +0.002 C 
ATOM      9  C   UNL     1      32.172 -12.700 -22.145  0.00  0.00    +0.000 C 
ATOM     10  C   UNL     1      33.795 -12.083 -23.824  0.00  0.00    +0.000 C 
ATOM     11  C   UNL     1      31.658 -11.403 -22.166  0.00  0.00    +0.000 C 
ATOM     12  C   UNL     1      33.281 -10.787 -23.845  0.00  0.00    +0.000 C 
ATOM     13  C   UNL     1      32.212 -10.447 -23.016  0.00  0.00    +0.000 C 
ENDBRANCH   3   8
BRANCH   2  14
ATOM     14  C   UNL     1      35.352 -18.364 -22.869  0.00  0.00    +0.121 C 
ATOM     15  C   UNL     1      34.901 -19.194 -24.075  0.00  0.00    +0.016 C 
BRANCH  14  17
ATOM     16  O   UNL     1      35.752 -19.188 -20.605  0.00  0.00    -0.250 OA
ATOM     17  C   UNL     1      35.009 -19.085 -21.573  0.00  0.00    +0.321 C 
BRANCH  17  18
ATOM     18  O   UNL     1      33.735 -19.575 -21.646  0.00  0.00    -0.444 OA
ATOM     19  C   UNL     1      33.265 -20.252 -20.476  0.00  0.00    +0.256 C 
ENDBRANCH  17  18
ENDBRANCH  14  17
ENDBRANCH   2  14
TORSDOF 4
ENDMDL
MODEL 9
REMARK VINA RESULT:      -9.1      3.520      6.951
REMARK  Name = 446134
REMARK  4 active torsions:
REMARK  status: ('A' for Active; 'I' for Inactive)
REMARK    1  A    between atoms: C_2  and  C_14
REMARK    2  A    between atoms: C_3  and  C_8
REMARK    3  A    between atoms: C_14  and  C_17
REMARK    4  A    between atoms: C_17  and  O_18
REMARK                            x       y       z     vdW  Elec       q    Type
REMARK                         _______ _______ _______ _____ _____    ______ ____
ROOT
ATOM      1  F   UNL     1      32.335 -15.280 -19.696  0.00  0.00    -0.204 F 
ATOM      2  C   UNL     1      34.596 -16.410 -22.278  0.00  0.00    -0.010 C 
ATOM      3  C   UNL     1      33.139 -14.156 -21.633  0.00  0.00    +0.027 C 
ATOM      4  C   UNL     1      33.824 -16.418 -21.133  0.00  0.00    +0.026 C 
ATOM      5  C   UNL     1      34.662 -15.311 -23.110  0.00  0.00    -0.004 C 
ATOM      6  C   UNL     1      33.088 -15.279 -20.807  0.00  0.00    +0.140 C 
ATOM      7  C   UNL     1      33.926 -14.172 -22.785  0.00  0.00    +0.002 C 
ENDROOT
BRANCH   3   8
ATOM      8  C   UNL     1      32.378 -12.971 -21.299  0.00  0.00    +0.002 C 
ATOM      9  C   UNL     1      32.242 -12.584 -19.966  0.00  0.00    +0.000 C 
ATOM     10  C   UNL     1      31.781 -12.217 -22.308  0.00  0.00    +0.000 C 
ATOM     11  C   UNL     1      31.509 -11.442 -19.643  0.00  0.00    +0.000 C 
ATOM     12  C   UNL     1      31.048 -11.075 -21.985  0.00  0.00    +0.000 C 
ATOM     13  C   UNL     1      30.912 -10.687 -20.653  0.00  0.00    +0.000 C 
ENDBRANCH   3   8
BRANCH   2  14
ATOM     14  C   UNL     1      35.397 -17.652 -22.633  0.00  0.00    +0.121 C 
ATOM     15  C   UNL     1      34.976 -18.253 -23.977  0.00  0.00    +0.016 C 
BRANCH  14  17
ATOM     16  O   UNL     1      36.046 -18.746 -20.547  0.00  0.00    -0.250 OA
ATOM     17  C   UNL     1      35.326 -18.708 -21.538  0.00  0.00    +0.321 C 
BRANCH  17  18
ATOM     18  O   UNL     1      34.318 -19.588 -21.815  0.00  0.00    -0.444 OA
ATOM     19  C   UNL     1      33.617 -20.104 -20.679  0.00  0.00    +0.256 C 
ENDBRANCH  17  18
ENDBRANCH  14  17
ENDBRANCH   2  14
TORSDOF 4
ENDMDL
