MODEL 1
REMARK VINA RESULT:      -6.6      0.000      0.000
REMARK  Name = 9882105
REMARK  9 active torsions:
REMARK  status: ('A' for Active; 'I' for Inactive)
REMARK    1  A    between atoms: C_1  and  O_2
REMARK    2  A    between atoms: C_1  and  C_4
REMARK    3  A    between atoms: C_1  and  C_13
REMARK    4  A    between atoms: C_4  and  O_5
REMARK    5  A    between atoms: C_4  and  C_7
REMARK    6  A    between atoms: C_7  and  O_8
REMARK    7  A    between atoms: O_8  and  S_9
REMARK    8  A    between atoms: C_13  and  O_14
REMARK    9  A    between atoms: O_14  and  S_15
REMARK                            x       y       z     vdW  Elec       q    Type
REMARK                         _______ _______ _______ _____ _____    ______ ____
ROOT
ATOM      1  C   UNL     1      36.400 -22.857 -15.709  0.00  0.00    +0.172 C 
ENDROOT
BRANCH   1   2
ATOM      2  O   UNL     1      37.723 -23.351 -15.929  0.00  0.00    -0.379 OA
ATOM      3  H   UNL     1      37.920 -24.047 -15.284  0.00  0.00    +0.211 HD
ENDBRANCH   1   2
BRANCH   1   4
ATOM      4  C   UNL     1      35.517 -23.953 -15.096  0.00  0.00    +0.172 C 
BRANCH   4   5
ATOM      5  O   UNL     1      35.940 -25.226 -15.588  0.00  0.00    -0.379 OA
ATOM      6  H   UNL     1      36.821 -25.144 -15.984  0.00  0.00    +0.211 HD
ENDBRANCH   4   5
BRANCH   4   7
ATOM      7  C   UNL     1      35.577 -23.979 -13.570  0.00  0.00    +0.204 C 
BRANCH   7   8
ATOM      8  O   UNL     1      36.685 -23.195 -13.141  0.00  0.00    -0.239 OA
BRANCH   8   9
ATOM      9  S   UNL     1      37.635 -23.772 -11.946  0.00  0.00    -0.005 S 
ATOM     10  O   UNL     1      36.804 -24.318 -10.892  0.00  0.00    -0.072 OA
ATOM     11  O   UNL     1      38.696 -22.823 -11.673  0.00  0.00    -0.072 OA
ATOM     12  C   UNL     1      38.324 -25.124 -12.865  0.00  0.00    +0.181 C 
ENDBRANCH   8   9
ENDBRANCH   7   8
ENDBRANCH   4   7
ENDBRANCH   1   4
BRANCH   1  13
ATOM     13  C   UNL     1      35.862 -22.371 -17.053  0.00  0.00    +0.204 C 
BRANCH  13  14
ATOM     14  O   UNL     1      34.651 -23.062 -17.341  0.00  0.00    -0.239 OA
BRANCH  14  15
ATOM     15  S   UNL     1      33.921 -22.794 -18.775  0.00  0.00    -0.005 S 
ATOM     16  O   UNL     1      32.649 -22.137 -18.554  0.00  0.00    -0.072 OA
ATOM     17  O   UNL     1      34.041 -23.975 -19.606  0.00  0.00    -0.072 OA
ATOM     18  C   UNL     1      35.074 -21.581 -19.368  0.00  0.00    +0.181 C 
ENDBRANCH  14  15
ENDBRANCH  13  14
ENDBRANCH   1  13
TORSDOF 9
ENDMDL
MODEL 2
REMARK VINA RESULT:      -6.5      3.724      7.375
REMARK  Name = 9882105
REMARK  9 active torsions:
REMARK  status: ('A' for Active; 'I' for Inactive)
REMARK    1  A    between atoms: C_1  and  O_2
REMARK    2  A    between atoms: C_1  and  C_4
REMARK    3  A    between atoms: C_1  and  C_13
REMARK    4  A    between atoms: C_4  and  O_5
REMARK    5  A    between atoms: C_4  and  C_7
REMARK    6  A    between atoms: C_7  and  O_8
REMARK    7  A    between atoms: O_8  and  S_9
REMARK    8  A    between atoms: C_13  and  O_14
REMARK    9  A    between atoms: O_14  and  S_15
REMARK                            x       y       z     vdW  Elec       q    Type
REMARK                         _______ _______ _______ _____ _____    ______ ____
ROOT
ATOM      1  C   UNL     1      33.488 -24.019 -14.415  0.00  0.00    +0.172 C 
ENDROOT
BRANCH   1   2
ATOM      2  O   UNL     1      33.705 -22.678 -14.859  0.00  0.00    -0.379 OA
ATOM      3  H   UNL     1      34.624 -22.424 -14.683  0.00  0.00    +0.211 HD
ENDBRANCH   1   2
BRANCH   1   4
ATOM      4  C   UNL     1      32.241 -24.091 -13.523  0.00  0.00    +0.172 C 
BRANCH   4   5
ATOM      5  O   UNL     1      32.188 -22.926 -12.696  0.00  0.00    -0.379 OA
ATOM      6  H   UNL     1      31.424 -22.986 -12.102  0.00  0.00    +0.211 HD
ENDBRANCH   4   5
BRANCH   4   7
ATOM      7  C   UNL     1      30.943 -24.176 -14.323  0.00  0.00    +0.204 C 
BRANCH   7   8
ATOM      8  O   UNL     1      30.610 -22.875 -14.795  0.00  0.00    -0.239 OA
BRANCH   8   9
ATOM      9  S   UNL     1      29.359 -22.717 -15.831  0.00  0.00    -0.005 S 
ATOM     10  O   UNL     1      29.865 -22.424 -17.157  0.00  0.00    -0.072 OA
ATOM     11  O   UNL     1      28.319 -21.920 -15.213  0.00  0.00    -0.072 OA
ATOM     12  C   UNL     1      28.848 -24.416 -15.797  0.00  0.00    +0.181 C 
ENDBRANCH   8   9
ENDBRANCH   7   8
ENDBRANCH   4   7
ENDBRANCH   1   4
BRANCH   1  13
ATOM     13  C   UNL     1      34.748 -24.468 -13.678  0.00  0.00    +0.204 C 
BRANCH  13  14
ATOM     14  O   UNL     1      34.552 -24.289 -12.280  0.00  0.00    -0.239 OA
BRANCH  14  15
ATOM     15  S   UNL     1      35.796 -24.599 -11.271  0.00  0.00    -0.005 S 
ATOM     16  O   UNL     1      36.524 -25.758 -11.744  0.00  0.00    -0.072 OA
ATOM     17  O   UNL     1      35.345 -24.483  -9.899  0.00  0.00    -0.072 OA
ATOM     18  C   UNL     1      36.745 -23.151 -11.665  0.00  0.00    +0.181 C 
ENDBRANCH  14  15
ENDBRANCH  13  14
ENDBRANCH   1  13
TORSDOF 9
ENDMDL
MODEL 3
REMARK VINA RESULT:      -6.5      3.688      4.519
REMARK  Name = 9882105
REMARK  9 active torsions:
REMARK  status: ('A' for Active; 'I' for Inactive)
REMARK    1  A    between atoms: C_1  and  O_2
REMARK    2  A    between atoms: C_1  and  C_4
REMARK    3  A    between atoms: C_1  and  C_13
REMARK    4  A    between atoms: C_4  and  O_5
REMARK    5  A    between atoms: C_4  and  C_7
REMARK    6  A    between atoms: C_7  and  O_8
REMARK    7  A    between atoms: O_8  and  S_9
REMARK    8  A    between atoms: C_13  and  O_14
REMARK    9  A    between atoms: O_14  and  S_15
REMARK                            x       y       z     vdW  Elec       q    Type
REMARK                         _______ _______ _______ _____ _____    ______ ____
ROOT
ATOM      1  C   UNL     1      32.206 -24.275 -13.525  0.00  0.00    +0.172 C 
ENDROOT
BRANCH   1   2
ATOM      2  O   UNL     1      32.079 -23.043 -12.814  0.00  0.00    -0.379 OA
ATOM      3  H   UNL     1      31.227 -23.022 -12.350  0.00  0.00    +0.211 HD
ENDBRANCH   1   2
BRANCH   1   4
ATOM      4  C   UNL     1      33.444 -24.243 -14.431  0.00  0.00    +0.172 C 
BRANCH   4   5
ATOM      5  O   UNL     1      33.285 -23.211 -15.407  0.00  0.00    -0.379 OA
ATOM      6  H   UNL     1      33.735 -22.407 -15.103  0.00  0.00    +0.211 HD
ENDBRANCH   4   5
BRANCH   4   7
ATOM      7  C   UNL     1      34.737 -23.986 -13.661  0.00  0.00    +0.204 C 
BRANCH   7   8
ATOM      8  O   UNL     1      34.517 -24.280 -12.286  0.00  0.00    -0.239 OA
BRANCH   8   9
ATOM      9  S   UNL     1      35.808 -24.586 -11.336  0.00  0.00    -0.005 S 
ATOM     10  O   UNL     1      36.502 -25.759 -11.828  0.00  0.00    -0.072 OA
ATOM     11  O   UNL     1      35.426 -24.448  -9.944  0.00  0.00    -0.072 OA
ATOM     12  C   UNL     1      36.746 -23.153 -11.797  0.00  0.00    +0.181 C 
ENDBRANCH   8   9
ENDBRANCH   7   8
ENDBRANCH   4   7
ENDBRANCH   1   4
BRANCH   1  13
ATOM     13  C   UNL     1      30.918 -24.481 -14.320  0.00  0.00    +0.204 C 
BRANCH  13  14
ATOM     14  O   UNL     1      30.261 -23.226 -14.467  0.00  0.00    -0.239 OA
BRANCH  14  15
ATOM     15  S   UNL     1      29.559 -22.875 -15.897  0.00  0.00    -0.005 S 
ATOM     16  O   UNL     1      30.584 -22.638 -16.893  0.00  0.00    -0.072 OA
ATOM     17  O   UNL     1      28.467 -21.947 -15.683  0.00  0.00    -0.072 OA
ATOM     18  C   UNL     1      28.869 -24.485 -16.187  0.00  0.00    +0.181 C 
ENDBRANCH  14  15
ENDBRANCH  13  14
ENDBRANCH   1  13
TORSDOF 9
ENDMDL
MODEL 4
REMARK VINA RESULT:      -6.5      2.484      3.416
REMARK  Name = 9882105
REMARK  9 active torsions:
REMARK  status: ('A' for Active; 'I' for Inactive)
REMARK    1  A    between atoms: C_1  and  O_2
REMARK    2  A    between atoms: C_1  and  C_4
REMARK    3  A    between atoms: C_1  and  C_13
REMARK    4  A    between atoms: C_4  and  O_5
REMARK    5  A    between atoms: C_4  and  C_7
REMARK    6  A    between atoms: C_7  and  O_8
REMARK    7  A    between atoms: O_8  and  S_9
REMARK    8  A    between atoms: C_13  and  O_14
REMARK    9  A    between atoms: O_14  and  S_15
REMARK                            x       y       z     vdW  Elec       q    Type
REMARK                         _______ _______ _______ _____ _____    ______ ____
ROOT
ATOM      1  C   UNL     1      37.106 -26.180 -15.012  0.00  0.00    +0.172 C 
ENDROOT
BRANCH   1   2
ATOM      2  O   UNL     1      35.950 -27.017 -15.068  0.00  0.00    -0.379 OA
ATOM      3  H   UNL     1      36.204 -27.933 -14.876  0.00  0.00    +0.211 HD
ENDBRANCH   1   2
BRANCH   1   4
ATOM      4  C   UNL     1      37.894 -26.443 -13.721  0.00  0.00    +0.172 C 
BRANCH   4   5
ATOM      5  O   UNL     1      39.282 -26.568 -14.036  0.00  0.00    -0.379 OA
ATOM      6  H   UNL     1      39.393 -27.202 -14.762  0.00  0.00    +0.211 HD
ENDBRANCH   4   5
BRANCH   4   7
ATOM      7  C   UNL     1      37.730 -25.330 -12.688  0.00  0.00    +0.204 C 
BRANCH   7   8
ATOM      8  O   UNL     1      36.656 -25.668 -11.817  0.00  0.00    -0.239 OA
BRANCH   8   9
ATOM      9  S   UNL     1      35.652 -24.483 -11.318  0.00  0.00    -0.005 S 
ATOM     10  O   UNL     1      35.494 -24.559  -9.880  0.00  0.00    -0.072 OA
ATOM     11  O   UNL     1      34.515 -24.406 -12.213  0.00  0.00    -0.072 OA
ATOM     12  C   UNL     1      36.737 -23.128 -11.685  0.00  0.00    +0.181 C 
ENDBRANCH   8   9
ENDBRANCH   7   8
ENDBRANCH   4   7
ENDBRANCH   1   4
BRANCH   1  13
ATOM     13  C   UNL     1      36.629 -24.732 -15.108  0.00  0.00    +0.204 C 
BRANCH  13  14
ATOM     14  O   UNL     1      35.341 -24.711 -15.717  0.00  0.00    -0.239 OA
BRANCH  14  15
ATOM     15  S   UNL     1      34.662 -23.267 -16.056  0.00  0.00    -0.005 S 
ATOM     16  O   UNL     1      34.475 -23.146 -17.487  0.00  0.00    -0.072 OA
ATOM     17  O   UNL     1      35.311 -22.233 -15.276  0.00  0.00    -0.072 OA
ATOM     18  C   UNL     1      33.083 -23.606 -15.320  0.00  0.00    +0.181 C 
ENDBRANCH  14  15
ENDBRANCH  13  14
ENDBRANCH   1  13
TORSDOF 9
ENDMDL
MODEL 5
REMARK VINA RESULT:      -6.5      1.192      6.380
REMARK  Name = 9882105
REMARK  9 active torsions:
REMARK  status: ('A' for Active; 'I' for Inactive)
REMARK    1  A    between atoms: C_1  and  O_2
REMARK    2  A    between atoms: C_1  and  C_4
REMARK    3  A    between atoms: C_1  and  C_13
REMARK    4  A    between atoms: C_4  and  O_5
REMARK    5  A    between atoms: C_4  and  C_7
REMARK    6  A    between atoms: C_7  and  O_8
REMARK    7  A    between atoms: O_8  and  S_9
REMARK    8  A    between atoms: C_13  and  O_14
REMARK    9  A    between atoms: O_14  and  S_15
REMARK                            x       y       z     vdW  Elec       q    Type
REMARK                         _______ _______ _______ _____ _____    ______ ____
ROOT
ATOM      1  C   UNL     1      35.838 -24.706 -15.455  0.00  0.00    +0.172 C 
ENDROOT
BRANCH   1   2
ATOM      2  O   UNL     1      36.951 -23.899 -15.845  0.00  0.00    -0.379 OA
ATOM      3  H   UNL     1      36.635 -23.032 -16.141  0.00  0.00    +0.211 HD
ENDBRANCH   1   2
BRANCH   1   4
ATOM      4  C   UNL     1      34.657 -23.819 -15.038  0.00  0.00    +0.172 C 
BRANCH   4   5
ATOM      5  O   UNL     1      35.157 -22.621 -14.439  0.00  0.00    -0.379 OA
ATOM      6  H   UNL     1      35.140 -22.711 -13.474  0.00  0.00    +0.211 HD
ENDBRANCH   4   5
BRANCH   4   7
ATOM      7  C   UNL     1      33.759 -23.434 -16.212  0.00  0.00    +0.204 C 
BRANCH   7   8
ATOM      8  O   UNL     1      34.577 -23.180 -17.349  0.00  0.00    -0.239 OA
BRANCH   8   9
ATOM      9  S   UNL     1      33.853 -22.842 -18.772  0.00  0.00    -0.005 S 
ATOM     10  O   UNL     1      32.573 -22.210 -18.524  0.00  0.00    -0.072 OA
ATOM     11  O   UNL     1      33.989 -23.976 -19.664  0.00  0.00    -0.072 OA
ATOM     12  C   UNL     1      34.998 -21.589 -19.291  0.00  0.00    +0.181 C 
ENDBRANCH   8   9
ENDBRANCH   7   8
ENDBRANCH   4   7
ENDBRANCH   1   4
BRANCH   1  13
ATOM     13  C   UNL     1      36.305 -25.613 -14.318  0.00  0.00    +0.204 C 
BRANCH  13  14
ATOM     14  O   UNL     1      36.173 -24.912 -13.086  0.00  0.00    -0.239 OA
BRANCH  14  15
ATOM     15  S   UNL     1      37.510 -24.272 -12.404  0.00  0.00    -0.005 S 
ATOM     16  O   UNL     1      37.451 -24.448 -10.967  0.00  0.00    -0.072 OA
ATOM     17  O   UNL     1      37.791 -22.986 -13.009  0.00  0.00    -0.072 OA
ATOM     18  C   UNL     1      38.659 -25.456 -13.059  0.00  0.00    +0.181 C 
ENDBRANCH  14  15
ENDBRANCH  13  14
ENDBRANCH   1  13
TORSDOF 9
ENDMDL
MODEL 6
REMARK VINA RESULT:      -6.4      1.162      6.660
REMARK  Name = 9882105
REMARK  9 active torsions:
REMARK  status: ('A' for Active; 'I' for Inactive)
REMARK    1  A    between atoms: C_1  and  O_2
REMARK    2  A    between atoms: C_1  and  C_4
REMARK    3  A    between atoms: C_1  and  C_13
REMARK    4  A    between atoms: C_4  and  O_5
REMARK    5  A    between atoms: C_4  and  C_7
REMARK    6  A    between atoms: C_7  and  O_8
REMARK    7  A    between atoms: O_8  and  S_9
REMARK    8  A    between atoms: C_13  and  O_14
REMARK    9  A    between atoms: O_14  and  S_15
REMARK                            x       y       z     vdW  Elec       q    Type
REMARK                         _______ _______ _______ _____ _____    ______ ____
ROOT
ATOM      1  C   UNL     1      34.016 -23.959 -13.941  0.00  0.00    +0.172 C 
ENDROOT
BRANCH   1   2
ATOM      2  O   UNL     1      33.143 -25.086 -14.038  0.00  0.00    -0.379 OA
ATOM      3  H   UNL     1      33.167 -25.438 -14.941  0.00  0.00    +0.211 HD
ENDBRANCH   1   2
BRANCH   1   4
ATOM      4  C   UNL     1      34.803 -23.780 -15.247  0.00  0.00    +0.172 C 
BRANCH   4   5
ATOM      5  O   UNL     1      35.557 -24.966 -15.507  0.00  0.00    -0.379 OA
ATOM      6  H   UNL     1      34.956 -25.723 -15.574  0.00  0.00    +0.211 HD
ENDBRANCH   4   5
BRANCH   4   7
ATOM      7  C   UNL     1      33.903 -23.506 -16.450  0.00  0.00    +0.204 C 
BRANCH   7   8
ATOM      8  O   UNL     1      34.658 -22.817 -17.440  0.00  0.00    -0.239 OA
BRANCH   8   9
ATOM      9  S   UNL     1      34.005 -22.616 -18.922  0.00  0.00    -0.005 S 
ATOM     10  O   UNL     1      32.839 -21.762 -18.823  0.00  0.00    -0.072 OA
ATOM     11  O   UNL     1      33.966 -23.892 -19.609  0.00  0.00    -0.072 OA
ATOM     12  C   UNL     1      35.335 -21.661 -19.604  0.00  0.00    +0.181 C 
ENDBRANCH   8   9
ENDBRANCH   7   8
ENDBRANCH   4   7
ENDBRANCH   1   4
BRANCH   1  13
ATOM     13  C   UNL     1      34.935 -24.192 -12.744  0.00  0.00    +0.204 C 
BRANCH  13  14
ATOM     14  O   UNL     1      36.087 -23.366 -12.880  0.00  0.00    -0.239 OA
BRANCH  14  15
ATOM     15  S   UNL     1      37.286 -23.510 -11.783  0.00  0.00    -0.005 S 
ATOM     16  O   UNL     1      36.733 -23.956 -10.520  0.00  0.00    -0.072 OA
ATOM     17  O   UNL     1      38.164 -22.361 -11.875  0.00  0.00    -0.072 OA
ATOM     18  C   UNL     1      38.099 -24.891 -12.548  0.00  0.00    +0.181 C 
ENDBRANCH  14  15
ENDBRANCH  13  14
ENDBRANCH   1  13
TORSDOF 9
ENDMDL
MODEL 7
REMARK VINA RESULT:      -6.3      4.517      5.541
REMARK  Name = 9882105
REMARK  9 active torsions:
REMARK  status: ('A' for Active; 'I' for Inactive)
REMARK    1  A    between atoms: C_1  and  O_2
REMARK    2  A    between atoms: C_1  and  C_4
REMARK    3  A    between atoms: C_1  and  C_13
REMARK    4  A    between atoms: C_4  and  O_5
REMARK    5  A    between atoms: C_4  and  C_7
REMARK    6  A    between atoms: C_7  and  O_8
REMARK    7  A    between atoms: O_8  and  S_9
REMARK    8  A    between atoms: C_13  and  O_14
REMARK    9  A    between atoms: O_14  and  S_15
REMARK                            x       y       z     vdW  Elec       q    Type
REMARK                         _______ _______ _______ _____ _____    ______ ____
ROOT
ATOM      1  C   UNL     1      31.050 -24.951 -14.288  0.00  0.00    +0.172 C 
ENDROOT
BRANCH   1   2
ATOM      2  O   UNL     1      30.489 -24.649 -13.010  0.00  0.00    -0.379 OA
ATOM      3  H   UNL     1      29.728 -24.058 -13.121  0.00  0.00    +0.211 HD
ENDBRANCH   1   2
BRANCH   1   4
ATOM      4  C   UNL     1      31.954 -23.804 -14.759  0.00  0.00    +0.172 C 
BRANCH   4   5
ATOM      5  O   UNL     1      31.313 -22.557 -14.480  0.00  0.00    -0.379 OA
ATOM      6  H   UNL     1      30.373 -22.618 -14.710  0.00  0.00    +0.211 HD
ENDBRANCH   4   5
BRANCH   4   7
ATOM      7  C   UNL     1      33.322 -23.808 -14.079  0.00  0.00    +0.204 C 
BRANCH   7   8
ATOM      8  O   UNL     1      34.149 -24.773 -14.719  0.00  0.00    -0.239 OA
BRANCH   8   9
ATOM      9  S   UNL     1      35.607 -24.304 -15.281  0.00  0.00    -0.005 S 
ATOM     10  O   UNL     1      35.425 -23.379 -16.381  0.00  0.00    -0.072 OA
ATOM     11  O   UNL     1      36.478 -25.457 -15.384  0.00  0.00    -0.072 OA
ATOM     12  C   UNL     1      36.088 -23.373 -13.849  0.00  0.00    +0.181 C 
ENDBRANCH   8   9
ENDBRANCH   7   8
ENDBRANCH   4   7
ENDBRANCH   1   4
BRANCH   1  13
ATOM     13  C   UNL     1      29.891 -25.201 -15.251  0.00  0.00    +0.204 C 
BRANCH  13  14
ATOM     14  O   UNL     1      28.984 -24.106 -15.174  0.00  0.00    -0.239 OA
BRANCH  14  15
ATOM     15  S   UNL     1      28.508 -23.388 -16.559  0.00  0.00    -0.005 S 
ATOM     16  O   UNL     1      27.843 -24.360 -17.403  0.00  0.00    -0.072 OA
ATOM     17  O   UNL     1      29.575 -22.543 -17.055  0.00  0.00    -0.072 OA
ATOM     18  C   UNL     1      27.268 -22.346 -15.833  0.00  0.00    +0.181 C 
ENDBRANCH  14  15
ENDBRANCH  13  14
ENDBRANCH   1  13
TORSDOF 9
ENDMDL
MODEL 8
REMARK VINA RESULT:      -6.3      4.446      7.106
REMARK  Name = 9882105
REMARK  9 active torsions:
REMARK  status: ('A' for Active; 'I' for Inactive)
REMARK    1  A    between atoms: C_1  and  O_2
REMARK    2  A    between atoms: C_1  and  C_4
REMARK    3  A    between atoms: C_1  and  C_13
REMARK    4  A    between atoms: C_4  and  O_5
REMARK    5  A    between atoms: C_4  and  C_7
REMARK    6  A    between atoms: C_7  and  O_8
REMARK    7  A    between atoms: O_8  and  S_9
REMARK    8  A    between atoms: C_13  and  O_14
REMARK    9  A    between atoms: O_14  and  S_15
REMARK                            x       y       z     vdW  Elec       q    Type
REMARK                         _______ _______ _______ _____ _____    ______ ____
ROOT
ATOM      1  C   UNL     1      31.908 -23.441 -14.261  0.00  0.00    +0.172 C 
ENDROOT
BRANCH   1   2
ATOM      2  O   UNL     1      32.032 -22.926 -12.934  0.00  0.00    -0.379 OA
ATOM      3  H   UNL     1      32.293 -23.640 -12.332  0.00  0.00    +0.211 HD
ENDBRANCH   1   2
BRANCH   1   4
ATOM      4  C   UNL     1      31.321 -24.860 -14.229  0.00  0.00    +0.172 C 
BRANCH   4   5
ATOM      5  O   UNL     1      30.788 -25.119 -12.929  0.00  0.00    -0.379 OA
ATOM      6  H   UNL     1      29.911 -24.712 -12.852  0.00  0.00    +0.211 HD
ENDBRANCH   4   5
BRANCH   4   7
ATOM      7  C   UNL     1      30.210 -25.065 -15.257  0.00  0.00    +0.204 C 
BRANCH   7   8
ATOM      8  O   UNL     1      29.281 -23.993 -15.149  0.00  0.00    -0.239 OA
BRANCH   8   9
ATOM      9  S   UNL     1      28.655 -23.360 -16.516  0.00  0.00    -0.005 S 
ATOM     10  O   UNL     1      27.969 -24.399 -17.258  0.00  0.00    -0.072 OA
ATOM     11  O   UNL     1      29.634 -22.491 -17.138  0.00  0.00    -0.072 OA
ATOM     12  C   UNL     1      27.433 -22.342 -15.729  0.00  0.00    +0.181 C 
ENDBRANCH   8   9
ENDBRANCH   7   8
ENDBRANCH   4   7
ENDBRANCH   1   4
BRANCH   1  13
ATOM     13  C   UNL     1      33.296 -23.408 -14.898  0.00  0.00    +0.204 C 
BRANCH  13  14
ATOM     14  O   UNL     1      33.918 -24.675 -14.712  0.00  0.00    -0.239 OA
BRANCH  14  15
ATOM     15  S   UNL     1      35.488 -24.842 -15.123  0.00  0.00    -0.005 S 
ATOM     16  O   UNL     1      35.900 -23.706 -15.923  0.00  0.00    -0.072 OA
ATOM     17  O   UNL     1      35.734 -26.206 -15.543  0.00  0.00    -0.072 OA
ATOM     18  C   UNL     1      36.151 -24.636 -13.490  0.00  0.00    +0.181 C 
ENDBRANCH  14  15
ENDBRANCH  13  14
ENDBRANCH   1  13
TORSDOF 9
ENDMDL
MODEL 9
REMARK VINA RESULT:      -6.3      3.340      4.457
REMARK  Name = 9882105
REMARK  9 active torsions:
REMARK  status: ('A' for Active; 'I' for Inactive)
REMARK    1  A    between atoms: C_1  and  O_2
REMARK    2  A    between atoms: C_1  and  C_4
REMARK    3  A    between atoms: C_1  and  C_13
REMARK    4  A    between atoms: C_4  and  O_5
REMARK    5  A    between atoms: C_4  and  C_7
REMARK    6  A    between atoms: C_7  and  O_8
REMARK    7  A    between atoms: O_8  and  S_9
REMARK    8  A    between atoms: C_13  and  O_14
REMARK    9  A    between atoms: O_14  and  S_15
REMARK                            x       y       z     vdW  Elec       q    Type
REMARK                         _______ _______ _______ _____ _____    ______ ____
ROOT
ATOM      1  C   UNL     1      35.810 -23.673 -12.674  0.00  0.00    +0.172 C 
ENDROOT
BRANCH   1   2
ATOM      2  O   UNL     1      36.831 -22.984 -13.398  0.00  0.00    -0.379 OA
ATOM      3  H   UNL     1      36.638 -23.023 -14.347  0.00  0.00    +0.211 HD
ENDBRANCH   1   2
BRANCH   1   4
ATOM      4  C   UNL     1      36.432 -24.730 -11.750  0.00  0.00    +0.172 C 
BRANCH   4   5
ATOM      5  O   UNL     1      35.430 -25.215 -10.853  0.00  0.00    -0.379 OA
ATOM      6  H   UNL     1      35.204 -24.521 -10.214  0.00  0.00    +0.211 HD
ENDBRANCH   4   5
BRANCH   4   7
ATOM      7  C   UNL     1      37.015 -25.917 -12.512  0.00  0.00    +0.204 C 
BRANCH   7   8
ATOM      8  O   UNL     1      38.369 -25.629 -12.842  0.00  0.00    -0.239 OA
BRANCH   8   9
ATOM      9  S   UNL     1      38.822 -25.687 -14.409  0.00  0.00    -0.005 S 
ATOM     10  O   UNL     1      39.937 -26.601 -14.555  0.00  0.00    -0.072 OA
ATOM     11  O   UNL     1      38.853 -24.344 -14.952  0.00  0.00    -0.072 OA
ATOM     12  C   UNL     1      37.362 -26.494 -15.013  0.00  0.00    +0.181 C 
ENDBRANCH   8   9
ENDBRANCH   7   8
ENDBRANCH   4   7
ENDBRANCH   1   4
BRANCH   1  13
ATOM     13  C   UNL     1      34.861 -24.293 -13.698  0.00  0.00    +0.204 C 
BRANCH  13  14
ATOM     14  O   UNL     1      33.585 -24.474 -13.093  0.00  0.00    -0.239 OA
BRANCH  14  15
ATOM     15  S   UNL     1      32.299 -23.703 -13.735  0.00  0.00    -0.005 S 
ATOM     16  O   UNL     1      32.673 -23.118 -15.007  0.00  0.00    -0.072 OA
ATOM     17  O   UNL     1      31.634 -22.934 -12.703  0.00  0.00    -0.072 OA
ATOM     18  C   UNL     1      31.329 -25.154 -14.056  0.00  0.00    +0.181 C 
ENDBRANCH  14  15
ENDBRANCH  13  14
ENDBRANCH   1  13
TORSDOF 9
ENDMDL
