MODEL 1
REMARK VINA RESULT:     -10.4      0.000      0.000
REMARK  Name = 5287741
REMARK  11 active torsions:
REMARK  status: ('A' for Active; 'I' for Inactive)
REMARK    1  A    between atoms: N_3  and  C_27
REMARK    2  A    between atoms: C_5  and  C_12
REMARK    3  A    between atoms: C_6  and  O_10
REMARK    4  A    between atoms: C_12  and  C_13
REMARK    5  A    between atoms: C_16  and  O_19
REMARK    6  A    between atoms: O_19  and  C_20
REMARK    7  A    between atoms: C_20  and  C_21
REMARK    8  A    between atoms: C_27  and  O_28
REMARK    9  A    between atoms: O_28  and  C_29
REMARK   10  A    between atoms: C_29  and  C_30
REMARK   11  A    between atoms: C_30  and  O_31
REMARK                            x       y       z     vdW  Elec       q    Type
REMARK                         _______ _______ _______ _____ _____    ______ ____
ROOT
ATOM      1  O   UNL     1      35.329 -19.792 -24.278  0.00  0.00    -0.267 OA
ATOM      2  O   UNL     1      33.338 -16.120 -26.155  0.00  0.00    -0.246 OA
ATOM      3  N   UNL     1      34.188 -15.926 -23.989  0.00  0.00    -0.225 N 
ATOM      4  N   UNL     1      34.340 -17.937 -25.201  0.00  0.00    -0.274 N 
ATOM      5  C   UNL     1      35.257 -17.813 -22.955  0.00  0.00    +0.089 A 
ATOM      6  C   UNL     1      34.843 -16.531 -22.918  0.00  0.00    +0.209 A 
ATOM      7  C   UNL     1      34.990 -18.614 -24.188  0.00  0.00    +0.262 A 
ATOM      8  C   UNL     1      33.913 -16.613 -25.181  0.00  0.00    +0.334 A 
ATOM      9  H   UNL     1      34.160 -18.446 -26.025  0.00  0.00    +0.173 HD
ENDROOT
BRANCH   6  10
ATOM     10  O   UNL     1      35.028 -15.716 -21.814  0.00  0.00    -0.493 OA
ATOM     11  H   UNL     1      34.294 -15.476 -21.281  0.00  0.00    +0.294 HD
ENDBRANCH   6  10
BRANCH   5  12
ATOM     12  C   UNL     1      35.993 -18.548 -21.870  0.00  0.00    +0.062 C 
BRANCH  12  13
ATOM     13  C   UNL     1      35.093 -19.463 -21.089  0.00  0.00    -0.014 C 
ATOM     14  C   UNL     1      35.648 -20.462 -20.299  0.00  0.00    +0.033 C 
ATOM     15  C   UNL     1      33.716 -19.300 -21.165  0.00  0.00    -0.004 C 
ATOM     16  C   UNL     1      34.812 -21.311 -19.573  0.00  0.00    +0.139 C 
ATOM     17  C   UNL     1      32.880 -20.148 -20.440  0.00  0.00    +0.003 C 
ATOM     18  C   UNL     1      33.427 -21.154 -19.643  0.00  0.00    +0.037 C 
BRANCH  16  19
ATOM     19  O   UNL     1      35.346 -22.291 -18.795  0.00  0.00    -0.471 OA
BRANCH  19  20
ATOM     20  C   UNL     1      36.436 -21.927 -17.949  0.00  0.00    +0.232 C 
BRANCH  20  21
ATOM     21  C   UNL     1      36.221 -22.527 -16.590  0.00  0.00    +0.021 C 
ATOM     22  C   UNL     1      37.293 -22.639 -15.710  0.00  0.00    -0.001 C 
ATOM     23  C   UNL     1      34.954 -22.965 -16.222  0.00  0.00    -0.001 C 
ATOM     24  C   UNL     1      37.095 -23.196 -14.447  0.00  0.00    -0.000 C 
ATOM     25  C   UNL     1      34.756 -23.521 -14.958  0.00  0.00    -0.000 C 
ATOM     26  C   UNL     1      35.826 -23.637 -14.071  0.00  0.00    -0.000 C 
ENDBRANCH  20  21
ENDBRANCH  19  20
ENDBRANCH  16  19
ENDBRANCH  12  13
ENDBRANCH   5  12
BRANCH   3  27
ATOM     27  C   UNL     1      33.775 -14.528 -23.865  0.00  0.00    +0.262 C 
BRANCH  27  28
ATOM     28  O   UNL     1      32.632 -14.465 -23.025  0.00  0.00    -0.329 OA
BRANCH  28  29
ATOM     29  C   UNL     1      32.347 -13.129 -22.632  0.00  0.00    +0.176 C 
BRANCH  29  30
ATOM     30  C   UNL     1      32.336 -13.052 -21.117  0.00  0.00    +0.169 C 
BRANCH  30  31
ATOM     31  O   UNL     1      32.697 -14.320 -20.585  0.00  0.00    -0.379 OA
ATOM     32  H   UNL     1      32.006 -14.623 -19.975  0.00  0.00    +0.211 HD
ENDBRANCH  30  31
ENDBRANCH  29  30
ENDBRANCH  28  29
ENDBRANCH  27  28
ENDBRANCH   3  27
TORSDOF 11
ENDMDL
MODEL 2
REMARK VINA RESULT:     -10.1      4.889      8.371
REMARK  Name = 5287741
REMARK  11 active torsions:
REMARK  status: ('A' for Active; 'I' for Inactive)
REMARK    1  A    between atoms: N_3  and  C_27
REMARK    2  A    between atoms: C_5  and  C_12
REMARK    3  A    between atoms: C_6  and  O_10
REMARK    4  A    between atoms: C_12  and  C_13
REMARK    5  A    between atoms: C_16  and  O_19
REMARK    6  A    between atoms: O_19  and  C_20
REMARK    7  A    between atoms: C_20  and  C_21
REMARK    8  A    between atoms: C_27  and  O_28
REMARK    9  A    between atoms: O_28  and  C_29
REMARK   10  A    between atoms: C_29  and  C_30
REMARK   11  A    between atoms: C_30  and  O_31
REMARK                            x       y       z     vdW  Elec       q    Type
REMARK                         _______ _______ _______ _____ _____    ______ ____
ROOT
ATOM      1  O   UNL     1      31.642 -11.391 -19.033  0.00  0.00    -0.267 OA
ATOM      2  O   UNL     1      32.930  -7.017 -19.450  0.00  0.00    -0.246 OA
ATOM      3  N   UNL     1      32.288  -8.165 -21.379  0.00  0.00    -0.225 N 
ATOM      4  N   UNL     1      32.278  -9.198 -19.265  0.00  0.00    -0.274 N 
ATOM      5  C   UNL     1      31.587 -10.458 -21.224  0.00  0.00    +0.089 A 
ATOM      6  C   UNL     1      31.831  -9.350 -21.952  0.00  0.00    +0.209 A 
ATOM      7  C   UNL     1      31.830 -10.410 -19.750  0.00  0.00    +0.262 A 
ATOM      8  C   UNL     1      32.528  -8.043 -20.002  0.00  0.00    +0.334 A 
ATOM      9  H   UNL     1      32.439  -9.144 -18.295  0.00  0.00    +0.173 HD
ENDROOT
BRANCH   6  10
ATOM     10  O   UNL     1      31.654  -9.302 -23.324  0.00  0.00    -0.493 OA
ATOM     11  H   UNL     1      31.243 -10.018 -23.768  0.00  0.00    +0.294 HD
ENDBRANCH   6  10
BRANCH   5  12
ATOM     12  C   UNL     1      31.069 -11.772 -21.738  0.00  0.00    +0.062 C 
BRANCH  12  13
ATOM     13  C   UNL     1      32.169 -12.659 -22.247  0.00  0.00    -0.014 C 
ATOM     14  C   UNL     1      32.463 -13.841 -21.580  0.00  0.00    +0.033 C 
ATOM     15  C   UNL     1      32.880 -12.287 -23.382  0.00  0.00    -0.004 C 
ATOM     16  C   UNL     1      33.484 -14.665 -22.053  0.00  0.00    +0.139 C 
ATOM     17  C   UNL     1      33.901 -13.110 -23.855  0.00  0.00    +0.003 C 
ATOM     18  C   UNL     1      34.203 -14.300 -23.192  0.00  0.00    +0.037 C 
BRANCH  16  19
ATOM     19  O   UNL     1      33.778 -15.825 -21.407  0.00  0.00    -0.471 OA
BRANCH  19  20
ATOM     20  C   UNL     1      34.932 -16.540 -21.847  0.00  0.00    +0.232 C 
BRANCH  20  21
ATOM     21  C   UNL     1      34.862 -17.948 -21.333  0.00  0.00    +0.021 C 
ATOM     22  C   UNL     1      33.622 -18.547 -21.134  0.00  0.00    -0.001 C 
ATOM     23  C   UNL     1      36.036 -18.641 -21.060  0.00  0.00    -0.001 C 
ATOM     24  C   UNL     1      33.556 -19.856 -20.657  0.00  0.00    -0.000 C 
ATOM     25  C   UNL     1      35.969 -19.951 -20.584  0.00  0.00    -0.000 C 
ATOM     26  C   UNL     1      34.730 -20.557 -20.381  0.00  0.00    -0.000 C 
ENDBRANCH  20  21
ENDBRANCH  19  20
ENDBRANCH  16  19
ENDBRANCH  12  13
ENDBRANCH   5  12
BRANCH   3  27
ATOM     27  C   UNL     1      32.524  -7.008 -22.243  0.00  0.00    +0.262 C 
BRANCH  27  28
ATOM     28  O   UNL     1      31.280  -6.579 -22.779  0.00  0.00    -0.329 OA
BRANCH  28  29
ATOM     29  C   UNL     1      30.778  -5.444 -22.087  0.00  0.00    +0.176 C 
BRANCH  29  30
ATOM     30  C   UNL     1      31.140  -4.193 -22.863  0.00  0.00    +0.169 C 
BRANCH  30  31
ATOM     31  O   UNL     1      30.375  -3.101 -22.367  0.00  0.00    -0.379 OA
ATOM     32  H   UNL     1      30.458  -2.347 -22.972  0.00  0.00    +0.211 HD
ENDBRANCH  30  31
ENDBRANCH  29  30
ENDBRANCH  28  29
ENDBRANCH  27  28
ENDBRANCH   3  27
TORSDOF 11
ENDMDL
MODEL 3
REMARK VINA RESULT:     -10.1      1.331      2.619
REMARK  Name = 5287741
REMARK  11 active torsions:
REMARK  status: ('A' for Active; 'I' for Inactive)
REMARK    1  A    between atoms: N_3  and  C_27
REMARK    2  A    between atoms: C_5  and  C_12
REMARK    3  A    between atoms: C_6  and  O_10
REMARK    4  A    between atoms: C_12  and  C_13
REMARK    5  A    between atoms: C_16  and  O_19
REMARK    6  A    between atoms: O_19  and  C_20
REMARK    7  A    between atoms: C_20  and  C_21
REMARK    8  A    between atoms: C_27  and  O_28
REMARK    9  A    between atoms: O_28  and  C_29
REMARK   10  A    between atoms: C_29  and  C_30
REMARK   11  A    between atoms: C_30  and  O_31
REMARK                            x       y       z     vdW  Elec       q    Type
REMARK                         _______ _______ _______ _____ _____    ______ ____
ROOT
ATOM      1  O   UNL     1      35.266 -16.358 -20.344  0.00  0.00    -0.267 OA
ATOM      2  O   UNL     1      32.919 -14.238 -23.655  0.00  0.00    -0.246 OA
ATOM      3  N   UNL     1      33.939 -16.276 -24.160  0.00  0.00    -0.225 N 
ATOM      4  N   UNL     1      34.090 -15.315 -22.017  0.00  0.00    -0.274 N 
ATOM      5  C   UNL     1      35.172 -17.445 -22.461  0.00  0.00    +0.089 A 
ATOM      6  C   UNL     1      34.708 -17.353 -23.723  0.00  0.00    +0.209 A 
ATOM      7  C   UNL     1      34.859 -16.341 -21.504  0.00  0.00    +0.262 A 
ATOM      8  C   UNL     1      33.597 -15.210 -23.315  0.00  0.00    +0.334 A 
ATOM      9  H   UNL     1      33.867 -14.581 -21.400  0.00  0.00    +0.173 HD
ENDROOT
BRANCH   6  10
ATOM     10  O   UNL     1      34.962 -18.315 -24.686  0.00  0.00    -0.493 OA
ATOM     11  H   UNL     1      34.881 -18.100 -25.595  0.00  0.00    +0.294 HD
ENDBRANCH   6  10
BRANCH   5  12
ATOM     12  C   UNL     1      35.982 -18.572 -21.884  0.00  0.00    +0.062 C 
BRANCH  12  13
ATOM     13  C   UNL     1      35.139 -19.537 -21.100  0.00  0.00    -0.014 C 
ATOM     14  C   UNL     1      35.754 -20.491 -20.299  0.00  0.00    +0.033 C 
ATOM     15  C   UNL     1      33.754 -19.465 -21.185  0.00  0.00    -0.004 C 
ATOM     16  C   UNL     1      34.971 -21.387 -19.571  0.00  0.00    +0.139 C 
ATOM     17  C   UNL     1      32.972 -20.360 -20.458  0.00  0.00    +0.003 C 
ATOM     18  C   UNL     1      33.579 -21.322 -19.649  0.00  0.00    +0.037 C 
BRANCH  16  19
ATOM     19  O   UNL     1      35.563 -22.324 -18.782  0.00  0.00    -0.471 OA
BRANCH  19  20
ATOM     20  C   UNL     1      36.553 -21.867 -17.862  0.00  0.00    +0.232 C 
BRANCH  20  21
ATOM     21  C   UNL     1      36.298 -22.487 -16.519  0.00  0.00    +0.021 C 
ATOM     22  C   UNL     1      37.346 -22.628 -15.616  0.00  0.00    -0.001 C 
ATOM     23  C   UNL     1      35.016 -22.914 -16.190  0.00  0.00    -0.001 C 
ATOM     24  C   UNL     1      37.110 -23.204 -14.368  0.00  0.00    -0.000 C 
ATOM     25  C   UNL     1      34.780 -23.489 -14.941  0.00  0.00    -0.000 C 
ATOM     26  C   UNL     1      35.827 -23.635 -14.031  0.00  0.00    -0.000 C 
ENDBRANCH  20  21
ENDBRANCH  19  20
ENDBRANCH  16  19
ENDBRANCH  12  13
ENDBRANCH   5  12
BRANCH   3  27
ATOM     27  C   UNL     1      33.473 -16.258 -25.547  0.00  0.00    +0.262 C 
BRANCH  27  28
ATOM     28  O   UNL     1      34.078 -15.160 -26.215  0.00  0.00    -0.329 OA
BRANCH  28  29
ATOM     29  C   UNL     1      33.128 -14.423 -26.972  0.00  0.00    +0.176 C 
BRANCH  29  30
ATOM     30  C   UNL     1      33.609 -12.992 -27.111  0.00  0.00    +0.169 C 
BRANCH  30  31
ATOM     31  O   UNL     1      33.685 -12.400 -25.820  0.00  0.00    -0.379 OA
ATOM     32  H   UNL     1      33.942 -11.468 -25.906  0.00  0.00    +0.211 HD
ENDBRANCH  30  31
ENDBRANCH  29  30
ENDBRANCH  28  29
ENDBRANCH  27  28
ENDBRANCH   3  27
TORSDOF 11
ENDMDL
MODEL 4
REMARK VINA RESULT:      -9.9      4.727     10.723
REMARK  Name = 5287741
REMARK  11 active torsions:
REMARK  status: ('A' for Active; 'I' for Inactive)
REMARK    1  A    between atoms: N_3  and  C_27
REMARK    2  A    between atoms: C_5  and  C_12
REMARK    3  A    between atoms: C_6  and  O_10
REMARK    4  A    between atoms: C_12  and  C_13
REMARK    5  A    between atoms: C_16  and  O_19
REMARK    6  A    between atoms: O_19  and  C_20
REMARK    7  A    between atoms: C_20  and  C_21
REMARK    8  A    between atoms: C_27  and  O_28
REMARK    9  A    between atoms: O_28  and  C_29
REMARK   10  A    between atoms: C_29  and  C_30
REMARK   11  A    between atoms: C_30  and  O_31
REMARK                            x       y       z     vdW  Elec       q    Type
REMARK                         _______ _______ _______ _____ _____    ______ ____
ROOT
ATOM      1  O   UNL     1      32.495 -22.767 -14.669  0.00  0.00    -0.267 OA
ATOM      2  O   UNL     1      35.185 -24.398 -11.342  0.00  0.00    -0.246 OA
ATOM      3  N   UNL     1      35.765 -24.864 -13.554  0.00  0.00    -0.225 N 
ATOM      4  N   UNL     1      33.861 -23.590 -13.017  0.00  0.00    -0.274 N 
ATOM      5  C   UNL     1      34.402 -24.023 -15.346  0.00  0.00    +0.089 A 
ATOM      6  C   UNL     1      35.471 -24.718 -14.909  0.00  0.00    +0.209 A 
ATOM      7  C   UNL     1      33.495 -23.400 -14.335  0.00  0.00    +0.262 A 
ATOM      8  C   UNL     1      34.965 -24.298 -12.551  0.00  0.00    +0.334 A 
ATOM      9  H   UNL     1      33.279 -23.181 -12.336  0.00  0.00    +0.173 HD
ENDROOT
BRANCH   6  10
ATOM     10  O   UNL     1      36.357 -25.346 -15.767  0.00  0.00    -0.493 OA
ATOM     11  H   UNL     1      36.141 -26.181 -16.135  0.00  0.00    +0.294 HD
ENDBRANCH   6  10
BRANCH   5  12
ATOM     12  C   UNL     1      34.013 -23.784 -16.778  0.00  0.00    +0.062 C 
BRANCH  12  13
ATOM     13  C   UNL     1      34.930 -22.811 -17.463  0.00  0.00    -0.014 C 
ATOM     14  C   UNL     1      34.604 -22.334 -18.727  0.00  0.00    +0.033 C 
ATOM     15  C   UNL     1      36.093 -22.397 -16.825  0.00  0.00    -0.004 C 
ATOM     16  C   UNL     1      35.455 -21.430 -19.363  0.00  0.00    +0.139 C 
ATOM     17  C   UNL     1      36.943 -21.494 -17.460  0.00  0.00    +0.003 C 
ATOM     18  C   UNL     1      36.625 -21.009 -18.729  0.00  0.00    +0.037 C 
BRANCH  16  19
ATOM     19  O   UNL     1      35.144 -20.956 -20.600  0.00  0.00    -0.471 OA
BRANCH  19  20
ATOM     20  C   UNL     1      34.088 -20.001 -20.682  0.00  0.00    +0.232 C 
BRANCH  20  21
ATOM     21  C   UNL     1      34.478 -18.922 -21.651  0.00  0.00    +0.021 C 
ATOM     22  C   UNL     1      34.540 -17.601 -21.221  0.00  0.00    -0.001 C 
ATOM     23  C   UNL     1      34.773 -19.253 -22.969  0.00  0.00    -0.001 C 
ATOM     24  C   UNL     1      34.902 -16.598 -22.121  0.00  0.00    -0.000 C 
ATOM     25  C   UNL     1      35.137 -18.250 -23.868  0.00  0.00    -0.000 C 
ATOM     26  C   UNL     1      35.200 -16.923 -23.444  0.00  0.00    -0.000 C 
ENDBRANCH  20  21
ENDBRANCH  19  20
ENDBRANCH  16  19
ENDBRANCH  12  13
ENDBRANCH   5  12
BRANCH   3  27
ATOM     27  C   UNL     1      36.948 -25.632 -13.168  0.00  0.00    +0.262 C 
BRANCH  27  28
ATOM     28  O   UNL     1      38.104 -24.847 -13.424  0.00  0.00    -0.329 OA
BRANCH  28  29
ATOM     29  C   UNL     1      39.232 -25.660 -13.717  0.00  0.00    +0.176 C 
BRANCH  29  30
ATOM     30  C   UNL     1      39.881 -25.162 -14.993  0.00  0.00    +0.169 C 
BRANCH  30  31
ATOM     31  O   UNL     1      39.084 -24.122 -15.546  0.00  0.00    -0.379 OA
ATOM     32  H   UNL     1      38.719 -23.580 -14.829  0.00  0.00    +0.211 HD
ENDBRANCH  30  31
ENDBRANCH  29  30
ENDBRANCH  28  29
ENDBRANCH  27  28
ENDBRANCH   3  27
TORSDOF 11
ENDMDL
MODEL 5
REMARK VINA RESULT:      -9.8      4.341     10.250
REMARK  Name = 5287741
REMARK  11 active torsions:
REMARK  status: ('A' for Active; 'I' for Inactive)
REMARK    1  A    between atoms: N_3  and  C_27
REMARK    2  A    between atoms: C_5  and  C_12
REMARK    3  A    between atoms: C_6  and  O_10
REMARK    4  A    between atoms: C_12  and  C_13
REMARK    5  A    between atoms: C_16  and  O_19
REMARK    6  A    between atoms: O_19  and  C_20
REMARK    7  A    between atoms: C_20  and  C_21
REMARK    8  A    between atoms: C_27  and  O_28
REMARK    9  A    between atoms: O_28  and  C_29
REMARK   10  A    between atoms: C_29  and  C_30
REMARK   11  A    between atoms: C_30  and  O_31
REMARK                            x       y       z     vdW  Elec       q    Type
REMARK                         _______ _______ _______ _____ _____    ______ ____
ROOT
ATOM      1  O   UNL     1      31.062 -22.435 -17.273  0.00  0.00    -0.267 OA
ATOM      2  O   UNL     1      31.987 -23.024 -12.827  0.00  0.00    -0.246 OA
ATOM      3  N   UNL     1      33.556 -23.769 -14.387  0.00  0.00    -0.225 N 
ATOM      4  N   UNL     1      31.549 -22.735 -15.050  0.00  0.00    -0.274 N 
ATOM      5  C   UNL     1      33.135 -23.476 -16.734  0.00  0.00    +0.089 A 
ATOM      6  C   UNL     1      33.917 -23.908 -15.725  0.00  0.00    +0.209 A 
ATOM      7  C   UNL     1      31.827 -22.836 -16.398  0.00  0.00    +0.262 A 
ATOM      8  C   UNL     1      32.349 -23.170 -13.997  0.00  0.00    +0.334 A 
ATOM      9  H   UNL     1      30.694 -22.311 -14.807  0.00  0.00    +0.173 HD
ENDROOT
BRANCH   6  10
ATOM     10  O   UNL     1      35.136 -24.530 -15.937  0.00  0.00    -0.493 OA
ATOM     11  H   UNL     1      35.780 -24.123 -16.484  0.00  0.00    +0.294 HD
ENDBRANCH   6  10
BRANCH   5  12
ATOM     12  C   UNL     1      33.443 -23.552 -18.204  0.00  0.00    +0.062 C 
BRANCH  12  13
ATOM     13  C   UNL     1      34.415 -22.491 -18.638  0.00  0.00    -0.014 C 
ATOM     14  C   UNL     1      34.060 -21.609 -19.651  0.00  0.00    +0.033 C 
ATOM     15  C   UNL     1      35.657 -22.404 -18.022  0.00  0.00    -0.004 C 
ATOM     16  C   UNL     1      34.962 -20.624 -20.054  0.00  0.00    +0.139 C 
ATOM     17  C   UNL     1      36.559 -21.420 -18.425  0.00  0.00    +0.003 C 
ATOM     18  C   UNL     1      36.212 -20.529 -19.441  0.00  0.00    +0.037 C 
BRANCH  16  19
ATOM     19  O   UNL     1      34.623 -19.754 -21.044  0.00  0.00    -0.471 OA
BRANCH  19  20
ATOM     20  C   UNL     1      35.582 -18.755 -21.388  0.00  0.00    +0.232 C 
BRANCH  20  21
ATOM     21  C   UNL     1      35.198 -18.138 -22.701  0.00  0.00    +0.021 C 
ATOM     22  C   UNL     1      35.199 -16.754 -22.836  0.00  0.00    -0.001 C 
ATOM     23  C   UNL     1      34.843 -18.955 -23.769  0.00  0.00    -0.001 C 
ATOM     24  C   UNL     1      34.842 -16.179 -24.056  0.00  0.00    -0.000 C 
ATOM     25  C   UNL     1      34.487 -18.379 -24.989  0.00  0.00    -0.000 C 
ATOM     26  C   UNL     1      34.485 -16.992 -25.132  0.00  0.00    -0.000 C 
ENDBRANCH  20  21
ENDBRANCH  19  20
ENDBRANCH  16  19
ENDBRANCH  12  13
ENDBRANCH   5  12
BRANCH   3  27
ATOM     27  C   UNL     1      34.466 -24.265 -13.355  0.00  0.00    +0.262 C 
BRANCH  27  28
ATOM     28  O   UNL     1      35.584 -23.392 -13.278  0.00  0.00    -0.329 OA
BRANCH  28  29
ATOM     29  C   UNL     1      36.179 -23.419 -11.988  0.00  0.00    +0.176 C 
BRANCH  29  30
ATOM     30  C   UNL     1      35.784 -24.705 -11.288  0.00  0.00    +0.169 C 
BRANCH  30  31
ATOM     31  O   UNL     1      35.476 -24.418  -9.929  0.00  0.00    -0.379 OA
ATOM     32  H   UNL     1      36.084 -24.904  -9.350  0.00  0.00    +0.211 HD
ENDBRANCH  30  31
ENDBRANCH  29  30
ENDBRANCH  28  29
ENDBRANCH  27  28
ENDBRANCH   3  27
TORSDOF 11
ENDMDL
MODEL 6
REMARK VINA RESULT:      -9.8      3.607      6.329
REMARK  Name = 5287741
REMARK  11 active torsions:
REMARK  status: ('A' for Active; 'I' for Inactive)
REMARK    1  A    between atoms: N_3  and  C_27
REMARK    2  A    between atoms: C_5  and  C_12
REMARK    3  A    between atoms: C_6  and  O_10
REMARK    4  A    between atoms: C_12  and  C_13
REMARK    5  A    between atoms: C_16  and  O_19
REMARK    6  A    between atoms: O_19  and  C_20
REMARK    7  A    between atoms: C_20  and  C_21
REMARK    8  A    between atoms: C_27  and  O_28
REMARK    9  A    between atoms: O_28  and  C_29
REMARK   10  A    between atoms: C_29  and  C_30
REMARK   11  A    between atoms: C_30  and  O_31
REMARK                            x       y       z     vdW  Elec       q    Type
REMARK                         _______ _______ _______ _____ _____    ______ ____
ROOT
ATOM      1  O   UNL     1      34.383 -12.848 -24.952  0.00  0.00    -0.267 OA
ATOM      2  O   UNL     1      34.010  -8.478 -23.637  0.00  0.00    -0.246 OA
ATOM      3  N   UNL     1      32.514 -10.029 -22.741  0.00  0.00    -0.225 N 
ATOM      4  N   UNL     1      34.182 -10.664 -24.275  0.00  0.00    -0.274 N 
ATOM      5  C   UNL     1      32.667 -12.340 -23.380  0.00  0.00    +0.089 A 
ATOM      6  C   UNL     1      32.080 -11.352 -22.676  0.00  0.00    +0.209 A 
ATOM      7  C   UNL     1      33.815 -11.995 -24.272  0.00  0.00    +0.262 A 
ATOM      8  C   UNL     1      33.591  -9.634 -23.548  0.00  0.00    +0.334 A 
ATOM      9  H   UNL     1      34.941 -10.417 -24.852  0.00  0.00    +0.173 HD
ENDROOT
BRANCH   6  10
ATOM     10  O   UNL     1      31.000 -11.570 -21.839  0.00  0.00    -0.493 OA
ATOM     11  H   UNL     1      30.236 -11.030 -21.909  0.00  0.00    +0.294 HD
ENDBRANCH   6  10
BRANCH   5  12
ATOM     12  C   UNL     1      32.297 -13.797 -23.360  0.00  0.00    +0.062 C 
BRANCH  12  13
ATOM     13  C   UNL     1      33.167 -14.594 -22.430  0.00  0.00    -0.014 C 
ATOM     14  C   UNL     1      33.907 -15.659 -22.926  0.00  0.00    +0.033 C 
ATOM     15  C   UNL     1      33.223 -14.255 -21.084  0.00  0.00    -0.004 C 
ATOM     16  C   UNL     1      34.715 -16.399 -22.062  0.00  0.00    +0.139 C 
ATOM     17  C   UNL     1      34.030 -14.994 -20.220  0.00  0.00    +0.003 C 
ATOM     18  C   UNL     1      34.778 -16.066 -20.709  0.00  0.00    +0.037 C 
BRANCH  16  19
ATOM     19  O   UNL     1      35.444 -17.444 -22.539  0.00  0.00    -0.471 OA
BRANCH  19  20
ATOM     20  C   UNL     1      34.725 -18.610 -22.935  0.00  0.00    +0.232 C 
BRANCH  20  21
ATOM     21  C   UNL     1      34.541 -19.501 -21.741  0.00  0.00    +0.021 C 
ATOM     22  C   UNL     1      35.652 -20.078 -21.135  0.00  0.00    -0.001 C 
ATOM     23  C   UNL     1      33.262 -19.743 -21.252  0.00  0.00    -0.001 C 
ATOM     24  C   UNL     1      35.482 -20.906 -20.026  0.00  0.00    -0.000 C 
ATOM     25  C   UNL     1      33.092 -20.570 -20.142  0.00  0.00    -0.000 C 
ATOM     26  C   UNL     1      34.202 -21.152 -19.530  0.00  0.00    -0.000 C 
ENDBRANCH  20  21
ENDBRANCH  19  20
ENDBRANCH  16  19
ENDBRANCH  12  13
ENDBRANCH   5  12
BRANCH   3  27
ATOM     27  C   UNL     1      31.821  -9.019 -21.940  0.00  0.00    +0.262 C 
BRANCH  27  28
ATOM     28  O   UNL     1      32.484  -8.898 -20.690  0.00  0.00    -0.329 OA
BRANCH  28  29
ATOM     29  C   UNL     1      32.435  -7.565 -20.202  0.00  0.00    +0.176 C 
BRANCH  29  30
ATOM     30  C   UNL     1      32.189  -6.621 -21.363  0.00  0.00    +0.169 C 
BRANCH  30  31
ATOM     31  O   UNL     1      31.331  -5.570 -20.933  0.00  0.00    -0.379 OA
ATOM     32  H   UNL     1      30.635  -5.431 -21.595  0.00  0.00    +0.211 HD
ENDBRANCH  30  31
ENDBRANCH  29  30
ENDBRANCH  28  29
ENDBRANCH  27  28
ENDBRANCH   3  27
TORSDOF 11
ENDMDL
MODEL 7
REMARK VINA RESULT:      -9.7      3.570      9.228
REMARK  Name = 5287741
REMARK  11 active torsions:
REMARK  status: ('A' for Active; 'I' for Inactive)
REMARK    1  A    between atoms: N_3  and  C_27
REMARK    2  A    between atoms: C_5  and  C_12
REMARK    3  A    between atoms: C_6  and  O_10
REMARK    4  A    between atoms: C_12  and  C_13
REMARK    5  A    between atoms: C_16  and  O_19
REMARK    6  A    between atoms: O_19  and  C_20
REMARK    7  A    between atoms: C_20  and  C_21
REMARK    8  A    between atoms: C_27  and  O_28
REMARK    9  A    between atoms: O_28  and  C_29
REMARK   10  A    between atoms: C_29  and  C_30
REMARK   11  A    between atoms: C_30  and  O_31
REMARK                            x       y       z     vdW  Elec       q    Type
REMARK                         _______ _______ _______ _____ _____    ______ ____
ROOT
ATOM      1  O   UNL     1      37.150 -21.555 -18.113  0.00  0.00    -0.267 OA
ATOM      2  O   UNL     1      35.329 -22.830 -14.109  0.00  0.00    -0.246 OA
ATOM      3  N   UNL     1      34.069 -23.159 -16.047  0.00  0.00    -0.225 N 
ATOM      4  N   UNL     1      36.220 -22.207 -16.117  0.00  0.00    -0.274 N 
ATOM      5  C   UNL     1      34.975 -22.525 -18.180  0.00  0.00    +0.089 A 
ATOM      6  C   UNL     1      33.980 -23.041 -17.432  0.00  0.00    +0.209 A 
ATOM      7  C   UNL     1      36.213 -22.050 -17.489  0.00  0.00    +0.262 A 
ATOM      8  C   UNL     1      35.203 -22.745 -15.333  0.00  0.00    +0.334 A 
ATOM      9  H   UNL     1      37.029 -21.906 -15.644  0.00  0.00    +0.173 HD
ENDROOT
BRANCH   6  10
ATOM     10  O   UNL     1      32.789 -23.489 -17.979  0.00  0.00    -0.493 OA
ATOM     11  H   UNL     1      32.389 -24.272 -17.652  0.00  0.00    +0.294 HD
ENDBRANCH   6  10
BRANCH   5  12
ATOM     12  C   UNL     1      34.991 -22.380 -19.676  0.00  0.00    +0.062 C 
BRANCH  12  13
ATOM     13  C   UNL     1      34.438 -21.057 -20.126  0.00  0.00    -0.014 C 
ATOM     14  C   UNL     1      35.300 -20.084 -20.617  0.00  0.00    +0.033 C 
ATOM     15  C   UNL     1      33.071 -20.822 -20.049  0.00  0.00    -0.004 C 
ATOM     16  C   UNL     1      34.787 -18.857 -21.036  0.00  0.00    +0.139 C 
ATOM     17  C   UNL     1      32.558 -19.595 -20.467  0.00  0.00    +0.003 C 
ATOM     18  C   UNL     1      33.415 -18.612 -20.962  0.00  0.00    +0.037 C 
BRANCH  16  19
ATOM     19  O   UNL     1      35.623 -17.898 -21.518  0.00  0.00    -0.471 OA
BRANCH  19  20
ATOM     20  C   UNL     1      35.863 -17.894 -22.925  0.00  0.00    +0.232 C 
BRANCH  20  21
ATOM     21  C   UNL     1      35.032 -16.817 -23.560  0.00  0.00    +0.021 C 
ATOM     22  C   UNL     1      34.695 -15.685 -22.825  0.00  0.00    -0.001 C 
ATOM     23  C   UNL     1      34.606 -16.960 -24.876  0.00  0.00    -0.001 C 
ATOM     24  C   UNL     1      33.923 -14.683 -23.415  0.00  0.00    -0.000 C 
ATOM     25  C   UNL     1      33.836 -15.958 -25.465  0.00  0.00    -0.000 C 
ATOM     26  C   UNL     1      33.493 -14.820 -24.734  0.00  0.00    -0.000 C 
ENDBRANCH  20  21
ENDBRANCH  19  20
ENDBRANCH  16  19
ENDBRANCH  12  13
ENDBRANCH   5  12
BRANCH   3  27
ATOM     27  C   UNL     1      32.942 -23.735 -15.313  0.00  0.00    +0.262 C 
BRANCH  27  28
ATOM     28  O   UNL     1      31.943 -22.737 -15.159  0.00  0.00    -0.329 OA
BRANCH  28  29
ATOM     29  C   UNL     1      30.682 -23.307 -14.837  0.00  0.00    +0.176 C 
BRANCH  29  30
ATOM     30  C   UNL     1      29.824 -23.348 -16.087  0.00  0.00    +0.169 C 
BRANCH  30  31
ATOM     31  O   UNL     1      30.275 -22.347 -16.992  0.00  0.00    -0.379 OA
ATOM     32  H   UNL     1      30.042 -22.604 -17.899  0.00  0.00    +0.211 HD
ENDBRANCH  30  31
ENDBRANCH  29  30
ENDBRANCH  28  29
ENDBRANCH  27  28
ENDBRANCH   3  27
TORSDOF 11
ENDMDL
MODEL 8
REMARK VINA RESULT:      -9.7      4.117     11.266
REMARK  Name = 5287741
REMARK  11 active torsions:
REMARK  status: ('A' for Active; 'I' for Inactive)
REMARK    1  A    between atoms: N_3  and  C_27
REMARK    2  A    between atoms: C_5  and  C_12
REMARK    3  A    between atoms: C_6  and  O_10
REMARK    4  A    between atoms: C_12  and  C_13
REMARK    5  A    between atoms: C_16  and  O_19
REMARK    6  A    between atoms: O_19  and  C_20
REMARK    7  A    between atoms: C_20  and  C_21
REMARK    8  A    between atoms: C_27  and  O_28
REMARK    9  A    between atoms: O_28  and  C_29
REMARK   10  A    between atoms: C_29  and  C_30
REMARK   11  A    between atoms: C_30  and  O_31
REMARK                            x       y       z     vdW  Elec       q    Type
REMARK                         _______ _______ _______ _____ _____    ______ ____
ROOT
ATOM      1  O   UNL     1      32.317 -12.857 -21.090  0.00  0.00    -0.267 OA
ATOM      2  O   UNL     1      35.041 -16.420 -20.170  0.00  0.00    -0.246 OA
ATOM      3  N   UNL     1      34.615 -15.908 -22.407  0.00  0.00    -0.225 N 
ATOM      4  N   UNL     1      33.690 -14.644 -20.652  0.00  0.00    -0.274 N 
ATOM      5  C   UNL     1      33.206 -14.041 -22.955  0.00  0.00    +0.089 A 
ATOM      6  C   UNL     1      33.977 -15.081 -23.329  0.00  0.00    +0.209 A 
ATOM      7  C   UNL     1      33.021 -13.780 -21.496  0.00  0.00    +0.262 A 
ATOM      8  C   UNL     1      34.495 -15.717 -21.023  0.00  0.00    +0.334 A 
ATOM      9  H   UNL     1      33.586 -14.484 -19.685  0.00  0.00    +0.173 HD
ENDROOT
BRANCH   6  10
ATOM     10  O   UNL     1      34.193 -15.414 -24.656  0.00  0.00    -0.493 OA
ATOM     11  H   UNL     1      33.786 -14.914 -25.336  0.00  0.00    +0.294 HD
ENDBRANCH   6  10
BRANCH   5  12
ATOM     12  C   UNL     1      32.499 -13.076 -23.865  0.00  0.00    +0.062 C 
BRANCH  12  13
ATOM     13  C   UNL     1      33.420 -12.012 -24.394  0.00  0.00    -0.014 C 
ATOM     14  C   UNL     1      33.684 -10.888 -23.622  0.00  0.00    +0.033 C 
ATOM     15  C   UNL     1      33.997 -12.165 -25.648  0.00  0.00    -0.004 C 
ATOM     16  C   UNL     1      34.539  -9.901 -24.112  0.00  0.00    +0.139 C 
ATOM     17  C   UNL     1      34.852 -11.179 -26.138  0.00  0.00    +0.003 C 
ATOM     18  C   UNL     1      35.124 -10.046 -25.371  0.00  0.00    +0.037 C 
BRANCH  16  19
ATOM     19  O   UNL     1      34.805  -8.797 -23.363  0.00  0.00    -0.471 OA
BRANCH  19  20
ATOM     20  C   UNL     1      34.601  -7.528 -23.982  0.00  0.00    +0.232 C 
BRANCH  20  21
ATOM     21  C   UNL     1      33.305  -6.948 -23.494  0.00  0.00    +0.021 C 
ATOM     22  C   UNL     1      32.515  -6.202 -24.362  0.00  0.00    -0.001 C 
ATOM     23  C   UNL     1      32.906  -7.161 -22.179  0.00  0.00    -0.001 C 
ATOM     24  C   UNL     1      31.311  -5.662 -23.909  0.00  0.00    -0.000 C 
ATOM     25  C   UNL     1      31.701  -6.623 -21.727  0.00  0.00    -0.000 C 
ATOM     26  C   UNL     1      30.904  -5.873 -22.592  0.00  0.00    -0.000 C 
ENDBRANCH  20  21
ENDBRANCH  19  20
ENDBRANCH  16  19
ENDBRANCH  12  13
ENDBRANCH   5  12
BRANCH   3  27
ATOM     27  C   UNL     1      35.437 -17.013 -22.900  0.00  0.00    +0.262 C 
BRANCH  27  28
ATOM     28  O   UNL     1      34.582 -18.014 -23.432  0.00  0.00    -0.329 OA
BRANCH  28  29
ATOM     29  C   UNL     1      34.878 -19.295 -22.893  0.00  0.00    +0.176 C 
BRANCH  29  30
ATOM     30  C   UNL     1      34.112 -19.474 -21.596  0.00  0.00    +0.169 C 
BRANCH  30  31
ATOM     31  O   UNL     1      35.027 -19.433 -20.507  0.00  0.00    -0.379 OA
ATOM     32  H   UNL     1      35.134 -18.516 -20.209  0.00  0.00    +0.211 HD
ENDBRANCH  30  31
ENDBRANCH  29  30
ENDBRANCH  28  29
ENDBRANCH  27  28
ENDBRANCH   3  27
TORSDOF 11
ENDMDL
MODEL 9
REMARK VINA RESULT:      -9.6      4.646      9.357
REMARK  Name = 5287741
REMARK  11 active torsions:
REMARK  status: ('A' for Active; 'I' for Inactive)
REMARK    1  A    between atoms: N_3  and  C_27
REMARK    2  A    between atoms: C_5  and  C_12
REMARK    3  A    between atoms: C_6  and  O_10
REMARK    4  A    between atoms: C_12  and  C_13
REMARK    5  A    between atoms: C_16  and  O_19
REMARK    6  A    between atoms: O_19  and  C_20
REMARK    7  A    between atoms: C_20  and  C_21
REMARK    8  A    between atoms: C_27  and  O_28
REMARK    9  A    between atoms: O_28  and  C_29
REMARK   10  A    between atoms: C_29  and  C_30
REMARK   11  A    between atoms: C_30  and  O_31
REMARK                            x       y       z     vdW  Elec       q    Type
REMARK                         _______ _______ _______ _____ _____    ______ ____
ROOT
ATOM      1  O   UNL     1      35.270 -24.359 -16.127  0.00  0.00    -0.267 OA
ATOM      2  O   UNL     1      32.150 -23.162 -12.997  0.00  0.00    -0.246 OA
ATOM      3  N   UNL     1      31.628 -22.843 -15.250  0.00  0.00    -0.225 N 
ATOM      4  N   UNL     1      33.689 -23.757 -14.575  0.00  0.00    -0.274 N 
ATOM      5  C   UNL     1      33.217 -23.465 -16.941  0.00  0.00    +0.089 A 
ATOM      6  C   UNL     1      32.021 -22.959 -16.581  0.00  0.00    +0.209 A 
ATOM      7  C   UNL     1      34.158 -23.903 -15.866  0.00  0.00    +0.262 A 
ATOM      8  C   UNL     1      32.454 -23.243 -14.189  0.00  0.00    +0.334 A 
ATOM      9  H   UNL     1      34.292 -24.046 -13.852  0.00  0.00    +0.173 HD
ENDROOT
BRANCH   6  10
ATOM     10  O   UNL     1      31.091 -22.510 -17.504  0.00  0.00    -0.493 OA
ATOM     11  H   UNL     1      31.249 -22.623 -18.421  0.00  0.00    +0.294 HD
ENDBRANCH   6  10
BRANCH   5  12
ATOM     12  C   UNL     1      33.725 -23.659 -18.342  0.00  0.00    +0.062 C 
BRANCH  12  13
ATOM     13  C   UNL     1      34.450 -22.449 -18.859  0.00  0.00    -0.014 C 
ATOM     14  C   UNL     1      33.807 -21.585 -19.736  0.00  0.00    +0.033 C 
ATOM     15  C   UNL     1      35.757 -22.207 -18.453  0.00  0.00    -0.004 C 
ATOM     16  C   UNL     1      34.480 -20.461 -20.215  0.00  0.00    +0.139 C 
ATOM     17  C   UNL     1      36.430 -21.084 -18.931  0.00  0.00    +0.003 C 
ATOM     18  C   UNL     1      35.792 -20.210 -19.812  0.00  0.00    +0.037 C 
BRANCH  16  19
ATOM     19  O   UNL     1      33.858 -19.609 -21.074  0.00  0.00    -0.471 OA
BRANCH  19  20
ATOM     20  C   UNL     1      34.622 -19.127 -22.178  0.00  0.00    +0.232 C 
BRANCH  20  21
ATOM     21  C   UNL     1      34.596 -17.626 -22.173  0.00  0.00    +0.021 C 
ATOM     22  C   UNL     1      34.514 -16.943 -20.964  0.00  0.00    -0.001 C 
ATOM     23  C   UNL     1      34.653 -16.932 -23.377  0.00  0.00    -0.001 C 
ATOM     24  C   UNL     1      34.489 -15.548 -20.959  0.00  0.00    -0.000 C 
ATOM     25  C   UNL     1      34.630 -15.537 -23.371  0.00  0.00    -0.000 C 
ATOM     26  C   UNL     1      34.547 -14.846 -22.162  0.00  0.00    -0.000 C 
ENDBRANCH  20  21
ENDBRANCH  19  20
ENDBRANCH  16  19
ENDBRANCH  12  13
ENDBRANCH   5  12
BRANCH   3  27
ATOM     27  C   UNL     1      30.310 -22.285 -14.949  0.00  0.00    +0.262 C 
BRANCH  27  28
ATOM     28  O   UNL     1      29.317 -23.189 -15.414  0.00  0.00    -0.329 OA
BRANCH  28  29
ATOM     29  C   UNL     1      28.039 -22.571 -15.478  0.00  0.00    +0.176 C 
BRANCH  29  30
ATOM     30  C   UNL     1      27.642 -22.408 -16.933  0.00  0.00    +0.169 C 
BRANCH  30  31
ATOM     31  O   UNL     1      28.298 -23.405 -17.707  0.00  0.00    -0.379 OA
ATOM     32  H   UNL     1      29.139 -23.641 -17.284  0.00  0.00    +0.211 HD
ENDBRANCH  30  31
ENDBRANCH  29  30
ENDBRANCH  28  29
ENDBRANCH  27  28
ENDBRANCH   3  27
TORSDOF 11
ENDMDL
