MODEL 1
REMARK VINA RESULT:     -11.0      0.000      0.000
REMARK  Name = 198757
REMARK  7 active torsions:
REMARK  status: ('A' for Active; 'I' for Inactive)
REMARK    1  A    between atoms: C_1  and  C_2
REMARK    2  A    between atoms: C_1  and  C_16
REMARK    3  A    between atoms: C_2  and  C_3
REMARK    4  A    between atoms: C_3  and  N_8
REMARK    5  A    between atoms: C_16  and  N_17
REMARK    6  A    between atoms: N_17  and  C_20
REMARK    7  A    between atoms: C_20  and  C_22
REMARK                            x       y       z     vdW  Elec       q    Type
REMARK                         _______ _______ _______ _____ _____    ______ ____
ROOT
ATOM      1  C   UNL     1      34.525 -20.145 -20.588  0.00  0.00    -0.022 C 
ENDROOT
BRANCH   1   2
ATOM      2  C   UNL     1      34.680 -19.521 -21.979  0.00  0.00    +0.021 C 
BRANCH   2   3
ATOM      3  C   UNL     1      35.598 -18.303 -21.984  0.00  0.00    +0.119 C 
BRANCH   3   8
ATOM      4  S   UNL     1      34.046 -16.175 -21.153  0.00  0.00    +0.079 S 
ATOM      5  O   UNL     1      35.010 -15.499 -20.314  0.00  0.00    -0.150 OA
ATOM      6  O   UNL     1      32.912 -16.911 -20.636  0.00  0.00    -0.150 OA
ATOM      7  O   UNL     1      35.183 -17.063 -24.717  0.00  0.00    -0.268 OA
ATOM      8  N   UNL     1      34.846 -17.088 -22.367  0.00  0.00    -0.156 N 
ATOM      9  C   UNL     1      33.464 -15.040 -22.340  0.00  0.00    +0.130 C 
ATOM     10  C   UNL     1      33.882 -15.368 -23.630  0.00  0.00    +0.074 C 
ATOM     11  C   UNL     1      34.712 -16.587 -23.700  0.00  0.00    +0.269 C 
ATOM     12  C   UNL     1      32.682 -13.937 -22.067  0.00  0.00    +0.020 C 
ATOM     13  C   UNL     1      33.516 -14.578 -24.705  0.00  0.00    +0.006 C 
ATOM     14  C   UNL     1      32.309 -13.137 -23.148  0.00  0.00    +0.001 C 
ATOM     15  C   UNL     1      32.723 -13.454 -24.455  0.00  0.00    +0.000 C 
ENDBRANCH   3   8
ENDBRANCH   2   3
ENDBRANCH   1   2
BRANCH   1  16
ATOM     16  C   UNL     1      33.054 -20.396 -20.259  0.00  0.00    -0.082 C 
BRANCH  16  17
ATOM     17  N   UNL     1      32.839 -21.802 -19.939  0.00  0.00    +0.386 N 
ATOM     18  H   UNL     1      32.010 -21.887 -19.350  0.00  0.00    -0.084 HD
ATOM     19  H   UNL     1      32.714 -22.317 -20.810  0.00  0.00    -0.084 HD
BRANCH  17  20
ATOM     20  C   UNL     1      33.984 -22.356 -19.231  0.00  0.00    -0.037 C 
BRANCH  20  22
ATOM     21  O   UNL     1      32.217 -22.661 -17.661  0.00  0.00    -0.482 OA
ATOM     22  C   UNL     1      33.541 -23.112 -17.984  0.00  0.00    +0.145 C 
ATOM     23  C   UNL     1      34.510 -22.870 -16.828  0.00  0.00    +0.046 C 
ATOM     24  C   UNL     1      34.061 -23.685 -15.622  0.00  0.00    +0.033 C 
ATOM     25  C   UNL     1      32.581 -23.542 -15.412  0.00  0.00    +0.012 C 
ATOM     26  C   UNL     1      31.753 -23.055 -16.431  0.00  0.00    +0.134 C 
ATOM     27  C   UNL     1      32.008 -23.924 -14.192  0.00  0.00    -0.001 C 
ATOM     28  C   UNL     1      30.379 -22.914 -16.217  0.00  0.00    +0.037 C 
ATOM     29  C   UNL     1      30.635 -23.795 -13.984  0.00  0.00    -0.000 C 
ATOM     30  C   UNL     1      29.822 -23.286 -14.995  0.00  0.00    +0.003 C 
ENDBRANCH  20  22
ENDBRANCH  17  20
ENDBRANCH  16  17
ENDBRANCH   1  16
TORSDOF 7
ENDMDL
MODEL 2
REMARK VINA RESULT:     -10.8      3.533      6.063
REMARK  Name = 198757
REMARK  7 active torsions:
REMARK  status: ('A' for Active; 'I' for Inactive)
REMARK    1  A    between atoms: C_1  and  C_2
REMARK    2  A    between atoms: C_1  and  C_16
REMARK    3  A    between atoms: C_2  and  C_3
REMARK    4  A    between atoms: C_3  and  N_8
REMARK    5  A    between atoms: C_16  and  N_17
REMARK    6  A    between atoms: N_17  and  C_20
REMARK    7  A    between atoms: C_20  and  C_22
REMARK                            x       y       z     vdW  Elec       q    Type
REMARK                         _______ _______ _______ _____ _____    ______ ____
ROOT
ATOM      1  C   UNL     1      33.717 -15.272 -21.760  0.00  0.00    -0.022 C 
ENDROOT
BRANCH   1   2
ATOM      2  C   UNL     1      32.903 -13.997 -21.512  0.00  0.00    +0.021 C 
BRANCH   2   3
ATOM      3  C   UNL     1      32.326 -13.403 -22.793  0.00  0.00    +0.119 C 
BRANCH   3   8
ATOM      4  S   UNL     1      31.787 -10.840 -21.917  0.00  0.00    +0.079 S 
ATOM      5  O   UNL     1      32.158 -10.988 -20.527  0.00  0.00    -0.150 OA
ATOM      6  O   UNL     1      30.417 -10.729 -22.371  0.00  0.00    -0.150 OA
ATOM      7  O   UNL     1      34.369 -11.987 -24.525  0.00  0.00    -0.268 OA
ATOM      8  N   UNL     1      32.649 -11.963 -22.889  0.00  0.00    -0.156 N 
ATOM      9  C   UNL     1      32.694  -9.511 -22.586  0.00  0.00    +0.130 C 
ATOM     10  C   UNL     1      33.629  -9.935 -23.530  0.00  0.00    +0.074 C 
ATOM     11  C   UNL     1      33.642 -11.395 -23.748  0.00  0.00    +0.269 C 
ATOM     12  C   UNL     1      32.529  -8.185 -22.242  0.00  0.00    +0.020 C 
ATOM     13  C   UNL     1      34.443  -9.017 -24.169  0.00  0.00    +0.006 C 
ATOM     14  C   UNL     1      33.347  -7.254 -22.884  0.00  0.00    +0.001 C 
ATOM     15  C   UNL     1      34.296  -7.666 -23.838  0.00  0.00    +0.000 C 
ENDBRANCH   3   8
ENDBRANCH   2   3
ENDBRANCH   1   2
BRANCH   1  16
ATOM     16  C   UNL     1      34.573 -15.141 -23.020  0.00  0.00    -0.082 C 
BRANCH  16  17
ATOM     17  N   UNL     1      35.384 -16.337 -23.208  0.00  0.00    +0.386 N 
ATOM     18  H   UNL     1      35.977 -16.212 -24.027  0.00  0.00    -0.084 HD
ATOM     19  H   UNL     1      35.952 -16.478 -22.372  0.00  0.00    -0.084 HD
BRANCH  17  20
ATOM     20  C   UNL     1      34.545 -17.511 -23.402  0.00  0.00    -0.037 C 
BRANCH  20  22
ATOM     21  O   UNL     1      33.975 -19.183 -21.803  0.00  0.00    -0.482 OA
ATOM     22  C   UNL     1      35.067 -18.694 -22.597  0.00  0.00    +0.145 C 
ATOM     23  C   UNL     1      36.249 -18.279 -21.723  0.00  0.00    +0.046 C 
ATOM     24  C   UNL     1      36.772 -19.501 -20.979  0.00  0.00    +0.033 C 
ATOM     25  C   UNL     1      35.635 -20.286 -20.391  0.00  0.00    +0.012 C 
ATOM     26  C   UNL     1      34.321 -20.093 -20.837  0.00  0.00    +0.134 C 
ATOM     27  C   UNL     1      35.886 -21.244 -19.401  0.00  0.00    -0.001 C 
ATOM     28  C   UNL     1      33.271 -20.820 -20.271  0.00  0.00    +0.037 C 
ATOM     29  C   UNL     1      34.837 -21.979 -18.846  0.00  0.00    -0.000 C 
ATOM     30  C   UNL     1      33.530 -21.764 -19.278  0.00  0.00    +0.003 C 
ENDBRANCH  20  22
ENDBRANCH  17  20
ENDBRANCH  16  17
ENDBRANCH   1  16
TORSDOF 7
ENDMDL
MODEL 3
REMARK VINA RESULT:     -10.5      4.261     10.484
REMARK  Name = 198757
REMARK  7 active torsions:
REMARK  status: ('A' for Active; 'I' for Inactive)
REMARK    1  A    between atoms: C_1  and  C_2
REMARK    2  A    between atoms: C_1  and  C_16
REMARK    3  A    between atoms: C_2  and  C_3
REMARK    4  A    between atoms: C_3  and  N_8
REMARK    5  A    between atoms: C_16  and  N_17
REMARK    6  A    between atoms: N_17  and  C_20
REMARK    7  A    between atoms: C_20  and  C_22
REMARK                            x       y       z     vdW  Elec       q    Type
REMARK                         _______ _______ _______ _____ _____    ______ ____
ROOT
ATOM      1  C   UNL     1      32.294 -23.179 -15.011  0.00  0.00    -0.022 C 
ENDROOT
BRANCH   1   2
ATOM      2  C   UNL     1      32.955 -24.366 -14.301  0.00  0.00    +0.021 C 
BRANCH   2   3
ATOM      3  C   UNL     1      33.865 -23.940 -13.154  0.00  0.00    +0.119 C 
BRANCH   3   8
ATOM      4  S   UNL     1      35.911 -23.868 -15.008  0.00  0.00    +0.079 S 
ATOM      5  O   UNL     1      36.050 -22.435 -15.143  0.00  0.00    -0.150 OA
ATOM      6  O   UNL     1      35.324 -24.713 -16.026  0.00  0.00    -0.150 OA
ATOM      7  O   UNL     1      35.967 -25.279 -11.431  0.00  0.00    -0.268 OA
ATOM      8  N   UNL     1      35.275 -24.264 -13.463  0.00  0.00    -0.156 N 
ATOM      9  C   UNL     1      37.464 -24.530 -14.578  0.00  0.00    +0.130 C 
ATOM     10  C   UNL     1      37.477 -25.039 -13.279  0.00  0.00    +0.074 C 
ATOM     11  C   UNL     1      36.190 -24.904 -12.569  0.00  0.00    +0.269 C 
ATOM     12  C   UNL     1      38.570 -24.562 -15.403  0.00  0.00    +0.020 C 
ATOM     13  C   UNL     1      38.628 -25.606 -12.762  0.00  0.00    +0.006 C 
ATOM     14  C   UNL     1      39.733 -25.133 -14.887  0.00  0.00    +0.001 C 
ATOM     15  C   UNL     1      39.763 -25.650 -13.578  0.00  0.00    +0.000 C 
ENDBRANCH   3   8
ENDBRANCH   2   3
ENDBRANCH   1   2
BRANCH   1  16
ATOM     16  C   UNL     1      31.781 -23.582 -16.393  0.00  0.00    -0.082 C 
BRANCH  16  17
ATOM     17  N   UNL     1      32.184 -22.597 -17.390  0.00  0.00    +0.386 N 
ATOM     18  H   UNL     1      31.439 -22.496 -18.078  0.00  0.00    -0.084 HD
ATOM     19  H   UNL     1      32.359 -21.711 -16.917  0.00  0.00    -0.084 HD
BRANCH  17  20
ATOM     20  C   UNL     1      33.405 -23.011 -18.067  0.00  0.00    -0.037 C 
BRANCH  20  22
ATOM     21  O   UNL     1      35.001 -21.603 -19.138  0.00  0.00    -0.482 OA
ATOM     22  C   UNL     1      33.676 -22.137 -19.285  0.00  0.00    +0.145 C 
ATOM     23  C   UNL     1      32.637 -21.023 -19.398  0.00  0.00    +0.046 C 
ATOM     24  C   UNL     1      32.913 -20.209 -20.655  0.00  0.00    +0.033 C 
ATOM     25  C   UNL     1      34.376 -19.891 -20.765  0.00  0.00    +0.012 C 
ATOM     26  C   UNL     1      35.325 -20.603 -20.020  0.00  0.00    +0.134 C 
ATOM     27  C   UNL     1      34.810 -18.890 -21.643  0.00  0.00    -0.001 C 
ATOM     28  C   UNL     1      36.683 -20.288 -20.122  0.00  0.00    +0.037 C 
ATOM     29  C   UNL     1      36.167 -18.586 -21.754  0.00  0.00    -0.000 C 
ATOM     30  C   UNL     1      37.102 -19.281 -20.991  0.00  0.00    +0.003 C 
ENDBRANCH  20  22
ENDBRANCH  17  20
ENDBRANCH  16  17
ENDBRANCH   1  16
TORSDOF 7
ENDMDL
MODEL 4
REMARK VINA RESULT:     -10.5      5.283     12.411
REMARK  Name = 198757
REMARK  7 active torsions:
REMARK  status: ('A' for Active; 'I' for Inactive)
REMARK    1  A    between atoms: C_1  and  C_2
REMARK    2  A    between atoms: C_1  and  C_16
REMARK    3  A    between atoms: C_2  and  C_3
REMARK    4  A    between atoms: C_3  and  N_8
REMARK    5  A    between atoms: C_16  and  N_17
REMARK    6  A    between atoms: N_17  and  C_20
REMARK    7  A    between atoms: C_20  and  C_22
REMARK                            x       y       z     vdW  Elec       q    Type
REMARK                         _______ _______ _______ _____ _____    ______ ____
ROOT
ATOM      1  C   UNL     1      31.711 -12.111 -21.084  0.00  0.00    -0.022 C 
ENDROOT
BRANCH   1   2
ATOM      2  C   UNL     1      31.980 -12.984 -22.315  0.00  0.00    +0.021 C 
BRANCH   2   3
ATOM      3  C   UNL     1      33.467 -13.179 -22.591  0.00  0.00    +0.119 C 
BRANCH   3   8
ATOM      4  S   UNL     1      33.866 -15.468 -21.099  0.00  0.00    +0.079 S 
ATOM      5  O   UNL     1      32.533 -15.628 -20.561  0.00  0.00    -0.150 OA
ATOM      6  O   UNL     1      34.998 -15.030 -20.310  0.00  0.00    -0.150 OA
ATOM      7  O   UNL     1      34.148 -15.011 -24.906  0.00  0.00    -0.268 OA
ATOM      8  N   UNL     1      33.811 -14.617 -22.589  0.00  0.00    -0.156 N 
ATOM      9  C   UNL     1      34.307 -16.942 -21.915  0.00  0.00    +0.130 C 
ATOM     10  C   UNL     1      34.407 -16.768 -23.295  0.00  0.00    +0.074 C 
ATOM     11  C   UNL     1      34.119 -15.394 -23.750  0.00  0.00    +0.269 C 
ATOM     12  C   UNL     1      34.538 -18.154 -21.297  0.00  0.00    +0.020 C 
ATOM     13  C   UNL     1      34.747 -17.833 -24.111  0.00  0.00    +0.006 C 
ATOM     14  C   UNL     1      34.883 -19.231 -22.114  0.00  0.00    +0.001 C 
ATOM     15  C   UNL     1      34.986 -19.072 -23.509  0.00  0.00    +0.000 C 
ENDBRANCH   3   8
ENDBRANCH   2   3
ENDBRANCH   1   2
BRANCH   1  16
ATOM     16  C   UNL     1      31.612 -10.635 -21.468  0.00  0.00    -0.082 C 
BRANCH  16  17
ATOM     17  N   UNL     1      31.629  -9.799 -20.274  0.00  0.00    +0.386 N 
ATOM     18  H   UNL     1      30.677  -9.497 -20.065  0.00  0.00    -0.084 HD
ATOM     19  H   UNL     1      32.009 -10.345 -19.501  0.00  0.00    -0.084 HD
BRANCH  17  20
ATOM     20  C   UNL     1      32.468  -8.626 -20.471  0.00  0.00    -0.037 C 
BRANCH  20  22
ATOM     21  O   UNL     1      33.415  -7.757 -22.478  0.00  0.00    -0.482 OA
ATOM     22  C   UNL     1      32.163  -7.954 -21.805  0.00  0.00    +0.145 C 
ATOM     23  C   UNL     1      31.431  -6.631 -21.592  0.00  0.00    +0.046 C 
ATOM     24  C   UNL     1      31.098  -6.022 -22.948  0.00  0.00    +0.033 C 
ATOM     25  C   UNL     1      32.288  -6.090 -23.862  0.00  0.00    +0.012 C 
ATOM     26  C   UNL     1      33.359  -6.949 -23.585  0.00  0.00    +0.134 C 
ATOM     27  C   UNL     1      32.323  -5.307 -25.023  0.00  0.00    -0.001 C 
ATOM     28  C   UNL     1      34.466  -6.993 -24.437  0.00  0.00    +0.037 C 
ATOM     29  C   UNL     1      33.424  -5.362 -25.879  0.00  0.00    -0.000 C 
ATOM     30  C   UNL     1      34.496  -6.200 -25.583  0.00  0.00    +0.003 C 
ENDBRANCH  20  22
ENDBRANCH  17  20
ENDBRANCH  16  17
ENDBRANCH   1  16
TORSDOF 7
ENDMDL
MODEL 5
REMARK VINA RESULT:     -10.5      2.495     10.227
REMARK  Name = 198757
REMARK  7 active torsions:
REMARK  status: ('A' for Active; 'I' for Inactive)
REMARK    1  A    between atoms: C_1  and  C_2
REMARK    2  A    between atoms: C_1  and  C_16
REMARK    3  A    between atoms: C_2  and  C_3
REMARK    4  A    between atoms: C_3  and  N_8
REMARK    5  A    between atoms: C_16  and  N_17
REMARK    6  A    between atoms: N_17  and  C_20
REMARK    7  A    between atoms: C_20  and  C_22
REMARK                            x       y       z     vdW  Elec       q    Type
REMARK                         _______ _______ _______ _____ _____    ______ ____
ROOT
ATOM      1  C   UNL     1      35.502 -20.923 -20.034  0.00  0.00    -0.022 C 
ENDROOT
BRANCH   1   2
ATOM      2  C   UNL     1      34.877 -22.140 -19.345  0.00  0.00    +0.021 C 
BRANCH   2   3
ATOM      3  C   UNL     1      35.434 -22.381 -17.946  0.00  0.00    +0.119 C 
BRANCH   3   8
ATOM      4  S   UNL     1      34.815 -23.629 -15.561  0.00  0.00    +0.079 S 
ATOM      5  O   UNL     1      35.335 -22.640 -14.642  0.00  0.00    -0.150 OA
ATOM      6  O   UNL     1      35.450 -24.907 -15.802  0.00  0.00    -0.150 OA
ATOM      7  O   UNL     1      32.423 -22.359 -18.291  0.00  0.00    -0.268 OA
ATOM      8  N   UNL     1      34.375 -22.890 -17.047  0.00  0.00    -0.156 N 
ATOM      9  C   UNL     1      33.143 -23.916 -15.167  0.00  0.00    +0.130 C 
ATOM     10  C   UNL     1      32.282 -23.452 -16.161  0.00  0.00    +0.074 C 
ATOM     11  C   UNL     1      32.970 -22.829 -17.309  0.00  0.00    +0.269 C 
ATOM     12  C   UNL     1      32.692 -24.527 -14.015  0.00  0.00    +0.020 C 
ATOM     13  C   UNL     1      30.912 -23.592 -16.021  0.00  0.00    +0.006 C 
ATOM     14  C   UNL     1      31.312 -24.673 -13.869  0.00  0.00    +0.001 C 
ATOM     15  C   UNL     1      30.430 -24.209 -14.862  0.00  0.00    +0.000 C 
ENDBRANCH   3   8
ENDBRANCH   2   3
ENDBRANCH   1   2
BRANCH   1  16
ATOM     16  C   UNL     1      34.426 -20.010 -20.622  0.00  0.00    -0.082 C 
BRANCH  16  17
ATOM     17  N   UNL     1      34.953 -18.665 -20.816  0.00  0.00    +0.386 N 
ATOM     18  H   UNL     1      34.207 -18.062 -21.162  0.00  0.00    -0.084 HD
ATOM     19  H   UNL     1      35.304 -18.323 -19.923  0.00  0.00    -0.084 HD
BRANCH  17  20
ATOM     20  C   UNL     1      36.047 -18.667 -21.777  0.00  0.00    -0.037 C 
BRANCH  20  22
ATOM     21  O   UNL     1      35.047 -16.646 -22.548  0.00  0.00    -0.482 OA
ATOM     22  C   UNL     1      35.693 -17.842 -23.008  0.00  0.00    +0.145 C 
ATOM     23  C   UNL     1      34.791 -18.635 -23.953  0.00  0.00    +0.046 C 
ATOM     24  C   UNL     1      34.508 -17.796 -25.192  0.00  0.00    +0.033 C 
ATOM     25  C   UNL     1      34.149 -16.390 -24.805  0.00  0.00    +0.012 C 
ATOM     26  C   UNL     1      34.444 -15.898 -23.527  0.00  0.00    +0.134 C 
ATOM     27  C   UNL     1      33.536 -15.543 -25.737  0.00  0.00    -0.001 C 
ATOM     28  C   UNL     1      34.092 -14.592 -23.176  0.00  0.00    +0.037 C 
ATOM     29  C   UNL     1      33.197 -14.235 -25.389  0.00  0.00    -0.000 C 
ATOM     30  C   UNL     1      33.471 -13.762 -24.108  0.00  0.00    +0.003 C 
ENDBRANCH  20  22
ENDBRANCH  17  20
ENDBRANCH  16  17
ENDBRANCH   1  16
TORSDOF 7
ENDMDL
MODEL 6
REMARK VINA RESULT:     -10.4      6.589      9.993
REMARK  Name = 198757
REMARK  7 active torsions:
REMARK  status: ('A' for Active; 'I' for Inactive)
REMARK    1  A    between atoms: C_1  and  C_2
REMARK    2  A    between atoms: C_1  and  C_16
REMARK    3  A    between atoms: C_2  and  C_3
REMARK    4  A    between atoms: C_3  and  N_8
REMARK    5  A    between atoms: C_16  and  N_17
REMARK    6  A    between atoms: N_17  and  C_20
REMARK    7  A    between atoms: C_20  and  C_22
REMARK                            x       y       z     vdW  Elec       q    Type
REMARK                         _______ _______ _______ _____ _____    ______ ____
ROOT
ATOM      1  C   UNL     1      32.099 -10.557 -22.366  0.00  0.00    -0.022 C 
ENDROOT
BRANCH   1   2
ATOM      2  C   UNL     1      31.707  -9.363 -21.489  0.00  0.00    +0.021 C 
BRANCH   2   3
ATOM      3  C   UNL     1      32.833  -8.346 -21.334  0.00  0.00    +0.119 C 
BRANCH   3   8
ATOM      4  S   UNL     1      31.649  -6.444 -22.948  0.00  0.00    +0.079 S 
ATOM      5  O   UNL     1      31.579  -5.350 -22.003  0.00  0.00    -0.150 OA
ATOM      6  O   UNL     1      30.493  -7.201 -23.380  0.00  0.00    -0.150 OA
ATOM      7  O   UNL     1      35.071  -8.146 -23.367  0.00  0.00    -0.268 OA
ATOM      8  N   UNL     1      32.939  -7.501 -22.543  0.00  0.00    -0.156 N 
ATOM      9  C   UNL     1      32.499  -5.889 -24.364  0.00  0.00    +0.130 C 
ATOM     10  C   UNL     1      33.739  -6.510 -24.508  0.00  0.00    +0.074 C 
ATOM     11  C   UNL     1      34.050  -7.485 -23.444  0.00  0.00    +0.269 C 
ATOM     12  C   UNL     1      32.027  -4.947 -25.255  0.00  0.00    +0.020 C 
ATOM     13  C   UNL     1      34.559  -6.194 -25.577  0.00  0.00    +0.006 C 
ATOM     14  C   UNL     1      32.849  -4.626 -26.336  0.00  0.00    +0.001 C 
ATOM     15  C   UNL     1      34.104  -5.243 -26.496  0.00  0.00    +0.000 C 
ENDBRANCH   3   8
ENDBRANCH   2   3
ENDBRANCH   1   2
BRANCH   1  16
ATOM     16  C   UNL     1      31.675 -11.876 -21.720  0.00  0.00    -0.082 C 
BRANCH  16  17
ATOM     17  N   UNL     1      31.972 -12.993 -22.608  0.00  0.00    +0.386 N 
ATOM     18  H   UNL     1      31.943 -13.861 -22.072  0.00  0.00    -0.084 HD
ATOM     19  H   UNL     1      31.276 -13.009 -23.353  0.00  0.00    -0.084 HD
BRANCH  17  20
ATOM     20  C   UNL     1      33.291 -12.847 -23.206  0.00  0.00    -0.037 C 
BRANCH  20  22
ATOM     21  O   UNL     1      33.776 -15.020 -24.055  0.00  0.00    -0.482 OA
ATOM     22  C   UNL     1      34.125 -14.107 -23.004  0.00  0.00    +0.145 C 
ATOM     23  C   UNL     1      33.864 -14.717 -21.627  0.00  0.00    +0.046 C 
ATOM     24  C   UNL     1      34.755 -15.939 -21.446  0.00  0.00    +0.033 C 
ATOM     25  C   UNL     1      34.720 -16.802 -22.675  0.00  0.00    +0.012 C 
ATOM     26  C   UNL     1      34.250 -16.298 -23.895  0.00  0.00    +0.134 C 
ATOM     27  C   UNL     1      35.187 -18.121 -22.616  0.00  0.00    -0.001 C 
ATOM     28  C   UNL     1      34.210 -17.116 -25.027  0.00  0.00    +0.037 C 
ATOM     29  C   UNL     1      35.160 -18.932 -23.751  0.00  0.00    -0.000 C 
ATOM     30  C   UNL     1      34.667 -18.432 -24.954  0.00  0.00    +0.003 C 
ENDBRANCH  20  22
ENDBRANCH  17  20
ENDBRANCH  16  17
ENDBRANCH   1  16
TORSDOF 7
ENDMDL
MODEL 7
REMARK VINA RESULT:     -10.4      4.351     10.581
REMARK  Name = 198757
REMARK  7 active torsions:
REMARK  status: ('A' for Active; 'I' for Inactive)
REMARK    1  A    between atoms: C_1  and  C_2
REMARK    2  A    between atoms: C_1  and  C_16
REMARK    3  A    between atoms: C_2  and  C_3
REMARK    4  A    between atoms: C_3  and  N_8
REMARK    5  A    between atoms: C_16  and  N_17
REMARK    6  A    between atoms: N_17  and  C_20
REMARK    7  A    between atoms: C_20  and  C_22
REMARK                            x       y       z     vdW  Elec       q    Type
REMARK                         _______ _______ _______ _____ _____    ______ ____
ROOT
ATOM      1  C   UNL     1      31.849 -23.191 -15.190  0.00  0.00    -0.022 C 
ENDROOT
BRANCH   1   2
ATOM      2  C   UNL     1      33.238 -23.056 -14.555  0.00  0.00    +0.021 C 
BRANCH   2   3
ATOM      3  C   UNL     1      33.569 -24.201 -13.603  0.00  0.00    +0.119 C 
BRANCH   3   8
ATOM      4  S   UNL     1      35.996 -24.275 -12.287  0.00  0.00    +0.079 S 
ATOM      5  O   UNL     1      35.668 -25.231 -11.252  0.00  0.00    -0.150 OA
ATOM      6  O   UNL     1      36.164 -22.859 -12.042  0.00  0.00    -0.150 OA
ATOM      7  O   UNL     1      35.200 -25.307 -15.905  0.00  0.00    -0.268 OA
ATOM      8  N   UNL     1      35.010 -24.530 -13.670  0.00  0.00    -0.156 N 
ATOM      9  C   UNL     1      37.402 -24.853 -13.139  0.00  0.00    +0.130 C 
ATOM     10  C   UNL     1      37.104 -25.226 -14.450  0.00  0.00    +0.074 C 
ATOM     11  C   UNL     1      35.685 -25.051 -14.817  0.00  0.00    +0.269 C 
ATOM     12  C   UNL     1      38.671 -24.943 -12.607  0.00  0.00    +0.020 C 
ATOM     13  C   UNL     1      38.099 -25.712 -15.281  0.00  0.00    +0.006 C 
ATOM     14  C   UNL     1      39.678 -25.431 -13.441  0.00  0.00    +0.001 C 
ATOM     15  C   UNL     1      39.395 -25.812 -14.766  0.00  0.00    +0.000 C 
ENDBRANCH   3   8
ENDBRANCH   2   3
ENDBRANCH   1   2
BRANCH   1  16
ATOM     16  C   UNL     1      31.949 -23.694 -16.629  0.00  0.00    -0.082 C 
BRANCH  16  17
ATOM     17  N   UNL     1      32.319 -22.604 -17.523  0.00  0.00    +0.386 N 
ATOM     18  H   UNL     1      31.623 -22.531 -18.265  0.00  0.00    -0.084 HD
ATOM     19  H   UNL     1      32.357 -21.740 -16.982  0.00  0.00    -0.084 HD
BRANCH  17  20
ATOM     20  C   UNL     1      33.626 -22.838 -18.118  0.00  0.00    -0.037 C 
BRANCH  20  22
ATOM     21  O   UNL     1      35.108 -21.393 -19.299  0.00  0.00    -0.482 OA
ATOM     22  C   UNL     1      33.810 -22.001 -19.378  0.00  0.00    +0.145 C 
ATOM     23  C   UNL     1      32.709 -20.948 -19.497  0.00  0.00    +0.046 C 
ATOM     24  C   UNL     1      32.900 -20.173 -20.795  0.00  0.00    +0.033 C 
ATOM     25  C   UNL     1      34.340 -19.784 -20.968  0.00  0.00    +0.012 C 
ATOM     26  C   UNL     1      35.350 -20.414 -20.230  0.00  0.00    +0.134 C 
ATOM     27  C   UNL     1      34.690 -18.798 -21.899  0.00  0.00    -0.001 C 
ATOM     28  C   UNL     1      36.684 -20.033 -20.391  0.00  0.00    +0.037 C 
ATOM     29  C   UNL     1      36.024 -18.428 -22.070  0.00  0.00    -0.000 C 
ATOM     30  C   UNL     1      37.020 -19.042 -21.312  0.00  0.00    +0.003 C 
ENDBRANCH  20  22
ENDBRANCH  17  20
ENDBRANCH  16  17
ENDBRANCH   1  16
TORSDOF 7
ENDMDL
MODEL 8
REMARK VINA RESULT:     -10.3      2.363      9.857
REMARK  Name = 198757
REMARK  7 active torsions:
REMARK  status: ('A' for Active; 'I' for Inactive)
REMARK    1  A    between atoms: C_1  and  C_2
REMARK    2  A    between atoms: C_1  and  C_16
REMARK    3  A    between atoms: C_2  and  C_3
REMARK    4  A    between atoms: C_3  and  N_8
REMARK    5  A    between atoms: C_16  and  N_17
REMARK    6  A    between atoms: N_17  and  C_20
REMARK    7  A    between atoms: C_20  and  C_22
REMARK                            x       y       z     vdW  Elec       q    Type
REMARK                         _______ _______ _______ _____ _____    ______ ____
ROOT
ATOM      1  C   UNL     1      35.621 -19.292 -21.568  0.00  0.00    -0.022 C 
ENDROOT
BRANCH   1   2
ATOM      2  C   UNL     1      35.004 -20.126 -20.439  0.00  0.00    +0.021 C 
BRANCH   2   3
ATOM      3  C   UNL     1      35.833 -21.357 -20.089  0.00  0.00    +0.119 C 
BRANCH   3   8
ATOM      4  S   UNL     1      33.849 -22.703 -18.720  0.00  0.00    +0.079 S 
ATOM      5  O   UNL     1      33.867 -23.950 -19.453  0.00  0.00    -0.150 OA
ATOM      6  O   UNL     1      32.790 -21.724 -18.834  0.00  0.00    -0.150 OA
ATOM      7  O   UNL     1      37.229 -21.428 -17.401  0.00  0.00    -0.268 OA
ATOM      8  N   UNL     1      35.383 -21.938 -18.806  0.00  0.00    -0.156 N 
ATOM      9  C   UNL     1      34.082 -23.060 -17.030  0.00  0.00    +0.130 C 
ATOM     10  C   UNL     1      35.310 -22.596 -16.560  0.00  0.00    +0.074 C 
ATOM     11  C   UNL     1      36.127 -21.915 -17.584  0.00  0.00    +0.269 C 
ATOM     12  C   UNL     1      33.177 -23.723 -16.227  0.00  0.00    +0.020 C 
ATOM     13  C   UNL     1      35.671 -22.790 -15.238  0.00  0.00    +0.006 C 
ATOM     14  C   UNL     1      33.536 -23.921 -14.893  0.00  0.00    +0.001 C 
ATOM     15  C   UNL     1      34.771 -23.459 -14.402  0.00  0.00    +0.000 C 
ENDBRANCH   3   8
ENDBRANCH   2   3
ENDBRANCH   1   2
BRANCH   1  16
ATOM     16  C   UNL     1      34.719 -19.287 -22.803  0.00  0.00    -0.082 C 
BRANCH  16  17
ATOM     17  N   UNL     1      35.000 -18.120 -23.629  0.00  0.00    +0.386 N 
ATOM     18  H   UNL     1      35.766 -18.339 -24.266  0.00  0.00    -0.084 HD
ATOM     19  H   UNL     1      34.157 -17.882 -24.152  0.00  0.00    -0.084 HD
BRANCH  17  20
ATOM     20  C   UNL     1      35.375 -16.978 -22.809  0.00  0.00    -0.037 C 
BRANCH  20  22
ATOM     21  O   UNL     1      34.520 -14.786 -23.188  0.00  0.00    -0.482 OA
ATOM     22  C   UNL     1      34.188 -16.048 -22.590  0.00  0.00    +0.145 C 
ATOM     23  C   UNL     1      33.883 -15.896 -21.101  0.00  0.00    +0.046 C 
ATOM     24  C   UNL     1      32.659 -15.005 -20.931  0.00  0.00    +0.033 C 
ATOM     25  C   UNL     1      32.766 -13.792 -21.810  0.00  0.00    +0.012 C 
ATOM     26  C   UNL     1      33.669 -13.755 -22.880  0.00  0.00    +0.134 C 
ATOM     27  C   UNL     1      31.935 -12.688 -21.580  0.00  0.00    -0.001 C 
ATOM     28  C   UNL     1      33.767 -12.614 -23.681  0.00  0.00    +0.037 C 
ATOM     29  C   UNL     1      32.025 -11.555 -22.389  0.00  0.00    -0.000 C 
ATOM     30  C   UNL     1      32.944 -11.516 -23.436  0.00  0.00    +0.003 C 
ENDBRANCH  20  22
ENDBRANCH  17  20
ENDBRANCH  16  17
ENDBRANCH   1  16
TORSDOF 7
ENDMDL
MODEL 9
REMARK VINA RESULT:     -10.3      5.791     12.967
REMARK  Name = 198757
REMARK  7 active torsions:
REMARK  status: ('A' for Active; 'I' for Inactive)
REMARK    1  A    between atoms: C_1  and  C_2
REMARK    2  A    between atoms: C_1  and  C_16
REMARK    3  A    between atoms: C_2  and  C_3
REMARK    4  A    between atoms: C_3  and  N_8
REMARK    5  A    between atoms: C_16  and  N_17
REMARK    6  A    between atoms: N_17  and  C_20
REMARK    7  A    between atoms: C_20  and  C_22
REMARK                            x       y       z     vdW  Elec       q    Type
REMARK                         _______ _______ _______ _____ _____    ______ ____
ROOT
ATOM      1  C   UNL     1      33.451 -11.019 -23.771  0.00  0.00    -0.022 C 
ENDROOT
BRANCH   1   2
ATOM      2  C   UNL     1      33.862 -12.285 -24.532  0.00  0.00    +0.021 C 
BRANCH   2   3
ATOM      3  C   UNL     1      32.790 -13.369 -24.503  0.00  0.00    +0.119 C 
BRANCH   3   8
ATOM      4  S   UNL     1      33.577 -15.009 -22.425  0.00  0.00    +0.079 S 
ATOM      5  O   UNL     1      32.292 -15.215 -21.794  0.00  0.00    -0.150 OA
ATOM      6  O   UNL     1      34.619 -14.178 -21.863  0.00  0.00    -0.150 OA
ATOM      7  O   UNL     1      33.768 -15.675 -26.208  0.00  0.00    -0.268 OA
ATOM      8  N   UNL     1      33.374 -14.665 -24.095  0.00  0.00    -0.156 N 
ATOM      9  C   UNL     1      34.261 -16.569 -22.793  0.00  0.00    +0.130 C 
ATOM     10  C   UNL     1      34.326 -16.803 -24.166  0.00  0.00    +0.074 C 
ATOM     11  C   UNL     1      33.808 -15.693 -24.990  0.00  0.00    +0.269 C 
ATOM     12  C   UNL     1      34.696 -17.485 -21.858  0.00  0.00    +0.020 C 
ATOM     13  C   UNL     1      34.842 -17.993 -24.649  0.00  0.00    +0.006 C 
ATOM     14  C   UNL     1      35.218 -18.687 -22.339  0.00  0.00    +0.001 C 
ATOM     15  C   UNL     1      35.290 -18.939 -23.722  0.00  0.00    +0.000 C 
ENDBRANCH   3   8
ENDBRANCH   2   3
ENDBRANCH   1   2
BRANCH   1  16
ATOM     16  C   UNL     1      32.359 -11.324 -22.746  0.00  0.00    -0.082 C 
BRANCH  16  17
ATOM     17  N   UNL     1      31.600 -10.118 -22.441  0.00  0.00    +0.386 N 
ATOM     18  H   UNL     1      30.930  -9.947 -23.191  0.00  0.00    -0.084 HD
ATOM     19  H   UNL     1      31.116 -10.256 -21.553  0.00  0.00    -0.084 HD
BRANCH  17  20
ATOM     20  C   UNL     1      32.480  -8.966 -22.317  0.00  0.00    -0.037 C 
BRANCH  20  22
ATOM     21  O   UNL     1      32.682  -7.228 -23.935  0.00  0.00    -0.482 OA
ATOM     22  C   UNL     1      31.825  -7.715 -22.891  0.00  0.00    +0.145 C 
ATOM     23  C   UNL     1      31.618  -6.662 -21.804  0.00  0.00    +0.046 C 
ATOM     24  C   UNL     1      30.914  -5.453 -22.408  0.00  0.00    +0.033 C 
ATOM     25  C   UNL     1      31.547  -5.076 -23.716  0.00  0.00    +0.012 C 
ATOM     26  C   UNL     1      32.375  -5.975 -24.402  0.00  0.00    +0.134 C 
ATOM     27  C   UNL     1      31.290  -3.820 -24.280  0.00  0.00    -0.001 C 
ATOM     28  C   UNL     1      32.968  -5.605 -25.611  0.00  0.00    +0.037 C 
ATOM     29  C   UNL     1      31.872  -3.457 -25.495  0.00  0.00    -0.000 C 
ATOM     30  C   UNL     1      32.715  -4.348 -26.157  0.00  0.00    +0.003 C 
ENDBRANCH  20  22
ENDBRANCH  17  20
ENDBRANCH  16  17
ENDBRANCH   1  16
TORSDOF 7
ENDMDL
