MODEL 1
REMARK VINA RESULT:      -9.5      0.000      0.000
REMARK  Name = 10309114
REMARK  7 active torsions:
REMARK  status: ('A' for Active; 'I' for Inactive)
REMARK    1  A    between atoms: N_1  and  C_19
REMARK    2  A    between atoms: C_6  and  C_17
REMARK    3  A    between atoms: C_19  and  C_20
REMARK    4  A    between atoms: C_20  and  C_21
REMARK    5  A    between atoms: C_21  and  C_22
REMARK    6  A    between atoms: C_22  and  N_23
REMARK    7  A    between atoms: N_23  and  S_25
REMARK                            x       y       z     vdW  Elec       q    Type
REMARK                         _______ _______ _______ _____ _____    ______ ____
ROOT
ATOM      1  N   UNL     1      34.427 -16.834 -22.716  0.00  0.00    -0.264 N 
ATOM      2  N   UNL     1      34.491 -16.746 -24.934  0.00  0.00    -0.386 NA
ATOM      3  N   UNL     1      32.686 -13.553 -24.406  0.00  0.00    -0.385 NA
ATOM      4  N   UNL     1      33.312 -14.489 -26.513  0.00  0.00    -0.331 N 
ATOM      5  C   UNL     1      33.792 -15.665 -23.052  0.00  0.00    +0.089 C 
ATOM      6  C   UNL     1      34.825 -17.444 -23.873  0.00  0.00    +0.164 C 
ATOM      7  C   UNL     1      33.847 -15.636 -24.441  0.00  0.00    +0.189 C 
ATOM      8  C   UNL     1      33.185 -14.643 -22.301  0.00  0.00    +0.046 C 
ATOM      9  C   UNL     1      32.637 -13.588 -23.058  0.00  0.00    +0.134 C 
ATOM     10  C   UNL     1      33.278 -14.553 -25.107  0.00  0.00    +0.208 C 
ATOM     11  C   UNL     1      33.128 -14.667 -20.894  0.00  0.00    +0.004 C 
ATOM     12  C   UNL     1      32.028 -12.557 -22.349  0.00  0.00    +0.032 C 
ATOM     13  C   UNL     1      32.509 -13.618 -20.224  0.00  0.00    +0.000 C 
ATOM     14  C   UNL     1      31.961 -12.564 -20.950  0.00  0.00    +0.003 C 
ATOM     15  H   UNL     1      32.908 -13.722 -26.979  0.00  0.00    +0.145 HD
ATOM     16  H   UNL     1      33.739 -15.211 -27.028  0.00  0.00    +0.145 HD
ENDROOT
BRANCH   6  17
ATOM     17  C   UNL     1      35.544 -18.735 -23.881  0.00  0.00    +0.075 C 
ATOM     18  C   UNL     1      34.816 -19.811 -24.694  0.00  0.00    +0.009 C 
ENDBRANCH   6  17
BRANCH   1  19
ATOM     19  C   UNL     1      34.660 -17.378 -21.396  0.00  0.00    +0.098 C 
BRANCH  19  20
ATOM     20  C   UNL     1      33.564 -18.356 -20.975  0.00  0.00    +0.023 C 
BRANCH  20  21
ATOM     21  C   UNL     1      34.144 -19.742 -20.684  0.00  0.00    +0.021 C 
BRANCH  21  22
ATOM     22  C   UNL     1      33.065 -20.810 -20.532  0.00  0.00    +0.091 C 
BRANCH  22  23
ATOM     23  N   UNL     1      33.039 -21.323 -19.145  0.00  0.00    -0.183 NA
ATOM     24  H   UNL     1      33.310 -20.550 -18.537  0.00  0.00    +0.148 HD
BRANCH  23  25
ATOM     25  S   UNL     1      34.024 -22.652 -18.734  0.00  0.00    +0.043 S 
ATOM     26  O   UNL     1      35.342 -22.188 -18.346  0.00  0.00    -0.157 OA
ATOM     27  O   UNL     1      33.866 -23.671 -19.753  0.00  0.00    -0.157 OA
ATOM     28  C   UNL     1      33.197 -23.230 -17.270  0.00  0.00    +0.196 C 
ENDBRANCH  23  25
ENDBRANCH  22  23
ENDBRANCH  21  22
ENDBRANCH  20  21
ENDBRANCH  19  20
ENDBRANCH   1  19
TORSDOF 7
ENDMDL
MODEL 2
REMARK VINA RESULT:      -9.3      7.863     10.993
REMARK  Name = 10309114
REMARK  7 active torsions:
REMARK  status: ('A' for Active; 'I' for Inactive)
REMARK    1  A    between atoms: N_1  and  C_19
REMARK    2  A    between atoms: C_6  and  C_17
REMARK    3  A    between atoms: C_19  and  C_20
REMARK    4  A    between atoms: C_20  and  C_21
REMARK    5  A    between atoms: C_21  and  C_22
REMARK    6  A    between atoms: C_22  and  N_23
REMARK    7  A    between atoms: N_23  and  S_25
REMARK                            x       y       z     vdW  Elec       q    Type
REMARK                         _______ _______ _______ _____ _____    ______ ____
ROOT
ATOM      1  N   UNL     1      33.976 -23.606 -15.402  0.00  0.00    -0.264 N 
ATOM      2  N   UNL     1      35.327 -22.901 -17.017  0.00  0.00    -0.386 NA
ATOM      3  N   UNL     1      37.904 -23.202 -14.372  0.00  0.00    -0.385 NA
ATOM      4  N   UNL     1      38.268 -22.489 -16.622  0.00  0.00    -0.331 N 
ATOM      5  C   UNL     1      35.224 -23.547 -14.833  0.00  0.00    +0.089 C 
ATOM      6  C   UNL     1      34.089 -23.211 -16.706  0.00  0.00    +0.164 C 
ATOM      7  C   UNL     1      36.046 -23.104 -15.863  0.00  0.00    +0.189 C 
ATOM      8  C   UNL     1      35.715 -23.829 -13.547  0.00  0.00    +0.046 C 
ATOM      9  C   UNL     1      37.100 -23.631 -13.377  0.00  0.00    +0.134 C 
ATOM     10  C   UNL     1      37.404 -22.936 -15.606  0.00  0.00    +0.208 C 
ATOM     11  C   UNL     1      34.886 -24.278 -12.499  0.00  0.00    +0.004 C 
ATOM     12  C   UNL     1      37.623 -23.902 -12.116  0.00  0.00    +0.032 C 
ATOM     13  C   UNL     1      35.449 -24.536 -11.254  0.00  0.00    +0.000 C 
ATOM     14  C   UNL     1      36.815 -24.349 -11.064  0.00  0.00    +0.003 C 
ATOM     15  H   UNL     1      39.228 -22.372 -16.436  0.00  0.00    +0.145 HD
ATOM     16  H   UNL     1      37.913 -22.294 -17.519  0.00  0.00    +0.145 HD
ENDROOT
BRANCH   6  17
ATOM     17  C   UNL     1      32.930 -23.154 -17.620  0.00  0.00    +0.075 C 
ATOM     18  C   UNL     1      33.137 -22.171 -18.777  0.00  0.00    +0.009 C 
ENDBRANCH   6  17
BRANCH   1  19
ATOM     19  C   UNL     1      32.729 -24.003 -14.785  0.00  0.00    +0.098 C 
BRANCH  19  20
ATOM     20  C   UNL     1      31.942 -22.805 -14.256  0.00  0.00    +0.023 C 
BRANCH  20  21
ATOM     21  C   UNL     1      30.448 -23.124 -14.164  0.00  0.00    +0.021 C 
BRANCH  21  22
ATOM     22  C   UNL     1      30.049 -24.319 -15.023  0.00  0.00    +0.091 C 
BRANCH  22  23
ATOM     23  N   UNL     1      28.625 -24.223 -15.411  0.00  0.00    -0.183 NA
ATOM     24  H   UNL     1      28.312 -25.168 -15.633  0.00  0.00    +0.148 HD
BRANCH  23  25
ATOM     25  S   UNL     1      28.190 -23.231 -16.727  0.00  0.00    +0.043 S 
ATOM     26  O   UNL     1      27.500 -24.018 -17.731  0.00  0.00    -0.157 OA
ATOM     27  O   UNL     1      29.333 -22.413 -17.081  0.00  0.00    -0.157 OA
ATOM     28  C   UNL     1      26.994 -22.167 -15.951  0.00  0.00    +0.196 C 
ENDBRANCH  23  25
ENDBRANCH  22  23
ENDBRANCH  21  22
ENDBRANCH  20  21
ENDBRANCH  19  20
ENDBRANCH   1  19
TORSDOF 7
ENDMDL
MODEL 3
REMARK VINA RESULT:      -8.9      3.645      9.301
REMARK  Name = 10309114
REMARK  7 active torsions:
REMARK  status: ('A' for Active; 'I' for Inactive)
REMARK    1  A    between atoms: N_1  and  C_19
REMARK    2  A    between atoms: C_6  and  C_17
REMARK    3  A    between atoms: C_19  and  C_20
REMARK    4  A    between atoms: C_20  and  C_21
REMARK    5  A    between atoms: C_21  and  C_22
REMARK    6  A    between atoms: C_22  and  N_23
REMARK    7  A    between atoms: N_23  and  S_25
REMARK                            x       y       z     vdW  Elec       q    Type
REMARK                         _______ _______ _______ _____ _____    ______ ____
ROOT
ATOM      1  N   UNL     1      34.675 -22.277 -18.514  0.00  0.00    -0.264 N 
ATOM      2  N   UNL     1      36.723 -22.103 -17.675  0.00  0.00    -0.386 NA
ATOM      3  N   UNL     1      35.075 -23.339 -14.594  0.00  0.00    -0.385 NA
ATOM      4  N   UNL     1      37.388 -22.793 -14.836  0.00  0.00    -0.331 N 
ATOM      5  C   UNL     1      34.568 -22.680 -17.207  0.00  0.00    +0.089 C 
ATOM      6  C   UNL     1      35.980 -21.942 -18.746  0.00  0.00    +0.164 C 
ATOM      7  C   UNL     1      35.860 -22.561 -16.708  0.00  0.00    +0.189 C 
ATOM      8  C   UNL     1      33.495 -23.130 -16.418  0.00  0.00    +0.046 C 
ATOM      9  C   UNL     1      33.824 -23.452 -15.086  0.00  0.00    +0.134 C 
ATOM     10  C   UNL     1      36.094 -22.901 -15.378  0.00  0.00    +0.208 C 
ATOM     11  C   UNL     1      32.184 -23.254 -16.919  0.00  0.00    +0.004 C 
ATOM     12  C   UNL     1      32.787 -23.902 -14.274  0.00  0.00    +0.032 C 
ATOM     13  C   UNL     1      31.177 -23.706 -16.074  0.00  0.00    +0.000 C 
ATOM     14  C   UNL     1      31.478 -24.031 -14.754  0.00  0.00    +0.003 C 
ATOM     15  H   UNL     1      37.549 -23.034 -13.895  0.00  0.00    +0.145 HD
ATOM     16  H   UNL     1      38.132 -22.476 -15.398  0.00  0.00    +0.145 HD
ENDROOT
BRANCH   6  17
ATOM     17  C   UNL     1      36.453 -21.461 -20.060  0.00  0.00    +0.075 C 
ATOM     18  C   UNL     1      36.689 -19.947 -20.085  0.00  0.00    +0.009 C 
ENDBRANCH   6  17
BRANCH   1  19
ATOM     19  C   UNL     1      33.632 -22.197 -19.514  0.00  0.00    +0.098 C 
BRANCH  19  20
ATOM     20  C   UNL     1      32.992 -20.810 -19.567  0.00  0.00    +0.023 C 
BRANCH  20  21
ATOM     21  C   UNL     1      33.213 -20.153 -20.931  0.00  0.00    +0.021 C 
BRANCH  21  22
ATOM     22  C   UNL     1      33.206 -18.630 -20.858  0.00  0.00    +0.091 C 
BRANCH  22  23
ATOM     23  N   UNL     1      34.130 -18.060 -21.862  0.00  0.00    -0.183 NA
ATOM     24  H   UNL     1      34.955 -18.659 -21.881  0.00  0.00    +0.148 HD
BRANCH  23  25
ATOM     25  S   UNL     1      34.680 -16.459 -21.668  0.00  0.00    +0.043 S 
ATOM     26  O   UNL     1      35.464 -16.063 -22.822  0.00  0.00    -0.157 OA
ATOM     27  O   UNL     1      35.211 -16.317 -20.326  0.00  0.00    -0.157 OA
ATOM     28  C   UNL     1      33.138 -15.575 -21.727  0.00  0.00    +0.196 C 
ENDBRANCH  23  25
ENDBRANCH  22  23
ENDBRANCH  21  22
ENDBRANCH  20  21
ENDBRANCH  19  20
ENDBRANCH   1  19
TORSDOF 7
ENDMDL
MODEL 4
REMARK VINA RESULT:      -8.8      3.437      5.230
REMARK  Name = 10309114
REMARK  7 active torsions:
REMARK  status: ('A' for Active; 'I' for Inactive)
REMARK    1  A    between atoms: N_1  and  C_19
REMARK    2  A    between atoms: C_6  and  C_17
REMARK    3  A    between atoms: C_19  and  C_20
REMARK    4  A    between atoms: C_20  and  C_21
REMARK    5  A    between atoms: C_21  and  C_22
REMARK    6  A    between atoms: C_22  and  N_23
REMARK    7  A    between atoms: N_23  and  S_25
REMARK                            x       y       z     vdW  Elec       q    Type
REMARK                         _______ _______ _______ _____ _____    ______ ____
ROOT
ATOM      1  N   UNL     1      32.848 -12.477 -23.447  0.00  0.00    -0.264 N 
ATOM      2  N   UNL     1      34.281 -12.547 -25.143  0.00  0.00    -0.386 NA
ATOM      3  N   UNL     1      34.612  -8.928 -24.418  0.00  0.00    -0.385 NA
ATOM      4  N   UNL     1      35.758 -10.136 -26.131  0.00  0.00    -0.331 N 
ATOM      5  C   UNL     1      33.307 -11.192 -23.588  0.00  0.00    +0.089 C 
ATOM      6  C   UNL     1      33.458 -13.249 -24.397  0.00  0.00    +0.164 C 
ATOM      7  C   UNL     1      34.198 -11.265 -24.653  0.00  0.00    +0.189 C 
ATOM      8  C   UNL     1      33.043  -9.990 -22.910  0.00  0.00    +0.046 C 
ATOM      9  C   UNL     1      33.746  -8.865 -23.386  0.00  0.00    +0.134 C 
ATOM     10  C   UNL     1      34.850 -10.102 -25.057  0.00  0.00    +0.208 C 
ATOM     11  C   UNL     1      32.141  -9.911 -21.829  0.00  0.00    +0.004 C 
ATOM     12  C   UNL     1      33.511  -7.657 -22.738  0.00  0.00    +0.032 C 
ATOM     13  C   UNL     1      31.934  -8.683 -21.210  0.00  0.00    +0.000 C 
ATOM     14  C   UNL     1      32.619  -7.558 -21.663  0.00  0.00    +0.003 C 
ATOM     15  H   UNL     1      36.216  -9.311 -26.414  0.00  0.00    +0.145 HD
ATOM     16  H   UNL     1      35.935 -10.983 -26.600  0.00  0.00    +0.145 HD
ENDROOT
BRANCH   6  17
ATOM     17  C   UNL     1      33.192 -14.696 -24.532  0.00  0.00    +0.075 C 
ATOM     18  C   UNL     1      33.068 -15.140 -25.994  0.00  0.00    +0.009 C 
ENDBRANCH   6  17
BRANCH   1  19
ATOM     19  C   UNL     1      31.892 -12.985 -22.487  0.00  0.00    +0.098 C 
BRANCH  19  20
ATOM     20  C   UNL     1      32.534 -13.265 -21.129  0.00  0.00    +0.023 C 
BRANCH  20  21
ATOM     21  C   UNL     1      32.938 -14.736 -21.003  0.00  0.00    +0.021 C 
BRANCH  21  22
ATOM     22  C   UNL     1      34.446 -14.941 -21.098  0.00  0.00    +0.091 C 
BRANCH  22  23
ATOM     23  N   UNL     1      34.852 -16.146 -20.343  0.00  0.00    -0.183 NA
ATOM     24  H   UNL     1      35.777 -15.959 -19.956  0.00  0.00    +0.148 HD
BRANCH  23  25
ATOM     25  S   UNL     1      34.944 -17.641 -21.156  0.00  0.00    +0.043 S 
ATOM     26  O   UNL     1      33.633 -18.259 -21.203  0.00  0.00    -0.157 OA
ATOM     27  O   UNL     1      36.089 -18.369 -20.645  0.00  0.00    -0.157 OA
ATOM     28  C   UNL     1      35.350 -17.095 -22.799  0.00  0.00    +0.196 C 
ENDBRANCH  23  25
ENDBRANCH  22  23
ENDBRANCH  21  22
ENDBRANCH  20  21
ENDBRANCH  19  20
ENDBRANCH   1  19
TORSDOF 7
ENDMDL
MODEL 5
REMARK VINA RESULT:      -8.7      7.291     10.142
REMARK  Name = 10309114
REMARK  7 active torsions:
REMARK  status: ('A' for Active; 'I' for Inactive)
REMARK    1  A    between atoms: N_1  and  C_19
REMARK    2  A    between atoms: C_6  and  C_17
REMARK    3  A    between atoms: C_19  and  C_20
REMARK    4  A    between atoms: C_20  and  C_21
REMARK    5  A    between atoms: C_21  and  C_22
REMARK    6  A    between atoms: C_22  and  N_23
REMARK    7  A    between atoms: N_23  and  S_25
REMARK                            x       y       z     vdW  Elec       q    Type
REMARK                         _______ _______ _______ _____ _____    ______ ____
ROOT
ATOM      1  N   UNL     1      34.250 -23.822 -14.866  0.00  0.00    -0.264 N 
ATOM      2  N   UNL     1      36.393 -23.795 -14.283  0.00  0.00    -0.386 NA
ATOM      3  N   UNL     1      36.808 -22.218 -17.611  0.00  0.00    -0.385 NA
ATOM      4  N   UNL     1      38.551 -22.696 -16.048  0.00  0.00    -0.331 N 
ATOM      5  C   UNL     1      34.908 -23.248 -15.925  0.00  0.00    +0.089 C 
ATOM      6  C   UNL     1      35.179 -24.131 -13.911  0.00  0.00    +0.164 C 
ATOM      7  C   UNL     1      36.242 -23.245 -15.534  0.00  0.00    +0.189 C 
ATOM      8  C   UNL     1      34.486 -22.739 -17.165  0.00  0.00    +0.046 C 
ATOM      9  C   UNL     1      35.512 -22.225 -17.983  0.00  0.00    +0.134 C 
ATOM     10  C   UNL     1      37.190 -22.716 -16.407  0.00  0.00    +0.208 C 
ATOM     11  C   UNL     1      33.134 -22.740 -17.565  0.00  0.00    +0.004 C 
ATOM     12  C   UNL     1      35.132 -21.711 -19.219  0.00  0.00    +0.032 C 
ATOM     13  C   UNL     1      32.797 -22.218 -18.809  0.00  0.00    +0.000 C 
ATOM     14  C   UNL     1      33.794 -21.703 -19.634  0.00  0.00    +0.003 C 
ATOM     15  H   UNL     1      39.217 -22.322 -16.668  0.00  0.00    +0.145 HD
ATOM     16  H   UNL     1      38.835 -23.056 -15.177  0.00  0.00    +0.145 HD
ENDROOT
BRANCH   6  17
ATOM     17  C   UNL     1      34.815 -24.767 -12.629  0.00  0.00    +0.075 C 
ATOM     18  C   UNL     1      35.766 -24.385 -11.489  0.00  0.00    +0.009 C 
ENDBRANCH   6  17
BRANCH   1  19
ATOM     19  C   UNL     1      32.834 -24.081 -14.726  0.00  0.00    +0.098 C 
BRANCH  19  20
ATOM     20  C   UNL     1      32.066 -22.844 -14.260  0.00  0.00    +0.023 C 
BRANCH  20  21
ATOM     21  C   UNL     1      30.564 -23.124 -14.182  0.00  0.00    +0.021 C 
BRANCH  21  22
ATOM     22  C   UNL     1      30.139 -24.295 -15.062  0.00  0.00    +0.091 C 
BRANCH  22  23
ATOM     23  N   UNL     1      28.701 -24.196 -15.394  0.00  0.00    -0.183 NA
ATOM     24  H   UNL     1      28.368 -25.145 -15.565  0.00  0.00    +0.148 HD
BRANCH  23  25
ATOM     25  S   UNL     1      28.223 -23.252 -16.730  0.00  0.00    +0.043 S 
ATOM     26  O   UNL     1      27.541 -24.083 -17.703  0.00  0.00    -0.157 OA
ATOM     27  O   UNL     1      29.340 -22.415 -17.122  0.00  0.00    -0.157 OA
ATOM     28  C   UNL     1      27.010 -22.198 -15.968  0.00  0.00    +0.196 C 
ENDBRANCH  23  25
ENDBRANCH  22  23
ENDBRANCH  21  22
ENDBRANCH  20  21
ENDBRANCH  19  20
ENDBRANCH   1  19
TORSDOF 7
ENDMDL
MODEL 6
REMARK VINA RESULT:      -8.5      2.806      4.486
REMARK  Name = 10309114
REMARK  7 active torsions:
REMARK  status: ('A' for Active; 'I' for Inactive)
REMARK    1  A    between atoms: N_1  and  C_19
REMARK    2  A    between atoms: C_6  and  C_17
REMARK    3  A    between atoms: C_19  and  C_20
REMARK    4  A    between atoms: C_20  and  C_21
REMARK    5  A    between atoms: C_21  and  C_22
REMARK    6  A    between atoms: C_22  and  N_23
REMARK    7  A    between atoms: N_23  and  S_25
REMARK                            x       y       z     vdW  Elec       q    Type
REMARK                         _______ _______ _______ _____ _____    ______ ____
ROOT
ATOM      1  N   UNL     1      32.758 -13.299 -22.834  0.00  0.00    -0.264 N 
ATOM      2  N   UNL     1      33.769 -12.366 -24.577  0.00  0.00    -0.386 NA
ATOM      3  N   UNL     1      33.069  -9.232 -22.728  0.00  0.00    -0.385 NA
ATOM      4  N   UNL     1      34.173  -9.409 -24.839  0.00  0.00    -0.331 N 
ATOM      5  C   UNL     1      32.745 -11.950 -22.582  0.00  0.00    +0.089 C 
ATOM      6  C   UNL     1      33.379 -13.497 -24.036  0.00  0.00    +0.164 C 
ATOM      7  C   UNL     1      33.382 -11.393 -23.686  0.00  0.00    +0.189 C 
ATOM      8  C   UNL     1      32.253 -11.168 -21.524  0.00  0.00    +0.046 C 
ATOM      9  C   UNL     1      32.452  -9.779 -21.661  0.00  0.00    +0.134 C 
ATOM     10  C   UNL     1      33.535 -10.010 -23.738  0.00  0.00    +0.208 C 
ATOM     11  C   UNL     1      31.608 -11.727 -20.403  0.00  0.00    +0.004 C 
ATOM     12  C   UNL     1      31.978  -8.972 -20.631  0.00  0.00    +0.032 C 
ATOM     13  C   UNL     1      31.148 -10.885 -19.396  0.00  0.00    +0.000 C 
ATOM     14  C   UNL     1      31.334  -9.510 -19.510  0.00  0.00    +0.003 C 
ATOM     15  H   UNL     1      34.279  -8.431 -24.872  0.00  0.00    +0.145 HD
ATOM     16  H   UNL     1      34.513  -9.967 -25.575  0.00  0.00    +0.145 HD
ENDROOT
BRANCH   6  17
ATOM     17  C   UNL     1      33.567 -14.842 -24.618  0.00  0.00    +0.075 C 
ATOM     18  C   UNL     1      32.993 -14.958 -26.034  0.00  0.00    +0.009 C 
ENDBRANCH   6  17
BRANCH   1  19
ATOM     19  C   UNL     1      32.224 -14.367 -22.016  0.00  0.00    +0.098 C 
BRANCH  19  20
ATOM     20  C   UNL     1      32.999 -14.531 -20.708  0.00  0.00    +0.023 C 
BRANCH  20  21
ATOM     21  C   UNL     1      34.403 -15.081 -20.964  0.00  0.00    +0.021 C 
BRANCH  21  22
ATOM     22  C   UNL     1      34.387 -16.524 -21.459  0.00  0.00    +0.091 C 
BRANCH  22  23
ATOM     23  N   UNL     1      35.286 -17.362 -20.637  0.00  0.00    -0.183 NA
ATOM     24  H   UNL     1      36.089 -16.783 -20.389  0.00  0.00    +0.148 HD
BRANCH  23  25
ATOM     25  S   UNL     1      35.899 -18.811 -21.292  0.00  0.00    +0.043 S 
ATOM     26  O   UNL     1      36.084 -19.790 -20.238  0.00  0.00    -0.157 OA
ATOM     27  O   UNL     1      36.983 -18.481 -22.197  0.00  0.00    -0.157 OA
ATOM     28  C   UNL     1      34.518 -19.330 -22.284  0.00  0.00    +0.196 C 
ENDBRANCH  23  25
ENDBRANCH  22  23
ENDBRANCH  21  22
ENDBRANCH  20  21
ENDBRANCH  19  20
ENDBRANCH   1  19
TORSDOF 7
ENDMDL
MODEL 7
REMARK VINA RESULT:      -8.4      3.863     10.295
REMARK  Name = 10309114
REMARK  7 active torsions:
REMARK  status: ('A' for Active; 'I' for Inactive)
REMARK    1  A    between atoms: N_1  and  C_19
REMARK    2  A    between atoms: C_6  and  C_17
REMARK    3  A    between atoms: C_19  and  C_20
REMARK    4  A    between atoms: C_20  and  C_21
REMARK    5  A    between atoms: C_21  and  C_22
REMARK    6  A    between atoms: C_22  and  N_23
REMARK    7  A    between atoms: N_23  and  S_25
REMARK                            x       y       z     vdW  Elec       q    Type
REMARK                         _______ _______ _______ _____ _____    ______ ____
ROOT
ATOM      1  N   UNL     1      33.998 -23.111 -16.834  0.00  0.00    -0.264 N 
ATOM      2  N   UNL     1      35.538 -22.940 -15.243  0.00  0.00    -0.386 NA
ATOM      3  N   UNL     1      32.764 -24.084 -13.068  0.00  0.00    -0.385 NA
ATOM      4  N   UNL     1      34.989 -23.570 -12.366  0.00  0.00    -0.331 N 
ATOM      5  C   UNL     1      33.365 -23.482 -15.674  0.00  0.00    +0.089 C 
ATOM      6  C   UNL     1      35.292 -22.796 -16.525  0.00  0.00    +0.164 C 
ATOM      7  C   UNL     1      34.349 -23.365 -14.699  0.00  0.00    +0.189 C 
ATOM      8  C   UNL     1      32.057 -23.900 -15.377  0.00  0.00    +0.046 C 
ATOM      9  C   UNL     1      31.815 -24.194 -14.020  0.00  0.00    +0.134 C 
ATOM     10  C   UNL     1      34.020 -23.677 -13.382  0.00  0.00    +0.208 C 
ATOM     11  C   UNL     1      31.056 -24.021 -16.363  0.00  0.00    +0.004 C 
ATOM     12  C   UNL     1      30.530 -24.614 -13.688  0.00  0.00    +0.032 C 
ATOM     13  C   UNL     1      29.785 -24.442 -15.988  0.00  0.00    +0.000 C 
ATOM     14  C   UNL     1      29.523 -24.739 -14.653  0.00  0.00    +0.003 C 
ATOM     15  H   UNL     1      34.752 -23.791 -11.436  0.00  0.00    +0.145 HD
ATOM     16  H   UNL     1      35.901 -23.275 -12.585  0.00  0.00    +0.145 HD
ENDROOT
BRANCH   6  17
ATOM     17  C   UNL     1      36.264 -22.352 -17.545  0.00  0.00    +0.075 C 
ATOM     18  C   UNL     1      37.244 -21.302 -17.010  0.00  0.00    +0.009 C 
ENDBRANCH   6  17
BRANCH   1  19
ATOM     19  C   UNL     1      33.448 -23.042 -18.171  0.00  0.00    +0.098 C 
BRANCH  19  20
ATOM     20  C   UNL     1      33.013 -21.625 -18.542  0.00  0.00    +0.023 C 
BRANCH  20  21
ATOM     21  C   UNL     1      33.726 -21.143 -19.807  0.00  0.00    +0.021 C 
BRANCH  21  22
ATOM     22  C   UNL     1      32.846 -20.246 -20.671  0.00  0.00    +0.091 C 
BRANCH  22  23
ATOM     23  N   UNL     1      33.417 -18.884 -20.750  0.00  0.00    -0.183 NA
ATOM     24  H   UNL     1      32.711 -18.290 -21.185  0.00  0.00    +0.148 HD
BRANCH  23  25
ATOM     25  S   UNL     1      34.871 -18.642 -21.606  0.00  0.00    +0.043 S 
ATOM     26  O   UNL     1      34.922 -19.531 -22.751  0.00  0.00    -0.157 OA
ATOM     27  O   UNL     1      35.961 -18.598 -20.651  0.00  0.00    -0.157 OA
ATOM     28  C   UNL     1      34.623 -16.988 -22.209  0.00  0.00    +0.196 C 
ENDBRANCH  23  25
ENDBRANCH  22  23
ENDBRANCH  21  22
ENDBRANCH  20  21
ENDBRANCH  19  20
ENDBRANCH   1  19
TORSDOF 7
ENDMDL
MODEL 8
REMARK VINA RESULT:      -8.4      5.468      8.801
REMARK  Name = 10309114
REMARK  7 active torsions:
REMARK  status: ('A' for Active; 'I' for Inactive)
REMARK    1  A    between atoms: N_1  and  C_19
REMARK    2  A    between atoms: C_6  and  C_17
REMARK    3  A    between atoms: C_19  and  C_20
REMARK    4  A    between atoms: C_20  and  C_21
REMARK    5  A    between atoms: C_21  and  C_22
REMARK    6  A    between atoms: C_22  and  N_23
REMARK    7  A    between atoms: N_23  and  S_25
REMARK                            x       y       z     vdW  Elec       q    Type
REMARK                         _______ _______ _______ _____ _____    ______ ____
ROOT
ATOM      1  N   UNL     1      32.949  -8.402 -23.359  0.00  0.00    -0.264 N 
ATOM      2  N   UNL     1      33.053  -6.367 -22.474  0.00  0.00    -0.386 NA
ATOM      3  N   UNL     1      31.971  -8.141 -19.406  0.00  0.00    -0.385 NA
ATOM      4  N   UNL     1      32.403  -5.800 -19.606  0.00  0.00    -0.331 N 
ATOM      5  C   UNL     1      32.584  -8.557 -22.045  0.00  0.00    +0.089 C 
ATOM      6  C   UNL     1      33.219  -7.077 -23.567  0.00  0.00    +0.164 C 
ATOM      7  C   UNL     1      32.658  -7.273 -21.518  0.00  0.00    +0.189 C 
ATOM      8  C   UNL     1      32.203  -9.667 -21.272  0.00  0.00    +0.046 C 
ATOM      9  C   UNL     1      31.902  -9.384 -19.924  0.00  0.00    +0.134 C 
ATOM     10  C   UNL     1      32.342  -7.085 -20.175  0.00  0.00    +0.208 C 
ATOM     11  C   UNL     1      32.128 -10.971 -21.801  0.00  0.00    +0.004 C 
ATOM     12  C   UNL     1      31.521 -10.459 -19.127  0.00  0.00    +0.032 C 
ATOM     13  C   UNL     1      31.742 -12.017 -20.970  0.00  0.00    +0.000 C 
ATOM     14  C   UNL     1      31.441 -11.761 -19.635  0.00  0.00    +0.003 C 
ATOM     15  H   UNL     1      32.179  -5.672 -18.656  0.00  0.00    +0.145 HD
ATOM     16  H   UNL     1      32.671  -5.030 -20.157  0.00  0.00    +0.145 HD
ENDROOT
BRANCH   6  17
ATOM     17  C   UNL     1      33.644  -6.553 -24.881  0.00  0.00    +0.075 C 
ATOM     18  C   UNL     1      32.800  -5.359 -25.341  0.00  0.00    +0.009 C 
ENDBRANCH   6  17
BRANCH   1  19
ATOM     19  C   UNL     1      33.047  -9.416 -24.386  0.00  0.00    +0.098 C 
BRANCH  19  20
ATOM     20  C   UNL     1      34.410 -10.107 -24.384  0.00  0.00    +0.023 C 
BRANCH  20  21
ATOM     21  C   UNL     1      34.410 -11.330 -25.304  0.00  0.00    +0.021 C 
BRANCH  21  22
ATOM     22  C   UNL     1      33.555 -12.471 -24.763  0.00  0.00    +0.091 C 
BRANCH  22  23
ATOM     23  N   UNL     1      34.266 -13.177 -23.675  0.00  0.00    -0.183 NA
ATOM     24  H   UNL     1      35.265 -13.070 -23.853  0.00  0.00    +0.148 HD
BRANCH  23  25
ATOM     25  S   UNL     1      33.976 -14.840 -23.437  0.00  0.00    +0.043 S 
ATOM     26  O   UNL     1      32.827 -15.022 -22.572  0.00  0.00    -0.157 OA
ATOM     27  O   UNL     1      35.240 -15.486 -23.139  0.00  0.00    -0.157 OA
ATOM     28  C   UNL     1      33.505 -15.327 -25.081  0.00  0.00    +0.196 C 
ENDBRANCH  23  25
ENDBRANCH  22  23
ENDBRANCH  21  22
ENDBRANCH  20  21
ENDBRANCH  19  20
ENDBRANCH   1  19
TORSDOF 7
ENDMDL
MODEL 9
REMARK VINA RESULT:      -8.3      7.289     10.265
REMARK  Name = 10309114
REMARK  7 active torsions:
REMARK  status: ('A' for Active; 'I' for Inactive)
REMARK    1  A    between atoms: N_1  and  C_19
REMARK    2  A    between atoms: C_6  and  C_17
REMARK    3  A    between atoms: C_19  and  C_20
REMARK    4  A    between atoms: C_20  and  C_21
REMARK    5  A    between atoms: C_21  and  C_22
REMARK    6  A    between atoms: C_22  and  N_23
REMARK    7  A    between atoms: N_23  and  S_25
REMARK                            x       y       z     vdW  Elec       q    Type
REMARK                         _______ _______ _______ _____ _____    ______ ____
ROOT
ATOM      1  N   UNL     1      33.052  -7.326 -22.513  0.00  0.00    -0.264 N 
ATOM      2  N   UNL     1      31.522  -6.459 -21.157  0.00  0.00    -0.386 NA
ATOM      3  N   UNL     1      31.149  -3.991 -23.896  0.00  0.00    -0.385 NA
ATOM      4  N   UNL     1      29.930  -4.015 -21.841  0.00  0.00    -0.331 N 
ATOM      5  C   UNL     1      32.555  -6.232 -23.177  0.00  0.00    +0.089 C 
ATOM      6  C   UNL     1      32.404  -7.419 -21.313  0.00  0.00    +0.164 C 
ATOM      7  C   UNL     1      31.603  -5.711 -22.308  0.00  0.00    +0.189 C 
ATOM      8  C   UNL     1      32.831  -5.650 -24.426  0.00  0.00    +0.046 C 
ATOM      9  C   UNL     1      32.074  -4.502 -24.734  0.00  0.00    +0.134 C 
ATOM     10  C   UNL     1      30.901  -4.572 -22.694  0.00  0.00    +0.208 C 
ATOM     11  C   UNL     1      33.794  -6.175 -25.311  0.00  0.00    +0.004 C 
ATOM     12  C   UNL     1      32.319  -3.899 -25.963  0.00  0.00    +0.032 C 
ATOM     13  C   UNL     1      34.009  -5.541 -26.530  0.00  0.00    +0.000 C 
ATOM     14  C   UNL     1      33.272  -4.405 -26.856  0.00  0.00    +0.003 C 
ATOM     15  H   UNL     1      29.437  -3.209 -22.118  0.00  0.00    +0.145 HD
ATOM     16  H   UNL     1      29.746  -4.430 -20.968  0.00  0.00    +0.145 HD
ENDROOT
BRANCH   6  17
ATOM     17  C   UNL     1      32.695  -8.490 -20.338  0.00  0.00    +0.075 C 
ATOM     18  C   UNL     1      31.726  -9.672 -20.450  0.00  0.00    +0.009 C 
ENDBRANCH   6  17
BRANCH   1  19
ATOM     19  C   UNL     1      34.076  -8.249 -22.952  0.00  0.00    +0.098 C 
BRANCH  19  20
ATOM     20  C   UNL     1      33.495  -9.416 -23.749  0.00  0.00    +0.023 C 
BRANCH  20  21
ATOM     21  C   UNL     1      34.567 -10.076 -24.619  0.00  0.00    +0.021 C 
BRANCH  21  22
ATOM     22  C   UNL     1      34.217 -11.513 -24.992  0.00  0.00    +0.091 C 
BRANCH  22  23
ATOM     23  N   UNL     1      34.118 -12.352 -23.778  0.00  0.00    -0.183 NA
ATOM     24  H   UNL     1      35.069 -12.613 -23.518  0.00  0.00    +0.148 HD
BRANCH  23  25
ATOM     25  S   UNL     1      33.202 -13.789 -23.836  0.00  0.00    +0.043 S 
ATOM     26  O   UNL     1      32.799 -14.062 -25.202  0.00  0.00    -0.157 OA
ATOM     27  O   UNL     1      32.224 -13.751 -22.766  0.00  0.00    -0.157 OA
ATOM     28  C   UNL     1      34.440 -14.982 -23.383  0.00  0.00    +0.196 C 
ENDBRANCH  23  25
ENDBRANCH  22  23
ENDBRANCH  21  22
ENDBRANCH  20  21
ENDBRANCH  19  20
ENDBRANCH   1  19
TORSDOF 7
ENDMDL
