MODEL 1
REMARK VINA RESULT:      -4.9      0.000      0.000
REMARK  Name = 136256
REMARK  3 active torsions:
REMARK  status: ('A' for Active; 'I' for Inactive)
REMARK    1  A    between atoms: C_1  and  C_5
REMARK    2  A    between atoms: C_1  and  O_6
REMARK    3  A    between atoms: O_6  and  C_8
REMARK                            x       y       z     vdW  Elec       q    Type
REMARK                         _______ _______ _______ _____ _____    ______ ____
ROOT
ATOM      1  C   UNL     1      41.320 -14.183 -17.909  0.00  0.00    +0.311 C 
ENDROOT
BRANCH   1   5
ATOM      2  F   UNL     1      41.784 -12.952 -15.960  0.00  0.00    -0.166 F 
ATOM      3  F   UNL     1      41.830 -11.881 -17.859  0.00  0.00    -0.166 F 
ATOM      4  F   UNL     1      43.428 -13.282 -17.355  0.00  0.00    -0.166 F 
ATOM      5  C   UNL     1      42.099 -13.065 -17.269  0.00  0.00    +0.438 C 
ENDBRANCH   1   5
BRANCH   1   6
ATOM      6  O   UNL     1      41.015 -15.168 -16.916  0.00  0.00    -0.439 OA
BRANCH   6   8
ATOM      7  O   UNL     1      42.377 -16.582 -15.697  0.00  0.00    -0.250 OA
ATOM      8  C   UNL     1      41.947 -16.151 -16.759  0.00  0.00    +0.318 C 
ATOM      9  C   UNL     1      42.386 -16.644 -18.105  0.00  0.00    +0.121 C 
ENDBRANCH   6   8
ENDBRANCH   1   6
TORSDOF 3
ENDMDL
MODEL 2
REMARK VINA RESULT:      -4.8      9.500     10.067
REMARK  Name = 136256
REMARK  3 active torsions:
REMARK  status: ('A' for Active; 'I' for Inactive)
REMARK    1  A    between atoms: C_1  and  C_5
REMARK    2  A    between atoms: C_1  and  O_6
REMARK    3  A    between atoms: O_6  and  C_8
REMARK                            x       y       z     vdW  Elec       q    Type
REMARK                         _______ _______ _______ _____ _____    ______ ____
ROOT
ATOM      1  C   UNL     1      35.309 -16.534 -22.670  0.00  0.00    +0.311 C 
ENDROOT
BRANCH   1   5
ATOM      2  F   UNL     1      35.771 -17.953 -20.853  0.00  0.00    -0.166 F 
ATOM      3  F   UNL     1      33.676 -17.545 -21.302  0.00  0.00    -0.166 F 
ATOM      4  F   UNL     1      34.926 -15.992 -20.406  0.00  0.00    -0.166 F 
ATOM      5  C   UNL     1      34.914 -17.007 -21.296  0.00  0.00    +0.438 C 
ENDBRANCH   1   5
BRANCH   1   6
ATOM      6  O   UNL     1      34.224 -16.763 -23.574  0.00  0.00    -0.439 OA
BRANCH   6   8
ATOM      7  O   UNL     1      34.805 -16.827 -25.809  0.00  0.00    -0.250 OA
ATOM      8  C   UNL     1      34.556 -17.378 -24.745  0.00  0.00    +0.318 C 
ATOM      9  C   UNL     1      34.575 -18.863 -24.544  0.00  0.00    +0.121 C 
ENDBRANCH   6   8
ENDBRANCH   1   6
TORSDOF 3
ENDMDL
MODEL 3
REMARK VINA RESULT:      -4.8      9.970     10.385
REMARK  Name = 136256
REMARK  3 active torsions:
REMARK  status: ('A' for Active; 'I' for Inactive)
REMARK    1  A    between atoms: C_1  and  C_5
REMARK    2  A    between atoms: C_1  and  O_6
REMARK    3  A    between atoms: O_6  and  C_8
REMARK                            x       y       z     vdW  Elec       q    Type
REMARK                         _______ _______ _______ _____ _____    ______ ____
ROOT
ATOM      1  C   UNL     1      34.535 -18.689 -21.438  0.00  0.00    +0.311 C 
ENDROOT
BRANCH   1   5
ATOM      2  F   UNL     1      36.409 -18.373 -22.823  0.00  0.00    -0.166 F 
ATOM      3  F   UNL     1      34.491 -17.624 -23.542  0.00  0.00    -0.166 F 
ATOM      4  F   UNL     1      34.882 -19.773 -23.504  0.00  0.00    -0.166 F 
ATOM      5  C   UNL     1      35.080 -18.615 -22.840  0.00  0.00    +0.438 C 
ENDBRANCH   1   5
BRANCH   1   6
ATOM      6  O   UNL     1      33.540 -19.715 -21.376  0.00  0.00    -0.439 OA
BRANCH   6   8
ATOM      7  O   UNL     1      32.570 -20.713 -19.531  0.00  0.00    -0.250 OA
ATOM      8  C   UNL     1      33.539 -20.463 -20.235  0.00  0.00    +0.318 C 
ATOM      9  C   UNL     1      34.929 -20.951 -19.956  0.00  0.00    +0.121 C 
ENDBRANCH   6   8
ENDBRANCH   1   6
TORSDOF 3
ENDMDL
MODEL 4
REMARK VINA RESULT:      -4.8     11.850     12.717
REMARK  Name = 136256
REMARK  3 active torsions:
REMARK  status: ('A' for Active; 'I' for Inactive)
REMARK    1  A    between atoms: C_1  and  C_5
REMARK    2  A    between atoms: C_1  and  O_6
REMARK    3  A    between atoms: O_6  and  C_8
REMARK                            x       y       z     vdW  Elec       q    Type
REMARK                         _______ _______ _______ _____ _____    ______ ____
ROOT
ATOM      1  C   UNL     1      37.795 -23.900 -12.247  0.00  0.00    +0.311 C 
ENDROOT
BRANCH   1   5
ATOM      2  F   UNL     1      38.233 -26.210 -12.255  0.00  0.00    -0.166 F 
ATOM      3  F   UNL     1      39.688 -24.910 -13.229  0.00  0.00    -0.166 F 
ATOM      4  F   UNL     1      37.747 -25.274 -14.164  0.00  0.00    -0.166 F 
ATOM      5  C   UNL     1      38.371 -25.081 -12.984  0.00  0.00    +0.438 C 
ENDBRANCH   1   5
BRANCH   1   6
ATOM      6  O   UNL     1      37.303 -24.337 -10.976  0.00  0.00    -0.439 OA
BRANCH   6   8
ATOM      7  O   UNL     1      35.322 -24.552  -9.805  0.00  0.00    -0.250 OA
ATOM      8  C   UNL     1      35.949 -24.276 -10.820  0.00  0.00    +0.318 C 
ATOM      9  C   UNL     1      35.318 -23.813 -12.097  0.00  0.00    +0.121 C 
ENDBRANCH   6   8
ENDBRANCH   1   6
TORSDOF 3
ENDMDL
MODEL 5
REMARK VINA RESULT:      -4.8      9.390      9.766
REMARK  Name = 136256
REMARK  3 active torsions:
REMARK  status: ('A' for Active; 'I' for Inactive)
REMARK    1  A    between atoms: C_1  and  C_5
REMARK    2  A    between atoms: C_1  and  O_6
REMARK    3  A    between atoms: O_6  and  C_8
REMARK                            x       y       z     vdW  Elec       q    Type
REMARK                         _______ _______ _______ _____ _____    ______ ____
ROOT
ATOM      1  C   UNL     1      34.965 -19.721 -21.583  0.00  0.00    +0.311 C 
ENDROOT
BRANCH   1   5
ATOM      2  F   UNL     1      37.049 -19.315 -20.572  0.00  0.00    -0.166 F 
ATOM      3  F   UNL     1      35.641 -17.652 -20.675  0.00  0.00    -0.166 F 
ATOM      4  F   UNL     1      36.653 -18.343 -22.484  0.00  0.00    -0.166 F 
ATOM      5  C   UNL     1      36.085 -18.747 -21.329  0.00  0.00    +0.438 C 
ENDBRANCH   1   5
BRANCH   1   6
ATOM      6  O   UNL     1      34.769 -20.522 -20.413  0.00  0.00    -0.439 OA
BRANCH   6   8
ATOM      7  O   UNL     1      33.085 -21.888 -19.614  0.00  0.00    -0.250 OA
ATOM      8  C   UNL     1      33.474 -20.854 -20.141  0.00  0.00    +0.318 C 
ATOM      9  C   UNL     1      32.569 -19.747 -20.588  0.00  0.00    +0.121 C 
ENDBRANCH   6   8
ENDBRANCH   1   6
TORSDOF 3
ENDMDL
MODEL 6
REMARK VINA RESULT:      -4.7     14.759     15.359
REMARK  Name = 136256
REMARK  3 active torsions:
REMARK  status: ('A' for Active; 'I' for Inactive)
REMARK    1  A    between atoms: C_1  and  C_5
REMARK    2  A    between atoms: C_1  and  O_6
REMARK    3  A    between atoms: O_6  and  C_8
REMARK                            x       y       z     vdW  Elec       q    Type
REMARK                         _______ _______ _______ _____ _____    ______ ____
ROOT
ATOM      1  C   UNL     1      30.283 -24.350 -15.828  0.00  0.00    +0.311 C 
ENDROOT
BRANCH   1   5
ATOM      2  F   UNL     1      30.790 -22.320 -14.755  0.00  0.00    -0.166 F 
ATOM      3  F   UNL     1      31.075 -22.413 -16.915  0.00  0.00    -0.166 F 
ATOM      4  F   UNL     1      32.454 -23.462 -15.584  0.00  0.00    -0.166 F 
ATOM      5  C   UNL     1      31.161 -23.128 -15.773  0.00  0.00    +0.438 C 
ENDBRANCH   1   5
BRANCH   1   6
ATOM      6  O   UNL     1      28.973 -24.006 -15.363  0.00  0.00    -0.439 OA
BRANCH   6   8
ATOM      7  O   UNL     1      27.883 -24.169 -17.394  0.00  0.00    -0.250 OA
ATOM      8  C   UNL     1      28.095 -23.607 -16.328  0.00  0.00    +0.318 C 
ATOM      9  C   UNL     1      27.407 -22.351 -15.889  0.00  0.00    +0.121 C 
ENDBRANCH   6   8
ENDBRANCH   1   6
TORSDOF 3
ENDMDL
MODEL 7
REMARK VINA RESULT:      -4.7     11.632     12.336
REMARK  Name = 136256
REMARK  3 active torsions:
REMARK  status: ('A' for Active; 'I' for Inactive)
REMARK    1  A    between atoms: C_1  and  C_5
REMARK    2  A    between atoms: C_1  and  O_6
REMARK    3  A    between atoms: O_6  and  C_8
REMARK                            x       y       z     vdW  Elec       q    Type
REMARK                         _______ _______ _______ _____ _____    ______ ____
ROOT
ATOM      1  C   UNL     1      31.871  -9.859 -20.671  0.00  0.00    +0.311 C 
ENDROOT
BRANCH   1   5
ATOM      2  F   UNL     1      30.571 -10.579 -18.850  0.00  0.00    -0.166 F 
ATOM      3  F   UNL     1      31.881 -12.047 -19.791  0.00  0.00    -0.166 F 
ATOM      4  F   UNL     1      30.072 -11.377 -20.818  0.00  0.00    -0.166 F 
ATOM      5  C   UNL     1      31.093 -10.977 -20.031  0.00  0.00    +0.438 C 
ENDBRANCH   1   5
BRANCH   1   6
ATOM      6  O   UNL     1      32.259  -8.921 -19.662  0.00  0.00    -0.439 OA
BRANCH   6   8
ATOM      7  O   UNL     1      32.988  -6.740 -19.433  0.00  0.00    -0.250 OA
ATOM      8  C   UNL     1      32.608  -7.683 -20.115  0.00  0.00    +0.318 C 
ATOM      9  C   UNL     1      32.456  -7.634 -21.605  0.00  0.00    +0.121 C 
ENDBRANCH   6   8
ENDBRANCH   1   6
TORSDOF 3
ENDMDL
MODEL 8
REMARK VINA RESULT:      -4.7      9.165      9.817
REMARK  Name = 136256
REMARK  3 active torsions:
REMARK  status: ('A' for Active; 'I' for Inactive)
REMARK    1  A    between atoms: C_1  and  C_5
REMARK    2  A    between atoms: C_1  and  O_6
REMARK    3  A    between atoms: O_6  and  C_8
REMARK                            x       y       z     vdW  Elec       q    Type
REMARK                         _______ _______ _______ _____ _____    ______ ____
ROOT
ATOM      1  C   UNL     1      35.954 -18.489 -21.233  0.00  0.00    +0.311 C 
ENDROOT
BRANCH   1   5
ATOM      2  F   UNL     1      34.526 -19.761 -22.600  0.00  0.00    -0.166 F 
ATOM      3  F   UNL     1      33.911 -19.438 -20.533  0.00  0.00    -0.166 F 
ATOM      4  F   UNL     1      35.558 -20.801 -20.985  0.00  0.00    -0.166 F 
ATOM      5  C   UNL     1      34.980 -19.633 -21.334  0.00  0.00    +0.438 C 
ENDBRANCH   1   5
BRANCH   1   6
ATOM      6  O   UNL     1      35.316 -17.389 -20.575  0.00  0.00    -0.439 OA
BRANCH   6   8
ATOM      7  O   UNL     1      34.951 -16.364 -22.614  0.00  0.00    -0.250 OA
ATOM      8  C   UNL     1      34.908 -16.375 -21.391  0.00  0.00    +0.318 C 
ATOM      9  C   UNL     1      34.385 -15.243 -20.559  0.00  0.00    +0.121 C 
ENDBRANCH   6   8
ENDBRANCH   1   6
TORSDOF 3
ENDMDL
MODEL 9
REMARK VINA RESULT:      -4.7      9.231      9.879
REMARK  Name = 136256
REMARK  3 active torsions:
REMARK  status: ('A' for Active; 'I' for Inactive)
REMARK    1  A    between atoms: C_1  and  C_5
REMARK    2  A    between atoms: C_1  and  O_6
REMARK    3  A    between atoms: O_6  and  C_8
REMARK                            x       y       z     vdW  Elec       q    Type
REMARK                         _______ _______ _______ _____ _____    ______ ____
ROOT
ATOM      1  C   UNL     1      34.363 -15.425 -22.855  0.00  0.00    +0.311 C 
ENDROOT
BRANCH   1   5
ATOM      2  F   UNL     1      34.858 -14.755 -20.656  0.00  0.00    -0.166 F 
ATOM      3  F   UNL     1      35.383 -16.793 -21.227  0.00  0.00    -0.166 F 
ATOM      4  F   UNL     1      33.289 -16.247 -20.922  0.00  0.00    -0.166 F 
ATOM      5  C   UNL     1      34.472 -15.812 -21.404  0.00  0.00    +0.438 C 
ENDBRANCH   1   5
BRANCH   1   6
ATOM      6  O   UNL     1      35.379 -16.105 -23.598  0.00  0.00    -0.439 OA
BRANCH   6   8
ATOM      7  O   UNL     1      34.670 -16.510 -25.760  0.00  0.00    -0.250 OA
ATOM      8  C   UNL     1      34.933 -16.885 -24.625  0.00  0.00    +0.318 C 
ATOM      9  C   UNL     1      34.803 -18.303 -24.157  0.00  0.00    +0.121 C 
ENDBRANCH   6   8
ENDBRANCH   1   6
TORSDOF 3
ENDMDL
