MODEL 1
REMARK VINA RESULT:     -11.8      0.000      0.000
REMARK  Name = 9810927
REMARK  6 active torsions:
REMARK  status: ('A' for Active; 'I' for Inactive)
REMARK    1  A    between atoms: N_1  and  C_13
REMARK    2  A    between atoms: C_11  and  O_24
REMARK    3  A    between atoms: C_12  and  O_26
REMARK    4  A    between atoms: C_14  and  C_18
REMARK    5  A    between atoms: C_19  and  C_20
REMARK    6  A    between atoms: N_28  and  C_32
REMARK                            x       y       z     vdW  Elec       q    Type
REMARK                         _______ _______ _______ _____ _____    ______ ____
ROOT
ATOM      1  N   UNL     1      36.145 -23.320 -16.068  0.00  0.00    -0.247 N 
ATOM      2  N   UNL     1      37.213 -21.673 -17.129  0.00  0.00    -0.242 NA
ATOM      3  N   UNL     1      34.187 -23.527 -17.492  0.00  0.00    -0.228 NA
ATOM      4  N   UNL     1      34.259 -21.936 -19.340  0.00  0.00    -0.228 NA
ATOM      5  C   UNL     1      35.362 -22.985 -17.138  0.00  0.00    +0.152 C 
ATOM      6  C   UNL     1      37.244 -22.503 -16.107  0.00  0.00    +0.223 C 
ATOM      7  C   UNL     1      36.042 -21.965 -17.782  0.00  0.00    +0.140 C 
ATOM      8  C   UNL     1      35.448 -21.436 -18.924  0.00  0.00    +0.150 C 
ATOM      9  C   UNL     1      33.710 -22.936 -18.608  0.00  0.00    +0.253 C 
ATOM     10  N   UNL     1      36.069 -20.398 -19.642  0.00  0.00    -0.295 N 
ATOM     11  H   UNL     1      36.928 -20.111 -19.256  0.00  0.00    +0.154 HD
ENDROOT
BRANCH  10  14
ATOM     12 CL   UNL     1      34.538 -17.417 -24.522  0.00  0.00    -0.082 Cl
ATOM     13  F   UNL     1      37.954 -18.995 -21.133  0.00  0.00    -0.203 F 
ATOM     14  C   UNL     1      35.706 -19.688 -20.805  0.00  0.00    +0.077 C 
ATOM     15  C   UNL     1      36.673 -18.994 -21.531  0.00  0.00    +0.154 C 
ATOM     16  C   UNL     1      34.377 -19.679 -21.227  0.00  0.00    +0.018 C 
ATOM     17  C   UNL     1      36.312 -18.292 -22.680  0.00  0.00    +0.042 C 
ATOM     18  C   UNL     1      34.015 -18.977 -22.376  0.00  0.00    +0.013 C 
ATOM     19  C   UNL     1      34.983 -18.284 -23.104  0.00  0.00    +0.060 C 
ENDBRANCH  10  14
BRANCH   1  23
ATOM     20  O   UNL     1      34.452 -24.604 -14.998  0.00  0.00    -0.326 OA
ATOM     21  C   UNL     1      36.327 -23.979 -13.659  0.00  0.00    +0.187 C 
ATOM     22  C   UNL     1      35.042 -23.490 -13.017  0.00  0.00    +0.178 C 
ATOM     23  C   UNL     1      35.870 -24.351 -15.065  0.00  0.00    +0.225 C 
ATOM     24  C   UNL     1      34.000 -24.410 -13.638  0.00  0.00    +0.223 C 
BRANCH  24  28
ATOM     25  O   UNL     1      31.980 -23.920 -14.922  0.00  0.00    -0.421 OA
ATOM     26  N   UNL     1      31.813 -23.453 -12.741  0.00  0.00    -0.109 NA
ATOM     27  N   UNL     1      30.609 -23.129 -13.340  0.00  0.00    -0.112 NA
ATOM     28  C   UNL     1      32.573 -23.908 -13.702  0.00  0.00    +0.255 A 
ATOM     29  C   UNL     1      30.753 -23.418 -14.612  0.00  0.00    +0.225 A 
BRANCH  29  30
ATOM     30  C   UNL     1      29.795 -23.280 -15.717  0.00  0.00    +0.070 C 
ATOM     31  C   UNL     1      29.198 -24.662 -16.173  0.00  0.00    +0.009 C 
ATOM     32  C   UNL     1      30.437 -22.627 -16.996  0.00  0.00    +0.009 C 
ATOM     33  C   UNL     1      28.526 -22.389 -15.423  0.00  0.00    +0.009 C 
ENDBRANCH  29  30
ENDBRANCH  24  28
BRANCH  21  34
ATOM     34  O   UNL     1      36.787 -25.167 -13.019  0.00  0.00    -0.378 OA
ATOM     35  H   UNL     1      37.010 -25.831 -13.692  0.00  0.00    +0.211 HD
ENDBRANCH  21  34
BRANCH  22  36
ATOM     36  O   UNL     1      35.068 -23.592 -11.607  0.00  0.00    -0.379 OA
ATOM     37  H   UNL     1      34.791 -24.483 -11.342  0.00  0.00    +0.211 HD
ENDBRANCH  22  36
ENDBRANCH   1  23
TORSDOF 6
ENDMDL
MODEL 2
REMARK VINA RESULT:     -11.3      2.441      3.464
REMARK  Name = 9810927
REMARK  6 active torsions:
REMARK  status: ('A' for Active; 'I' for Inactive)
REMARK    1  A    between atoms: N_1  and  C_13
REMARK    2  A    between atoms: C_11  and  O_24
REMARK    3  A    between atoms: C_12  and  O_26
REMARK    4  A    between atoms: C_14  and  C_18
REMARK    5  A    between atoms: C_19  and  C_20
REMARK    6  A    between atoms: N_28  and  C_32
REMARK                            x       y       z     vdW  Elec       q    Type
REMARK                         _______ _______ _______ _____ _____    ______ ____
ROOT
ATOM      1  N   UNL     1      36.061 -21.485 -19.010  0.00  0.00    -0.247 N 
ATOM      2  N   UNL     1      36.950 -19.719 -20.044  0.00  0.00    -0.242 NA
ATOM      3  N   UNL     1      33.781 -21.343 -19.836  0.00  0.00    -0.228 NA
ATOM      4  N   UNL     1      33.497 -19.443 -21.341  0.00  0.00    -0.228 NA
ATOM      5  C   UNL     1      35.052 -20.926 -19.745  0.00  0.00    +0.152 C 
ATOM      6  C   UNL     1      37.180 -20.723 -19.223  0.00  0.00    +0.223 C 
ATOM      7  C   UNL     1      35.624 -19.834 -20.378  0.00  0.00    +0.140 C 
ATOM      8  C   UNL     1      34.795 -19.080 -21.202  0.00  0.00    +0.150 C 
ATOM      9  C   UNL     1      33.077 -20.536 -20.659  0.00  0.00    +0.253 C 
ATOM     10  N   UNL     1      35.292 -17.955 -21.884  0.00  0.00    -0.295 N 
ATOM     11  H   UNL     1      36.246 -17.781 -21.715  0.00  0.00    +0.154 HD
ENDROOT
BRANCH  10  14
ATOM     12 CL   UNL     1      32.790 -14.068 -25.582  0.00  0.00    -0.082 Cl
ATOM     13  F   UNL     1      33.997 -15.681 -20.937  0.00  0.00    -0.203 F 
ATOM     14  C   UNL     1      34.695 -17.027 -22.764  0.00  0.00    +0.077 C 
ATOM     15  C   UNL     1      34.053 -15.897 -22.258  0.00  0.00    +0.154 C 
ATOM     16  C   UNL     1      34.747 -17.243 -24.140  0.00  0.00    +0.018 C 
ATOM     17  C   UNL     1      33.464 -14.982 -23.130  0.00  0.00    +0.042 C 
ATOM     18  C   UNL     1      34.158 -16.329 -25.012  0.00  0.00    +0.013 C 
ATOM     19  C   UNL     1      33.517 -15.198 -24.508  0.00  0.00    +0.060 C 
ENDBRANCH  10  14
BRANCH   1  23
ATOM     20  O   UNL     1      34.621 -23.169 -18.145  0.00  0.00    -0.326 OA
ATOM     21  C   UNL     1      36.369 -22.414 -16.705  0.00  0.00    +0.187 C 
ATOM     22  C   UNL     1      35.024 -22.241 -16.026  0.00  0.00    +0.178 C 
ATOM     23  C   UNL     1      35.974 -22.671 -18.155  0.00  0.00    +0.225 C 
ATOM     24  C   UNL     1      34.151 -23.236 -16.779  0.00  0.00    +0.223 C 
BRANCH  24  28
ATOM     25  O   UNL     1      31.950 -23.443 -15.739  0.00  0.00    -0.421 OA
ATOM     26  N   UNL     1      31.936 -22.372 -17.702  0.00  0.00    -0.109 NA
ATOM     27  N   UNL     1      30.636 -22.417 -17.231  0.00  0.00    -0.112 NA
ATOM     28  C   UNL     1      32.658 -22.980 -16.799  0.00  0.00    +0.255 A 
ATOM     29  C   UNL     1      30.693 -23.052 -16.084  0.00  0.00    +0.225 A 
BRANCH  29  30
ATOM     30  C   UNL     1      29.613 -23.385 -15.145  0.00  0.00    +0.070 C 
ATOM     31  C   UNL     1      28.452 -22.324 -15.160  0.00  0.00    +0.009 C 
ATOM     32  C   UNL     1      30.114 -23.478 -13.657  0.00  0.00    +0.009 C 
ATOM     33  C   UNL     1      28.882 -24.761 -15.394  0.00  0.00    +0.009 C 
ENDBRANCH  29  30
ENDBRANCH  24  28
BRANCH  21  34
ATOM     34  O   UNL     1      37.031 -23.580 -16.218  0.00  0.00    -0.378 OA
ATOM     35  H   UNL     1      37.991 -23.440 -16.242  0.00  0.00    +0.211 HD
ENDBRANCH  21  34
BRANCH  22  36
ATOM     36  O   UNL     1      35.076 -22.520 -14.641  0.00  0.00    -0.379 OA
ATOM     37  H   UNL     1      34.668 -23.384 -14.470  0.00  0.00    +0.211 HD
ENDBRANCH  22  36
ENDBRANCH   1  23
TORSDOF 6
ENDMDL
MODEL 3
REMARK VINA RESULT:     -10.8      1.649      2.625
REMARK  Name = 9810927
REMARK  6 active torsions:
REMARK  status: ('A' for Active; 'I' for Inactive)
REMARK    1  A    between atoms: N_1  and  C_13
REMARK    2  A    between atoms: C_11  and  O_24
REMARK    3  A    between atoms: C_12  and  O_26
REMARK    4  A    between atoms: C_14  and  C_18
REMARK    5  A    between atoms: C_19  and  C_20
REMARK    6  A    between atoms: N_28  and  C_32
REMARK                            x       y       z     vdW  Elec       q    Type
REMARK                         _______ _______ _______ _____ _____    ______ ____
ROOT
ATOM      1  N   UNL     1      34.900 -22.674 -17.959  0.00  0.00    -0.247 N 
ATOM      2  N   UNL     1      33.353 -21.719 -19.251  0.00  0.00    -0.242 NA
ATOM      3  N   UNL     1      36.885 -21.543 -18.787  0.00  0.00    -0.228 NA
ATOM      4  N   UNL     1      36.331 -19.958 -20.557  0.00  0.00    -0.228 NA
ATOM      5  C   UNL     1      35.568 -21.793 -18.765  0.00  0.00    +0.152 C 
ATOM      6  C   UNL     1      33.573 -22.593 -18.290  0.00  0.00    +0.223 C 
ATOM      7  C   UNL     1      34.590 -21.212 -19.556  0.00  0.00    +0.140 C 
ATOM      8  C   UNL     1      35.012 -20.261 -20.480  0.00  0.00    +0.150 C 
ATOM      9  C   UNL     1      37.173 -20.608 -19.718  0.00  0.00    +0.253 C 
ATOM     10  N   UNL     1      34.089 -19.620 -21.324  0.00  0.00    -0.295 N 
ATOM     11  H   UNL     1      33.158 -19.912 -21.184  0.00  0.00    +0.154 HD
ENDROOT
BRANCH  10  14
ATOM     12 CL   UNL     1      34.676 -15.517 -25.551  0.00  0.00    -0.082 Cl
ATOM     13  F   UNL     1      34.049 -16.903 -20.721  0.00  0.00    -0.203 F 
ATOM     14  C   UNL     1      34.229 -18.640 -22.329  0.00  0.00    +0.077 C 
ATOM     15  C   UNL     1      34.205 -17.287 -21.996  0.00  0.00    +0.154 C 
ATOM     16  C   UNL     1      34.390 -19.029 -23.659  0.00  0.00    +0.018 C 
ATOM     17  C   UNL     1      34.343 -16.321 -22.992  0.00  0.00    +0.042 C 
ATOM     18  C   UNL     1      34.528 -18.063 -24.655  0.00  0.00    +0.013 C 
ATOM     19  C   UNL     1      34.505 -16.709 -24.322  0.00  0.00    +0.060 C 
ENDBRANCH  10  14
BRANCH   1  23
ATOM     20  O   UNL     1      34.447 -24.330 -16.312  0.00  0.00    -0.326 OA
ATOM     21  C   UNL     1      36.204 -22.789 -15.824  0.00  0.00    +0.187 C 
ATOM     22  C   UNL     1      35.162 -22.758 -14.722  0.00  0.00    +0.178 C 
ATOM     23  C   UNL     1      35.483 -23.545 -16.935  0.00  0.00    +0.225 C 
ATOM     24  C   UNL     1      34.478 -24.109 -14.883  0.00  0.00    +0.223 C 
BRANCH  24  28
ATOM     25  O   UNL     1      32.068 -23.968 -15.259  0.00  0.00    -0.421 OA
ATOM     26  N   UNL     1      32.636 -24.580 -13.184  0.00  0.00    -0.109 NA
ATOM     27  N   UNL     1      31.255 -24.540 -13.255  0.00  0.00    -0.112 NA
ATOM     28  C   UNL     1      33.059 -24.240 -14.372  0.00  0.00    +0.255 A 
ATOM     29  C   UNL     1      30.970 -24.178 -14.483  0.00  0.00    +0.225 A 
BRANCH  29  30
ATOM     30  C   UNL     1      29.661 -23.978 -15.120  0.00  0.00    +0.070 C 
ATOM     31  C   UNL     1      29.052 -22.561 -14.813  0.00  0.00    +0.009 C 
ATOM     32  C   UNL     1      28.594 -25.034 -14.652  0.00  0.00    +0.009 C 
ATOM     33  C   UNL     1      29.638 -24.075 -16.695  0.00  0.00    +0.009 C 
ENDBRANCH  29  30
ENDBRANCH  24  28
BRANCH  21  34
ATOM     34  O   UNL     1      37.331 -23.567 -15.426  0.00  0.00    -0.378 OA
ATOM     35  H   UNL     1      37.477 -24.279 -16.070  0.00  0.00    +0.211 HD
ENDBRANCH  21  34
BRANCH  22  36
ATOM     36  O   UNL     1      35.734 -22.602 -13.439  0.00  0.00    -0.379 OA
ATOM     37  H   UNL     1      35.720 -23.453 -12.972  0.00  0.00    +0.211 HD
ENDBRANCH  22  36
ENDBRANCH   1  23
TORSDOF 6
ENDMDL
MODEL 4
REMARK VINA RESULT:     -10.7      7.292     11.455
REMARK  Name = 9810927
REMARK  6 active torsions:
REMARK  status: ('A' for Active; 'I' for Inactive)
REMARK    1  A    between atoms: N_1  and  C_13
REMARK    2  A    between atoms: C_11  and  O_24
REMARK    3  A    between atoms: C_12  and  O_26
REMARK    4  A    between atoms: C_14  and  C_18
REMARK    5  A    between atoms: C_19  and  C_20
REMARK    6  A    between atoms: N_28  and  C_32
REMARK                            x       y       z     vdW  Elec       q    Type
REMARK                         _______ _______ _______ _____ _____    ______ ____
ROOT
ATOM      1  N   UNL     1      34.602 -16.764 -24.549  0.00  0.00    -0.247 N 
ATOM      2  N   UNL     1      34.417 -18.963 -24.222  0.00  0.00    -0.242 NA
ATOM      3  N   UNL     1      34.910 -16.029 -22.254  0.00  0.00    -0.228 NA
ATOM      4  N   UNL     1      34.883 -17.916 -20.706  0.00  0.00    -0.228 NA
ATOM      5  C   UNL     1      34.721 -16.960 -23.201  0.00  0.00    +0.152 C 
ATOM      6  C   UNL     1      34.421 -17.998 -25.118  0.00  0.00    +0.223 C 
ATOM      7  C   UNL     1      34.604 -18.329 -23.021  0.00  0.00    +0.140 C 
ATOM      8  C   UNL     1      34.692 -18.801 -21.715  0.00  0.00    +0.150 C 
ATOM      9  C   UNL     1      34.978 -16.604 -21.034  0.00  0.00    +0.253 C 
ATOM     10  N   UNL     1      34.586 -20.175 -21.438  0.00  0.00    -0.295 N 
ATOM     11  H   UNL     1      34.450 -20.729 -22.241  0.00  0.00    +0.154 HD
ENDROOT
BRANCH  10  14
ATOM     12 CL   UNL     1      34.785 -23.297 -16.412  0.00  0.00    -0.082 Cl
ATOM     13  F   UNL     1      36.990 -20.637 -20.114  0.00  0.00    -0.203 F 
ATOM     14  C   UNL     1      34.635 -20.919 -20.240  0.00  0.00    +0.077 C 
ATOM     15  C   UNL     1      35.855 -21.133 -19.600  0.00  0.00    +0.154 C 
ATOM     16  C   UNL     1      33.461 -21.440 -19.698  0.00  0.00    +0.018 C 
ATOM     17  C   UNL     1      35.902 -21.869 -18.416  0.00  0.00    +0.042 C 
ATOM     18  C   UNL     1      33.507 -22.176 -18.515  0.00  0.00    +0.013 C 
ATOM     19  C   UNL     1      34.727 -22.390 -17.873  0.00  0.00    +0.060 C 
ENDBRANCH  10  14
BRANCH   1  23
ATOM     20  O   UNL     1      34.526 -14.397 -24.323  0.00  0.00    -0.326 OA
ATOM     21  C   UNL     1      33.555 -15.314 -26.301  0.00  0.00    +0.187 C 
ATOM     22  C   UNL     1      32.533 -14.473 -25.560  0.00  0.00    +0.178 C 
ATOM     23  C   UNL     1      34.656 -15.485 -25.260  0.00  0.00    +0.225 C 
ATOM     24  C   UNL     1      33.413 -13.562 -24.716  0.00  0.00    +0.223 C 
BRANCH  24  28
ATOM     25  O   UNL     1      32.675 -11.634 -23.409  0.00  0.00    -0.421 OA
ATOM     26  N   UNL     1      32.396 -13.599 -22.377  0.00  0.00    -0.109 NA
ATOM     27  N   UNL     1      31.942 -12.604 -21.531  0.00  0.00    -0.112 NA
ATOM     28  C   UNL     1      32.811 -12.983 -23.452  0.00  0.00    +0.255 A 
ATOM     29  C   UNL     1      32.125 -11.475 -22.175  0.00  0.00    +0.225 A 
BRANCH  29  30
ATOM     30  C   UNL     1      31.820 -10.100 -21.757  0.00  0.00    +0.070 C 
ATOM     31  C   UNL     1      31.513  -9.991 -20.218  0.00  0.00    +0.009 C 
ATOM     32  C   UNL     1      30.573  -9.503 -22.505  0.00  0.00    +0.009 C 
ATOM     33  C   UNL     1      32.962  -9.037 -21.999  0.00  0.00    +0.009 C 
ENDBRANCH  29  30
ENDBRANCH  24  28
BRANCH  21  34
ATOM     34  O   UNL     1      34.101 -14.586 -27.400  0.00  0.00    -0.378 OA
ATOM     35  H   UNL     1      33.594 -14.784 -28.203  0.00  0.00    +0.211 HD
ENDBRANCH  21  34
BRANCH  22  36
ATOM     36  O   UNL     1      31.696 -13.743 -26.434  0.00  0.00    -0.379 OA
ATOM     37  H   UNL     1      30.795 -13.716 -26.073  0.00  0.00    +0.211 HD
ENDBRANCH  22  36
ENDBRANCH   1  23
TORSDOF 6
ENDMDL
MODEL 5
REMARK VINA RESULT:     -10.5     11.495     15.474
REMARK  Name = 9810927
REMARK  6 active torsions:
REMARK  status: ('A' for Active; 'I' for Inactive)
REMARK    1  A    between atoms: N_1  and  C_13
REMARK    2  A    between atoms: C_11  and  O_24
REMARK    3  A    between atoms: C_12  and  O_26
REMARK    4  A    between atoms: C_14  and  C_18
REMARK    5  A    between atoms: C_19  and  C_20
REMARK    6  A    between atoms: N_28  and  C_32
REMARK                            x       y       z     vdW  Elec       q    Type
REMARK                         _______ _______ _______ _____ _____    ______ ____
ROOT
ATOM      1  N   UNL     1      32.194 -10.323 -22.364  0.00  0.00    -0.247 N 
ATOM      2  N   UNL     1      33.358 -11.323 -23.984  0.00  0.00    -0.242 NA
ATOM      3  N   UNL     1      31.678 -12.250 -20.976  0.00  0.00    -0.228 NA
ATOM      4  N   UNL     1      32.612 -14.299 -21.917  0.00  0.00    -0.228 NA
ATOM      5  C   UNL     1      32.228 -11.652 -22.044  0.00  0.00    +0.152 C 
ATOM      6  C   UNL     1      32.886 -10.177 -23.538  0.00  0.00    +0.223 C 
ATOM      7  C   UNL     1      32.955 -12.253 -23.059  0.00  0.00    +0.140 C 
ATOM      8  C   UNL     1      33.141 -13.629 -22.970  0.00  0.00    +0.150 C 
ATOM      9  C   UNL     1      31.923 -13.577 -20.999  0.00  0.00    +0.253 C 
ATOM     10  N   UNL     1      33.866 -14.321 -23.956  0.00  0.00    -0.295 N 
ATOM     11  H   UNL     1      34.207 -13.741 -24.675  0.00  0.00    +0.154 HD
ENDROOT
BRANCH  10  14
ATOM     12 CL   UNL     1      35.284 -20.028 -24.635  0.00  0.00    -0.082 Cl
ATOM     13  F   UNL     1      33.127 -15.736 -26.236  0.00  0.00    -0.203 F 
ATOM     14  C   UNL     1      34.203 -15.681 -24.120  0.00  0.00    +0.077 C 
ATOM     15  C   UNL     1      33.819 -16.363 -25.274  0.00  0.00    +0.154 C 
ATOM     16  C   UNL     1      34.921 -16.343 -23.125  0.00  0.00    +0.018 C 
ATOM     17  C   UNL     1      34.153 -17.707 -25.433  0.00  0.00    +0.042 C 
ATOM     18  C   UNL     1      35.255 -17.688 -23.283  0.00  0.00    +0.013 C 
ATOM     19  C   UNL     1      34.872 -18.370 -24.438  0.00  0.00    +0.060 C 
ENDBRANCH  10  14
BRANCH   1  23
ATOM     20  O   UNL     1      31.149  -8.190 -22.498  0.00  0.00    -0.326 OA
ATOM     21  C   UNL     1      32.431  -8.632 -20.533  0.00  0.00    +0.187 C 
ATOM     22  C   UNL     1      32.941  -7.377 -21.217  0.00  0.00    +0.178 C 
ATOM     23  C   UNL     1      31.543  -9.252 -21.606  0.00  0.00    +0.225 C 
ATOM     24  C   UNL     1      31.739  -6.948 -22.047  0.00  0.00    +0.223 C 
BRANCH  24  28
ATOM     25  O   UNL     1      31.600  -4.805 -23.210  0.00  0.00    -0.421 OA
ATOM     26  N   UNL     1      32.568  -6.431 -24.402  0.00  0.00    -0.109 NA
ATOM     27  N   UNL     1      32.555  -5.284 -25.175  0.00  0.00    -0.112 NA
ATOM     28  C   UNL     1      32.002  -6.099 -23.272  0.00  0.00    +0.255 A 
ATOM     29  C   UNL     1      31.981  -4.362 -24.439  0.00  0.00    +0.225 A 
BRANCH  29  30
ATOM     30  C   UNL     1      31.704  -2.954 -24.751  0.00  0.00    +0.070 C 
ATOM     31  C   UNL     1      32.586  -2.414 -25.936  0.00  0.00    +0.009 C 
ATOM     32  C   UNL     1      31.966  -2.000 -23.528  0.00  0.00    +0.009 C 
ATOM     33  C   UNL     1      30.224  -2.622 -25.189  0.00  0.00    +0.009 C 
ENDBRANCH  29  30
ENDBRANCH  24  28
BRANCH  21  34
ATOM     34  O   UNL     1      31.603  -8.296 -19.421  0.00  0.00    -0.378 OA
ATOM     35  H   UNL     1      32.083  -8.474 -18.596  0.00  0.00    +0.211 HD
ENDBRANCH  21  34
BRANCH  22  36
ATOM     36  O   UNL     1      33.334  -6.380 -20.295  0.00  0.00    -0.379 OA
ATOM     37  H   UNL     1      33.206  -6.707 -19.390  0.00  0.00    +0.211 HD
ENDBRANCH  22  36
ENDBRANCH   1  23
TORSDOF 6
ENDMDL
MODEL 6
REMARK VINA RESULT:     -10.4      3.343      5.152
REMARK  Name = 9810927
REMARK  6 active torsions:
REMARK  status: ('A' for Active; 'I' for Inactive)
REMARK    1  A    between atoms: N_1  and  C_13
REMARK    2  A    between atoms: C_11  and  O_24
REMARK    3  A    between atoms: C_12  and  O_26
REMARK    4  A    between atoms: C_14  and  C_18
REMARK    5  A    between atoms: C_19  and  C_20
REMARK    6  A    between atoms: N_28  and  C_32
REMARK                            x       y       z     vdW  Elec       q    Type
REMARK                         _______ _______ _______ _____ _____    ______ ____
ROOT
ATOM      1  N   UNL     1      34.464 -20.523 -20.347  0.00  0.00    -0.247 N 
ATOM      2  N   UNL     1      32.875 -19.030 -20.819  0.00  0.00    -0.242 NA
ATOM      3  N   UNL     1      36.373 -19.436 -21.386  0.00  0.00    -0.228 NA
ATOM      4  N   UNL     1      35.737 -17.319 -22.419  0.00  0.00    -0.228 NA
ATOM      5  C   UNL     1      35.078 -19.520 -21.045  0.00  0.00    +0.152 C 
ATOM      6  C   UNL     1      33.141 -20.182 -20.238  0.00  0.00    +0.223 C 
ATOM      7  C   UNL     1      34.076 -18.606 -21.326  0.00  0.00    +0.140 C 
ATOM      8  C   UNL     1      34.444 -17.470 -22.041  0.00  0.00    +0.150 C 
ATOM      9  C   UNL     1      36.608 -18.298 -22.073  0.00  0.00    +0.253 C 
ATOM     10  N   UNL     1      33.492 -16.489 -22.370  0.00  0.00    -0.295 N 
ATOM     11  H   UNL     1      32.585 -16.695 -22.047  0.00  0.00    +0.154 HD
ENDROOT
BRANCH  10  14
ATOM     12 CL   UNL     1      33.854 -11.355 -25.296  0.00  0.00    -0.082 Cl
ATOM     13  F   UNL     1      33.588 -16.410 -25.150  0.00  0.00    -0.203 F 
ATOM     14  C   UNL     1      33.578 -15.266 -23.069  0.00  0.00    +0.077 C 
ATOM     15  C   UNL     1      33.625 -15.260 -24.463  0.00  0.00    +0.154 C 
ATOM     16  C   UNL     1      33.618 -14.064 -22.364  0.00  0.00    +0.018 C 
ATOM     17  C   UNL     1      33.710 -14.050 -25.151  0.00  0.00    +0.042 C 
ATOM     18  C   UNL     1      33.704 -12.855 -23.052  0.00  0.00    +0.013 C 
ATOM     19  C   UNL     1      33.749 -12.847 -24.446  0.00  0.00    +0.060 C 
ENDBRANCH  10  14
BRANCH   1  23
ATOM     20  O   UNL     1      34.078 -22.620 -19.292  0.00  0.00    -0.326 OA
ATOM     21  C   UNL     1      36.082 -21.471 -18.688  0.00  0.00    +0.187 C 
ATOM     22  C   UNL     1      35.254 -21.762 -17.450  0.00  0.00    +0.178 C 
ATOM     23  C   UNL     1      35.090 -21.736 -19.815  0.00  0.00    +0.225 C 
ATOM     24  C   UNL     1      34.379 -22.921 -17.910  0.00  0.00    +0.223 C 
BRANCH  24  28
ATOM     25  O   UNL     1      33.124 -23.706 -15.967  0.00  0.00    -0.421 OA
ATOM     26  N   UNL     1      31.851 -22.834 -17.586  0.00  0.00    -0.109 NA
ATOM     27  N   UNL     1      31.018 -23.235 -16.557  0.00  0.00    -0.112 NA
ATOM     28  C   UNL     1      33.062 -23.129 -17.193  0.00  0.00    +0.255 A 
ATOM     29  C   UNL     1      31.805 -23.738 -15.635  0.00  0.00    +0.225 A 
BRANCH  29  30
ATOM     30  C   UNL     1      31.464 -24.311 -14.326  0.00  0.00    +0.070 C 
ATOM     31  C   UNL     1      32.691 -25.015 -13.638  0.00  0.00    +0.009 C 
ATOM     32  C   UNL     1      30.324 -25.391 -14.418  0.00  0.00    +0.009 C 
ATOM     33  C   UNL     1      30.944 -23.291 -13.240  0.00  0.00    +0.009 C 
ENDBRANCH  29  30
ENDBRANCH  24  28
BRANCH  21  34
ATOM     34  O   UNL     1      37.147 -22.412 -18.812  0.00  0.00    -0.378 OA
ATOM     35  H   UNL     1      37.751 -22.317 -18.058  0.00  0.00    +0.211 HD
ENDBRANCH  21  34
BRANCH  22  36
ATOM     36  O   UNL     1      36.051 -22.108 -16.334  0.00  0.00    -0.379 OA
ATOM     37  H   UNL     1      35.789 -21.568 -15.571  0.00  0.00    +0.211 HD
ENDBRANCH  22  36
ENDBRANCH   1  23
TORSDOF 6
ENDMDL
MODEL 7
REMARK VINA RESULT:     -10.3      6.751      9.320
REMARK  Name = 9810927
REMARK  6 active torsions:
REMARK  status: ('A' for Active; 'I' for Inactive)
REMARK    1  A    between atoms: N_1  and  C_13
REMARK    2  A    between atoms: C_11  and  O_24
REMARK    3  A    between atoms: C_12  and  O_26
REMARK    4  A    between atoms: C_14  and  C_18
REMARK    5  A    between atoms: C_19  and  C_20
REMARK    6  A    between atoms: N_28  and  C_32
REMARK                            x       y       z     vdW  Elec       q    Type
REMARK                         _______ _______ _______ _____ _____    ______ ____
ROOT
ATOM      1  N   UNL     1      33.887 -16.284 -22.205  0.00  0.00    -0.247 N 
ATOM      2  N   UNL     1      32.804 -14.916 -20.814  0.00  0.00    -0.242 NA
ATOM      3  N   UNL     1      34.353 -14.741 -24.023  0.00  0.00    -0.228 NA
ATOM      4  N   UNL     1      33.480 -12.513 -23.543  0.00  0.00    -0.228 NA
ATOM      5  C   UNL     1      33.847 -15.065 -22.823  0.00  0.00    +0.152 C 
ATOM      6  C   UNL     1      33.246 -16.143 -21.002  0.00  0.00    +0.223 C 
ATOM      7  C   UNL     1      33.173 -14.233 -21.944  0.00  0.00    +0.140 C 
ATOM      8  C   UNL     1      32.996 -12.911 -22.341  0.00  0.00    +0.150 C 
ATOM      9  C   UNL     1      34.119 -13.439 -24.298  0.00  0.00    +0.253 C 
ATOM     10  N   UNL     1      32.324 -11.996 -21.512  0.00  0.00    -0.295 N 
ATOM     11  H   UNL     1      32.014 -12.387 -20.663  0.00  0.00    +0.154 HD
ENDROOT
BRANCH  10  14
ATOM     12 CL   UNL     1      30.986  -6.260 -22.114  0.00  0.00    -0.082 Cl
ATOM     13  F   UNL     1      32.471 -10.240 -19.358  0.00  0.00    -0.203 F 
ATOM     14  C   UNL     1      32.006 -10.629 -21.653  0.00  0.00    +0.077 C 
ATOM     15  C   UNL     1      32.089  -9.774 -20.555  0.00  0.00    +0.154 C 
ATOM     16  C   UNL     1      31.606 -10.134 -22.894  0.00  0.00    +0.018 C 
ATOM     17  C   UNL     1      31.774  -8.423 -20.697  0.00  0.00    +0.042 C 
ATOM     18  C   UNL     1      31.290  -8.783 -23.037  0.00  0.00    +0.013 C 
ATOM     19  C   UNL     1      31.375  -7.927 -21.939  0.00  0.00    +0.060 C 
ENDBRANCH  10  14
BRANCH   1  23
ATOM     20  O   UNL     1      33.734 -18.657 -22.280  0.00  0.00    -0.326 OA
ATOM     21  C   UNL     1      35.932 -17.727 -22.266  0.00  0.00    +0.187 C 
ATOM     22  C   UNL     1      35.769 -18.695 -21.109  0.00  0.00    +0.178 C 
ATOM     23  C   UNL     1      34.493 -17.513 -22.721  0.00  0.00    +0.225 C 
ATOM     24  C   UNL     1      34.612 -19.567 -21.578  0.00  0.00    +0.223 C 
BRANCH  24  28
ATOM     25  O   UNL     1      34.394 -21.279 -19.849  0.00  0.00    -0.421 OA
ATOM     26  N   UNL     1      32.558 -20.034 -20.140  0.00  0.00    -0.109 NA
ATOM     27  N   UNL     1      32.296 -20.955 -19.141  0.00  0.00    -0.112 NA
ATOM     28  C   UNL     1      33.788 -20.265 -20.516  0.00  0.00    +0.255 A 
ATOM     29  C   UNL     1      33.395 -21.659 -19.006  0.00  0.00    +0.225 A 
BRANCH  29  30
ATOM     30  C   UNL     1      33.687 -22.770 -18.091  0.00  0.00    +0.070 C 
ATOM     31  C   UNL     1      34.998 -22.534 -17.254  0.00  0.00    +0.009 C 
ATOM     32  C   UNL     1      33.878 -24.138 -18.842  0.00  0.00    +0.009 C 
ATOM     33  C   UNL     1      32.585 -23.076 -17.003  0.00  0.00    +0.009 C 
ENDBRANCH  29  30
ENDBRANCH  24  28
BRANCH  21  34
ATOM     34  O   UNL     1      36.644 -18.342 -23.339  0.00  0.00    -0.378 OA
ATOM     35  H   UNL     1      37.590 -18.138 -23.258  0.00  0.00    +0.211 HD
ENDBRANCH  21  34
BRANCH  22  36
ATOM     36  O   UNL     1      36.939 -19.449 -20.865  0.00  0.00    -0.379 OA
ATOM     37  H   UNL     1      36.955 -20.221 -21.454  0.00  0.00    +0.211 HD
ENDBRANCH  22  36
ENDBRANCH   1  23
TORSDOF 6
ENDMDL
MODEL 8
REMARK VINA RESULT:     -10.2      2.036      3.182
REMARK  Name = 9810927
REMARK  6 active torsions:
REMARK  status: ('A' for Active; 'I' for Inactive)
REMARK    1  A    between atoms: N_1  and  C_13
REMARK    2  A    between atoms: C_11  and  O_24
REMARK    3  A    between atoms: C_12  and  O_26
REMARK    4  A    between atoms: C_14  and  C_18
REMARK    5  A    between atoms: C_19  and  C_20
REMARK    6  A    between atoms: N_28  and  C_32
REMARK                            x       y       z     vdW  Elec       q    Type
REMARK                         _______ _______ _______ _____ _____    ______ ____
ROOT
ATOM      1  N   UNL     1      34.662 -22.035 -18.645  0.00  0.00    -0.247 N 
ATOM      2  N   UNL     1      33.082 -20.881 -19.717  0.00  0.00    -0.242 NA
ATOM      3  N   UNL     1      36.632 -20.812 -19.372  0.00  0.00    -0.228 NA
ATOM      4  N   UNL     1      36.037 -18.973 -20.862  0.00  0.00    -0.228 NA
ATOM      5  C   UNL     1      35.313 -21.050 -19.336  0.00  0.00    +0.152 C 
ATOM      6  C   UNL     1      33.325 -21.891 -18.908  0.00  0.00    +0.223 C 
ATOM      7  C   UNL     1      34.315 -20.346 -19.992  0.00  0.00    +0.140 C 
ATOM      8  C   UNL     1      34.718 -19.271 -20.778  0.00  0.00    +0.150 C 
ATOM      9  C   UNL     1      36.900 -19.751 -20.164  0.00  0.00    +0.253 C 
ATOM     10  N   UNL     1      33.773 -18.501 -21.479  0.00  0.00    -0.295 N 
ATOM     11  H   UNL     1      32.844 -18.801 -21.348  0.00  0.00    +0.154 HD
ENDROOT
BRANCH  10  14
ATOM     12 CL   UNL     1      34.265 -13.804 -25.049  0.00  0.00    -0.082 Cl
ATOM     13  F   UNL     1      34.785 -18.743 -24.060  0.00  0.00    -0.203 F 
ATOM     14  C   UNL     1      33.891 -17.383 -22.331  0.00  0.00    +0.077 C 
ATOM     15  C   UNL     1      34.402 -17.536 -23.620  0.00  0.00    +0.154 C 
ATOM     16  C   UNL     1      33.496 -16.123 -21.882  0.00  0.00    +0.018 C 
ATOM     17  C   UNL     1      34.518 -16.429 -24.460  0.00  0.00    +0.042 C 
ATOM     18  C   UNL     1      33.612 -15.016 -22.722  0.00  0.00    +0.013 C 
ATOM     19  C   UNL     1      34.122 -15.169 -24.011  0.00  0.00    +0.060 C 
ENDBRANCH  10  14
BRANCH   1  23
ATOM     20  O   UNL     1      34.238 -23.828 -17.140  0.00  0.00    -0.326 OA
ATOM     21  C   UNL     1      36.160 -22.485 -16.689  0.00  0.00    +0.187 C 
ATOM     22  C   UNL     1      35.240 -22.501 -15.482  0.00  0.00    +0.178 C 
ATOM     23  C   UNL     1      35.270 -23.055 -17.787  0.00  0.00    +0.225 C 
ATOM     24  C   UNL     1      34.432 -23.771 -15.708  0.00  0.00    +0.223 C 
BRANCH  24  28
ATOM     25  O   UNL     1      32.006 -23.518 -15.839  0.00  0.00    -0.421 OA
ATOM     26  N   UNL     1      32.746 -24.206 -13.844  0.00  0.00    -0.109 NA
ATOM     27  N   UNL     1      31.369 -24.105 -13.776  0.00  0.00    -0.112 NA
ATOM     28  C   UNL     1      33.065 -23.854 -15.061  0.00  0.00    +0.255 A 
ATOM     29  C   UNL     1      30.980 -23.701 -14.963  0.00  0.00    +0.225 A 
BRANCH  29  30
ATOM     30  C   UNL     1      29.626 -23.429 -15.461  0.00  0.00    +0.070 C 
ATOM     31  C   UNL     1      29.606 -23.079 -16.995  0.00  0.00    +0.009 C 
ATOM     32  C   UNL     1      28.939 -22.225 -14.719  0.00  0.00    +0.009 C 
ATOM     33  C   UNL     1      28.589 -24.611 -15.322  0.00  0.00    +0.009 C 
ENDBRANCH  29  30
ENDBRANCH  24  28
BRANCH  21  34
ATOM     34  O   UNL     1      37.252 -23.383 -16.499  0.00  0.00    -0.378 OA
ATOM     35  H   UNL     1      36.953 -24.292 -16.661  0.00  0.00    +0.211 HD
ENDBRANCH  21  34
BRANCH  22  36
ATOM     36  O   UNL     1      35.950 -22.532 -14.260  0.00  0.00    -0.379 OA
ATOM     37  H   UNL     1      36.799 -22.074 -14.368  0.00  0.00    +0.211 HD
ENDBRANCH  22  36
ENDBRANCH   1  23
TORSDOF 6
ENDMDL
MODEL 9
REMARK VINA RESULT:     -10.1      5.833     10.281
REMARK  Name = 9810927
REMARK  6 active torsions:
REMARK  status: ('A' for Active; 'I' for Inactive)
REMARK    1  A    between atoms: N_1  and  C_13
REMARK    2  A    between atoms: C_11  and  O_24
REMARK    3  A    between atoms: C_12  and  O_26
REMARK    4  A    between atoms: C_14  and  C_18
REMARK    5  A    between atoms: C_19  and  C_20
REMARK    6  A    between atoms: N_28  and  C_32
REMARK                            x       y       z     vdW  Elec       q    Type
REMARK                         _______ _______ _______ _____ _____    ______ ____
ROOT
ATOM      1  N   UNL     1      34.325 -19.915 -21.498  0.00  0.00    -0.247 N 
ATOM      2  N   UNL     1      32.408 -20.278 -20.416  0.00  0.00    -0.242 NA
ATOM      3  N   UNL     1      35.830 -21.242 -20.129  0.00  0.00    -0.228 NA
ATOM      4  N   UNL     1      34.642 -22.320 -18.289  0.00  0.00    -0.228 NA
ATOM      5  C   UNL     1      34.629 -20.742 -20.452  0.00  0.00    +0.152 C 
ATOM      6  C   UNL     1      32.979 -19.664 -21.432  0.00  0.00    +0.223 C 
ATOM      7  C   UNL     1      33.427 -20.955 -19.796  0.00  0.00    +0.140 C 
ATOM      8  C   UNL     1      33.460 -21.779 -18.675  0.00  0.00    +0.150 C 
ATOM      9  C   UNL     1      35.737 -22.022 -19.029  0.00  0.00    +0.253 C 
ATOM     10  N   UNL     1      32.288 -22.051 -17.948  0.00  0.00    -0.295 N 
ATOM     11  H   UNL     1      31.486 -21.610 -18.314  0.00  0.00    +0.154 HD
ENDROOT
BRANCH  10  14
ATOM     12 CL   UNL     1      31.218 -25.319 -13.130  0.00  0.00    -0.082 Cl
ATOM     13  F   UNL     1      29.692 -22.502 -17.051  0.00  0.00    -0.203 F 
ATOM     14  C   UNL     1      32.031 -22.829 -16.800  0.00  0.00    +0.077 C 
ATOM     15  C   UNL     1      30.719 -23.037 -16.376  0.00  0.00    +0.154 C 
ATOM     16  C   UNL     1      33.091 -23.390 -16.090  0.00  0.00    +0.018 C 
ATOM     17  C   UNL     1      30.467 -23.807 -15.241  0.00  0.00    +0.042 C 
ATOM     18  C   UNL     1      32.841 -24.160 -14.955  0.00  0.00    +0.013 C 
ATOM     19  C   UNL     1      31.529 -24.369 -14.530  0.00  0.00    +0.060 C 
ENDBRANCH  10  14
BRANCH   1  23
ATOM     20  O   UNL     1      35.542 -18.004 -22.224  0.00  0.00    -0.326 OA
ATOM     21  C   UNL     1      34.720 -19.459 -23.928  0.00  0.00    +0.187 C 
ATOM     22  C   UNL     1      34.208 -18.049 -24.155  0.00  0.00    +0.178 C 
ATOM     23  C   UNL     1      35.253 -19.389 -22.502  0.00  0.00    +0.225 C 
ATOM     24  C   UNL     1      35.220 -17.209 -23.388  0.00  0.00    +0.223 C 
BRANCH  24  28
ATOM     25  O   UNL     1      34.209 -15.028 -23.823  0.00  0.00    -0.421 OA
ATOM     26  N   UNL     1      34.849 -15.333 -21.701  0.00  0.00    -0.109 NA
ATOM     27  N   UNL     1      34.300 -14.068 -21.804  0.00  0.00    -0.112 NA
ATOM     28  C   UNL     1      34.772 -15.848 -22.900  0.00  0.00    +0.255 A 
ATOM     29  C   UNL     1      33.941 -13.934 -23.059  0.00  0.00    +0.225 A 
BRANCH  29  30
ATOM     30  C   UNL     1      33.303 -12.796 -23.733  0.00  0.00    +0.070 C 
ATOM     31  C   UNL     1      32.128 -12.177 -22.890  0.00  0.00    +0.009 C 
ATOM     32  C   UNL     1      32.693 -13.184 -25.130  0.00  0.00    +0.009 C 
ATOM     33  C   UNL     1      34.241 -11.566 -24.049  0.00  0.00    +0.009 C 
ENDBRANCH  29  30
ENDBRANCH  24  28
BRANCH  21  34
ATOM     34  O   UNL     1      35.820 -19.738 -24.793  0.00  0.00    -0.378 OA
ATOM     35  H   UNL     1      35.485 -20.034 -25.655  0.00  0.00    +0.211 HD
ENDBRANCH  21  34
BRANCH  22  36
ATOM     36  O   UNL     1      34.159 -17.704 -25.525  0.00  0.00    -0.379 OA
ATOM     37  H   UNL     1      33.568 -16.943 -25.646  0.00  0.00    +0.211 HD
ENDBRANCH  22  36
ENDBRANCH   1  23
TORSDOF 6
ENDMDL
