MODEL 1
REMARK VINA RESULT:     -10.0      0.000      0.000
REMARK  Name = 59745
REMARK  4 active torsions:
REMARK  status: ('A' for Active; 'I' for Inactive)
REMARK    1  A    between atoms: C_3  and  C_18
REMARK    2  A    between atoms: C_4  and  N_11
REMARK    3  A    between atoms: C_18  and  C_20
REMARK    4  A    between atoms: C_18  and  C_27
REMARK                            x       y       z     vdW  Elec       q    Type
REMARK                         _______ _______ _______ _____ _____    ______ ____
ROOT
ATOM      1 CL   UNL     1      34.052  -8.485 -23.704  0.00  0.00    -0.082 Cl
ATOM      2 CL   UNL     1      30.222 -11.046 -20.790  0.00  0.00    -0.082 Cl
ATOM      3  C   UNL     1      32.186  -9.906 -22.309  0.00  0.00    +0.017 C 
ATOM      4  C   UNL     1      33.004 -12.320 -23.354  0.00  0.00    +0.080 C 
ATOM      5  C   UNL     1      33.230  -9.918 -23.206  0.00  0.00    +0.057 C 
ATOM      6  C   UNL     1      31.533 -11.054 -21.914  0.00  0.00    +0.057 C 
ATOM      7  C   UNL     1      33.645 -11.141 -23.735  0.00  0.00    +0.028 C 
ATOM      8  C   UNL     1      31.948 -12.276 -22.444  0.00  0.00    +0.028 C 
ENDROOT
BRANCH   4  11
ATOM      9  O   UNL     1      34.654 -14.417 -22.072  0.00  0.00    -0.250 OA
ATOM     10  O   UNL     1      34.438 -16.901 -25.917  0.00  0.00    -0.268 OA
ATOM     11  N   UNL     1      33.432 -13.584 -23.902  0.00  0.00    -0.142 N 
ATOM     12  N   UNL     1      32.951 -13.817 -25.166  0.00  0.00    -0.164 NA
ATOM     13  N   UNL     1      34.591 -15.644 -23.965  0.00  0.00    -0.233 N 
ATOM     14  C   UNL     1      34.248 -14.512 -23.232  0.00  0.00    +0.333 C 
ATOM     15  C   UNL     1      33.277 -14.889 -25.797  0.00  0.00    +0.176 C 
ATOM     16  C   UNL     1      34.170 -15.925 -25.235  0.00  0.00    +0.274 C 
ATOM     17  H   UNL     1      35.188 -16.297 -23.533  0.00  0.00    +0.160 HD
ENDBRANCH   4  11
BRANCH   3  18
ATOM     18  C   UNL     1      31.730  -8.563 -21.726  0.00  0.00    +0.137 C 
BRANCH  18  20
ATOM     19  F   UNL     1      31.084  -4.563 -25.621  0.00  0.00    -0.204 F 
ATOM     20  C   UNL     1      31.558  -7.502 -22.760  0.00  0.00    -0.004 C 
ATOM     21  C   UNL     1      32.122  -6.241 -22.565  0.00  0.00    -0.001 C 
ATOM     22  C   UNL     1      30.833  -7.771 -23.922  0.00  0.00    -0.001 C 
ATOM     23  C   UNL     1      31.962  -5.248 -23.531  0.00  0.00    +0.029 C 
ATOM     24  C   UNL     1      30.673  -6.778 -24.888  0.00  0.00    +0.029 C 
ATOM     25  C   UNL     1      31.237  -5.516 -24.693  0.00  0.00    +0.140 C 
ENDBRANCH  18  20
BRANCH  18  27
ATOM     26  N   UNL     1      33.233  -7.816 -19.671  0.00  0.00    -0.195 NA
ATOM     27  C   UNL     1      32.583  -8.150 -20.573  0.00  0.00    +0.081 C 
ENDBRANCH  18  27
ENDBRANCH   3  18
TORSDOF 4
ENDMDL
MODEL 2
REMARK VINA RESULT:      -9.9      0.067      1.786
REMARK  Name = 59745
REMARK  4 active torsions:
REMARK  status: ('A' for Active; 'I' for Inactive)
REMARK    1  A    between atoms: C_3  and  C_18
REMARK    2  A    between atoms: C_4  and  N_11
REMARK    3  A    between atoms: C_18  and  C_20
REMARK    4  A    between atoms: C_18  and  C_27
REMARK                            x       y       z     vdW  Elec       q    Type
REMARK                         _______ _______ _______ _____ _____    ______ ____
ROOT
ATOM      1 CL   UNL     1      30.228 -11.132 -20.777  0.00  0.00    -0.082 Cl
ATOM      2 CL   UNL     1      34.029  -8.538 -23.700  0.00  0.00    -0.082 Cl
ATOM      3  C   UNL     1      32.176  -9.976 -22.300  0.00  0.00    +0.017 C 
ATOM      4  C   UNL     1      33.007 -12.381 -23.354  0.00  0.00    +0.080 C 
ATOM      5  C   UNL     1      31.534 -11.129 -21.905  0.00  0.00    +0.057 C 
ATOM      6  C   UNL     1      33.219  -9.980 -23.201  0.00  0.00    +0.057 C 
ATOM      7  C   UNL     1      31.954 -12.347 -22.439  0.00  0.00    +0.028 C 
ATOM      8  C   UNL     1      33.640 -11.198 -23.735  0.00  0.00    +0.028 C 
ENDROOT
BRANCH   4  11
ATOM      9  O   UNL     1      34.678 -14.468 -22.081  0.00  0.00    -0.250 OA
ATOM     10  O   UNL     1      34.470 -16.947 -25.930  0.00  0.00    -0.268 OA
ATOM     11  N   UNL     1      33.443 -13.642 -23.906  0.00  0.00    -0.142 N 
ATOM     12  N   UNL     1      32.961 -13.876 -25.169  0.00  0.00    -0.164 NA
ATOM     13  N   UNL     1      34.619 -15.692 -23.976  0.00  0.00    -0.233 N 
ATOM     14  C   UNL     1      34.269 -14.565 -23.240  0.00  0.00    +0.333 C 
ATOM     15  C   UNL     1      33.293 -14.944 -25.802  0.00  0.00    +0.176 C 
ATOM     16  C   UNL     1      34.196 -15.974 -25.246  0.00  0.00    +0.274 C 
ATOM     17  H   UNL     1      35.222 -16.341 -23.547  0.00  0.00    +0.160 HD
ENDBRANCH   4  11
BRANCH   3  18
ATOM     18  C   UNL     1      31.714  -8.637 -21.714  0.00  0.00    +0.137 C 
BRANCH  18  20
ATOM     19  F   UNL     1      31.092  -4.620 -25.596  0.00  0.00    -0.204 F 
ATOM     20  C   UNL     1      31.549  -7.571 -22.745  0.00  0.00    -0.004 C 
ATOM     21  C   UNL     1      32.121  -6.314 -22.546  0.00  0.00    -0.001 C 
ATOM     22  C   UNL     1      30.822  -7.831 -23.907  0.00  0.00    -0.001 C 
ATOM     23  C   UNL     1      31.966  -5.317 -23.509  0.00  0.00    +0.029 C 
ATOM     24  C   UNL     1      30.667  -6.834 -24.870  0.00  0.00    +0.029 C 
ATOM     25  C   UNL     1      31.239  -5.577 -24.671  0.00  0.00    +0.140 C 
ENDBRANCH  18  20
BRANCH  18  27
ATOM     26  N   UNL     1      33.199  -7.900 -19.642  0.00  0.00    -0.195 NA
ATOM     27  C   UNL     1      32.558  -8.228 -20.553  0.00  0.00    +0.081 C 
ENDBRANCH  18  27
ENDBRANCH   3  18
TORSDOF 4
ENDMDL
MODEL 3
REMARK VINA RESULT:      -9.6      7.738     10.860
REMARK  Name = 59745
REMARK  4 active torsions:
REMARK  status: ('A' for Active; 'I' for Inactive)
REMARK    1  A    between atoms: C_3  and  C_18
REMARK    2  A    between atoms: C_4  and  N_11
REMARK    3  A    between atoms: C_18  and  C_20
REMARK    4  A    between atoms: C_18  and  C_27
REMARK                            x       y       z     vdW  Elec       q    Type
REMARK                         _______ _______ _______ _____ _____    ______ ____
ROOT
ATOM      1 CL   UNL     1      32.524 -19.421 -21.716  0.00  0.00    -0.082 Cl
ATOM      2 CL   UNL     1      37.938 -19.316 -21.087  0.00  0.00    -0.082 Cl
ATOM      3  C   UNL     1      35.218 -19.472 -21.279  0.00  0.00    +0.017 C 
ATOM      4  C   UNL     1      35.009 -21.245 -19.181  0.00  0.00    +0.080 C 
ATOM      5  C   UNL     1      33.968 -19.921 -20.914  0.00  0.00    +0.057 C 
ATOM      6  C   UNL     1      36.368 -19.875 -20.635  0.00  0.00    +0.057 C 
ATOM      7  C   UNL     1      33.862 -20.819 -19.851  0.00  0.00    +0.028 C 
ATOM      8  C   UNL     1      36.262 -20.773 -19.572  0.00  0.00    +0.028 C 
ENDROOT
BRANCH   4  11
ATOM      9  O   UNL     1      32.696 -22.928 -18.416  0.00  0.00    -0.250 OA
ATOM     10  O   UNL     1      35.075 -24.527 -14.841  0.00  0.00    -0.268 OA
ATOM     11  N   UNL     1      34.900 -22.173 -18.080  0.00  0.00    -0.142 N 
ATOM     12  N   UNL     1      36.056 -22.286 -17.351  0.00  0.00    -0.164 NA
ATOM     13  N   UNL     1      33.835 -23.705 -16.629  0.00  0.00    -0.233 N 
ATOM     14  C   UNL     1      33.744 -22.911 -17.768  0.00  0.00    +0.333 C 
ATOM     15  C   UNL     1      36.099 -23.051 -16.318  0.00  0.00    +0.176 C 
ATOM     16  C   UNL     1      34.945 -23.844 -15.843  0.00  0.00    +0.274 C 
ATOM     17  H   UNL     1      33.031 -24.210 -16.367  0.00  0.00    +0.160 HD
ENDBRANCH   4  11
BRANCH   3  18
ATOM     18  C   UNL     1      35.335 -18.486 -22.447  0.00  0.00    +0.137 C 
BRANCH  18  20
ATOM     19  F   UNL     1      33.111 -13.448 -21.323  0.00  0.00    -0.204 F 
ATOM     20  C   UNL     1      34.745 -17.149 -22.148  0.00  0.00    -0.004 C 
ATOM     21  C   UNL     1      34.122 -16.420 -23.161  0.00  0.00    -0.001 C 
ATOM     22  C   UNL     1      34.816 -16.628 -20.856  0.00  0.00    -0.001 C 
ATOM     23  C   UNL     1      33.571 -15.169 -22.883  0.00  0.00    +0.029 C 
ATOM     24  C   UNL     1      34.265 -15.377 -20.577  0.00  0.00    +0.029 C 
ATOM     25  C   UNL     1      33.642 -14.648 -21.590  0.00  0.00    +0.140 C 
ENDBRANCH  18  20
BRANCH  18  27
ATOM     26  N   UNL     1      34.487 -19.555 -24.722  0.00  0.00    -0.195 NA
ATOM     27  C   UNL     1      34.848 -19.089 -23.722  0.00  0.00    +0.081 C 
ENDBRANCH  18  27
ENDBRANCH   3  18
TORSDOF 4
ENDMDL
MODEL 4
REMARK VINA RESULT:      -9.6      5.766      9.800
REMARK  Name = 59745
REMARK  4 active torsions:
REMARK  status: ('A' for Active; 'I' for Inactive)
REMARK    1  A    between atoms: C_3  and  C_18
REMARK    2  A    between atoms: C_4  and  N_11
REMARK    3  A    between atoms: C_18  and  C_20
REMARK    4  A    between atoms: C_18  and  C_27
REMARK                            x       y       z     vdW  Elec       q    Type
REMARK                         _______ _______ _______ _____ _____    ______ ____
ROOT
ATOM      1 CL   UNL     1      35.378 -16.877 -20.026  0.00  0.00    -0.082 Cl
ATOM      2 CL   UNL     1      34.592 -17.671 -25.362  0.00  0.00    -0.082 Cl
ATOM      3  C   UNL     1      34.929 -17.124 -22.707  0.00  0.00    +0.017 C 
ATOM      4  C   UNL     1      33.969 -14.553 -22.949  0.00  0.00    +0.080 C 
ATOM      5  C   UNL     1      34.872 -16.330 -21.583  0.00  0.00    +0.057 C 
ATOM      6  C   UNL     1      34.523 -16.681 -23.948  0.00  0.00    +0.057 C 
ATOM      7  C   UNL     1      34.386 -15.028 -21.705  0.00  0.00    +0.028 C 
ATOM      8  C   UNL     1      34.038 -15.380 -24.070  0.00  0.00    +0.028 C 
ENDROOT
BRANCH   4  11
ATOM      9  O   UNL     1      31.850 -13.225 -21.363  0.00  0.00    -0.250 OA
ATOM     10  O   UNL     1      32.352  -9.446 -23.906  0.00  0.00    -0.268 OA
ATOM     11  N   UNL     1      33.465 -13.206 -23.075  0.00  0.00    -0.142 N 
ATOM     12  N   UNL     1      34.112 -12.475 -24.038  0.00  0.00    -0.164 NA
ATOM     13  N   UNL     1      32.054 -11.363 -22.623  0.00  0.00    -0.233 N 
ATOM     14  C   UNL     1      32.426 -12.664 -22.298  0.00  0.00    +0.333 C 
ATOM     15  C   UNL     1      33.748 -11.267 -24.289  0.00  0.00    +0.176 C 
ATOM     16  C   UNL     1      32.638 -10.588 -23.587  0.00  0.00    +0.274 C 
ATOM     17  H   UNL     1      31.309 -10.968 -22.117  0.00  0.00    +0.160 HD
ENDBRANCH   4  11
BRANCH   3  18
ATOM     18  C   UNL     1      35.464 -18.554 -22.574  0.00  0.00    +0.137 C 
BRANCH  18  20
ATOM     19  F   UNL     1      32.630 -21.638 -18.826  0.00  0.00    -0.204 F 
ATOM     20  C   UNL     1      34.711 -19.372 -21.579  0.00  0.00    -0.004 C 
ATOM     21  C   UNL     1      35.394 -20.262 -20.749  0.00  0.00    -0.001 C 
ATOM     22  C   UNL     1      33.325 -19.248 -21.480  0.00  0.00    -0.001 C 
ATOM     23  C   UNL     1      34.690 -21.028 -19.820  0.00  0.00    +0.029 C 
ATOM     24  C   UNL     1      32.621 -20.014 -20.550  0.00  0.00    +0.029 C 
ATOM     25  C   UNL     1      33.304 -20.904 -19.720  0.00  0.00    +0.140 C 
ENDBRANCH  18  20
BRANCH  18  27
ATOM     26  N   UNL     1      38.090 -18.572 -22.196  0.00  0.00    -0.195 NA
ATOM     27  C   UNL     1      36.943 -18.568 -22.372  0.00  0.00    +0.081 C 
ENDBRANCH  18  27
ENDBRANCH   3  18
TORSDOF 4
ENDMDL
MODEL 5
REMARK VINA RESULT:      -9.6      7.770     10.762
REMARK  Name = 59745
REMARK  4 active torsions:
REMARK  status: ('A' for Active; 'I' for Inactive)
REMARK    1  A    between atoms: C_3  and  C_18
REMARK    2  A    between atoms: C_4  and  N_11
REMARK    3  A    between atoms: C_18  and  C_20
REMARK    4  A    between atoms: C_18  and  C_27
REMARK                            x       y       z     vdW  Elec       q    Type
REMARK                         _______ _______ _______ _____ _____    ______ ____
ROOT
ATOM      1 CL   UNL     1      37.935 -19.370 -21.050  0.00  0.00    -0.082 Cl
ATOM      2 CL   UNL     1      32.515 -19.388 -21.643  0.00  0.00    -0.082 Cl
ATOM      3  C   UNL     1      35.213 -19.483 -21.225  0.00  0.00    +0.017 C 
ATOM      4  C   UNL     1      34.990 -21.265 -19.135  0.00  0.00    +0.080 C 
ATOM      5  C   UNL     1      36.360 -19.908 -20.591  0.00  0.00    +0.057 C 
ATOM      6  C   UNL     1      33.958 -19.916 -20.854  0.00  0.00    +0.057 C 
ATOM      7  C   UNL     1      36.247 -20.810 -19.533  0.00  0.00    +0.028 C 
ATOM      8  C   UNL     1      33.845 -20.818 -19.796  0.00  0.00    +0.028 C 
ENDROOT
BRANCH   4  11
ATOM      9  O   UNL     1      32.660 -22.927 -18.377  0.00  0.00    -0.250 OA
ATOM     10  O   UNL     1      35.029 -24.577 -14.818  0.00  0.00    -0.268 OA
ATOM     11  N   UNL     1      34.873 -22.199 -18.041  0.00  0.00    -0.142 N 
ATOM     12  N   UNL     1      36.029 -22.330 -17.315  0.00  0.00    -0.164 NA
ATOM     13  N   UNL     1      33.794 -23.729 -16.597  0.00  0.00    -0.233 N 
ATOM     14  C   UNL     1      33.710 -22.926 -17.731  0.00  0.00    +0.333 C 
ATOM     15  C   UNL     1      36.066 -23.102 -16.288  0.00  0.00    +0.176 C 
ATOM     16  C   UNL     1      34.904 -23.885 -15.815  0.00  0.00    +0.274 C 
ATOM     17  H   UNL     1      32.985 -24.226 -16.337  0.00  0.00    +0.160 HD
ENDBRANCH   4  11
BRANCH   3  18
ATOM     18  C   UNL     1      35.336 -18.491 -22.387  0.00  0.00    +0.137 C 
BRANCH  18  20
ATOM     19  F   UNL     1      33.107 -13.460 -21.242  0.00  0.00    -0.204 F 
ATOM     20  C   UNL     1      34.744 -17.156 -22.084  0.00  0.00    -0.004 C 
ATOM     21  C   UNL     1      34.825 -16.634 -20.792  0.00  0.00    -0.001 C 
ATOM     22  C   UNL     1      34.109 -16.429 -23.091  0.00  0.00    -0.001 C 
ATOM     23  C   UNL     1      34.272 -15.386 -20.508  0.00  0.00    +0.029 C 
ATOM     24  C   UNL     1      33.556 -15.180 -22.807  0.00  0.00    +0.029 C 
ATOM     25  C   UNL     1      33.637 -14.659 -21.515  0.00  0.00    +0.140 C 
ENDBRANCH  18  20
BRANCH  18  27
ATOM     26  N   UNL     1      34.491 -19.537 -24.674  0.00  0.00    -0.195 NA
ATOM     27  C   UNL     1      34.855 -19.088 -23.668  0.00  0.00    +0.081 C 
ENDBRANCH  18  27
ENDBRANCH   3  18
TORSDOF 4
ENDMDL
MODEL 6
REMARK VINA RESULT:      -8.4      6.535     10.175
REMARK  Name = 59745
REMARK  4 active torsions:
REMARK  status: ('A' for Active; 'I' for Inactive)
REMARK    1  A    between atoms: C_3  and  C_18
REMARK    2  A    between atoms: C_4  and  N_11
REMARK    3  A    between atoms: C_18  and  C_20
REMARK    4  A    between atoms: C_18  and  C_27
REMARK                            x       y       z     vdW  Elec       q    Type
REMARK                         _______ _______ _______ _____ _____    ______ ____
ROOT
ATOM      1 CL   UNL     1      35.354 -16.966 -20.590  0.00  0.00    -0.082 Cl
ATOM      2 CL   UNL     1      35.120 -20.170 -24.995  0.00  0.00    -0.082 Cl
ATOM      3  C   UNL     1      35.183 -18.443 -22.879  0.00  0.00    +0.017 C 
ATOM      4  C   UNL     1      34.265 -16.320 -24.375  0.00  0.00    +0.080 C 
ATOM      5  C   UNL     1      35.014 -17.223 -22.262  0.00  0.00    +0.057 C 
ATOM      6  C   UNL     1      34.910 -18.643 -24.215  0.00  0.00    +0.057 C 
ATOM      7  C   UNL     1      34.550 -16.148 -23.020  0.00  0.00    +0.028 C 
ATOM      8  C   UNL     1      34.445 -17.568 -24.972  0.00  0.00    +0.028 C 
ENDROOT
BRANCH   4  11
ATOM      9  O   UNL     1      34.081 -13.468 -23.603  0.00  0.00    -0.250 OA
ATOM     10  O   UNL     1      32.255 -12.505 -27.694  0.00  0.00    -0.268 OA
ATOM     11  N   UNL     1      33.783 -15.208 -25.159  0.00  0.00    -0.142 N 
ATOM     12  N   UNL     1      33.415 -15.563 -26.432  0.00  0.00    -0.164 NA
ATOM     13  N   UNL     1      33.149 -12.974 -25.598  0.00  0.00    -0.233 N 
ATOM     14  C   UNL     1      33.698 -13.882 -24.699  0.00  0.00    +0.333 C 
ATOM     15  C   UNL     1      32.932 -14.683 -27.236  0.00  0.00    +0.176 C 
ATOM     16  C   UNL     1      32.737 -13.264 -26.870  0.00  0.00    +0.274 C 
ATOM     17  H   UNL     1      33.048 -12.043 -25.293  0.00  0.00    +0.160 HD
ENDBRANCH   4  11
BRANCH   3  18
ATOM     18  C   UNL     1      35.695 -19.625 -22.048  0.00  0.00    +0.137 C 
BRANCH  18  20
ATOM     19  F   UNL     1      31.888 -21.571 -18.398  0.00  0.00    -0.204 F 
ATOM     20  C   UNL     1      34.685 -20.142 -21.079  0.00  0.00    -0.004 C 
ATOM     21  C   UNL     1      33.365 -19.693 -21.142  0.00  0.00    -0.001 C 
ATOM     22  C   UNL     1      35.060 -21.073 -20.110  0.00  0.00    -0.001 C 
ATOM     23  C   UNL     1      32.421 -20.176 -20.236  0.00  0.00    +0.029 C 
ATOM     24  C   UNL     1      34.116 -21.555 -19.203  0.00  0.00    +0.029 C 
ATOM     25  C   UNL     1      32.796 -21.107 -19.267  0.00  0.00    +0.140 C 
ENDBRANCH  18  20
BRANCH  18  27
ATOM     26  N   UNL     1      38.060 -19.085 -20.972  0.00  0.00    -0.195 NA
ATOM     27  C   UNL     1      37.023 -19.328 -21.434  0.00  0.00    +0.081 C 
ENDBRANCH  18  27
ENDBRANCH   3  18
TORSDOF 4
ENDMDL
MODEL 7
REMARK VINA RESULT:      -8.1     15.399     17.590
REMARK  Name = 59745
REMARK  4 active torsions:
REMARK  status: ('A' for Active; 'I' for Inactive)
REMARK    1  A    between atoms: C_3  and  C_18
REMARK    2  A    between atoms: C_4  and  N_11
REMARK    3  A    between atoms: C_18  and  C_20
REMARK    4  A    between atoms: C_18  and  C_27
REMARK                            x       y       z     vdW  Elec       q    Type
REMARK                         _______ _______ _______ _____ _____    ______ ____
ROOT
ATOM      1 CL   UNL     1      35.220 -24.708 -11.582  0.00  0.00    -0.082 Cl
ATOM      2 CL   UNL     1      36.335 -21.803 -16.059  0.00  0.00    -0.082 Cl
ATOM      3  C   UNL     1      35.628 -23.281 -13.873  0.00  0.00    +0.017 C 
ATOM      4  C   UNL     1      33.067 -23.713 -14.791  0.00  0.00    +0.080 C 
ATOM      5  C   UNL     1      34.765 -24.029 -13.102  0.00  0.00    +0.057 C 
ATOM      6  C   UNL     1      35.259 -22.742 -15.087  0.00  0.00    +0.057 C 
ATOM      7  C   UNL     1      33.468 -24.247 -13.567  0.00  0.00    +0.028 C 
ATOM      8  C   UNL     1      33.962 -22.960 -15.551  0.00  0.00    +0.028 C 
ENDROOT
BRANCH   4  11
ATOM      9  O   UNL     1      31.148 -25.814 -13.973  0.00  0.00    -0.250 OA
ATOM     10  O   UNL     1      28.124 -24.202 -17.014  0.00  0.00    -0.268 OA
ATOM     11  N   UNL     1      31.725 -23.940 -15.273  0.00  0.00    -0.142 N 
ATOM     12  N   UNL     1      31.317 -23.011 -16.196  0.00  0.00    -0.164 NA
ATOM     13  N   UNL     1      29.654 -25.060 -15.487  0.00  0.00    -0.233 N 
ATOM     14  C   UNL     1      30.890 -24.990 -14.851  0.00  0.00    +0.333 C 
ATOM     15  C   UNL     1      30.156 -23.104 -16.741  0.00  0.00    +0.176 C 
ATOM     16  C   UNL     1      29.196 -24.185 -16.432  0.00  0.00    +0.274 C 
ATOM     17  H   UNL     1      29.060 -25.804 -15.234  0.00  0.00    +0.160 HD
ENDBRANCH   4  11
BRANCH   3  18
ATOM     18  C   UNL     1      37.053 -23.040 -13.363  0.00  0.00    +0.137 C 
BRANCH  18  20
ATOM     19  F   UNL     1      40.693 -26.992 -15.013  0.00  0.00    -0.204 F 
ATOM     20  C   UNL     1      38.019 -24.089 -13.801  0.00  0.00    -0.004 C 
ATOM     21  C   UNL     1      38.371 -25.120 -12.930  0.00  0.00    -0.001 C 
ATOM     22  C   UNL     1      38.571 -24.038 -15.082  0.00  0.00    -0.001 C 
ATOM     23  C   UNL     1      39.275 -26.101 -13.339  0.00  0.00    +0.029 C 
ATOM     24  C   UNL     1      39.475 -25.018 -15.491  0.00  0.00    +0.029 C 
ATOM     25  C   UNL     1      39.827 -26.050 -14.620  0.00  0.00    +0.140 C 
ENDBRANCH  18  20
BRANCH  18  27
ATOM     26  N   UNL     1      37.096 -22.561 -10.754  0.00  0.00    -0.195 NA
ATOM     27  C   UNL     1      37.071 -22.780 -11.893  0.00  0.00    +0.081 C 
ENDBRANCH  18  27
ENDBRANCH   3  18
TORSDOF 4
ENDMDL
MODEL 8
REMARK VINA RESULT:      -8.0     15.406     17.518
REMARK  Name = 59745
REMARK  4 active torsions:
REMARK  status: ('A' for Active; 'I' for Inactive)
REMARK    1  A    between atoms: C_3  and  C_18
REMARK    2  A    between atoms: C_4  and  N_11
REMARK    3  A    between atoms: C_18  and  C_20
REMARK    4  A    between atoms: C_18  and  C_27
REMARK                            x       y       z     vdW  Elec       q    Type
REMARK                         _______ _______ _______ _____ _____    ______ ____
ROOT
ATOM      1 CL   UNL     1      36.342 -21.829 -16.078  0.00  0.00    -0.082 Cl
ATOM      2 CL   UNL     1      35.215 -24.690 -11.576  0.00  0.00    -0.082 Cl
ATOM      3  C   UNL     1      35.629 -23.284 -13.881  0.00  0.00    +0.017 C 
ATOM      4  C   UNL     1      33.069 -23.720 -14.799  0.00  0.00    +0.080 C 
ATOM      5  C   UNL     1      35.263 -22.755 -15.099  0.00  0.00    +0.057 C 
ATOM      6  C   UNL     1      34.763 -24.023 -13.103  0.00  0.00    +0.057 C 
ATOM      7  C   UNL     1      33.967 -22.976 -15.564  0.00  0.00    +0.028 C 
ATOM      8  C   UNL     1      33.467 -24.243 -13.568  0.00  0.00    +0.028 C 
ENDROOT
BRANCH   4  11
ATOM      9  O   UNL     1      31.153 -25.822 -13.978  0.00  0.00    -0.250 OA
ATOM     10  O   UNL     1      28.123 -24.212 -17.015  0.00  0.00    -0.268 OA
ATOM     11  N   UNL     1      31.726 -23.948 -15.279  0.00  0.00    -0.142 N 
ATOM     12  N   UNL     1      31.317 -23.019 -16.201  0.00  0.00    -0.164 NA
ATOM     13  N   UNL     1      29.656 -25.069 -15.490  0.00  0.00    -0.233 N 
ATOM     14  C   UNL     1      30.892 -24.998 -14.856  0.00  0.00    +0.333 C 
ATOM     15  C   UNL     1      30.155 -23.113 -16.744  0.00  0.00    +0.176 C 
ATOM     16  C   UNL     1      29.196 -24.194 -16.435  0.00  0.00    +0.274 C 
ATOM     17  H   UNL     1      29.063 -25.813 -15.237  0.00  0.00    +0.160 HD
ENDBRANCH   4  11
BRANCH   3  18
ATOM     18  C   UNL     1      37.054 -23.043 -13.370  0.00  0.00    +0.137 C 
BRANCH  18  20
ATOM     19  F   UNL     1      40.691 -27.006 -15.002  0.00  0.00    -0.204 F 
ATOM     20  C   UNL     1      38.019 -24.095 -13.804  0.00  0.00    -0.004 C 
ATOM     21  C   UNL     1      38.364 -25.128 -12.931  0.00  0.00    -0.001 C 
ATOM     22  C   UNL     1      38.578 -24.045 -15.082  0.00  0.00    -0.001 C 
ATOM     23  C   UNL     1      39.267 -26.111 -13.336  0.00  0.00    +0.029 C 
ATOM     24  C   UNL     1      39.481 -25.028 -15.486  0.00  0.00    +0.029 C 
ATOM     25  C   UNL     1      39.825 -26.061 -14.614  0.00  0.00    +0.140 C 
ENDBRANCH  18  20
BRANCH  18  27
ATOM     26  N   UNL     1      37.100 -22.563 -10.761  0.00  0.00    -0.195 NA
ATOM     27  C   UNL     1      37.070 -22.778 -11.901  0.00  0.00    +0.081 C 
ENDBRANCH  18  27
ENDBRANCH   3  18
TORSDOF 4
ENDMDL
MODEL 9
REMARK VINA RESULT:      -8.0      5.076      7.654
REMARK  Name = 59745
REMARK  4 active torsions:
REMARK  status: ('A' for Active; 'I' for Inactive)
REMARK    1  A    between atoms: C_3  and  C_18
REMARK    2  A    between atoms: C_4  and  N_11
REMARK    3  A    between atoms: C_18  and  C_20
REMARK    4  A    between atoms: C_18  and  C_27
REMARK                            x       y       z     vdW  Elec       q    Type
REMARK                         _______ _______ _______ _____ _____    ______ ____
ROOT
ATOM      1 CL   UNL     1      34.956 -14.564 -21.092  0.00  0.00    -0.082 Cl
ATOM      2 CL   UNL     1      33.995 -17.839 -25.343  0.00  0.00    -0.082 Cl
ATOM      3  C   UNL     1      34.489 -16.329 -23.120  0.00  0.00    +0.017 C 
ATOM      4  C   UNL     1      34.724 -18.529 -21.479  0.00  0.00    +0.080 C 
ATOM      5  C   UNL     1      34.759 -16.132 -21.784  0.00  0.00    +0.057 C 
ATOM      6  C   UNL     1      34.333 -17.584 -23.668  0.00  0.00    +0.057 C 
ATOM      7  C   UNL     1      34.877 -17.246 -20.953  0.00  0.00    +0.028 C 
ATOM      8  C   UNL     1      34.452 -18.698 -22.837  0.00  0.00    +0.028 C 
ENDROOT
BRANCH   4  11
ATOM      9  O   UNL     1      32.607 -20.399 -20.592  0.00  0.00    -0.250 OA
ATOM     10  O   UNL     1      35.706 -22.695 -18.119  0.00  0.00    -0.268 OA
ATOM     11  N   UNL     1      34.848 -19.682 -20.619  0.00  0.00    -0.142 N 
ATOM     12  N   UNL     1      36.138 -19.925 -20.224  0.00  0.00    -0.164 NA
ATOM     13  N   UNL     1      34.107 -21.526 -19.339  0.00  0.00    -0.233 N 
ATOM     14  C   UNL     1      33.777 -20.501 -20.219  0.00  0.00    +0.333 C 
ATOM     15  C   UNL     1      36.399 -20.901 -19.427  0.00  0.00    +0.176 C 
ATOM     16  C   UNL     1      35.366 -21.809 -18.885  0.00  0.00    +0.274 C 
ATOM     17  H   UNL     1      33.373 -22.097 -19.017  0.00  0.00    +0.160 HD
ENDBRANCH   4  11
BRANCH   3  18
ATOM     18  C   UNL     1      34.357 -15.106 -24.035  0.00  0.00    +0.137 C 
BRANCH  18  20
ATOM     19  F   UNL     1      31.413 -10.919 -21.713  0.00  0.00    -0.204 F 
ATOM     20  C   UNL     1      33.576 -13.994 -23.419  0.00  0.00    -0.004 C 
ATOM     21  C   UNL     1      32.577 -14.277 -22.487  0.00  0.00    -0.001 C 
ATOM     22  C   UNL     1      33.844 -12.672 -23.775  0.00  0.00    -0.001 C 
ATOM     23  C   UNL     1      31.846 -13.238 -21.911  0.00  0.00    +0.029 C 
ATOM     24  C   UNL     1      33.113 -11.633 -23.199  0.00  0.00    +0.029 C 
ATOM     25  C   UNL     1      32.114 -11.916 -22.267  0.00  0.00    +0.140 C 
ENDBRANCH  18  20
BRANCH  18  27
ATOM     26  N   UNL     1      33.514 -15.771 -26.460  0.00  0.00    -0.195 NA
ATOM     27  C   UNL     1      33.888 -15.490 -25.398  0.00  0.00    +0.081 C 
ENDBRANCH  18  27
ENDBRANCH   3  18
TORSDOF 4
ENDMDL
