MODEL 1
REMARK VINA RESULT:      -8.5      0.000      0.000
REMARK  Name = 31862
REMARK  2 active torsions:
REMARK  status: ('A' for Active; 'I' for Inactive)
REMARK    1  A    between atoms: C_1  and  C_7
REMARK    2  A    between atoms: C_1  and  N_13
REMARK                            x       y       z     vdW  Elec       q    Type
REMARK                         _______ _______ _______ _____ _____    ______ ____
ROOT
ATOM      1  C   UNL     1      35.116 -18.365 -22.412  0.00  0.00    -0.029 C 
ATOM      2  C   UNL     1      34.597 -16.942 -22.061  0.00  0.00    -0.016 C 
ATOM      3  C   UNL     1      34.541 -18.757 -23.804  0.00  0.00    -0.016 C 
ATOM      4  C   UNL     1      34.852 -15.898 -23.153  0.00  0.00    -0.002 C 
ATOM      5  C   UNL     1      34.783 -17.711 -24.895  0.00  0.00    -0.002 C 
ATOM      6  C   UNL     1      34.269 -16.337 -24.489  0.00  0.00    -0.000 C 
ENDROOT
BRANCH   1   7
ATOM      7  C   UNL     1      34.740 -19.436 -21.368  0.00  0.00    -0.041 C 
ATOM      8  C   UNL     1      35.741 -20.167 -20.736  0.00  0.00    -0.006 C 
ATOM      9  C   UNL     1      33.401 -19.665 -21.065  0.00  0.00    -0.006 C 
ATOM     10  C   UNL     1      35.400 -21.135 -19.793  0.00  0.00    -0.000 C 
ATOM     11  C   UNL     1      33.060 -20.634 -20.122  0.00  0.00    -0.000 C 
ATOM     12  C   UNL     1      34.060 -21.369 -19.485  0.00  0.00    -0.000 C 
ENDBRANCH   1   7
BRANCH   1  13
ATOM     13  N   UNL     1      36.586 -18.270 -22.512  0.00  0.00    +0.385 N 
ATOM     14  H   UNL     1      36.921 -18.917 -23.226  0.00  0.00    -0.089 HD
ATOM     15  H   UNL     1      37.004 -18.512 -21.613  0.00  0.00    -0.089 HD
ATOM     16  H   UNL     1      36.849 -17.318 -22.763  0.00  0.00    -0.089 HD
ENDBRANCH   1  13
TORSDOF 2
ENDMDL
MODEL 2
REMARK VINA RESULT:      -7.8      1.238      4.860
REMARK  Name = 31862
REMARK  2 active torsions:
REMARK  status: ('A' for Active; 'I' for Inactive)
REMARK    1  A    between atoms: C_1  and  C_7
REMARK    2  A    between atoms: C_1  and  N_13
REMARK                            x       y       z     vdW  Elec       q    Type
REMARK                         _______ _______ _______ _____ _____    ______ ____
ROOT
ATOM      1  C   UNL     1      34.681 -18.704 -21.626  0.00  0.00    -0.029 C 
ATOM      2  C   UNL     1      33.471 -19.259 -20.820  0.00  0.00    -0.016 C 
ATOM      3  C   UNL     1      35.980 -19.056 -20.845  0.00  0.00    -0.016 C 
ATOM      4  C   UNL     1      33.591 -20.742 -20.455  0.00  0.00    -0.002 C 
ATOM      5  C   UNL     1      36.099 -20.535 -20.467  0.00  0.00    -0.002 C 
ATOM      6  C   UNL     1      34.880 -21.025 -19.696  0.00  0.00    -0.000 C 
ENDROOT
BRANCH   1   7
ATOM      7  C   UNL     1      34.613 -17.184 -21.874  0.00  0.00    -0.041 C 
ATOM      8  C   UNL     1      34.511 -16.312 -20.794  0.00  0.00    -0.006 C 
ATOM      9  C   UNL     1      34.655 -16.694 -23.176  0.00  0.00    -0.006 C 
ATOM     10  C   UNL     1      34.449 -14.937 -21.019  0.00  0.00    -0.000 C 
ATOM     11  C   UNL     1      34.593 -15.319 -23.401  0.00  0.00    -0.000 C 
ATOM     12  C   UNL     1      34.491 -14.441 -22.322  0.00  0.00    -0.000 C 
ENDBRANCH   1   7
BRANCH   1  13
ATOM     13  N   UNL     1      34.693 -19.415 -22.919  0.00  0.00    +0.385 N 
ATOM     14  H   UNL     1      34.235 -20.320 -22.815  0.00  0.00    -0.089 HD
ATOM     15  H   UNL     1      35.658 -19.555 -23.221  0.00  0.00    -0.089 HD
ATOM     16  H   UNL     1      34.197 -18.861 -23.617  0.00  0.00    -0.089 HD
ENDBRANCH   1  13
TORSDOF 2
ENDMDL
MODEL 3
REMARK VINA RESULT:      -7.6      1.213      4.919
REMARK  Name = 31862
REMARK  2 active torsions:
REMARK  status: ('A' for Active; 'I' for Inactive)
REMARK    1  A    between atoms: C_1  and  C_7
REMARK    2  A    between atoms: C_1  and  N_13
REMARK                            x       y       z     vdW  Elec       q    Type
REMARK                         _______ _______ _______ _____ _____    ______ ____
ROOT
ATOM      1  C   UNL     1      35.109 -18.167 -21.742  0.00  0.00    -0.029 C 
ATOM      2  C   UNL     1      36.546 -18.765 -21.760  0.00  0.00    -0.016 C 
ATOM      3  C   UNL     1      34.107 -19.333 -21.500  0.00  0.00    -0.016 C 
ATOM      4  C   UNL     1      36.880 -19.623 -20.537  0.00  0.00    -0.002 C 
ATOM      5  C   UNL     1      34.444 -20.201 -20.285  0.00  0.00    -0.002 C 
ATOM      6  C   UNL     1      35.866 -20.743 -20.350  0.00  0.00    -0.000 C 
ENDROOT
BRANCH   1   7
ATOM      7  C   UNL     1      34.736 -17.415 -23.035  0.00  0.00    -0.041 C 
ATOM      8  C   UNL     1      34.324 -16.088 -22.968  0.00  0.00    -0.006 C 
ATOM      9  C   UNL     1      34.814 -18.069 -24.262  0.00  0.00    -0.006 C 
ATOM     10  C   UNL     1      33.985 -15.408 -24.137  0.00  0.00    -0.000 C 
ATOM     11  C   UNL     1      34.476 -17.389 -25.431  0.00  0.00    -0.000 C 
ATOM     12  C   UNL     1      34.062 -16.058 -25.369  0.00  0.00    -0.000 C 
ENDBRANCH   1   7
BRANCH   1  13
ATOM     13  N   UNL     1      35.048 -17.238 -20.597  0.00  0.00    +0.385 N 
ATOM     14  H   UNL     1      34.743 -16.320 -20.920  0.00  0.00    -0.089 HD
ATOM     15  H   UNL     1      35.974 -17.159 -20.174  0.00  0.00    -0.089 HD
ATOM     16  H   UNL     1      34.389 -17.593 -19.905  0.00  0.00    -0.089 HD
ENDBRANCH   1  13
TORSDOF 2
ENDMDL
MODEL 4
REMARK VINA RESULT:      -7.3      3.465      5.727
REMARK  Name = 31862
REMARK  2 active torsions:
REMARK  status: ('A' for Active; 'I' for Inactive)
REMARK    1  A    between atoms: C_1  and  C_7
REMARK    2  A    between atoms: C_1  and  N_13
REMARK                            x       y       z     vdW  Elec       q    Type
REMARK                         _______ _______ _______ _____ _____    ______ ____
ROOT
ATOM      1  C   UNL     1      33.946 -22.352 -18.800  0.00  0.00    -0.029 C 
ATOM      2  C   UNL     1      35.414 -21.838 -18.825  0.00  0.00    -0.016 C 
ATOM      3  C   UNL     1      33.024 -21.195 -19.283  0.00  0.00    -0.016 C 
ATOM      4  C   UNL     1      35.838 -21.225 -20.163  0.00  0.00    -0.002 C 
ATOM      5  C   UNL     1      33.451 -20.571 -20.614  0.00  0.00    -0.002 C 
ATOM      6  C   UNL     1      34.900 -20.103 -20.583  0.00  0.00    -0.000 C 
ENDROOT
BRANCH   1   7
ATOM      7  C   UNL     1      33.486 -22.845 -17.414  0.00  0.00    -0.041 C 
ATOM      8  C   UNL     1      32.127 -22.943 -17.131  0.00  0.00    -0.006 C 
ATOM      9  C   UNL     1      34.433 -23.189 -16.454  0.00  0.00    -0.006 C 
ATOM     10  C   UNL     1      31.711 -23.389 -15.877  0.00  0.00    -0.000 C 
ATOM     11  C   UNL     1      34.018 -23.634 -15.199  0.00  0.00    -0.000 C 
ATOM     12  C   UNL     1      32.656 -23.735 -14.911  0.00  0.00    -0.000 C 
ENDBRANCH   1   7
BRANCH   1  13
ATOM     13  N   UNL     1      33.866 -23.462 -19.770  0.00  0.00    +0.385 N 
ATOM     14  H   UNL     1      34.672 -23.426 -20.395  0.00  0.00    -0.089 HD
ATOM     15  H   UNL     1      33.009 -23.376 -20.316  0.00  0.00    -0.089 HD
ATOM     16  H   UNL     1      33.862 -24.351 -19.270  0.00  0.00    -0.089 HD
ENDBRANCH   1  13
TORSDOF 2
ENDMDL
MODEL 5
REMARK VINA RESULT:      -7.3      1.417      2.518
REMARK  Name = 31862
REMARK  2 active torsions:
REMARK  status: ('A' for Active; 'I' for Inactive)
REMARK    1  A    between atoms: C_1  and  C_7
REMARK    2  A    between atoms: C_1  and  N_13
REMARK                            x       y       z     vdW  Elec       q    Type
REMARK                         _______ _______ _______ _____ _____    ______ ____
ROOT
ATOM      1  C   UNL     1      34.470 -19.001 -21.516  0.00  0.00    -0.029 C 
ATOM      2  C   UNL     1      34.849 -19.333 -22.988  0.00  0.00    -0.016 C 
ATOM      3  C   UNL     1      35.205 -17.690 -21.114  0.00  0.00    -0.016 C 
ATOM      4  C   UNL     1      34.627 -18.175 -23.965  0.00  0.00    -0.002 C 
ATOM      5  C   UNL     1      34.996 -16.533 -22.095  0.00  0.00    -0.002 C 
ATOM      6  C   UNL     1      35.368 -16.922 -23.520  0.00  0.00    -0.000 C 
ENDROOT
BRANCH   1   7
ATOM      7  C   UNL     1      34.818 -20.124 -20.519  0.00  0.00    -0.041 C 
ATOM      8  C   UNL     1      33.800 -20.891 -19.959  0.00  0.00    -0.006 C 
ATOM      9  C   UNL     1      36.148 -20.365 -20.186  0.00  0.00    -0.006 C 
ATOM     10  C   UNL     1      34.115 -21.906 -19.056  0.00  0.00    -0.000 C 
ATOM     11  C   UNL     1      36.463 -21.380 -19.283  0.00  0.00    -0.000 C 
ATOM     12  C   UNL     1      35.447 -22.151 -18.719  0.00  0.00    -0.000 C 
ENDBRANCH   1   7
BRANCH   1  13
ATOM     13  N   UNL     1      33.014 -18.758 -21.495  0.00  0.00    +0.385 N 
ATOM     14  H   UNL     1      32.818 -17.908 -20.967  0.00  0.00    -0.089 HD
ATOM     15  H   UNL     1      32.544 -19.548 -21.052  0.00  0.00    -0.089 HD
ATOM     16  H   UNL     1      32.672 -18.653 -22.450  0.00  0.00    -0.089 HD
ENDBRANCH   1  13
TORSDOF 2
ENDMDL
MODEL 6
REMARK VINA RESULT:      -7.3      8.754     10.796
REMARK  Name = 31862
REMARK  2 active torsions:
REMARK  status: ('A' for Active; 'I' for Inactive)
REMARK    1  A    between atoms: C_1  and  C_7
REMARK    2  A    between atoms: C_1  and  N_13
REMARK                            x       y       z     vdW  Elec       q    Type
REMARK                         _______ _______ _______ _____ _____    ______ ____
ROOT
ATOM      1  C   UNL     1      32.093  -7.987 -22.177  0.00  0.00    -0.029 C 
ATOM      2  C   UNL     1      31.776  -6.652 -21.444  0.00  0.00    -0.016 C 
ATOM      3  C   UNL     1      31.190  -8.067 -23.441  0.00  0.00    -0.016 C 
ATOM      4  C   UNL     1      31.856  -5.413 -22.341  0.00  0.00    -0.002 C 
ATOM      5  C   UNL     1      31.257  -6.826 -24.335  0.00  0.00    -0.002 C 
ATOM      6  C   UNL     1      30.954  -5.551 -23.560  0.00  0.00    -0.000 C 
ENDROOT
BRANCH   1   7
ATOM      7  C   UNL     1      31.883  -9.238 -21.301  0.00  0.00    -0.041 C 
ATOM      8  C   UNL     1      31.526 -10.445 -21.896  0.00  0.00    -0.006 C 
ATOM      9  C   UNL     1      32.050  -9.153 -19.922  0.00  0.00    -0.006 C 
ATOM     10  C   UNL     1      31.335 -11.577 -21.103  0.00  0.00    -0.000 C 
ATOM     11  C   UNL     1      31.858 -10.285 -19.130  0.00  0.00    -0.000 C 
ATOM     12  C   UNL     1      31.501 -11.497 -19.721  0.00  0.00    -0.000 C 
ENDBRANCH   1   7
BRANCH   1  13
ATOM     13  N   UNL     1      33.505  -7.915 -22.602  0.00  0.00    +0.385 N 
ATOM     14  H   UNL     1      34.110  -8.122 -21.808  0.00  0.00    -0.089 HD
ATOM     15  H   UNL     1      33.708  -6.977 -22.948  0.00  0.00    -0.089 HD
ATOM     16  H   UNL     1      33.672  -8.594 -23.344  0.00  0.00    -0.089 HD
ENDBRANCH   1  13
TORSDOF 2
ENDMDL
MODEL 7
REMARK VINA RESULT:      -7.2      3.099      6.671
REMARK  Name = 31862
REMARK  2 active torsions:
REMARK  status: ('A' for Active; 'I' for Inactive)
REMARK    1  A    between atoms: C_1  and  C_7
REMARK    2  A    between atoms: C_1  and  N_13
REMARK                            x       y       z     vdW  Elec       q    Type
REMARK                         _______ _______ _______ _____ _____    ______ ____
ROOT
ATOM      1  C   UNL     1      33.767 -22.595 -18.325  0.00  0.00    -0.029 C 
ATOM      2  C   UNL     1      32.393 -22.426 -17.617  0.00  0.00    -0.016 C 
ATOM      3  C   UNL     1      34.872 -22.620 -17.229  0.00  0.00    -0.016 C 
ATOM      4  C   UNL     1      32.135 -23.443 -16.502  0.00  0.00    -0.002 C 
ATOM      5  C   UNL     1      34.613 -23.626 -16.106  0.00  0.00    -0.002 C 
ATOM      6  C   UNL     1      33.248 -23.422 -15.463  0.00  0.00    -0.000 C 
ENDROOT
BRANCH   1   7
ATOM      7  C   UNL     1      34.074 -21.490 -19.354  0.00  0.00    -0.041 C 
ATOM      8  C   UNL     1      35.393 -21.221 -19.708  0.00  0.00    -0.006 C 
ATOM      9  C   UNL     1      33.030 -20.766 -19.924  0.00  0.00    -0.006 C 
ATOM     10  C   UNL     1      35.670 -20.220 -20.638  0.00  0.00    -0.000 C 
ATOM     11  C   UNL     1      33.307 -19.765 -20.854  0.00  0.00    -0.000 C 
ATOM     12  C   UNL     1      34.627 -19.492 -21.211  0.00  0.00    -0.000 C 
ENDBRANCH   1   7
BRANCH   1  13
ATOM     13  N   UNL     1      33.739 -23.906 -19.004  0.00  0.00    +0.385 N 
ATOM     14  H   UNL     1      33.475 -24.630 -18.335  0.00  0.00    -0.089 HD
ATOM     15  H   UNL     1      34.664 -24.113 -19.382  0.00  0.00    -0.089 HD
ATOM     16  H   UNL     1      33.060 -23.881 -19.764  0.00  0.00    -0.089 HD
ENDBRANCH   1  13
TORSDOF 2
ENDMDL
MODEL 8
REMARK VINA RESULT:      -7.2      8.685     10.403
REMARK  Name = 31862
REMARK  2 active torsions:
REMARK  status: ('A' for Active; 'I' for Inactive)
REMARK    1  A    between atoms: C_1  and  C_7
REMARK    2  A    between atoms: C_1  and  N_13
REMARK                            x       y       z     vdW  Elec       q    Type
REMARK                         _______ _______ _______ _____ _____    ______ ____
ROOT
ATOM      1  C   UNL     1      32.346  -8.717 -22.888  0.00  0.00    -0.029 C 
ATOM      2  C   UNL     1      33.630  -7.849 -22.753  0.00  0.00    -0.016 C 
ATOM      3  C   UNL     1      31.164  -7.772 -23.251  0.00  0.00    -0.016 C 
ATOM      4  C   UNL     1      33.906  -6.949 -23.961  0.00  0.00    -0.002 C 
ATOM      5  C   UNL     1      31.439  -6.863 -24.451  0.00  0.00    -0.002 C 
ATOM      6  C   UNL     1      32.715  -6.051 -24.268  0.00  0.00    -0.000 C 
ENDROOT
BRANCH   1   7
ATOM      7  C   UNL     1      32.006  -9.519 -21.616  0.00  0.00    -0.041 C 
ATOM      8  C   UNL     1      31.453 -10.791 -21.729  0.00  0.00    -0.006 C 
ATOM      9  C   UNL     1      32.252  -8.965 -20.363  0.00  0.00    -0.006 C 
ATOM     10  C   UNL     1      31.144 -11.516 -20.579  0.00  0.00    -0.000 C 
ATOM     11  C   UNL     1      31.942  -9.690 -19.213  0.00  0.00    -0.000 C 
ATOM     12  C   UNL     1      31.389 -10.966 -19.321  0.00  0.00    -0.000 C 
ENDBRANCH   1   7
BRANCH   1  13
ATOM     13  N   UNL     1      32.577  -9.647 -24.010  0.00  0.00    +0.385 N 
ATOM     14  H   UNL     1      33.180  -9.203 -24.702  0.00  0.00    -0.089 HD
ATOM     15  H   UNL     1      31.684  -9.886 -24.442  0.00  0.00    -0.089 HD
ATOM     16  H   UNL     1      33.024 -10.495 -23.663  0.00  0.00    -0.089 HD
ENDBRANCH   1  13
TORSDOF 2
ENDMDL
MODEL 9
REMARK VINA RESULT:      -7.2      2.046      2.736
REMARK  Name = 31862
REMARK  2 active torsions:
REMARK  status: ('A' for Active; 'I' for Inactive)
REMARK    1  A    between atoms: C_1  and  C_7
REMARK    2  A    between atoms: C_1  and  N_13
REMARK                            x       y       z     vdW  Elec       q    Type
REMARK                         _______ _______ _______ _____ _____    ______ ____
ROOT
ATOM      1  C   UNL     1      34.078 -16.080 -21.378  0.00  0.00    -0.029 C 
ATOM      2  C   UNL     1      32.588 -15.666 -21.215  0.00  0.00    -0.016 C 
ATOM      3  C   UNL     1      34.535 -15.676 -22.810  0.00  0.00    -0.016 C 
ATOM      4  C   UNL     1      32.305 -14.202 -21.564  0.00  0.00    -0.002 C 
ATOM      5  C   UNL     1      34.243 -14.216 -23.168  0.00  0.00    -0.002 C 
ATOM      6  C   UNL     1      32.774 -13.866 -22.973  0.00  0.00    -0.000 C 
ENDROOT
BRANCH   1   7
ATOM      7  C   UNL     1      34.330 -17.584 -21.153  0.00  0.00    -0.041 C 
ATOM      8  C   UNL     1      35.632 -18.077 -21.169  0.00  0.00    -0.006 C 
ATOM      9  C   UNL     1      33.255 -18.440 -20.935  0.00  0.00    -0.006 C 
ATOM     10  C   UNL     1      35.860 -19.437 -20.966  0.00  0.00    -0.000 C 
ATOM     11  C   UNL     1      33.483 -19.801 -20.732  0.00  0.00    -0.000 C 
ATOM     12  C   UNL     1      34.786 -20.299 -20.747  0.00  0.00    -0.000 C 
ENDBRANCH   1   7
BRANCH   1  13
ATOM     13  N   UNL     1      34.849 -15.298 -20.392  0.00  0.00    +0.385 N 
ATOM     14  H   UNL     1      35.532 -15.903 -19.937  0.00  0.00    -0.089 HD
ATOM     15  H   UNL     1      34.214 -14.915 -19.691  0.00  0.00    -0.089 HD
ATOM     16  H   UNL     1      35.332 -14.534 -20.865  0.00  0.00    -0.089 HD
ENDBRANCH   1  13
TORSDOF 2
ENDMDL
