MODEL 1
REMARK VINA RESULT:      -6.5      0.000      0.000
REMARK  Name = 447259
REMARK  1 active torsions:
REMARK  status: ('A' for Active; 'I' for Inactive)
REMARK    1  A    between atoms: C_1  and  N_8
REMARK                            x       y       z     vdW  Elec       q    Type
REMARK                         _______ _______ _______ _____ _____    ______ ____
ROOT
ATOM      1  C   UNL     1      35.047 -19.637 -21.538  0.00  0.00    -0.054 C 
ATOM      2  C   UNL     1      33.700 -19.305 -20.890  0.00  0.00    -0.016 C 
ATOM      3  C   UNL     1      36.017 -20.212 -20.496  0.00  0.00    +0.005 C 
ATOM      4  C   UNL     1      33.070 -20.555 -20.266  0.00  0.00    +0.020 C 
ATOM      5  C   UNL     1      34.050 -21.413 -19.504  0.00  0.00    -0.048 C 
ATOM      6  C   UNL     1      35.378 -21.239 -19.606  0.00  0.00    -0.037 C 
ATOM      7  C   UNL     1      33.454 -22.474 -18.626  0.00  0.00    +0.026 C 
ENDROOT
BRANCH   1   8
ATOM      8  N   UNL     1      35.626 -18.441 -22.148  0.00  0.00    +0.386 N 
ATOM      9  C   UNL     1      35.122 -17.235 -21.489  0.00  0.00    -0.101 C 
ATOM     10  C   UNL     1      35.330 -18.402 -23.580  0.00  0.00    -0.101 C 
ATOM     11  H   UNL     1      36.637 -18.476 -22.028  0.00  0.00    -0.080 HD
ENDBRANCH   1   8
TORSDOF 1
ENDMDL
MODEL 2
REMARK VINA RESULT:      -6.3      0.407      1.637
REMARK  Name = 447259
REMARK  1 active torsions:
REMARK  status: ('A' for Active; 'I' for Inactive)
REMARK    1  A    between atoms: C_1  and  N_8
REMARK                            x       y       z     vdW  Elec       q    Type
REMARK                         _______ _______ _______ _____ _____    ______ ____
ROOT
ATOM      1  C   UNL     1      35.004 -19.097 -20.915  0.00  0.00    -0.054 C 
ATOM      2  C   UNL     1      35.887 -20.337 -20.752  0.00  0.00    -0.016 C 
ATOM      3  C   UNL     1      33.546 -19.506 -21.164  0.00  0.00    +0.005 C 
ATOM      4  C   UNL     1      35.409 -21.199 -19.578  0.00  0.00    +0.020 C 
ATOM      5  C   UNL     1      33.910 -21.364 -19.516  0.00  0.00    -0.048 C 
ATOM      6  C   UNL     1      33.080 -20.602 -20.248  0.00  0.00    -0.037 C 
ATOM      7  C   UNL     1      33.401 -22.426 -18.588  0.00  0.00    +0.026 C 
ENDROOT
BRANCH   1   8
ATOM      8  N   UNL     1      35.485 -18.273 -22.022  0.00  0.00    +0.386 N 
ATOM      9  C   UNL     1      34.976 -16.906 -21.900  0.00  0.00    -0.101 C 
ATOM     10  C   UNL     1      35.085 -18.853 -23.303  0.00  0.00    -0.101 C 
ATOM     11  H   UNL     1      36.503 -18.244 -21.984  0.00  0.00    -0.080 HD
ENDBRANCH   1   8
TORSDOF 1
ENDMDL
MODEL 3
REMARK VINA RESULT:      -6.1      1.269      1.927
REMARK  Name = 447259
REMARK  1 active torsions:
REMARK  status: ('A' for Active; 'I' for Inactive)
REMARK    1  A    between atoms: C_1  and  N_8
REMARK                            x       y       z     vdW  Elec       q    Type
REMARK                         _______ _______ _______ _____ _____    ______ ____
ROOT
ATOM      1  C   UNL     1      34.919 -19.018 -22.150  0.00  0.00    -0.054 C 
ATOM      2  C   UNL     1      33.872 -19.369 -21.091  0.00  0.00    -0.016 C 
ATOM      3  C   UNL     1      36.281 -18.755 -21.493  0.00  0.00    +0.005 C 
ATOM      4  C   UNL     1      34.288 -20.616 -20.302  0.00  0.00    +0.020 C 
ATOM      5  C   UNL     1      35.746 -20.630 -19.913  0.00  0.00    -0.048 C 
ATOM      6  C   UNL     1      36.633 -19.775 -20.447  0.00  0.00    -0.037 C 
ATOM      7  C   UNL     1      36.147 -21.655 -18.895  0.00  0.00    +0.026 C 
ENDROOT
BRANCH   1   8
ATOM      8  N   UNL     1      34.500 -17.842 -22.910  0.00  0.00    +0.386 N 
ATOM      9  C   UNL     1      34.836 -18.000 -24.325  0.00  0.00    -0.101 C 
ATOM     10  C   UNL     1      35.123 -16.634 -22.370  0.00  0.00    -0.101 C 
ATOM     11  H   UNL     1      33.488 -17.749 -22.827  0.00  0.00    -0.080 HD
ENDBRANCH   1   8
TORSDOF 1
ENDMDL
MODEL 4
REMARK VINA RESULT:      -6.1      1.126      2.079
REMARK  Name = 447259
REMARK  1 active torsions:
REMARK  status: ('A' for Active; 'I' for Inactive)
REMARK    1  A    between atoms: C_1  and  N_8
REMARK                            x       y       z     vdW  Elec       q    Type
REMARK                         _______ _______ _______ _____ _____    ______ ____
ROOT
ATOM      1  C   UNL     1      35.279 -18.092 -21.137  0.00  0.00    -0.054 C 
ATOM      2  C   UNL     1      36.504 -19.001 -21.268  0.00  0.00    -0.016 C 
ATOM      3  C   UNL     1      33.987 -18.903 -21.309  0.00  0.00    +0.005 C 
ATOM      4  C   UNL     1      36.475 -20.113 -20.213  0.00  0.00    +0.020 C 
ATOM      5  C   UNL     1      35.117 -20.747 -20.035  0.00  0.00    -0.048 C 
ATOM      6  C   UNL     1      34.003 -20.197 -20.547  0.00  0.00    -0.037 C 
ATOM      7  C   UNL     1      35.083 -22.025 -19.251  0.00  0.00    +0.026 C 
ENDROOT
BRANCH   1   8
ATOM      8  N   UNL     1      35.331 -17.024 -22.133  0.00  0.00    +0.386 N 
ATOM      9  C   UNL     1      34.470 -15.910 -21.733  0.00  0.00    -0.101 C 
ATOM     10  C   UNL     1      34.933 -17.529 -23.447  0.00  0.00    -0.101 C 
ATOM     11  H   UNL     1      36.290 -16.685 -22.194  0.00  0.00    -0.080 HD
ENDBRANCH   1   8
TORSDOF 1
ENDMDL
MODEL 5
REMARK VINA RESULT:      -5.9      1.761      4.388
REMARK  Name = 447259
REMARK  1 active torsions:
REMARK  status: ('A' for Active; 'I' for Inactive)
REMARK    1  A    between atoms: C_1  and  N_8
REMARK                            x       y       z     vdW  Elec       q    Type
REMARK                         _______ _______ _______ _____ _____    ______ ____
ROOT
ATOM      1  C   UNL     1      35.419 -20.981 -20.403  0.00  0.00    -0.054 C 
ATOM      2  C   UNL     1      36.504 -19.921 -20.198  0.00  0.00    -0.016 C 
ATOM      3  C   UNL     1      34.024 -20.344 -20.328  0.00  0.00    +0.005 C 
ATOM      4  C   UNL     1      36.405 -18.823 -21.264  0.00  0.00    +0.020 C 
ATOM      5  C   UNL     1      34.992 -18.371 -21.539  0.00  0.00    -0.048 C 
ATOM      6  C   UNL     1      33.925 -19.059 -21.099  0.00  0.00    -0.037 C 
ATOM      7  C   UNL     1      34.847 -17.108 -22.336  0.00  0.00    +0.026 C 
ENDROOT
BRANCH   1   8
ATOM      8  N   UNL     1      35.539 -22.033 -19.395  0.00  0.00    +0.386 N 
ATOM      9  C   UNL     1      34.230 -22.338 -18.816  0.00  0.00    -0.101 C 
ATOM     10  C   UNL     1      36.480 -21.634 -18.348  0.00  0.00    -0.101 C 
ATOM     11  H   UNL     1      35.896 -22.873 -19.848  0.00  0.00    -0.080 HD
ENDBRANCH   1   8
TORSDOF 1
ENDMDL
MODEL 6
REMARK VINA RESULT:      -5.8      3.662      5.595
REMARK  Name = 447259
REMARK  1 active torsions:
REMARK  status: ('A' for Active; 'I' for Inactive)
REMARK    1  A    between atoms: C_1  and  N_8
REMARK                            x       y       z     vdW  Elec       q    Type
REMARK                         _______ _______ _______ _____ _____    ______ ____
ROOT
ATOM      1  C   UNL     1      35.015 -15.966 -22.965  0.00  0.00    -0.054 C 
ATOM      2  C   UNL     1      34.617 -16.454 -21.570  0.00  0.00    -0.016 C 
ATOM      3  C   UNL     1      33.809 -15.341 -23.681  0.00  0.00    +0.005 C 
ATOM      4  C   UNL     1      34.082 -15.297 -20.717  0.00  0.00    +0.020 C 
ATOM      5  C   UNL     1      33.143 -14.379 -21.461  0.00  0.00    -0.048 C 
ATOM      6  C   UNL     1      33.018 -14.418 -22.798  0.00  0.00    -0.037 C 
ATOM      7  C   UNL     1      32.357 -13.417 -20.619  0.00  0.00    +0.026 C 
ENDROOT
BRANCH   1   8
ATOM      8  N   UNL     1      35.543 -17.074 -23.759  0.00  0.00    +0.386 N 
ATOM      9  C   UNL     1      34.663 -17.354 -24.895  0.00  0.00    -0.101 C 
ATOM     10  C   UNL     1      35.702 -18.268 -22.931  0.00  0.00    -0.101 C 
ATOM     11  H   UNL     1      36.458 -16.804 -24.119  0.00  0.00    -0.080 HD
ENDBRANCH   1   8
TORSDOF 1
ENDMDL
MODEL 7
REMARK VINA RESULT:      -5.8      2.349      5.518
REMARK  Name = 447259
REMARK  1 active torsions:
REMARK  status: ('A' for Active; 'I' for Inactive)
REMARK    1  A    between atoms: C_1  and  N_8
REMARK                            x       y       z     vdW  Elec       q    Type
REMARK                         _______ _______ _______ _____ _____    ______ ____
ROOT
ATOM      1  C   UNL     1      34.492 -17.181 -21.588  0.00  0.00    -0.054 C 
ATOM      2  C   UNL     1      35.198 -16.969 -22.929  0.00  0.00    -0.016 C 
ATOM      3  C   UNL     1      34.586 -15.915 -20.725  0.00  0.00    +0.005 C 
ATOM      4  C   UNL     1      34.571 -15.800 -23.699  0.00  0.00    +0.020 C 
ATOM      5  C   UNL     1      34.273 -14.597 -22.838  0.00  0.00    -0.048 C 
ATOM      6  C   UNL     1      34.296 -14.659 -21.496  0.00  0.00    -0.037 C 
ATOM      7  C   UNL     1      33.946 -13.328 -23.568  0.00  0.00    +0.026 C 
ENDROOT
BRANCH   1   8
ATOM      8  N   UNL     1      35.084 -18.312 -20.876  0.00  0.00    +0.386 N 
ATOM      9  C   UNL     1      36.388 -18.650 -21.447  0.00  0.00    -0.101 C 
ATOM     10  C   UNL     1      34.192 -19.469 -20.920  0.00  0.00    -0.101 C 
ATOM     11  H   UNL     1      35.219 -18.044 -19.901  0.00  0.00    -0.080 HD
ENDBRANCH   1   8
TORSDOF 1
ENDMDL
MODEL 8
REMARK VINA RESULT:      -5.8      2.917      4.371
REMARK  Name = 447259
REMARK  1 active torsions:
REMARK  status: ('A' for Active; 'I' for Inactive)
REMARK    1  A    between atoms: C_1  and  N_8
REMARK                            x       y       z     vdW  Elec       q    Type
REMARK                         _______ _______ _______ _____ _____    ______ ____
ROOT
ATOM      1  C   UNL     1      34.639 -16.088 -23.270  0.00  0.00    -0.054 C 
ATOM      2  C   UNL     1      34.685 -17.498 -23.864  0.00  0.00    -0.016 C 
ATOM      3  C   UNL     1      34.285 -16.145 -21.777  0.00  0.00    +0.005 C 
ATOM      4  C   UNL     1      35.725 -18.363 -23.142  0.00  0.00    +0.020 C 
ATOM      5  C   UNL     1      35.707 -18.209 -21.641  0.00  0.00    -0.048 C 
ATOM      6  C   UNL     1      35.041 -17.211 -21.036  0.00  0.00    -0.037 C 
ATOM      7  C   UNL     1      36.477 -19.234 -20.863  0.00  0.00    +0.026 C 
ENDROOT
BRANCH   1   8
ATOM      8  N   UNL     1      33.661 -15.268 -23.981  0.00  0.00    +0.386 N 
ATOM      9  C   UNL     1      33.680 -15.574 -25.412  0.00  0.00    -0.101 C 
ATOM     10  C   UNL     1      33.926 -13.847 -23.760  0.00  0.00    -0.101 C 
ATOM     11  H   UNL     1      32.733 -15.485 -23.617  0.00  0.00    -0.080 HD
ENDBRANCH   1   8
TORSDOF 1
ENDMDL
MODEL 9
REMARK VINA RESULT:      -5.7      2.037      3.456
REMARK  Name = 447259
REMARK  1 active torsions:
REMARK  status: ('A' for Active; 'I' for Inactive)
REMARK    1  A    between atoms: C_1  and  N_8
REMARK                            x       y       z     vdW  Elec       q    Type
REMARK                         _______ _______ _______ _____ _____    ______ ____
ROOT
ATOM      1  C   UNL     1      35.142 -16.859 -23.289  0.00  0.00    -0.054 C 
ATOM      2  C   UNL     1      34.639 -18.171 -23.895  0.00  0.00    -0.016 C 
ATOM      3  C   UNL     1      34.483 -16.609 -21.925  0.00  0.00    +0.005 C 
ATOM      4  C   UNL     1      34.949 -19.356 -22.972  0.00  0.00    +0.020 C 
ATOM      5  C   UNL     1      34.675 -19.077 -21.514  0.00  0.00    -0.048 C 
ATOM      6  C   UNL     1      34.452 -17.834 -21.057  0.00  0.00    -0.037 C 
ATOM      7  C   UNL     1      34.668 -20.270 -20.605  0.00  0.00    +0.026 C 
ENDROOT
BRANCH   1   8
ATOM      8  N   UNL     1      34.859 -15.742 -24.189  0.00  0.00    +0.386 N 
ATOM      9  C   UNL     1      34.246 -14.636 -23.454  0.00  0.00    -0.101 C 
ATOM     10  C   UNL     1      33.989 -16.173 -25.282  0.00  0.00    -0.101 C 
ATOM     11  H   UNL     1      35.740 -15.418 -24.586  0.00  0.00    -0.080 HD
ENDBRANCH   1   8
TORSDOF 1
ENDMDL
