MODEL 1
REMARK VINA RESULT:      -8.4      0.000      0.000
REMARK  Name = 4922
REMARK  11 active torsions:
REMARK  status: ('A' for Active; 'I' for Inactive)
REMARK    1  A    between atoms: C_1  and  N_3
REMARK    2  A    between atoms: C_1  and  C_14
REMARK    3  A    between atoms: C_1  and  C_21
REMARK    4  A    between atoms: C_4  and  C_6
REMARK    5  A    between atoms: N_13  and  C_15
REMARK    6  A    between atoms: N_13  and  C_18
REMARK    7  A    between atoms: C_15  and  C_16
REMARK    8  A    between atoms: C_18  and  C_19
REMARK    9  A    between atoms: C_21  and  C_22
REMARK   10  A    between atoms: C_22  and  C_24
REMARK   11  A    between atoms: C_24  and  O_25
REMARK                            x       y       z     vdW  Elec       q    Type
REMARK                         _______ _______ _______ _____ _____    ______ ____
ROOT
ATOM      1  C   UNL     1      35.370 -23.299 -16.200  0.00  0.00    +0.150 C 
ENDROOT
BRANCH   1   3
ATOM      2  O   UNL     1      33.737 -23.672 -18.468  0.00  0.00    -0.270 OA
ATOM      3  N   UNL     1      35.199 -22.357 -17.280  0.00  0.00    -0.295 N 
ATOM      4  C   UNL     1      34.370 -22.618 -18.369  0.00  0.00    +0.246 C 
ATOM      5  H   UNL     1      35.684 -21.501 -17.246  0.00  0.00    +0.150 HD
BRANCH   4   6
ATOM      6  C   UNL     1      34.274 -21.548 -19.371  0.00  0.00    +0.053 C 
ATOM      7  C   UNL     1      35.430 -21.065 -19.966  0.00  0.00    +0.005 C 
ATOM      8  C   UNL     1      33.028 -21.037 -19.706  0.00  0.00    +0.005 C 
ATOM      9  C   UNL     1      35.338 -20.049 -20.917  0.00  0.00    +0.000 C 
ATOM     10  C   UNL     1      32.937 -20.021 -20.657  0.00  0.00    +0.000 C 
ATOM     11  C   UNL     1      34.092 -19.527 -21.263  0.00  0.00    +0.000 C 
ENDBRANCH   4   6
ENDBRANCH   1   3
BRANCH   1  14
ATOM     12  O   UNL     1      37.456 -22.144 -15.941  0.00  0.00    -0.273 OA
ATOM     13  N   UNL     1      37.356 -24.272 -15.032  0.00  0.00    -0.278 N 
ATOM     14  C   UNL     1      36.822 -23.184 -15.731  0.00  0.00    +0.244 C 
BRANCH  13  15
ATOM     15  C   UNL     1      38.741 -24.221 -14.582  0.00  0.00    +0.093 C 
BRANCH  15  16
ATOM     16  C   UNL     1      39.619 -25.249 -15.287  0.00  0.00    +0.022 C 
ATOM     17  C   UNL     1      40.509 -26.021 -14.325  0.00  0.00    +0.002 C 
ENDBRANCH  15  16
ENDBRANCH  13  15
BRANCH  13  18
ATOM     18  C   UNL     1      36.662 -25.528 -14.749  0.00  0.00    +0.093 C 
BRANCH  18  19
ATOM     19  C   UNL     1      36.768 -25.932 -13.284  0.00  0.00    +0.022 C 
ATOM     20  C   UNL     1      36.073 -24.951 -12.351  0.00  0.00    +0.002 C 
ENDBRANCH  18  19
ENDBRANCH  13  18
ENDBRANCH   1  14
BRANCH   1  21
ATOM     21  C   UNL     1      34.408 -23.006 -15.043  0.00  0.00    +0.041 C 
BRANCH  21  22
ATOM     22  C   UNL     1      33.174 -23.909 -15.073  0.00  0.00    +0.112 C 
BRANCH  22  24
ATOM     23  O   UNL     1      31.931 -25.113 -13.360  0.00  0.00    -0.250 OA
ATOM     24  C   UNL     1      32.624 -24.159 -13.687  0.00  0.00    +0.314 C 
BRANCH  24  25
ATOM     25  O   UNL     1      32.997 -23.181 -12.821  0.00  0.00    -0.480 OA
ATOM     26  H   UNL     1      33.797 -22.712 -12.959  0.00  0.00    +0.295 HD
ENDBRANCH  24  25
ENDBRANCH  22  24
ENDBRANCH  21  22
ENDBRANCH   1  21
TORSDOF 11
ENDMDL
MODEL 2
REMARK VINA RESULT:      -8.3      0.856      1.476
REMARK  Name = 4922
REMARK  11 active torsions:
REMARK  status: ('A' for Active; 'I' for Inactive)
REMARK    1  A    between atoms: C_1  and  N_3
REMARK    2  A    between atoms: C_1  and  C_14
REMARK    3  A    between atoms: C_1  and  C_21
REMARK    4  A    between atoms: C_4  and  C_6
REMARK    5  A    between atoms: N_13  and  C_15
REMARK    6  A    between atoms: N_13  and  C_18
REMARK    7  A    between atoms: C_15  and  C_16
REMARK    8  A    between atoms: C_18  and  C_19
REMARK    9  A    between atoms: C_21  and  C_22
REMARK   10  A    between atoms: C_22  and  C_24
REMARK   11  A    between atoms: C_24  and  O_25
REMARK                            x       y       z     vdW  Elec       q    Type
REMARK                         _______ _______ _______ _____ _____    ______ ____
ROOT
ATOM      1  C   UNL     1      35.345 -23.293 -16.207  0.00  0.00    +0.150 C 
ENDROOT
BRANCH   1   3
ATOM      2  O   UNL     1      33.719 -23.641 -18.484  0.00  0.00    -0.270 OA
ATOM      3  N   UNL     1      35.196 -22.349 -17.290  0.00  0.00    -0.295 N 
ATOM      4  C   UNL     1      34.369 -22.599 -18.383  0.00  0.00    +0.246 C 
ATOM      5  H   UNL     1      35.696 -21.502 -17.255  0.00  0.00    +0.150 HD
BRANCH   4   6
ATOM      6  C   UNL     1      34.297 -21.528 -19.388  0.00  0.00    +0.053 C 
ATOM      7  C   UNL     1      33.063 -20.997 -19.731  0.00  0.00    +0.005 C 
ATOM      8  C   UNL     1      35.465 -21.067 -19.977  0.00  0.00    +0.005 C 
ATOM      9  C   UNL     1      32.995 -19.981 -20.684  0.00  0.00    +0.000 C 
ATOM     10  C   UNL     1      35.397 -20.052 -20.930  0.00  0.00    +0.000 C 
ATOM     11  C   UNL     1      34.162 -19.508 -21.284  0.00  0.00    +0.000 C 
ENDBRANCH   4   6
ENDBRANCH   1   3
BRANCH   1  14
ATOM     12  O   UNL     1      37.502 -22.254 -16.074  0.00  0.00    -0.273 OA
ATOM     13  N   UNL     1      37.263 -24.245 -14.915  0.00  0.00    -0.278 N 
ATOM     14  C   UNL     1      36.801 -23.217 -15.745  0.00  0.00    +0.244 C 
BRANCH  13  15
ATOM     15  C   UNL     1      38.649 -24.230 -14.464  0.00  0.00    +0.093 C 
BRANCH  15  16
ATOM     16  C   UNL     1      39.511 -25.245 -15.206  0.00  0.00    +0.022 C 
ATOM     17  C   UNL     1      40.487 -25.968 -14.290  0.00  0.00    +0.002 C 
ENDBRANCH  15  16
ENDBRANCH  13  15
BRANCH  13  18
ATOM     18  C   UNL     1      36.488 -25.409 -14.489  0.00  0.00    +0.093 C 
BRANCH  18  19
ATOM     19  C   UNL     1      36.642 -25.695 -13.000  0.00  0.00    +0.022 C 
ATOM     20  C   UNL     1      35.811 -24.761 -12.133  0.00  0.00    +0.002 C 
ENDBRANCH  18  19
ENDBRANCH  13  18
ENDBRANCH   1  14
BRANCH   1  21
ATOM     21  C   UNL     1      34.397 -22.969 -15.048  0.00  0.00    +0.041 C 
BRANCH  21  22
ATOM     22  C   UNL     1      33.169 -23.881 -15.032  0.00  0.00    +0.112 C 
BRANCH  22  24
ATOM     23  O   UNL     1      31.233 -22.554 -14.384  0.00  0.00    -0.250 OA
ATOM     24  C   UNL     1      31.889 -23.108 -15.256  0.00  0.00    +0.314 C 
BRANCH  24  25
ATOM     25  O   UNL     1      31.540 -23.095 -16.569  0.00  0.00    -0.480 OA
ATOM     26  H   UNL     1      31.782 -22.371 -17.111  0.00  0.00    +0.295 HD
ENDBRANCH  24  25
ENDBRANCH  22  24
ENDBRANCH  21  22
ENDBRANCH   1  21
TORSDOF 11
ENDMDL
MODEL 3
REMARK VINA RESULT:      -8.3      9.230     13.374
REMARK  Name = 4922
REMARK  11 active torsions:
REMARK  status: ('A' for Active; 'I' for Inactive)
REMARK    1  A    between atoms: C_1  and  N_3
REMARK    2  A    between atoms: C_1  and  C_14
REMARK    3  A    between atoms: C_1  and  C_21
REMARK    4  A    between atoms: C_4  and  C_6
REMARK    5  A    between atoms: N_13  and  C_15
REMARK    6  A    between atoms: N_13  and  C_18
REMARK    7  A    between atoms: C_15  and  C_16
REMARK    8  A    between atoms: C_18  and  C_19
REMARK    9  A    between atoms: C_21  and  C_22
REMARK   10  A    between atoms: C_22  and  C_24
REMARK   11  A    between atoms: C_24  and  O_25
REMARK                            x       y       z     vdW  Elec       q    Type
REMARK                         _______ _______ _______ _____ _____    ______ ____
ROOT
ATOM      1  C   UNL     1      33.706 -13.738 -24.018  0.00  0.00    +0.150 C 
ENDROOT
BRANCH   1   3
ATOM      2  O   UNL     1      34.584 -11.520 -25.521  0.00  0.00    -0.270 OA
ATOM      3  N   UNL     1      33.653 -12.358 -23.595  0.00  0.00    -0.295 N 
ATOM      4  C   UNL     1      34.110 -11.317 -24.401  0.00  0.00    +0.246 C 
ATOM      5  H   UNL     1      33.284 -12.146 -22.708  0.00  0.00    +0.150 HD
BRANCH   4   6
ATOM      6  C   UNL     1      33.960  -9.965 -23.845  0.00  0.00    +0.053 C 
ATOM      7  C   UNL     1      34.917  -9.002 -24.128  0.00  0.00    +0.005 C 
ATOM      8  C   UNL     1      32.864  -9.674 -23.047  0.00  0.00    +0.005 C 
ATOM      9  C   UNL     1      34.774  -7.718 -23.600  0.00  0.00    +0.000 C 
ATOM     10  C   UNL     1      32.721  -8.391 -22.519  0.00  0.00    +0.000 C 
ATOM     11  C   UNL     1      33.676  -7.413 -22.796  0.00  0.00    +0.000 C 
ENDBRANCH   4   6
ENDBRANCH   1   3
BRANCH   1  14
ATOM     12  O   UNL     1      32.701 -14.210 -21.892  0.00  0.00    -0.273 OA
ATOM     13  N   UNL     1      34.143 -15.826 -22.713  0.00  0.00    -0.278 N 
ATOM     14  C   UNL     1      33.478 -14.596 -22.772  0.00  0.00    +0.244 C 
BRANCH  13  15
ATOM     15  C   UNL     1      33.976 -16.672 -21.538  0.00  0.00    +0.093 C 
BRANCH  15  16
ATOM     16  C   UNL     1      35.251 -17.427 -21.181  0.00  0.00    +0.022 C 
ATOM     17  C   UNL     1      35.017 -18.919 -20.991  0.00  0.00    +0.002 C 
ENDBRANCH  15  16
ENDBRANCH  13  15
BRANCH  13  18
ATOM     18  C   UNL     1      35.072 -16.342 -23.717  0.00  0.00    +0.093 C 
BRANCH  18  19
ATOM     19  C   UNL     1      34.386 -17.245 -24.733  0.00  0.00    +0.022 C 
ATOM     20  C   UNL     1      34.778 -18.708 -24.581  0.00  0.00    +0.002 C 
ENDBRANCH  18  19
ENDBRANCH  13  18
ENDBRANCH   1  14
BRANCH   1  21
ATOM     21  C   UNL     1      32.641 -14.039 -25.078  0.00  0.00    +0.041 C 
BRANCH  21  22
ATOM     22  C   UNL     1      33.254 -14.547 -26.384  0.00  0.00    +0.112 C 
BRANCH  22  24
ATOM     23  O   UNL     1      32.287 -12.817 -27.799  0.00  0.00    -0.250 OA
ATOM     24  C   UNL     1      33.255 -13.484 -27.459  0.00  0.00    +0.314 C 
BRANCH  24  25
ATOM     25  O   UNL     1      34.485 -13.345 -28.019  0.00  0.00    -0.480 OA
ATOM     26  H   UNL     1      34.599 -13.477 -28.939  0.00  0.00    +0.295 HD
ENDBRANCH  24  25
ENDBRANCH  22  24
ENDBRANCH  21  22
ENDBRANCH   1  21
TORSDOF 11
ENDMDL
MODEL 4
REMARK VINA RESULT:      -8.2      2.280      3.447
REMARK  Name = 4922
REMARK  11 active torsions:
REMARK  status: ('A' for Active; 'I' for Inactive)
REMARK    1  A    between atoms: C_1  and  N_3
REMARK    2  A    between atoms: C_1  and  C_14
REMARK    3  A    between atoms: C_1  and  C_21
REMARK    4  A    between atoms: C_4  and  C_6
REMARK    5  A    between atoms: N_13  and  C_15
REMARK    6  A    between atoms: N_13  and  C_18
REMARK    7  A    between atoms: C_15  and  C_16
REMARK    8  A    between atoms: C_18  and  C_19
REMARK    9  A    between atoms: C_21  and  C_22
REMARK   10  A    between atoms: C_22  and  C_24
REMARK   11  A    between atoms: C_24  and  O_25
REMARK                            x       y       z     vdW  Elec       q    Type
REMARK                         _______ _______ _______ _____ _____    ______ ____
ROOT
ATOM      1  C   UNL     1      32.605 -23.785 -16.111  0.00  0.00    +0.150 C 
ENDROOT
BRANCH   1   3
ATOM      2  O   UNL     1      33.697 -24.247 -18.669  0.00  0.00    -0.270 OA
ATOM      3  N   UNL     1      33.028 -22.768 -17.043  0.00  0.00    -0.295 N 
ATOM      4  C   UNL     1      33.559 -23.081 -18.293  0.00  0.00    +0.246 C 
ATOM      5  H   UNL     1      32.939 -21.821 -16.788  0.00  0.00    +0.150 HD
BRANCH   4   6
ATOM      6  C   UNL     1      33.914 -21.935 -19.143  0.00  0.00    +0.053 C 
ATOM      7  C   UNL     1      35.248 -21.683 -19.425  0.00  0.00    +0.005 C 
ATOM      8  C   UNL     1      32.908 -21.124 -19.647  0.00  0.00    +0.005 C 
ATOM      9  C   UNL     1      35.584 -20.596 -20.232  0.00  0.00    +0.000 C 
ATOM     10  C   UNL     1      33.244 -20.037 -20.453  0.00  0.00    +0.000 C 
ATOM     11  C   UNL     1      34.582 -19.772 -20.746  0.00  0.00    +0.000 C 
ENDBRANCH   4   6
ENDBRANCH   1   3
BRANCH   1  14
ATOM     12  O   UNL     1      32.467 -22.815 -13.922  0.00  0.00    -0.273 OA
ATOM     13  N   UNL     1      34.493 -23.793 -14.472  0.00  0.00    -0.278 N 
ATOM     14  C   UNL     1      33.176 -23.405 -14.744  0.00  0.00    +0.244 C 
BRANCH  13  15
ATOM     15  C   UNL     1      35.092 -23.437 -13.191  0.00  0.00    +0.093 C 
BRANCH  15  16
ATOM     16  C   UNL     1      35.222 -24.636 -12.258  0.00  0.00    +0.022 C 
ATOM     17  C   UNL     1      36.670 -24.964 -11.923  0.00  0.00    +0.002 C 
ENDBRANCH  15  16
ENDBRANCH  13  15
BRANCH  13  18
ATOM     18  C   UNL     1      35.385 -24.491 -15.396  0.00  0.00    +0.093 C 
BRANCH  18  19
ATOM     19  C   UNL     1      36.757 -23.835 -15.486  0.00  0.00    +0.022 C 
ATOM     20  C   UNL     1      36.740 -22.546 -16.296  0.00  0.00    +0.002 C 
ENDBRANCH  18  19
ENDBRANCH  13  18
ENDBRANCH   1  14
BRANCH   1  21
ATOM     21  C   UNL     1      31.077 -23.882 -16.045  0.00  0.00    +0.041 C 
BRANCH  21  22
ATOM     22  C   UNL     1      30.393 -22.627 -16.591  0.00  0.00    +0.112 C 
BRANCH  22  24
ATOM     23  O   UNL     1      28.099 -21.853 -16.851  0.00  0.00    -0.250 OA
ATOM     24  C   UNL     1      28.889 -22.698 -16.452  0.00  0.00    +0.314 C 
BRANCH  24  25
ATOM     25  O   UNL     1      28.502 -23.837 -15.822  0.00  0.00    -0.480 OA
ATOM     26  H   UNL     1      29.146 -24.433 -15.491  0.00  0.00    +0.295 HD
ENDBRANCH  24  25
ENDBRANCH  22  24
ENDBRANCH  21  22
ENDBRANCH   1  21
TORSDOF 11
ENDMDL
MODEL 5
REMARK VINA RESULT:      -8.2     10.217     14.701
REMARK  Name = 4922
REMARK  11 active torsions:
REMARK  status: ('A' for Active; 'I' for Inactive)
REMARK    1  A    between atoms: C_1  and  N_3
REMARK    2  A    between atoms: C_1  and  C_14
REMARK    3  A    between atoms: C_1  and  C_21
REMARK    4  A    between atoms: C_4  and  C_6
REMARK    5  A    between atoms: N_13  and  C_15
REMARK    6  A    between atoms: N_13  and  C_18
REMARK    7  A    between atoms: C_15  and  C_16
REMARK    8  A    between atoms: C_18  and  C_19
REMARK    9  A    between atoms: C_21  and  C_22
REMARK   10  A    between atoms: C_22  and  C_24
REMARK   11  A    between atoms: C_24  and  O_25
REMARK                            x       y       z     vdW  Elec       q    Type
REMARK                         _______ _______ _______ _____ _____    ______ ____
ROOT
ATOM      1  C   UNL     1      33.754 -11.676 -24.908  0.00  0.00    +0.150 C 
ENDROOT
BRANCH   1   3
ATOM      2  O   UNL     1      32.063 -13.498 -23.578  0.00  0.00    -0.270 OA
ATOM      3  N   UNL     1      34.182 -12.722 -24.009  0.00  0.00    -0.295 N 
ATOM      4  C   UNL     1      33.278 -13.583 -23.390  0.00  0.00    +0.246 C 
ATOM      5  H   UNL     1      35.143 -12.829 -23.827  0.00  0.00    +0.150 HD
BRANCH   4   6
ATOM      6  C   UNL     1      33.869 -14.618 -22.528  0.00  0.00    +0.053 C 
ATOM      7  C   UNL     1      33.781 -14.488 -21.150  0.00  0.00    +0.005 C 
ATOM      8  C   UNL     1      34.504 -15.706 -23.107  0.00  0.00    +0.005 C 
ATOM      9  C   UNL     1      34.342 -15.469 -20.332  0.00  0.00    +0.000 C 
ATOM     10  C   UNL     1      35.064 -16.687 -22.289  0.00  0.00    +0.000 C 
ATOM     11  C   UNL     1      34.983 -16.569 -20.902  0.00  0.00    +0.000 C 
ENDBRANCH   4   6
ENDBRANCH   1   3
BRANCH   1  14
ATOM     12  O   UNL     1      35.441  -9.990 -24.654  0.00  0.00    -0.273 OA
ATOM     13  N   UNL     1      33.443  -9.599 -23.549  0.00  0.00    -0.278 N 
ATOM     14  C   UNL     1      34.301 -10.359 -24.353  0.00  0.00    +0.244 C 
BRANCH  13  15
ATOM     15  C   UNL     1      33.923  -8.346 -22.979  0.00  0.00    +0.093 C 
BRANCH  15  16
ATOM     16  C   UNL     1      33.401  -7.129 -23.734  0.00  0.00    +0.022 C 
ATOM     17  C   UNL     1      34.377  -6.629 -24.789  0.00  0.00    +0.002 C 
ENDBRANCH  15  16
ENDBRANCH  13  15
BRANCH  13  18
ATOM     18  C   UNL     1      32.086  -9.976 -23.156  0.00  0.00    +0.093 C 
BRANCH  18  19
ATOM     19  C   UNL     1      31.935 -10.107 -21.646  0.00  0.00    +0.022 C 
ATOM     20  C   UNL     1      30.952 -11.198 -21.245  0.00  0.00    +0.002 C 
ENDBRANCH  18  19
ENDBRANCH  13  18
ENDBRANCH   1  14
BRANCH   1  21
ATOM     21  C   UNL     1      34.272 -11.915 -26.330  0.00  0.00    +0.041 C 
BRANCH  21  22
ATOM     22  C   UNL     1      33.286 -12.722 -27.177  0.00  0.00    +0.112 C 
BRANCH  22  24
ATOM     23  O   UNL     1      34.204 -14.914 -26.647  0.00  0.00    -0.250 OA
ATOM     24  C   UNL     1      33.236 -14.173 -26.755  0.00  0.00    +0.314 C 
BRANCH  24  25
ATOM     25  O   UNL     1      31.963 -14.572 -26.499  0.00  0.00    -0.480 OA
ATOM     26  H   UNL     1      31.363 -14.707 -27.206  0.00  0.00    +0.295 HD
ENDBRANCH  24  25
ENDBRANCH  22  24
ENDBRANCH  21  22
ENDBRANCH   1  21
TORSDOF 11
ENDMDL
MODEL 6
REMARK VINA RESULT:      -8.0      5.307     10.660
REMARK  Name = 4922
REMARK  11 active torsions:
REMARK  status: ('A' for Active; 'I' for Inactive)
REMARK    1  A    between atoms: C_1  and  N_3
REMARK    2  A    between atoms: C_1  and  C_14
REMARK    3  A    between atoms: C_1  and  C_21
REMARK    4  A    between atoms: C_4  and  C_6
REMARK    5  A    between atoms: N_13  and  C_15
REMARK    6  A    between atoms: N_13  and  C_18
REMARK    7  A    between atoms: C_15  and  C_16
REMARK    8  A    between atoms: C_18  and  C_19
REMARK    9  A    between atoms: C_21  and  C_22
REMARK   10  A    between atoms: C_22  and  C_24
REMARK   11  A    between atoms: C_24  and  O_25
REMARK                            x       y       z     vdW  Elec       q    Type
REMARK                         _______ _______ _______ _____ _____    ______ ____
ROOT
ATOM      1  C   UNL     1      34.489 -17.397 -21.894  0.00  0.00    +0.150 C 
ENDROOT
BRANCH   1   3
ATOM      2  O   UNL     1      33.041 -19.814 -21.805  0.00  0.00    -0.270 OA
ATOM      3  N   UNL     1      34.708 -18.477 -20.962  0.00  0.00    -0.295 N 
ATOM      4  C   UNL     1      33.945 -19.643 -20.985  0.00  0.00    +0.246 C 
ATOM      5  H   UNL     1      35.418 -18.387 -20.287  0.00  0.00    +0.150 HD
BRANCH   4   6
ATOM      6  C   UNL     1      34.310 -20.666 -19.994  0.00  0.00    +0.053 C 
ATOM      7  C   UNL     1      33.314 -21.435 -19.410  0.00  0.00    +0.005 C 
ATOM      8  C   UNL     1      35.643 -20.844 -19.659  0.00  0.00    +0.005 C 
ATOM      9  C   UNL     1      33.660 -22.405 -18.470  0.00  0.00    +0.000 C 
ATOM     10  C   UNL     1      35.989 -21.815 -18.718  0.00  0.00    +0.000 C 
ATOM     11  C   UNL     1      34.998 -22.595 -18.124  0.00  0.00    +0.000 C 
ENDBRANCH   4   6
ENDBRANCH   1   3
BRANCH   1  14
ATOM     12  O   UNL     1      34.988 -16.043 -19.978  0.00  0.00    -0.273 OA
ATOM     13  N   UNL     1      33.740 -15.024 -21.642  0.00  0.00    -0.278 N 
ATOM     14  C   UNL     1      34.420 -16.106 -21.074  0.00  0.00    +0.244 C 
BRANCH  13  15
ATOM     15  C   UNL     1      33.628 -13.778 -20.893  0.00  0.00    +0.093 C 
BRANCH  15  16
ATOM     16  C   UNL     1      32.182 -13.428 -20.561  0.00  0.00    +0.022 C 
ATOM     17  C   UNL     1      31.764 -12.074 -21.114  0.00  0.00    +0.002 C 
ENDBRANCH  15  16
ENDBRANCH  13  15
BRANCH  13  18
ATOM     18  C   UNL     1      33.049 -15.032 -22.930  0.00  0.00    +0.093 C 
BRANCH  18  19
ATOM     19  C   UNL     1      33.709 -14.110 -23.949  0.00  0.00    +0.022 C 
ATOM     20  C   UNL     1      33.002 -14.121 -25.297  0.00  0.00    +0.002 C 
ENDBRANCH  18  19
ENDBRANCH  13  18
ENDBRANCH   1  14
BRANCH   1  21
ATOM     21  C   UNL     1      35.614 -17.314 -22.930  0.00  0.00    +0.041 C 
BRANCH  21  22
ATOM     22  C   UNL     1      35.517 -18.424 -23.978  0.00  0.00    +0.112 C 
BRANCH  22  24
ATOM     23  O   UNL     1      33.490 -18.723 -25.293  0.00  0.00    -0.250 OA
ATOM     24  C   UNL     1      34.512 -18.094 -25.059  0.00  0.00    +0.314 C 
BRANCH  24  25
ATOM     25  O   UNL     1      34.880 -16.988 -25.757  0.00  0.00    -0.480 OA
ATOM     26  H   UNL     1      34.494 -16.157 -25.557  0.00  0.00    +0.295 HD
ENDBRANCH  24  25
ENDBRANCH  22  24
ENDBRANCH  21  22
ENDBRANCH   1  21
TORSDOF 11
ENDMDL
MODEL 7
REMARK VINA RESULT:      -7.9      2.186      5.113
REMARK  Name = 4922
REMARK  11 active torsions:
REMARK  status: ('A' for Active; 'I' for Inactive)
REMARK    1  A    between atoms: C_1  and  N_3
REMARK    2  A    between atoms: C_1  and  C_14
REMARK    3  A    between atoms: C_1  and  C_21
REMARK    4  A    between atoms: C_4  and  C_6
REMARK    5  A    between atoms: N_13  and  C_15
REMARK    6  A    between atoms: N_13  and  C_18
REMARK    7  A    between atoms: C_15  and  C_16
REMARK    8  A    between atoms: C_18  and  C_19
REMARK    9  A    between atoms: C_21  and  C_22
REMARK   10  A    between atoms: C_22  and  C_24
REMARK   11  A    between atoms: C_24  and  O_25
REMARK                            x       y       z     vdW  Elec       q    Type
REMARK                         _______ _______ _______ _____ _____    ______ ____
ROOT
ATOM      1  C   UNL     1      35.268 -23.261 -15.119  0.00  0.00    +0.150 C 
ENDROOT
BRANCH   1   3
ATOM      2  O   UNL     1      33.259 -23.732 -13.197  0.00  0.00    -0.270 OA
ATOM      3  N   UNL     1      33.881 -23.547 -15.400  0.00  0.00    -0.295 N 
ATOM      4  C   UNL     1      32.948 -23.768 -14.389  0.00  0.00    +0.246 C 
ATOM      5  H   UNL     1      33.584 -23.587 -16.338  0.00  0.00    +0.150 HD
BRANCH   4   6
ATOM      6  C   UNL     1      31.569 -24.014 -14.833  0.00  0.00    +0.053 C 
ATOM      7  C   UNL     1      30.871 -25.097 -14.321  0.00  0.00    +0.005 C 
ATOM      8  C   UNL     1      30.988 -23.159 -15.758  0.00  0.00    +0.005 C 
ATOM      9  C   UNL     1      29.562 -25.331 -14.742  0.00  0.00    +0.000 C 
ATOM     10  C   UNL     1      29.680 -23.392 -16.180  0.00  0.00    +0.000 C 
ATOM     11  C   UNL     1      28.966 -24.478 -15.672  0.00  0.00    +0.000 C 
ENDBRANCH   4   6
ENDBRANCH   1   3
BRANCH   1  14
ATOM     12  O   UNL     1      35.680 -25.555 -15.685  0.00  0.00    -0.273 OA
ATOM     13  N   UNL     1      36.978 -24.683 -13.976  0.00  0.00    -0.278 N 
ATOM     14  C   UNL     1      35.976 -24.607 -14.949  0.00  0.00    +0.244 C 
BRANCH  13  15
ATOM     15  C   UNL     1      37.669 -25.948 -13.760  0.00  0.00    +0.093 C 
BRANCH  15  16
ATOM     16  C   UNL     1      38.889 -26.104 -14.661  0.00  0.00    +0.022 C 
ATOM     17  C   UNL     1      40.180 -25.673 -13.981  0.00  0.00    +0.002 C 
ENDBRANCH  15  16
ENDBRANCH  13  15
BRANCH  13  18
ATOM     18  C   UNL     1      37.376 -23.602 -13.075  0.00  0.00    +0.093 C 
BRANCH  18  19
ATOM     19  C   UNL     1      37.350 -24.027 -11.612  0.00  0.00    +0.022 C 
ATOM     20  C   UNL     1      35.938 -24.125 -11.053  0.00  0.00    +0.002 C 
ENDBRANCH  18  19
ENDBRANCH  13  18
ENDBRANCH   1  14
BRANCH   1  21
ATOM     21  C   UNL     1      35.913 -22.454 -16.250  0.00  0.00    +0.041 C 
BRANCH  21  22
ATOM     22  C   UNL     1      35.045 -22.427 -17.509  0.00  0.00    +0.112 C 
BRANCH  22  24
ATOM     23  O   UNL     1      36.584 -20.900 -18.619  0.00  0.00    -0.250 OA
ATOM     24  C   UNL     1      35.775 -21.815 -18.684  0.00  0.00    +0.314 C 
BRANCH  24  25
ATOM     25  O   UNL     1      35.424 -22.413 -19.853  0.00  0.00    -0.480 OA
ATOM     26  H   UNL     1      34.528 -22.412 -20.130  0.00  0.00    +0.295 HD
ENDBRANCH  24  25
ENDBRANCH  22  24
ENDBRANCH  21  22
ENDBRANCH   1  21
TORSDOF 11
ENDMDL
MODEL 8
REMARK VINA RESULT:      -7.8      9.624     13.809
REMARK  Name = 4922
REMARK  11 active torsions:
REMARK  status: ('A' for Active; 'I' for Inactive)
REMARK    1  A    between atoms: C_1  and  N_3
REMARK    2  A    between atoms: C_1  and  C_14
REMARK    3  A    between atoms: C_1  and  C_21
REMARK    4  A    between atoms: C_4  and  C_6
REMARK    5  A    between atoms: N_13  and  C_15
REMARK    6  A    between atoms: N_13  and  C_18
REMARK    7  A    between atoms: C_15  and  C_16
REMARK    8  A    between atoms: C_18  and  C_19
REMARK    9  A    between atoms: C_21  and  C_22
REMARK   10  A    between atoms: C_22  and  C_24
REMARK   11  A    between atoms: C_24  and  O_25
REMARK                            x       y       z     vdW  Elec       q    Type
REMARK                         _______ _______ _______ _____ _____    ______ ____
ROOT
ATOM      1  C   UNL     1      33.921 -13.516 -24.347  0.00  0.00    +0.150 C 
ENDROOT
BRANCH   1   3
ATOM      2  O   UNL     1      34.653 -11.141 -25.679  0.00  0.00    -0.270 OA
ATOM      3  N   UNL     1      33.791 -12.178 -23.820  0.00  0.00    -0.295 N 
ATOM      4  C   UNL     1      34.178 -11.054 -24.546  0.00  0.00    +0.246 C 
ATOM      5  H   UNL     1      33.417 -12.057 -22.917  0.00  0.00    +0.150 HD
BRANCH   4   6
ATOM      6  C   UNL     1      33.953  -9.759 -23.887  0.00  0.00    +0.053 C 
ATOM      7  C   UNL     1      34.853  -8.724 -24.092  0.00  0.00    +0.005 C 
ATOM      8  C   UNL     1      32.844  -9.594 -23.070  0.00  0.00    +0.005 C 
ATOM      9  C   UNL     1      34.639  -7.496 -23.467  0.00  0.00    +0.000 C 
ATOM     10  C   UNL     1      32.630  -8.365 -22.445  0.00  0.00    +0.000 C 
ATOM     11  C   UNL     1      33.528  -7.316 -22.643  0.00  0.00    +0.000 C 
ENDBRANCH   4   6
ENDBRANCH   1   3
BRANCH   1  14
ATOM     12  O   UNL     1      35.262 -15.179 -23.258  0.00  0.00    -0.273 OA
ATOM     13  N   UNL     1      33.503 -14.323 -22.017  0.00  0.00    -0.278 N 
ATOM     14  C   UNL     1      34.286 -14.426 -23.173  0.00  0.00    +0.244 C 
BRANCH  13  15
ATOM     15  C   UNL     1      33.797 -15.183 -20.878  0.00  0.00    +0.093 C 
BRANCH  15  16
ATOM     16  C   UNL     1      33.192 -16.574 -21.029  0.00  0.00    +0.022 C 
ATOM     17  C   UNL     1      34.247 -17.664 -21.150  0.00  0.00    +0.002 C 
ENDBRANCH  15  16
ENDBRANCH  13  15
BRANCH  13  18
ATOM     18  C   UNL     1      32.339 -13.455 -21.850  0.00  0.00    +0.093 C 
BRANCH  18  19
ATOM     19  C   UNL     1      32.199 -12.939 -20.424  0.00  0.00    +0.022 C 
ATOM     20  C   UNL     1      31.489 -11.595 -20.351  0.00  0.00    +0.002 C 
ENDBRANCH  18  19
ENDBRANCH  13  18
ENDBRANCH   1  14
BRANCH   1  21
ATOM     21  C   UNL     1      32.620 -13.987 -25.006  0.00  0.00    +0.041 C 
BRANCH  21  22
ATOM     22  C   UNL     1      32.867 -14.669 -26.352  0.00  0.00    +0.112 C 
BRANCH  22  24
ATOM     23  O   UNL     1      34.341 -13.558 -27.940  0.00  0.00    -0.250 OA
ATOM     24  C   UNL     1      33.235 -13.674 -27.430  0.00  0.00    +0.314 C 
BRANCH  24  25
ATOM     25  O   UNL     1      32.171 -12.906 -27.781  0.00  0.00    -0.480 OA
ATOM     26  H   UNL     1      31.360 -13.310 -28.021  0.00  0.00    +0.295 HD
ENDBRANCH  24  25
ENDBRANCH  22  24
ENDBRANCH  21  22
ENDBRANCH   1  21
TORSDOF 11
ENDMDL
MODEL 9
REMARK VINA RESULT:      -7.6      9.950     14.099
REMARK  Name = 4922
REMARK  11 active torsions:
REMARK  status: ('A' for Active; 'I' for Inactive)
REMARK    1  A    between atoms: C_1  and  N_3
REMARK    2  A    between atoms: C_1  and  C_14
REMARK    3  A    between atoms: C_1  and  C_21
REMARK    4  A    between atoms: C_4  and  C_6
REMARK    5  A    between atoms: N_13  and  C_15
REMARK    6  A    between atoms: N_13  and  C_18
REMARK    7  A    between atoms: C_15  and  C_16
REMARK    8  A    between atoms: C_18  and  C_19
REMARK    9  A    between atoms: C_21  and  C_22
REMARK   10  A    between atoms: C_22  and  C_24
REMARK   11  A    between atoms: C_24  and  O_25
REMARK                            x       y       z     vdW  Elec       q    Type
REMARK                         _______ _______ _______ _____ _____    ______ ____
ROOT
ATOM      1  C   UNL     1      32.831 -12.871 -23.288  0.00  0.00    +0.150 C 
ENDROOT
BRANCH   1   3
ATOM      2  O   UNL     1      33.074 -14.637 -25.473  0.00  0.00    -0.270 OA
ATOM      3  N   UNL     1      33.415 -14.191 -23.245  0.00  0.00    -0.295 N 
ATOM      4  C   UNL     1      33.497 -15.003 -24.375  0.00  0.00    +0.246 C 
ATOM      5  H   UNL     1      33.766 -14.528 -22.390  0.00  0.00    +0.150 HD
BRANCH   4   6
ATOM      6  C   UNL     1      34.148 -16.307 -24.179  0.00  0.00    +0.053 C 
ATOM      7  C   UNL     1      34.833 -16.557 -22.999  0.00  0.00    +0.005 C 
ATOM      8  C   UNL     1      34.066 -17.266 -25.178  0.00  0.00    +0.005 C 
ATOM      9  C   UNL     1      35.450 -17.793 -22.814  0.00  0.00    +0.000 C 
ATOM     10  C   UNL     1      34.683 -18.503 -24.992  0.00  0.00    +0.000 C 
ATOM     11  C   UNL     1      35.375 -18.767 -23.810  0.00  0.00    +0.000 C 
ENDBRANCH   4   6
ENDBRANCH   1   3
BRANCH   1  14
ATOM     12  O   UNL     1      32.329 -13.437 -21.012  0.00  0.00    -0.273 OA
ATOM     13  N   UNL     1      31.357 -11.492 -21.812  0.00  0.00    -0.278 N 
ATOM     14  C   UNL     1      32.144 -12.643 -21.941  0.00  0.00    +0.244 C 
BRANCH  13  15
ATOM     15  C   UNL     1      30.664 -11.239 -20.555  0.00  0.00    +0.093 C 
BRANCH  15  16
ATOM     16  C   UNL     1      31.627 -11.085 -19.383  0.00  0.00    +0.022 C 
ATOM     17  C   UNL     1      32.089  -9.648 -19.186  0.00  0.00    +0.002 C 
ENDBRANCH  15  16
ENDBRANCH  13  15
BRANCH  13  18
ATOM     18  C   UNL     1      31.098 -10.514 -22.867  0.00  0.00    +0.093 C 
BRANCH  18  19
ATOM     19  C   UNL     1      31.708  -9.152 -22.559  0.00  0.00    +0.022 C 
ATOM     20  C   UNL     1      31.325  -8.091 -23.580  0.00  0.00    +0.002 C 
ENDBRANCH  18  19
ENDBRANCH  13  18
ENDBRANCH   1  14
BRANCH   1  21
ATOM     21  C   UNL     1      33.894 -11.797 -23.537  0.00  0.00    +0.041 C 
BRANCH  21  22
ATOM     22  C   UNL     1      33.940 -11.356 -25.002  0.00  0.00    +0.112 C 
BRANCH  22  24
ATOM     23  O   UNL     1      35.679 -10.327 -26.360  0.00  0.00    -0.250 OA
ATOM     24  C   UNL     1      35.114 -10.446 -25.281  0.00  0.00    +0.314 C 
BRANCH  24  25
ATOM     25  O   UNL     1      35.479  -9.752 -24.171  0.00  0.00    -0.480 OA
ATOM     26  H   UNL     1      36.386  -9.590 -23.997  0.00  0.00    +0.295 HD
ENDBRANCH  24  25
ENDBRANCH  22  24
ENDBRANCH  21  22
ENDBRANCH   1  21
TORSDOF 11
ENDMDL
