MODEL 1
REMARK VINA RESULT:      -5.9      0.000      0.000
REMARK  Name = 736715
REMARK  3 active torsions:
REMARK  status: ('A' for Active; 'I' for Inactive)
REMARK    1  A    between atoms: C_3  and  C_8
REMARK    2  A    between atoms: C_9  and  C_11
REMARK    3  A    between atoms: C_11  and  O_12
REMARK                            x       y       z     vdW  Elec       q    Type
REMARK                         _______ _______ _______ _____ _____    ______ ____
ROOT
ATOM      1  N   UNL     1      35.847 -25.203 -13.481  0.00  0.00    -0.315 N 
ATOM      2  N   UNL     1      35.522 -23.445 -12.163  0.00  0.00    -0.314 N 
ATOM      3  C   UNL     1      37.087 -24.828 -13.045  0.00  0.00    +0.061 C 
ATOM      4  C   UNL     1      36.861 -23.741 -12.234  0.00  0.00    +0.074 C 
ATOM      5  C   UNL     1      34.940 -24.344 -12.925  0.00  0.00    +0.182 C 
ATOM      6  H   UNL     1      35.645 -25.955 -14.083  0.00  0.00    +0.148 HD
ATOM      7  H   UNL     1      35.093 -22.720 -11.653  0.00  0.00    +0.148 HD
ENDROOT
BRANCH   3   8
ATOM      8  C   UNL     1      38.213 -25.546 -13.464  0.00  0.00    +0.022 C 
ATOM      9  C   UNL     1      39.195 -25.122 -14.342  0.00  0.00    +0.083 C 
BRANCH   9  11
ATOM     10  O   UNL     1      41.068 -26.580 -13.921  0.00  0.00    -0.245 OA
ATOM     11  C   UNL     1      40.346 -25.976 -14.697  0.00  0.00    +0.338 C 
BRANCH  11  12
ATOM     12  O   UNL     1      40.480 -25.986 -16.044  0.00  0.00    -0.477 OA
ATOM     13  H   UNL     1      40.824 -26.744 -16.475  0.00  0.00    +0.295 HD
ENDBRANCH  11  12
ENDBRANCH   9  11
ENDBRANCH   3   8
TORSDOF 3
ENDMDL
MODEL 2
REMARK VINA RESULT:      -5.7     10.643     11.261
REMARK  Name = 736715
REMARK  3 active torsions:
REMARK  status: ('A' for Active; 'I' for Inactive)
REMARK    1  A    between atoms: C_3  and  C_8
REMARK    2  A    between atoms: C_9  and  C_11
REMARK    3  A    between atoms: C_11  and  O_12
REMARK                            x       y       z     vdW  Elec       q    Type
REMARK                         _______ _______ _______ _____ _____    ______ ____
ROOT
ATOM      1  N   UNL     1      35.014 -20.470 -20.467  0.00  0.00    -0.315 N 
ATOM      2  N   UNL     1      33.076 -21.146 -19.617  0.00  0.00    -0.314 N 
ATOM      3  C   UNL     1      34.052 -19.725 -21.090  0.00  0.00    +0.061 C 
ATOM      4  C   UNL     1      32.865 -20.160 -20.550  0.00  0.00    +0.074 C 
ATOM      5  C   UNL     1      34.381 -21.308 -19.592  0.00  0.00    +0.182 C 
ATOM      6  H   UNL     1      35.984 -20.412 -20.620  0.00  0.00    +0.148 HD
ATOM      7  H   UNL     1      32.400 -21.624 -19.085  0.00  0.00    +0.148 HD
ENDROOT
BRANCH   3   8
ATOM      8  C   UNL     1      34.426 -18.774 -22.047  0.00  0.00    +0.022 C 
ATOM      9  C   UNL     1      34.550 -18.965 -23.411  0.00  0.00    +0.083 C 
BRANCH   9  11
ATOM     10  O   UNL     1      34.651 -17.768 -25.501  0.00  0.00    -0.245 OA
ATOM     11  C   UNL     1      34.944 -17.870 -24.321  0.00  0.00    +0.338 C 
BRANCH  11  12
ATOM     12  O   UNL     1      35.694 -16.980 -23.630  0.00  0.00    -0.477 OA
ATOM     13  H   UNL     1      36.613 -17.126 -23.522  0.00  0.00    +0.295 HD
ENDBRANCH  11  12
ENDBRANCH   9  11
ENDBRANCH   3   8
TORSDOF 3
ENDMDL
MODEL 3
REMARK VINA RESULT:      -5.7      9.585     10.211
REMARK  Name = 736715
REMARK  3 active torsions:
REMARK  status: ('A' for Active; 'I' for Inactive)
REMARK    1  A    between atoms: C_3  and  C_8
REMARK    2  A    between atoms: C_9  and  C_11
REMARK    3  A    between atoms: C_11  and  O_12
REMARK                            x       y       z     vdW  Elec       q    Type
REMARK                         _______ _______ _______ _____ _____    ______ ____
ROOT
ATOM      1  N   UNL     1      35.173 -18.050 -20.851  0.00  0.00    -0.315 N 
ATOM      2  N   UNL     1      34.920 -17.773 -23.041  0.00  0.00    -0.314 N 
ATOM      3  C   UNL     1      34.818 -19.273 -21.345  0.00  0.00    +0.061 C 
ATOM      4  C   UNL     1      34.667 -19.078 -22.697  0.00  0.00    +0.074 C 
ATOM      5  C   UNL     1      35.222 -17.181 -21.906  0.00  0.00    +0.182 C 
ATOM      6  H   UNL     1      35.361 -17.833 -19.910  0.00  0.00    +0.148 HD
ATOM      7  H   UNL     1      34.885 -17.371 -23.938  0.00  0.00    +0.148 HD
ENDROOT
BRANCH   3   8
ATOM      8  C   UNL     1      34.693 -20.360 -20.471  0.00  0.00    +0.022 C 
ATOM      9  C   UNL     1      33.523 -20.892 -19.961  0.00  0.00    +0.083 C 
BRANCH   9  11
ATOM     10  O   UNL     1      32.595 -22.434 -18.358  0.00  0.00    -0.245 OA
ATOM     11  C   UNL     1      33.525 -22.055 -19.051  0.00  0.00    +0.338 C 
BRANCH  11  12
ATOM     12  O   UNL     1      34.740 -22.649 -19.106  0.00  0.00    -0.477 OA
ATOM     13  H   UNL     1      35.019 -23.073 -19.893  0.00  0.00    +0.295 HD
ENDBRANCH  11  12
ENDBRANCH   9  11
ENDBRANCH   3   8
TORSDOF 3
ENDMDL
MODEL 4
REMARK VINA RESULT:      -5.7      7.593      9.282
REMARK  Name = 736715
REMARK  3 active torsions:
REMARK  status: ('A' for Active; 'I' for Inactive)
REMARK    1  A    between atoms: C_3  and  C_8
REMARK    2  A    between atoms: C_9  and  C_11
REMARK    3  A    between atoms: C_11  and  O_12
REMARK                            x       y       z     vdW  Elec       q    Type
REMARK                         _______ _______ _______ _____ _____    ______ ____
ROOT
ATOM      1  N   UNL     1      32.336 -23.458 -14.954  0.00  0.00    -0.315 N 
ATOM      2  N   UNL     1      32.330 -25.185 -13.557  0.00  0.00    -0.314 N 
ATOM      3  C   UNL     1      31.115 -24.054 -15.099  0.00  0.00    +0.061 C 
ATOM      4  C   UNL     1      31.135 -25.117 -14.228  0.00  0.00    +0.074 C 
ATOM      5  C   UNL     1      33.030 -24.172 -14.017  0.00  0.00    +0.182 C 
ATOM      6  H   UNL     1      32.656 -22.661 -15.434  0.00  0.00    +0.148 HD
ATOM      7  H   UNL     1      32.602 -25.845 -12.879  0.00  0.00    +0.148 HD
ENDROOT
BRANCH   3   8
ATOM      8  C   UNL     1      30.190 -23.521 -16.006  0.00  0.00    +0.022 C 
ATOM      9  C   UNL     1      28.826 -23.382 -15.825  0.00  0.00    +0.083 C 
BRANCH   9  11
ATOM     10  O   UNL     1      27.629 -21.618 -16.949  0.00  0.00    -0.245 OA
ATOM     11  C   UNL     1      27.956 -22.790 -16.861  0.00  0.00    +0.338 C 
BRANCH  11  12
ATOM     12  O   UNL     1      27.572 -23.767 -17.715  0.00  0.00    -0.477 OA
ATOM     13  H   UNL     1      27.907 -23.783 -18.590  0.00  0.00    +0.295 HD
ENDBRANCH  11  12
ENDBRANCH   9  11
ENDBRANCH   3   8
TORSDOF 3
ENDMDL
MODEL 5
REMARK VINA RESULT:      -5.6      9.622     10.187
REMARK  Name = 736715
REMARK  3 active torsions:
REMARK  status: ('A' for Active; 'I' for Inactive)
REMARK    1  A    between atoms: C_3  and  C_8
REMARK    2  A    between atoms: C_9  and  C_11
REMARK    3  A    between atoms: C_11  and  O_12
REMARK                            x       y       z     vdW  Elec       q    Type
REMARK                         _______ _______ _______ _____ _____    ______ ____
ROOT
ATOM      1  N   UNL     1      34.613 -19.371 -22.856  0.00  0.00    -0.315 N 
ATOM      2  N   UNL     1      36.100 -17.739 -22.612  0.00  0.00    -0.314 N 
ATOM      3  C   UNL     1      34.849 -19.277 -21.513  0.00  0.00    +0.061 C 
ATOM      4  C   UNL     1      35.770 -18.264 -21.388  0.00  0.00    +0.074 C 
ATOM      5  C   UNL     1      35.385 -18.428 -23.475  0.00  0.00    +0.182 C 
ATOM      6  H   UNL     1      33.998 -20.000 -23.296  0.00  0.00    +0.148 HD
ATOM      7  H   UNL     1      36.730 -17.007 -22.802  0.00  0.00    +0.148 HD
ENDROOT
BRANCH   3   8
ATOM      8  C   UNL     1      34.181 -20.136 -20.633  0.00  0.00    +0.022 C 
ATOM      9  C   UNL     1      34.727 -21.179 -19.906  0.00  0.00    +0.083 C 
BRANCH   9  11
ATOM     10  O   UNL     1      32.693 -22.054 -18.954  0.00  0.00    -0.245 OA
ATOM     11  C   UNL     1      33.911 -22.009 -18.997  0.00  0.00    +0.338 C 
BRANCH  11  12
ATOM     12  O   UNL     1      34.740 -22.728 -18.205  0.00  0.00    -0.477 OA
ATOM     13  H   UNL     1      34.887 -22.464 -17.318  0.00  0.00    +0.295 HD
ENDBRANCH  11  12
ENDBRANCH   9  11
ENDBRANCH   3   8
TORSDOF 3
ENDMDL
MODEL 6
REMARK VINA RESULT:      -5.6     10.936     11.491
REMARK  Name = 736715
REMARK  3 active torsions:
REMARK  status: ('A' for Active; 'I' for Inactive)
REMARK    1  A    between atoms: C_3  and  C_8
REMARK    2  A    between atoms: C_9  and  C_11
REMARK    3  A    between atoms: C_11  and  O_12
REMARK                            x       y       z     vdW  Elec       q    Type
REMARK                         _______ _______ _______ _____ _____    ______ ____
ROOT
ATOM      1  N   UNL     1      33.200 -19.872 -20.815  0.00  0.00    -0.315 N 
ATOM      2  N   UNL     1      34.658 -21.144 -19.724  0.00  0.00    -0.314 N 
ATOM      3  C   UNL     1      34.436 -19.476 -21.243  0.00  0.00    +0.061 C 
ATOM      4  C   UNL     1      35.319 -20.274 -20.556  0.00  0.00    +0.074 C 
ATOM      5  C   UNL     1      33.383 -20.875 -19.905  0.00  0.00    +0.182 C 
ATOM      6  H   UNL     1      32.336 -19.504 -21.110  0.00  0.00    +0.148 HD
ATOM      7  H   UNL     1      35.051 -21.819 -19.126  0.00  0.00    +0.148 HD
ENDROOT
BRANCH   3   8
ATOM      8  C   UNL     1      34.543 -18.451 -22.191  0.00  0.00    +0.022 C 
ATOM      9  C   UNL     1      34.973 -18.565 -23.500  0.00  0.00    +0.083 C 
BRANCH   9  11
ATOM     10  O   UNL     1      34.612 -17.356 -25.554  0.00  0.00    -0.245 OA
ATOM     11  C   UNL     1      35.030 -17.402 -24.409  0.00  0.00    +0.338 C 
BRANCH  11  12
ATOM     12  O   UNL     1      35.629 -16.375 -23.762  0.00  0.00    -0.477 OA
ATOM     13  H   UNL     1      36.559 -16.371 -23.649  0.00  0.00    +0.295 HD
ENDBRANCH  11  12
ENDBRANCH   9  11
ENDBRANCH   3   8
TORSDOF 3
ENDMDL
MODEL 7
REMARK VINA RESULT:      -5.6     11.051     11.575
REMARK  Name = 736715
REMARK  3 active torsions:
REMARK  status: ('A' for Active; 'I' for Inactive)
REMARK    1  A    between atoms: C_3  and  C_8
REMARK    2  A    between atoms: C_9  and  C_11
REMARK    3  A    between atoms: C_11  and  O_12
REMARK                            x       y       z     vdW  Elec       q    Type
REMARK                         _______ _______ _______ _____ _____    ______ ____
ROOT
ATOM      1  N   UNL     1      34.629 -18.696 -23.946  0.00  0.00    -0.315 N 
ATOM      2  N   UNL     1      35.278 -16.573 -23.968  0.00  0.00    -0.314 N 
ATOM      3  C   UNL     1      34.957 -18.392 -22.655  0.00  0.00    +0.061 C 
ATOM      4  C   UNL     1      35.355 -17.077 -22.693  0.00  0.00    +0.074 C 
ATOM      5  C   UNL     1      34.837 -17.574 -24.697  0.00  0.00    +0.182 C 
ATOM      6  H   UNL     1      34.301 -19.564 -24.274  0.00  0.00    +0.148 HD
ATOM      7  H   UNL     1      35.502 -15.662 -24.268  0.00  0.00    +0.148 HD
ENDROOT
BRANCH   3   8
ATOM      8  C   UNL     1      34.835 -19.372 -21.662  0.00  0.00    +0.022 C 
ATOM      9  C   UNL     1      33.687 -19.737 -20.985  0.00  0.00    +0.083 C 
BRANCH   9  11
ATOM     10  O   UNL     1      34.619 -21.538 -19.682  0.00  0.00    -0.245 OA
ATOM     11  C   UNL     1      33.688 -20.801 -19.960  0.00  0.00    +0.338 C 
BRANCH  11  12
ATOM     12  O   UNL     1      32.473 -20.832 -19.365  0.00  0.00    -0.477 OA
ATOM     13  H   UNL     1      31.722 -21.117 -19.847  0.00  0.00    +0.295 HD
ENDBRANCH  11  12
ENDBRANCH   9  11
ENDBRANCH   3   8
TORSDOF 3
ENDMDL
MODEL 8
REMARK VINA RESULT:      -5.4     13.485     14.080
REMARK  Name = 736715
REMARK  3 active torsions:
REMARK  status: ('A' for Active; 'I' for Inactive)
REMARK    1  A    between atoms: C_3  and  C_8
REMARK    2  A    between atoms: C_9  and  C_11
REMARK    3  A    between atoms: C_11  and  O_12
REMARK                            x       y       z     vdW  Elec       q    Type
REMARK                         _______ _______ _______ _____ _____    ______ ____
ROOT
ATOM      1  N   UNL     1      35.822 -17.806 -22.992  0.00  0.00    -0.315 N 
ATOM      2  N   UNL     1      35.707 -18.103 -20.794  0.00  0.00    -0.314 N 
ATOM      3  C   UNL     1      34.917 -16.889 -22.538  0.00  0.00    +0.061 C 
ATOM      4  C   UNL     1      34.862 -17.091 -21.179  0.00  0.00    +0.074 C 
ATOM      5  C   UNL     1      36.269 -18.512 -21.910  0.00  0.00    +0.182 C 
ATOM      6  H   UNL     1      36.101 -17.935 -23.927  0.00  0.00    +0.148 HD
ATOM      7  H   UNL     1      35.858 -18.445 -19.884  0.00  0.00    +0.148 HD
ENDROOT
BRANCH   3   8
ATOM      8  C   UNL     1      34.296 -16.023 -23.446  0.00  0.00    +0.022 C 
ATOM      9  C   UNL     1      34.154 -16.204 -24.810  0.00  0.00    +0.083 C 
BRANCH   9  11
ATOM     10  O   UNL     1      33.381 -15.239 -26.879  0.00  0.00    -0.245 OA
ATOM     11  C   UNL     1      33.465 -15.215 -25.662  0.00  0.00    +0.338 C 
BRANCH  11  12
ATOM     12  O   UNL     1      32.927 -14.258 -24.870  0.00  0.00    -0.477 OA
ATOM     13  H   UNL     1      33.348 -14.025 -24.065  0.00  0.00    +0.295 HD
ENDBRANCH  11  12
ENDBRANCH   9  11
ENDBRANCH   3   8
TORSDOF 3
ENDMDL
MODEL 9
REMARK VINA RESULT:      -5.3      1.742      1.989
REMARK  Name = 736715
REMARK  3 active torsions:
REMARK  status: ('A' for Active; 'I' for Inactive)
REMARK    1  A    between atoms: C_3  and  C_8
REMARK    2  A    between atoms: C_9  and  C_11
REMARK    3  A    between atoms: C_11  and  O_12
REMARK                            x       y       z     vdW  Elec       q    Type
REMARK                         _______ _______ _______ _____ _____    ______ ____
ROOT
ATOM      1  N   UNL     1      35.753 -23.406 -15.478  0.00  0.00    -0.315 N 
ATOM      2  N   UNL     1      34.288 -24.621 -14.331  0.00  0.00    -0.314 N 
ATOM      3  C   UNL     1      36.487 -24.342 -14.805  0.00  0.00    +0.061 C 
ATOM      4  C   UNL     1      35.563 -25.079 -14.104  0.00  0.00    +0.074 C 
ATOM      5  C   UNL     1      34.439 -23.613 -15.163  0.00  0.00    +0.182 C 
ATOM      6  H   UNL     1      36.105 -22.712 -16.080  0.00  0.00    +0.148 HD
ATOM      7  H   UNL     1      33.448 -24.970 -13.956  0.00  0.00    +0.148 HD
ENDROOT
BRANCH   3   8
ATOM      8  C   UNL     1      37.880 -24.360 -14.948  0.00  0.00    +0.022 C 
ATOM      9  C   UNL     1      38.729 -25.428 -14.726  0.00  0.00    +0.083 C 
BRANCH   9  11
ATOM     10  O   UNL     1      40.973 -24.711 -14.218  0.00  0.00    -0.245 OA
ATOM     11  C   UNL     1      40.189 -25.322 -14.925  0.00  0.00    +0.338 C 
BRANCH  11  12
ATOM     12  O   UNL     1      40.528 -26.020 -16.033  0.00  0.00    -0.477 OA
ATOM     13  H   UNL     1      40.736 -26.932 -15.967  0.00  0.00    +0.295 HD
ENDBRANCH  11  12
ENDBRANCH   9  11
ENDBRANCH   3   8
TORSDOF 3
ENDMDL
