MODEL 1
REMARK VINA RESULT:      -9.0      0.000      0.000
REMARK  Name = 5524
REMARK  1 active torsions:
REMARK  status: ('A' for Active; 'I' for Inactive)
REMARK    1  A    between atoms: C_7  and  N_11
REMARK                            x       y       z     vdW  Elec       q    Type
REMARK                         _______ _______ _______ _____ _____    ______ ____
ROOT
ATOM      1  C   UNL     1      34.920 -16.433 -21.054  0.00  0.00    +0.027 C 
ATOM      2  C   UNL     1      34.133 -15.142 -20.840  0.00  0.00    +0.005 C 
ATOM      3  C   UNL     1      34.780 -16.991 -22.449  0.00  0.00    -0.013 C 
ATOM      4  C   UNL     1      34.380 -14.172 -21.989  0.00  0.00    +0.005 C 
ATOM      5  C   UNL     1      33.888 -14.769 -23.307  0.00  0.00    +0.026 C 
ATOM      6  C   UNL     1      34.332 -16.195 -23.518  0.00  0.00    -0.025 C 
ATOM      7  C   UNL     1      35.163 -18.320 -22.693  0.00  0.00    +0.046 C 
ATOM      8  C   UNL     1      34.240 -16.753 -24.803  0.00  0.00    -0.004 C 
ATOM      9  C   UNL     1      35.077 -18.859 -23.976  0.00  0.00    +0.014 C 
ATOM     10  C   UNL     1      34.613 -18.077 -25.030  0.00  0.00    +0.001 C 
ENDROOT
BRANCH   7  11
ATOM     11  N   UNL     1      35.637 -19.149 -21.649  0.00  0.00    -0.286 N 
ATOM     12  N   UNL     1      35.596 -20.675 -19.920  0.00  0.00    -0.284 N 
ATOM     13  N   UNL     1      33.620 -20.155 -20.906  0.00  0.00    -0.214 NA
ATOM     14  C   UNL     1      34.918 -19.965 -20.863  0.00  0.00    +0.189 C 
ATOM     15  C   UNL     1      34.698 -21.497 -19.167  0.00  0.00    +0.085 C 
ATOM     16  C   UNL     1      33.356 -21.150 -19.824  0.00  0.00    +0.117 C 
ATOM     17  H   UNL     1      36.607 -19.126 -21.481  0.00  0.00    +0.155 HD
ATOM     18  H   UNL     1      36.569 -20.630 -19.775  0.00  0.00    +0.155 HD
ENDBRANCH   7  11
TORSDOF 1
ENDMDL
MODEL 2
REMARK VINA RESULT:      -8.7      1.007      1.118
REMARK  Name = 5524
REMARK  1 active torsions:
REMARK  status: ('A' for Active; 'I' for Inactive)
REMARK    1  A    between atoms: C_7  and  N_11
REMARK                            x       y       z     vdW  Elec       q    Type
REMARK                         _______ _______ _______ _____ _____    ______ ____
ROOT
ATOM      1  C   UNL     1      34.201 -15.915 -20.794  0.00  0.00    +0.027 C 
ATOM      2  C   UNL     1      33.045 -14.987 -20.429  0.00  0.00    +0.005 C 
ATOM      3  C   UNL     1      34.295 -16.195 -22.274  0.00  0.00    -0.013 C 
ATOM      4  C   UNL     1      33.021 -13.777 -21.354  0.00  0.00    +0.005 C 
ATOM      5  C   UNL     1      32.789 -14.214 -22.800  0.00  0.00    +0.026 C 
ATOM      6  C   UNL     1      33.662 -15.369 -23.221  0.00  0.00    -0.025 C 
ATOM      7  C   UNL     1      35.081 -17.271 -22.715  0.00  0.00    +0.046 C 
ATOM      8  C   UNL     1      33.796 -15.658 -24.587  0.00  0.00    -0.004 C 
ATOM      9  C   UNL     1      35.215 -17.541 -24.076  0.00  0.00    +0.014 C 
ATOM     10  C   UNL     1      34.572 -16.737 -25.012  0.00  0.00    +0.001 C 
ENDROOT
BRANCH   7  11
ATOM     11  N   UNL     1      35.749 -18.115 -21.796  0.00  0.00    -0.286 N 
ATOM     12  N   UNL     1      36.084 -19.841 -20.302  0.00  0.00    -0.284 N 
ATOM     13  N   UNL     1      34.018 -19.632 -21.219  0.00  0.00    -0.214 NA
ATOM     14  C   UNL     1      35.244 -19.171 -21.140  0.00  0.00    +0.189 C 
ATOM     15  C   UNL     1      35.405 -20.937 -19.680  0.00  0.00    +0.085 C 
ATOM     16  C   UNL     1      34.004 -20.803 -20.291  0.00  0.00    +0.117 C 
ATOM     17  H   UNL     1      36.694 -17.904 -21.619  0.00  0.00    +0.155 HD
ATOM     18  H   UNL     1      37.027 -19.604 -20.146  0.00  0.00    +0.155 HD
ENDBRANCH   7  11
TORSDOF 1
ENDMDL
MODEL 3
REMARK VINA RESULT:      -8.7      0.911      2.824
REMARK  Name = 5524
REMARK  1 active torsions:
REMARK  status: ('A' for Active; 'I' for Inactive)
REMARK    1  A    between atoms: C_7  and  N_11
REMARK                            x       y       z     vdW  Elec       q    Type
REMARK                         _______ _______ _______ _____ _____    ______ ____
ROOT
ATOM      1  C   UNL     1      34.882 -17.594 -23.832  0.00  0.00    +0.027 C 
ATOM      2  C   UNL     1      34.887 -17.101 -25.277  0.00  0.00    +0.005 C 
ATOM      3  C   UNL     1      34.566 -16.508 -22.833  0.00  0.00    -0.013 C 
ATOM      4  C   UNL     1      33.650 -16.258 -25.557  0.00  0.00    +0.005 C 
ATOM      5  C   UNL     1      33.640 -15.013 -24.671  0.00  0.00    +0.026 C 
ATOM      6  C   UNL     1      33.945 -15.308 -23.224  0.00  0.00    -0.025 C 
ATOM      7  C   UNL     1      34.848 -16.728 -21.476  0.00  0.00    +0.046 C 
ATOM      8  C   UNL     1      33.651 -14.337 -22.255  0.00  0.00    -0.004 C 
ATOM      9  C   UNL     1      34.541 -15.759 -20.521  0.00  0.00    +0.014 C 
ATOM     10  C   UNL     1      33.945 -14.563 -20.911  0.00  0.00    +0.001 C 
ENDROOT
BRANCH   7  11
ATOM     11  N   UNL     1      35.455 -17.929 -21.039  0.00  0.00    -0.286 N 
ATOM     12  N   UNL     1      35.645 -20.109 -20.307  0.00  0.00    -0.284 N 
ATOM     13  N   UNL     1      33.556 -19.311 -20.698  0.00  0.00    -0.214 NA
ATOM     14  C   UNL     1      34.847 -19.076 -20.697  0.00  0.00    +0.189 C 
ATOM     15  C   UNL     1      34.855 -21.257 -19.978  0.00  0.00    +0.085 C 
ATOM     16  C   UNL     1      33.439 -20.726 -20.236  0.00  0.00    +0.117 C 
ATOM     17  H   UNL     1      36.438 -17.923 -20.980  0.00  0.00    +0.155 HD
ATOM     18  H   UNL     1      36.627 -20.072 -20.258  0.00  0.00    +0.155 HD
ENDBRANCH   7  11
TORSDOF 1
ENDMDL
MODEL 4
REMARK VINA RESULT:      -8.4      1.992      5.599
REMARK  Name = 5524
REMARK  1 active torsions:
REMARK  status: ('A' for Active; 'I' for Inactive)
REMARK    1  A    between atoms: C_7  and  N_11
REMARK                            x       y       z     vdW  Elec       q    Type
REMARK                         _______ _______ _______ _____ _____    ______ ____
ROOT
ATOM      1  C   UNL     1      33.172 -20.016 -20.622  0.00  0.00    +0.027 C 
ATOM      2  C   UNL     1      32.608 -20.900 -19.512  0.00  0.00    +0.005 C 
ATOM      3  C   UNL     1      34.678 -19.931 -20.609  0.00  0.00    -0.013 C 
ATOM      4  C   UNL     1      33.363 -22.221 -19.449  0.00  0.00    +0.005 C 
ATOM      5  C   UNL     1      34.834 -21.981 -19.111  0.00  0.00    +0.026 C 
ATOM      6  C   UNL     1      35.462 -20.881 -19.930  0.00  0.00    -0.025 C 
ATOM      7  C   UNL     1      35.309 -18.914 -21.342  0.00  0.00    +0.046 C 
ATOM      8  C   UNL     1      36.861 -20.773 -19.965  0.00  0.00    -0.004 C 
ATOM      9  C   UNL     1      36.701 -18.824 -21.377  0.00  0.00    +0.014 C 
ATOM     10  C   UNL     1      37.476 -19.752 -20.688  0.00  0.00    +0.001 C 
ENDROOT
BRANCH   7  11
ATOM     11  N   UNL     1      34.558 -17.950 -22.055  0.00  0.00    -0.286 N 
ATOM     12  N   UNL     1      33.604 -15.916 -22.579  0.00  0.00    -0.284 N 
ATOM     13  N   UNL     1      34.844 -16.035 -20.682  0.00  0.00    -0.214 NA
ATOM     14  C   UNL     1      34.368 -16.661 -21.733  0.00  0.00    +0.189 C 
ATOM     15  C   UNL     1      33.495 -14.569 -22.105  0.00  0.00    +0.085 C 
ATOM     16  C   UNL     1      34.329 -14.640 -20.819  0.00  0.00    +0.117 C 
ATOM     17  H   UNL     1      34.126 -18.260 -22.883  0.00  0.00    +0.155 HD
ATOM     18  H   UNL     1      33.184 -16.256 -23.402  0.00  0.00    +0.155 HD
ENDBRANCH   7  11
TORSDOF 1
ENDMDL
MODEL 5
REMARK VINA RESULT:      -8.3      5.823      8.142
REMARK  Name = 5524
REMARK  1 active torsions:
REMARK  status: ('A' for Active; 'I' for Inactive)
REMARK    1  A    between atoms: C_7  and  N_11
REMARK                            x       y       z     vdW  Elec       q    Type
REMARK                         _______ _______ _______ _____ _____    ______ ____
ROOT
ATOM      1  C   UNL     1      36.653 -22.021 -17.653  0.00  0.00    +0.027 C 
ATOM      2  C   UNL     1      36.685 -21.054 -18.835  0.00  0.00    +0.005 C 
ATOM      3  C   UNL     1      35.260 -22.471 -17.290  0.00  0.00    -0.013 C 
ATOM      4  C   UNL     1      35.820 -21.577 -19.974  0.00  0.00    +0.005 C 
ATOM      5  C   UNL     1      34.360 -21.678 -19.533  0.00  0.00    +0.026 C 
ATOM      6  C   UNL     1      34.187 -22.346 -18.192  0.00  0.00    -0.025 C 
ATOM      7  C   UNL     1      35.044 -23.082 -16.044  0.00  0.00    +0.046 C 
ATOM      8  C   UNL     1      32.914 -22.799 -17.817  0.00  0.00    -0.004 C 
ATOM      9  C   UNL     1      33.775 -23.537 -15.687  0.00  0.00    +0.014 C 
ATOM     10  C   UNL     1      32.710 -23.394 -16.572  0.00  0.00    +0.001 C 
ENDROOT
BRANCH   7  11
ATOM     11  N   UNL     1      36.099 -23.244 -15.115  0.00  0.00    -0.286 N 
ATOM     12  N   UNL     1      37.759 -24.285 -13.897  0.00  0.00    -0.284 N 
ATOM     13  N   UNL     1      36.582 -25.554 -15.364  0.00  0.00    -0.214 NA
ATOM     14  C   UNL     1      36.772 -24.370 -14.832  0.00  0.00    +0.189 C 
ATOM     15  C   UNL     1      38.383 -25.559 -13.707  0.00  0.00    +0.085 C 
ATOM     16  C   UNL     1      37.591 -26.427 -14.693  0.00  0.00    +0.117 C 
ATOM     17  H   UNL     1      36.371 -22.438 -14.620  0.00  0.00    +0.155 HD
ATOM     18  H   UNL     1      38.008 -23.462 -13.417  0.00  0.00    +0.155 HD
ENDBRANCH   7  11
TORSDOF 1
ENDMDL
MODEL 6
REMARK VINA RESULT:      -8.3      8.739     10.810
REMARK  Name = 5524
REMARK  1 active torsions:
REMARK  status: ('A' for Active; 'I' for Inactive)
REMARK    1  A    between atoms: C_7  and  N_11
REMARK                            x       y       z     vdW  Elec       q    Type
REMARK                         _______ _______ _______ _____ _____    ______ ____
ROOT
ATOM      1  C   UNL     1      31.415  -5.903 -21.529  0.00  0.00    +0.027 C 
ATOM      2  C   UNL     1      30.396  -5.010 -22.232  0.00  0.00    +0.005 C 
ATOM      3  C   UNL     1      32.444  -6.486 -22.466  0.00  0.00    -0.013 C 
ATOM      4  C   UNL     1      31.099  -4.032 -23.164  0.00  0.00    +0.005 C 
ATOM      5  C   UNL     1      31.850  -4.785 -24.262  0.00  0.00    +0.026 C 
ATOM      6  C   UNL     1      32.676  -5.933 -23.739  0.00  0.00    -0.025 C 
ATOM      7  C   UNL     1      33.225  -7.568 -22.032  0.00  0.00    +0.046 C 
ATOM      8  C   UNL     1      33.659  -6.496 -24.566  0.00  0.00    -0.004 C 
ATOM      9  C   UNL     1      34.206  -8.112 -22.860  0.00  0.00    +0.014 C 
ATOM     10  C   UNL     1      34.422  -7.578 -24.127  0.00  0.00    +0.001 C 
ENDROOT
BRANCH   7  11
ATOM     11  N   UNL     1      33.037  -8.142 -20.752  0.00  0.00    -0.286 N 
ATOM     12  N   UNL     1      32.264  -9.588 -19.130  0.00  0.00    -0.284 N 
ATOM     13  N   UNL     1      31.586  -9.948 -21.265  0.00  0.00    -0.214 NA
ATOM     14  C   UNL     1      32.293  -9.214 -20.439  0.00  0.00    +0.189 C 
ATOM     15  C   UNL     1      31.436 -10.743 -18.954  0.00  0.00    +0.085 C 
ATOM     16  C   UNL     1      30.968 -10.993 -20.394  0.00  0.00    +0.117 C 
ATOM     17  H   UNL     1      33.506  -7.704 -20.005  0.00  0.00    +0.155 HD
ATOM     18  H   UNL     1      32.745  -9.129 -18.404  0.00  0.00    +0.155 HD
ENDBRANCH   7  11
TORSDOF 1
ENDMDL
MODEL 7
REMARK VINA RESULT:      -8.1      4.216      6.735
REMARK  Name = 5524
REMARK  1 active torsions:
REMARK  status: ('A' for Active; 'I' for Inactive)
REMARK    1  A    between atoms: C_7  and  N_11
REMARK                            x       y       z     vdW  Elec       q    Type
REMARK                         _______ _______ _______ _____ _____    ______ ____
ROOT
ATOM      1  C   UNL     1      33.549 -14.887 -21.184  0.00  0.00    +0.027 C 
ATOM      2  C   UNL     1      34.704 -15.629 -20.516  0.00  0.00    +0.005 C 
ATOM      3  C   UNL     1      33.563 -14.995 -22.689  0.00  0.00    -0.013 C 
ATOM      4  C   UNL     1      34.844 -17.030 -21.098  0.00  0.00    +0.005 C 
ATOM      5  C   UNL     1      35.175 -16.959 -22.588  0.00  0.00    +0.026 C 
ATOM      6  C   UNL     1      34.298 -15.996 -23.349  0.00  0.00    -0.025 C 
ATOM      7  C   UNL     1      32.777 -14.109 -23.443  0.00  0.00    +0.046 C 
ATOM      8  C   UNL     1      34.263 -16.070 -24.749  0.00  0.00    -0.004 C 
ATOM      9  C   UNL     1      32.742 -14.198 -24.834  0.00  0.00    +0.014 C 
ATOM     10  C   UNL     1      33.487 -15.177 -25.487  0.00  0.00    +0.001 C 
ENDROOT
BRANCH   7  11
ATOM     11  N   UNL     1      32.008 -13.098 -22.819  0.00  0.00    -0.286 N 
ATOM     12  N   UNL     1      31.339 -10.988 -22.169  0.00  0.00    -0.284 N 
ATOM     13  N   UNL     1      33.196 -11.148 -23.464  0.00  0.00    -0.214 NA
ATOM     14  C   UNL     1      32.221 -11.774 -22.847  0.00  0.00    +0.189 C 
ATOM     15  C   UNL     1      31.696  -9.607 -22.295  0.00  0.00    +0.085 C 
ATOM     16  C   UNL     1      32.955  -9.704 -23.167  0.00  0.00    +0.117 C 
ATOM     17  H   UNL     1      31.226 -13.403 -22.304  0.00  0.00    +0.155 HD
ATOM     18  H   UNL     1      30.564 -11.323 -21.663  0.00  0.00    +0.155 HD
ENDBRANCH   7  11
TORSDOF 1
ENDMDL
MODEL 8
REMARK VINA RESULT:      -8.1      7.430      9.503
REMARK  Name = 5524
REMARK  1 active torsions:
REMARK  status: ('A' for Active; 'I' for Inactive)
REMARK    1  A    between atoms: C_7  and  N_11
REMARK                            x       y       z     vdW  Elec       q    Type
REMARK                         _______ _______ _______ _____ _____    ______ ____
ROOT
ATOM      1  C   UNL     1      32.361 -23.824 -13.983  0.00  0.00    +0.027 C 
ATOM      2  C   UNL     1      30.871 -24.158 -13.966  0.00  0.00    +0.005 C 
ATOM      3  C   UNL     1      32.876 -23.464 -15.355  0.00  0.00    -0.013 C 
ATOM      4  C   UNL     1      30.081 -23.106 -14.736  0.00  0.00    +0.005 C 
ATOM      5  C   UNL     1      30.508 -23.086 -16.203  0.00  0.00    +0.026 C 
ATOM      6  C   UNL     1      32.004 -23.078 -16.389  0.00  0.00    -0.025 C 
ATOM      7  C   UNL     1      34.261 -23.460 -15.583  0.00  0.00    +0.046 C 
ATOM      8  C   UNL     1      32.532 -22.731 -17.642  0.00  0.00    -0.004 C 
ATOM      9  C   UNL     1      34.773 -23.104 -16.830  0.00  0.00    +0.014 C 
ATOM     10  C   UNL     1      33.909 -22.741 -17.860  0.00  0.00    +0.001 C 
ENDROOT
BRANCH   7  11
ATOM     11  N   UNL     1      35.173 -23.824 -14.564  0.00  0.00    -0.286 N 
ATOM     12  N   UNL     1      36.758 -25.056 -13.428  0.00  0.00    -0.284 N 
ATOM     13  N   UNL     1      36.015 -25.875 -15.410  0.00  0.00    -0.214 NA
ATOM     14  C   UNL     1      35.949 -24.917 -14.515  0.00  0.00    +0.189 C 
ATOM     15  C   UNL     1      37.523 -26.263 -13.520  0.00  0.00    +0.085 C 
ATOM     16  C   UNL     1      37.025 -26.828 -14.858  0.00  0.00    +0.117 C 
ATOM     17  H   UNL     1      35.246 -23.203 -13.804  0.00  0.00    +0.155 HD
ATOM     18  H   UNL     1      36.809 -24.416 -12.681  0.00  0.00    +0.155 HD
ENDBRANCH   7  11
TORSDOF 1
ENDMDL
MODEL 9
REMARK VINA RESULT:      -8.0      3.344      6.343
REMARK  Name = 5524
REMARK  1 active torsions:
REMARK  status: ('A' for Active; 'I' for Inactive)
REMARK    1  A    between atoms: C_7  and  N_11
REMARK                            x       y       z     vdW  Elec       q    Type
REMARK                         _______ _______ _______ _____ _____    ______ ____
ROOT
ATOM      1  C   UNL     1      34.619 -16.585 -24.737  0.00  0.00    +0.027 C 
ATOM      2  C   UNL     1      34.239 -17.967 -25.263  0.00  0.00    +0.005 C 
ATOM      3  C   UNL     1      34.598 -16.494 -23.231  0.00  0.00    -0.013 C 
ATOM      4  C   UNL     1      34.995 -19.051 -24.505  0.00  0.00    +0.005 C 
ATOM      5  C   UNL     1      34.619 -19.030 -23.024  0.00  0.00    +0.026 C 
ATOM      6  C   UNL     1      34.639 -17.646 -22.424  0.00  0.00    -0.025 C 
ATOM      7  C   UNL     1      34.598 -15.228 -22.625  0.00  0.00    +0.046 C 
ATOM      8  C   UNL     1      34.640 -17.510 -21.028  0.00  0.00    -0.004 C 
ATOM      9  C   UNL     1      34.609 -15.107 -21.236  0.00  0.00    +0.014 C 
ATOM     10  C   UNL     1      34.628 -16.247 -20.437  0.00  0.00    +0.001 C 
ENDROOT
BRANCH   7  11
ATOM     11  N   UNL     1      34.576 -14.045 -23.400  0.00  0.00    -0.286 N 
ATOM     12  N   UNL     1      33.922 -11.956 -24.130  0.00  0.00    -0.284 N 
ATOM     13  N   UNL     1      32.795 -12.856 -22.378  0.00  0.00    -0.214 NA
ATOM     14  C   UNL     1      33.753 -12.994 -23.264  0.00  0.00    +0.189 C 
ATOM     15  C   UNL     1      32.977 -10.915 -23.859  0.00  0.00    +0.085 C 
ATOM     16  C   UNL     1      32.206 -11.516 -22.676  0.00  0.00    +0.117 C 
ATOM     17  H   UNL     1      35.243 -13.985 -24.122  0.00  0.00    +0.155 HD
ATOM     18  H   UNL     1      34.600 -11.926 -24.843  0.00  0.00    +0.155 HD
ENDBRANCH   7  11
TORSDOF 1
ENDMDL
