MODEL 1
REMARK VINA RESULT:      -9.3      0.000      0.000
REMARK  Name = 4744
REMARK  4 active torsions:
REMARK  status: ('A' for Active; 'I' for Inactive)
REMARK    1  A    between atoms: N_2  and  C_15
REMARK    2  A    between atoms: C_15  and  C_16
REMARK    3  A    between atoms: C_16  and  C_17
REMARK    4  A    between atoms: C_17  and  N_18
REMARK                            x       y       z     vdW  Elec       q    Type
REMARK                         _______ _______ _______ _____ _____    ______ ____
ROOT
ATOM      1  S   UNL     1      33.626 -10.700 -24.279  0.00  0.00    -0.084 S 
ATOM      2  N   UNL     1      32.791 -13.453 -23.102  0.00  0.00    -0.286 N 
ATOM      3  C   UNL     1      32.419 -12.320 -22.337  0.00  0.00    +0.058 C 
ATOM      4  C   UNL     1      33.084 -13.441 -24.489  0.00  0.00    +0.058 C 
ATOM      5  C   UNL     1      32.719 -11.016 -22.778  0.00  0.00    +0.043 C 
ATOM      6  C   UNL     1      33.451 -12.249 -25.144  0.00  0.00    +0.043 C 
ATOM      7  C   UNL     1      31.701 -12.437 -21.127  0.00  0.00    +0.015 C 
ATOM      8  C   UNL     1      32.988 -14.605 -25.284  0.00  0.00    +0.015 C 
ATOM      9  C   UNL     1      32.341  -9.894 -22.020  0.00  0.00    +0.008 C 
ATOM     10  C   UNL     1      33.733 -12.241 -26.521  0.00  0.00    +0.008 C 
ATOM     11  C   UNL     1      31.323 -11.318 -20.379  0.00  0.00    +0.001 C 
ATOM     12  C   UNL     1      33.266 -14.590 -26.654  0.00  0.00    +0.001 C 
ATOM     13  C   UNL     1      31.646 -10.046 -20.825  0.00  0.00    +0.001 C 
ATOM     14  C   UNL     1      33.641 -13.408 -27.273  0.00  0.00    +0.001 C 
ENDROOT
BRANCH   2  15
ATOM     15  C   UNL     1      32.809 -14.753 -22.419  0.00  0.00    +0.093 C 
BRANCH  15  16
ATOM     16  C   UNL     1      34.219 -15.063 -21.910  0.00  0.00    -0.001 C 
BRANCH  16  17
ATOM     17  C   UNL     1      34.838 -16.292 -22.578  0.00  0.00    -0.076 C 
BRANCH  17  18
ATOM     18  N   UNL     1      35.043 -17.385 -21.631  0.00  0.00    +0.384 N 
ATOM     19  N   UNL     1      35.410 -20.172 -20.951  0.00  0.00    +0.383 N 
ATOM     20  C   UNL     1      36.313 -18.075 -21.896  0.00  0.00    -0.101 C 
ATOM     21  C   UNL     1      33.925 -18.336 -21.681  0.00  0.00    -0.101 C 
ATOM     22  C   UNL     1      36.528 -19.222 -20.902  0.00  0.00    -0.101 C 
ATOM     23  C   UNL     1      34.140 -19.483 -20.688  0.00  0.00    -0.101 C 
ATOM     24  C   UNL     1      35.615 -21.263 -20.002  0.00  0.00    -0.101 C 
ATOM     25  H   UNL     1      35.084 -16.985 -20.693  0.00  0.00    -0.080 HD
ATOM     26  H   UNL     1      35.370 -20.572 -21.888  0.00  0.00    -0.080 HD
ENDBRANCH  17  18
ENDBRANCH  16  17
ENDBRANCH  15  16
ENDBRANCH   2  15
TORSDOF 4
ENDMDL
MODEL 2
REMARK VINA RESULT:      -9.2      1.232      1.768
REMARK  Name = 4744
REMARK  4 active torsions:
REMARK  status: ('A' for Active; 'I' for Inactive)
REMARK    1  A    between atoms: N_2  and  C_15
REMARK    2  A    between atoms: C_15  and  C_16
REMARK    3  A    between atoms: C_16  and  C_17
REMARK    4  A    between atoms: C_17  and  N_18
REMARK                            x       y       z     vdW  Elec       q    Type
REMARK                         _______ _______ _______ _____ _____    ______ ____
ROOT
ATOM      1  S   UNL     1      33.527 -10.545 -24.259  0.00  0.00    -0.084 S 
ATOM      2  N   UNL     1      32.767 -13.195 -22.824  0.00  0.00    -0.286 N 
ATOM      3  C   UNL     1      32.383 -12.004 -22.158  0.00  0.00    +0.058 C 
ATOM      4  C   UNL     1      33.038 -13.303 -24.211  0.00  0.00    +0.058 C 
ATOM      5  C   UNL     1      32.650 -10.740 -22.720  0.00  0.00    +0.043 C 
ATOM      6  C   UNL     1      33.370 -12.168 -24.977  0.00  0.00    +0.043 C 
ATOM      7  C   UNL     1      31.687 -12.025 -20.930  0.00  0.00    +0.015 C 
ATOM      8  C   UNL     1      32.953 -14.536 -24.896  0.00  0.00    +0.015 C 
ATOM      9  C   UNL     1      32.261  -9.562 -22.059  0.00  0.00    +0.008 C 
ATOM     10  C   UNL     1      33.630 -12.280 -26.354  0.00  0.00    +0.008 C 
ATOM     11  C   UNL     1      31.298 -10.850 -20.280  0.00  0.00    +0.001 C 
ATOM     12  C   UNL     1      33.209 -14.640 -26.267  0.00  0.00    +0.001 C 
ATOM     13  C   UNL     1      31.588  -9.618 -20.844  0.00  0.00    +0.001 C 
ATOM     14  C   UNL     1      33.550 -13.511 -26.996  0.00  0.00    +0.001 C 
ENDROOT
BRANCH   2  15
ATOM     15  C   UNL     1      32.822 -14.427 -22.026  0.00  0.00    +0.093 C 
BRANCH  15  16
ATOM     16  C   UNL     1      34.158 -14.518 -21.286  0.00  0.00    -0.001 C 
BRANCH  16  17
ATOM     17  C   UNL     1      34.503 -15.943 -20.849  0.00  0.00    -0.076 C 
BRANCH  17  18
ATOM     18  N   UNL     1      34.300 -16.910 -21.926  0.00  0.00    +0.384 N 
ATOM     19  N   UNL     1      35.198 -18.986 -23.727  0.00  0.00    +0.383 N 
ATOM     20  C   UNL     1      34.545 -18.278 -21.451  0.00  0.00    -0.101 C 
ATOM     21  C   UNL     1      35.166 -16.603 -23.071  0.00  0.00    -0.101 C 
ATOM     22  C   UNL     1      34.333 -19.292 -22.581  0.00  0.00    -0.101 C 
ATOM     23  C   UNL     1      34.955 -17.617 -24.200  0.00  0.00    -0.101 C 
ATOM     24  C   UNL     1      34.993 -19.952 -24.804  0.00  0.00    -0.101 C 
ATOM     25  H   UNL     1      33.328 -16.844 -22.229  0.00  0.00    -0.080 HD
ATOM     26  H   UNL     1      36.169 -19.053 -23.423  0.00  0.00    -0.080 HD
ENDBRANCH  17  18
ENDBRANCH  16  17
ENDBRANCH  15  16
ENDBRANCH   2  15
TORSDOF 4
ENDMDL
MODEL 3
REMARK VINA RESULT:      -9.1      5.856     11.502
REMARK  Name = 4744
REMARK  4 active torsions:
REMARK  status: ('A' for Active; 'I' for Inactive)
REMARK    1  A    between atoms: N_2  and  C_15
REMARK    2  A    between atoms: C_15  and  C_16
REMARK    3  A    between atoms: C_16  and  C_17
REMARK    4  A    between atoms: C_17  and  N_18
REMARK                            x       y       z     vdW  Elec       q    Type
REMARK                         _______ _______ _______ _____ _____    ______ ____
ROOT
ATOM      1  S   UNL     1      33.284 -24.102 -13.550  0.00  0.00    -0.084 S 
ATOM      2  N   UNL     1      33.596 -23.400 -16.562  0.00  0.00    -0.286 N 
ATOM      3  C   UNL     1      32.282 -23.297 -16.040  0.00  0.00    +0.058 C 
ATOM      4  C   UNL     1      34.785 -23.349 -15.793  0.00  0.00    +0.058 C 
ATOM      5  C   UNL     1      32.017 -23.566 -14.683  0.00  0.00    +0.043 C 
ATOM      6  C   UNL     1      34.769 -23.624 -14.411  0.00  0.00    +0.043 C 
ATOM      7  C   UNL     1      31.190 -22.887 -16.836  0.00  0.00    +0.015 C 
ATOM      8  C   UNL     1      36.028 -22.989 -16.360  0.00  0.00    +0.015 C 
ATOM      9  C   UNL     1      30.714 -23.455 -14.168  0.00  0.00    +0.008 C 
ATOM     10  C   UNL     1      35.951 -23.565 -13.651  0.00  0.00    +0.008 C 
ATOM     11  C   UNL     1      29.897 -22.774 -16.318  0.00  0.00    +0.001 C 
ATOM     12  C   UNL     1      37.199 -22.928 -15.599  0.00  0.00    +0.001 C 
ATOM     13  C   UNL     1      29.659 -23.061 -14.983  0.00  0.00    +0.001 C 
ATOM     14  C   UNL     1      37.161 -23.219 -14.244  0.00  0.00    +0.001 C 
ENDROOT
BRANCH   2  15
ATOM     15  C   UNL     1      33.737 -23.497 -18.021  0.00  0.00    +0.093 C 
BRANCH  15  16
ATOM     16  C   UNL     1      34.002 -22.115 -18.620  0.00  0.00    -0.001 C 
BRANCH  16  17
ATOM     17  C   UNL     1      35.202 -22.095 -19.570  0.00  0.00    -0.076 C 
BRANCH  17  18
ATOM     18  N   UNL     1      35.181 -20.931 -20.453  0.00  0.00    +0.384 N 
ATOM     19  N   UNL     1      35.068 -18.088 -20.967  0.00  0.00    +0.383 N 
ATOM     20  C   UNL     1      36.338 -20.063 -20.199  0.00  0.00    -0.101 C 
ATOM     21  C   UNL     1      33.931 -20.178 -20.294  0.00  0.00    -0.101 C 
ATOM     22  C   UNL     1      36.317 -18.842 -21.125  0.00  0.00    -0.101 C 
ATOM     23  C   UNL     1      33.910 -18.956 -21.219  0.00  0.00    -0.101 C 
ATOM     24  C   UNL     1      35.047 -16.926 -21.852  0.00  0.00    -0.101 C 
ATOM     25  H   UNL     1      35.236 -21.266 -21.416  0.00  0.00    -0.080 HD
ATOM     26  H   UNL     1      35.014 -17.754 -20.005  0.00  0.00    -0.080 HD
ENDBRANCH  17  18
ENDBRANCH  16  17
ENDBRANCH  15  16
ENDBRANCH   2  15
TORSDOF 4
ENDMDL
MODEL 4
REMARK VINA RESULT:      -9.1      4.105      6.612
REMARK  Name = 4744
REMARK  4 active torsions:
REMARK  status: ('A' for Active; 'I' for Inactive)
REMARK    1  A    between atoms: N_2  and  C_15
REMARK    2  A    between atoms: C_15  and  C_16
REMARK    3  A    between atoms: C_16  and  C_17
REMARK    4  A    between atoms: C_17  and  N_18
REMARK                            x       y       z     vdW  Elec       q    Type
REMARK                         _______ _______ _______ _____ _____    ______ ____
ROOT
ATOM      1  S   UNL     1      32.216  -7.244 -20.039  0.00  0.00    -0.084 S 
ATOM      2  N   UNL     1      31.984  -8.720 -22.765  0.00  0.00    -0.286 N 
ATOM      3  C   UNL     1      31.876  -9.538 -21.612  0.00  0.00    +0.058 C 
ATOM      4  C   UNL     1      31.744  -7.323 -22.800  0.00  0.00    +0.058 C 
ATOM      5  C   UNL     1      31.942  -8.982 -20.319  0.00  0.00    +0.043 C 
ATOM      6  C   UNL     1      31.796  -6.548 -21.625  0.00  0.00    +0.043 C 
ATOM      7  C   UNL     1      31.662 -10.931 -21.701  0.00  0.00    +0.015 C 
ATOM      8  C   UNL     1      31.407  -6.652 -23.996  0.00  0.00    +0.015 C 
ATOM      9  C   UNL     1      31.826  -9.796 -19.179  0.00  0.00    +0.008 C 
ATOM     10  C   UNL     1      31.548  -5.164 -21.664  0.00  0.00    +0.008 C 
ATOM     11  C   UNL     1      31.543 -11.735 -20.563  0.00  0.00    +0.001 C 
ATOM     12  C   UNL     1      31.158  -5.277 -24.028  0.00  0.00    +0.001 C 
ATOM     13  C   UNL     1      31.628 -11.167 -19.302  0.00  0.00    +0.001 C 
ATOM     14  C   UNL     1      31.231  -4.532 -22.861  0.00  0.00    +0.001 C 
ENDROOT
BRANCH   2  15
ATOM     15  C   UNL     1      32.305  -9.383 -24.036  0.00  0.00    +0.093 C 
BRANCH  15  16
ATOM     16  C   UNL     1      33.808  -9.301 -24.310  0.00  0.00    -0.001 C 
BRANCH  16  17
ATOM     17  C   UNL     1      34.514 -10.652 -24.172  0.00  0.00    -0.076 C 
BRANCH  17  18
ATOM     18  N   UNL     1      33.725 -11.742 -24.743  0.00  0.00    +0.384 N 
ATOM     19  N   UNL     1      33.433 -14.353 -25.950  0.00  0.00    +0.383 N 
ATOM     20  C   UNL     1      33.885 -12.970 -23.953  0.00  0.00    -0.101 C 
ATOM     21  C   UNL     1      34.101 -11.981 -26.142  0.00  0.00    -0.101 C 
ATOM     22  C   UNL     1      33.059 -14.114 -24.551  0.00  0.00    -0.101 C 
ATOM     23  C   UNL     1      33.276 -13.125 -26.740  0.00  0.00    -0.101 C 
ATOM     24  C   UNL     1      32.643 -15.442 -26.520  0.00  0.00    -0.101 C 
ATOM     25  H   UNL     1      32.743 -11.468 -24.715  0.00  0.00    -0.080 HD
ATOM     26  H   UNL     1      34.415 -14.628 -25.977  0.00  0.00    -0.080 HD
ENDBRANCH  17  18
ENDBRANCH  16  17
ENDBRANCH  15  16
ENDBRANCH   2  15
TORSDOF 4
ENDMDL
MODEL 5
REMARK VINA RESULT:      -9.0      2.736      5.675
REMARK  Name = 4744
REMARK  4 active torsions:
REMARK  status: ('A' for Active; 'I' for Inactive)
REMARK    1  A    between atoms: N_2  and  C_15
REMARK    2  A    between atoms: C_15  and  C_16
REMARK    3  A    between atoms: C_16  and  C_17
REMARK    4  A    between atoms: C_17  and  N_18
REMARK                            x       y       z     vdW  Elec       q    Type
REMARK                         _______ _______ _______ _____ _____    ______ ____
ROOT
ATOM      1  S   UNL     1      32.403  -7.329 -20.265  0.00  0.00    -0.084 S 
ATOM      2  N   UNL     1      31.927  -9.085 -22.785  0.00  0.00    -0.286 N 
ATOM      3  C   UNL     1      31.814  -9.753 -21.540  0.00  0.00    +0.058 C 
ATOM      4  C   UNL     1      31.790  -7.687 -22.976  0.00  0.00    +0.058 C 
ATOM      5  C   UNL     1      31.984  -9.060 -20.326  0.00  0.00    +0.043 C 
ATOM      6  C   UNL     1      31.958  -6.788 -21.904  0.00  0.00    +0.043 C 
ATOM      7  C   UNL     1      31.491 -11.125 -21.454  0.00  0.00    +0.015 C 
ATOM      8  C   UNL     1      31.446  -7.133 -24.228  0.00  0.00    +0.015 C 
ATOM      9  C   UNL     1      31.864  -9.725 -19.093  0.00  0.00    +0.008 C 
ATOM     10  C   UNL     1      31.814  -5.403 -22.097  0.00  0.00    +0.008 C 
ATOM     11  C   UNL     1      31.368 -11.781 -20.226  0.00  0.00    +0.001 C 
ATOM     12  C   UNL     1      31.301  -5.755 -24.413  0.00  0.00    +0.001 C 
ATOM     13  C   UNL     1      31.557 -11.081 -19.045  0.00  0.00    +0.001 C 
ATOM     14  C   UNL     1      31.487  -4.889 -23.347  0.00  0.00    +0.001 C 
ENDROOT
BRANCH   2  15
ATOM     15  C   UNL     1      32.133  -9.913 -23.980  0.00  0.00    +0.093 C 
BRANCH  15  16
ATOM     16  C   UNL     1      33.520 -10.557 -23.944  0.00  0.00    -0.001 C 
BRANCH  16  17
ATOM     17  C   UNL     1      33.716 -11.617 -25.030  0.00  0.00    -0.076 C 
BRANCH  17  18
ATOM     18  N   UNL     1      34.121 -12.905 -24.472  0.00  0.00    +0.384 N 
ATOM     19  N   UNL     1      33.614 -15.370 -23.048  0.00  0.00    +0.383 N 
ATOM     20  C   UNL     1      33.366 -14.002 -25.091  0.00  0.00    -0.101 C 
ATOM     21  C   UNL     1      33.944 -12.921 -23.015  0.00  0.00    -0.101 C 
ATOM     22  C   UNL     1      33.790 -15.354 -24.505  0.00  0.00    -0.101 C 
ATOM     23  C   UNL     1      34.367 -14.272 -22.428  0.00  0.00    -0.101 C 
ATOM     24  C   UNL     1      34.021 -16.658 -22.490  0.00  0.00    -0.101 C 
ATOM     25  H   UNL     1      35.111 -13.040 -24.678  0.00  0.00    -0.080 HD
ATOM     26  H   UNL     1      32.624 -15.236 -22.843  0.00  0.00    -0.080 HD
ENDBRANCH  17  18
ENDBRANCH  16  17
ENDBRANCH  15  16
ENDBRANCH   2  15
TORSDOF 4
ENDMDL
MODEL 6
REMARK VINA RESULT:      -8.9      2.322      6.984
REMARK  Name = 4744
REMARK  4 active torsions:
REMARK  status: ('A' for Active; 'I' for Inactive)
REMARK    1  A    between atoms: N_2  and  C_15
REMARK    2  A    between atoms: C_15  and  C_16
REMARK    3  A    between atoms: C_16  and  C_17
REMARK    4  A    between atoms: C_17  and  N_18
REMARK                            x       y       z     vdW  Elec       q    Type
REMARK                         _______ _______ _______ _____ _____    ______ ____
ROOT
ATOM      1  S   UNL     1      33.475 -16.470 -25.669  0.00  0.00    -0.084 S 
ATOM      2  N   UNL     1      34.009 -14.580 -23.260  0.00  0.00    -0.286 N 
ATOM      3  C   UNL     1      34.432 -15.922 -23.093  0.00  0.00    +0.058 C 
ATOM      4  C   UNL     1      33.796 -13.941 -24.506  0.00  0.00    +0.058 C 
ATOM      5  C   UNL     1      34.267 -16.869 -24.123  0.00  0.00    +0.043 C 
ATOM      6  C   UNL     1      33.567 -14.690 -25.677  0.00  0.00    +0.043 C 
ATOM      7  C   UNL     1      35.069 -16.365 -21.913  0.00  0.00    +0.015 C 
ATOM      8  C   UNL     1      33.838 -12.535 -24.644  0.00  0.00    +0.015 C 
ATOM      9  C   UNL     1      34.696 -18.197 -23.956  0.00  0.00    +0.008 C 
ATOM     10  C   UNL     1      33.364 -14.051 -26.914  0.00  0.00    +0.008 C 
ATOM     11  C   UNL     1      35.497 -17.686 -21.754  0.00  0.00    +0.001 C 
ATOM     12  C   UNL     1      33.639 -11.906 -25.876  0.00  0.00    +0.001 C 
ATOM     13  C   UNL     1      35.308 -18.603 -22.775  0.00  0.00    +0.001 C 
ATOM     14  C   UNL     1      33.400 -12.664 -27.011  0.00  0.00    +0.001 C 
ENDROOT
BRANCH   2  15
ATOM     15  C   UNL     1      33.844 -13.768 -22.047  0.00  0.00    +0.093 C 
BRANCH  15  16
ATOM     16  C   UNL     1      32.403 -13.862 -21.540  0.00  0.00    -0.001 C 
BRANCH  16  17
ATOM     17  C   UNL     1      31.548 -12.660 -21.948  0.00  0.00    -0.076 C 
BRANCH  17  18
ATOM     18  N   UNL     1      32.100 -11.401 -21.451  0.00  0.00    +0.384 N 
ATOM     19  N   UNL     1      31.892  -8.623 -20.677  0.00  0.00    +0.383 N 
ATOM     20  C   UNL     1      31.451 -11.006 -20.195  0.00  0.00    -0.101 C 
ATOM     21  C   UNL     1      31.963 -10.339 -22.455  0.00  0.00    -0.101 C 
ATOM     22  C   UNL     1      32.030  -9.686 -19.674  0.00  0.00    -0.101 C 
ATOM     23  C   UNL     1      32.540  -9.019 -21.935  0.00  0.00    -0.101 C 
ATOM     24  C   UNL     1      32.447  -7.366 -20.181  0.00  0.00    -0.101 C 
ATOM     25  H   UNL     1      33.094 -11.545 -21.268  0.00  0.00    -0.080 HD
ATOM     26  H   UNL     1      30.899  -8.480 -20.860  0.00  0.00    -0.080 HD
ENDBRANCH  17  18
ENDBRANCH  16  17
ENDBRANCH  15  16
ENDBRANCH   2  15
TORSDOF 4
ENDMDL
MODEL 7
REMARK VINA RESULT:      -8.9      1.787      4.458
REMARK  Name = 4744
REMARK  4 active torsions:
REMARK  status: ('A' for Active; 'I' for Inactive)
REMARK    1  A    between atoms: N_2  and  C_15
REMARK    2  A    between atoms: C_15  and  C_16
REMARK    3  A    between atoms: C_16  and  C_17
REMARK    4  A    between atoms: C_17  and  N_18
REMARK                            x       y       z     vdW  Elec       q    Type
REMARK                         _______ _______ _______ _____ _____    ______ ____
ROOT
ATOM      1  S   UNL     1      32.912  -8.302 -22.412  0.00  0.00    -0.084 S 
ATOM      2  N   UNL     1      32.549 -11.356 -22.864  0.00  0.00    -0.286 N 
ATOM      3  C   UNL     1      33.458 -10.709 -23.738  0.00  0.00    +0.058 C 
ATOM      4  C   UNL     1      32.157 -10.873 -21.590  0.00  0.00    +0.058 C 
ATOM      5  C   UNL     1      33.726  -9.331 -23.617  0.00  0.00    +0.043 C 
ATOM      6  C   UNL     1      32.296  -9.511 -21.256  0.00  0.00    +0.043 C 
ATOM      7  C   UNL     1      34.163 -11.413 -24.738  0.00  0.00    +0.015 C 
ATOM      8  C   UNL     1      31.649 -11.729 -20.589  0.00  0.00    +0.015 C 
ATOM      9  C   UNL     1      34.635  -8.696 -24.481  0.00  0.00    +0.008 C 
ATOM     10  C   UNL     1      31.914  -9.038 -19.988  0.00  0.00    +0.008 C 
ATOM     11  C   UNL     1      35.070 -10.777 -25.592  0.00  0.00    +0.001 C 
ATOM     12  C   UNL     1      31.275 -11.254 -19.329  0.00  0.00    +0.001 C 
ATOM     13  C   UNL     1      35.304  -9.417 -25.464  0.00  0.00    +0.001 C 
ATOM     14  C   UNL     1      31.405  -9.907 -19.029  0.00  0.00    +0.001 C 
ENDROOT
BRANCH   2  15
ATOM     15  C   UNL     1      32.022 -12.662 -23.283  0.00  0.00    +0.093 C 
BRANCH  15  16
ATOM     16  C   UNL     1      32.820 -13.788 -22.622  0.00  0.00    -0.001 C 
BRANCH  16  17
ATOM     17  C   UNL     1      33.481 -14.725 -23.636  0.00  0.00    -0.076 C 
BRANCH  17  18
ATOM     18  N   UNL     1      34.425 -15.641 -22.999  0.00  0.00    +0.384 N 
ATOM     19  N   UNL     1      35.132 -18.143 -21.734  0.00  0.00    +0.383 N 
ATOM     20  C   UNL     1      34.554 -16.880 -23.778  0.00  0.00    -0.101 C 
ATOM     21  C   UNL     1      34.012 -15.943 -21.623  0.00  0.00    -0.101 C 
ATOM     22  C   UNL     1      35.544 -17.842 -23.110  0.00  0.00    -0.101 C 
ATOM     23  C   UNL     1      35.000 -16.904 -20.956  0.00  0.00    -0.101 C 
ATOM     24  C   UNL     1      36.077 -19.058 -21.098  0.00  0.00    -0.101 C 
ATOM     25  H   UNL     1      35.336 -15.184 -22.970  0.00  0.00    -0.080 HD
ATOM     26  H   UNL     1      34.221 -18.601 -21.764  0.00  0.00    -0.080 HD
ENDBRANCH  17  18
ENDBRANCH  16  17
ENDBRANCH  15  16
ENDBRANCH   2  15
TORSDOF 4
ENDMDL
MODEL 8
REMARK VINA RESULT:      -8.8      9.905     12.909
REMARK  Name = 4744
REMARK  4 active torsions:
REMARK  status: ('A' for Active; 'I' for Inactive)
REMARK    1  A    between atoms: N_2  and  C_15
REMARK    2  A    between atoms: C_15  and  C_16
REMARK    3  A    between atoms: C_16  and  C_17
REMARK    4  A    between atoms: C_17  and  N_18
REMARK                            x       y       z     vdW  Elec       q    Type
REMARK                         _______ _______ _______ _____ _____    ______ ____
ROOT
ATOM      1  S   UNL     1      37.372 -22.801 -15.686  0.00  0.00    -0.084 S 
ATOM      2  N   UNL     1      34.566 -23.918 -14.952  0.00  0.00    -0.286 N 
ATOM      3  C   UNL     1      35.449 -23.712 -13.863  0.00  0.00    +0.058 C 
ATOM      4  C   UNL     1      34.662 -23.277 -16.213  0.00  0.00    +0.058 C 
ATOM      5  C   UNL     1      36.740 -23.187 -14.065  0.00  0.00    +0.043 C 
ATOM      6  C   UNL     1      35.875 -22.709 -16.648  0.00  0.00    +0.043 C 
ATOM      7  C   UNL     1      35.069 -23.983 -12.530  0.00  0.00    +0.015 C 
ATOM      8  C   UNL     1      33.548 -23.144 -17.071  0.00  0.00    +0.015 C 
ATOM      9  C   UNL     1      37.610 -22.977 -12.980  0.00  0.00    +0.008 C 
ATOM     10  C   UNL     1      35.963 -22.068 -17.897  0.00  0.00    +0.008 C 
ATOM     11  C   UNL     1      35.936 -23.767 -11.455  0.00  0.00    +0.001 C 
ATOM     12  C   UNL     1      33.640 -22.502 -18.310  0.00  0.00    +0.001 C 
ATOM     13  C   UNL     1      37.209 -23.266 -11.681  0.00  0.00    +0.001 C 
ATOM     14  C   UNL     1      34.849 -21.965 -18.724  0.00  0.00    +0.001 C 
ENDROOT
BRANCH   2  15
ATOM     15  C   UNL     1      33.423 -24.814 -14.735  0.00  0.00    +0.093 C 
BRANCH  15  16
ATOM     16  C   UNL     1      32.316 -24.084 -13.971  0.00  0.00    -0.001 C 
BRANCH  16  17
ATOM     17  C   UNL     1      31.061 -24.937 -13.777  0.00  0.00    -0.076 C 
BRANCH  17  18
ATOM     18  N   UNL     1      29.905 -24.376 -14.472  0.00  0.00    +0.384 N 
ATOM     19  N   UNL     1      28.643 -23.005 -16.683  0.00  0.00    +0.383 N 
ATOM     20  C   UNL     1      29.700 -25.041 -15.765  0.00  0.00    -0.101 C 
ATOM     21  C   UNL     1      30.062 -22.928 -14.660  0.00  0.00    -0.101 C 
ATOM     22  C   UNL     1      28.487 -24.452 -16.494  0.00  0.00    -0.101 C 
ATOM     23  C   UNL     1      28.851 -22.339 -15.390  0.00  0.00    -0.101 C 
ATOM     24  C   UNL     1      27.486 -22.444 -17.376  0.00  0.00    -0.101 C 
ATOM     25  H   UNL     1      29.080 -24.538 -13.893  0.00  0.00    -0.080 HD
ATOM     26  H   UNL     1      29.467 -22.843 -17.262  0.00  0.00    -0.080 HD
ENDBRANCH  17  18
ENDBRANCH  16  17
ENDBRANCH  15  16
ENDBRANCH   2  15
TORSDOF 4
ENDMDL
MODEL 9
REMARK VINA RESULT:      -8.6      9.577     13.073
REMARK  Name = 4744
REMARK  4 active torsions:
REMARK  status: ('A' for Active; 'I' for Inactive)
REMARK    1  A    between atoms: N_2  and  C_15
REMARK    2  A    between atoms: C_15  and  C_16
REMARK    3  A    between atoms: C_16  and  C_17
REMARK    4  A    between atoms: C_17  and  N_18
REMARK                            x       y       z     vdW  Elec       q    Type
REMARK                         _______ _______ _______ _____ _____    ______ ____
ROOT
ATOM      1  S   UNL     1      37.483 -22.417 -16.217  0.00  0.00    -0.084 S 
ATOM      2  N   UNL     1      34.943 -24.072 -15.533  0.00  0.00    -0.286 N 
ATOM      3  C   UNL     1      34.860 -23.273 -16.701  0.00  0.00    +0.058 C 
ATOM      4  C   UNL     1      36.147 -24.520 -14.935  0.00  0.00    +0.058 C 
ATOM      5  C   UNL     1      35.955 -22.497 -17.129  0.00  0.00    +0.043 C 
ATOM      6  C   UNL     1      37.370 -23.867 -15.187  0.00  0.00    +0.043 C 
ATOM      7  C   UNL     1      33.701 -23.246 -17.508  0.00  0.00    +0.015 C 
ATOM      8  C   UNL     1      36.188 -25.654 -14.094  0.00  0.00    +0.015 C 
ATOM      9  C   UNL     1      35.870 -21.712 -18.293  0.00  0.00    +0.008 C 
ATOM     10  C   UNL     1      38.564 -24.320 -14.597  0.00  0.00    +0.008 C 
ATOM     11  C   UNL     1      33.624 -22.468 -18.667  0.00  0.00    +0.001 C 
ATOM     12  C   UNL     1      37.378 -26.102 -13.513  0.00  0.00    +0.001 C 
ATOM     13  C   UNL     1      34.709 -21.699 -19.057  0.00  0.00    +0.001 C 
ATOM     14  C   UNL     1      38.566 -25.433 -13.763  0.00  0.00    +0.001 C 
ENDROOT
BRANCH   2  15
ATOM     15  C   UNL     1      33.681 -24.527 -14.935  0.00  0.00    +0.093 C 
BRANCH  15  16
ATOM     16  C   UNL     1      33.096 -23.433 -14.039  0.00  0.00    -0.001 C 
BRANCH  16  17
ATOM     17  C   UNL     1      31.850 -23.888 -13.276  0.00  0.00    -0.076 C 
BRANCH  17  18
ATOM     18  N   UNL     1      30.627 -23.661 -14.042  0.00  0.00    +0.384 N 
ATOM     19  N   UNL     1      29.066 -23.698 -16.476  0.00  0.00    +0.383 N 
ATOM     20  C   UNL     1      30.124 -24.920 -14.607  0.00  0.00    -0.101 C 
ATOM     21  C   UNL     1      30.853 -22.677 -15.107  0.00  0.00    -0.101 C 
ATOM     22  C   UNL     1      28.841 -24.682 -15.411  0.00  0.00    -0.101 C 
ATOM     23  C   UNL     1      29.572 -22.439 -15.912  0.00  0.00    -0.101 C 
ATOM     24  C   UNL     1      27.842 -23.470 -17.240  0.00  0.00    -0.101 C 
ATOM     25  H   UNL     1      29.921 -23.290 -13.405  0.00  0.00    -0.080 HD
ATOM     26  H   UNL     1      29.771 -24.069 -17.113  0.00  0.00    -0.080 HD
ENDBRANCH  17  18
ENDBRANCH  16  17
ENDBRANCH  15  16
ENDBRANCH   2  15
TORSDOF 4
ENDMDL
