MODEL 1
REMARK VINA RESULT:      -4.1      0.000      0.000
REMARK  Name = 1004
REMARK  3 active torsions:
REMARK  status: ('A' for Active; 'I' for Inactive)
REMARK    1  A    between atoms: P_1  and  O_3
REMARK    2  A    between atoms: P_1  and  O_5
REMARK    3  A    between atoms: P_1  and  O_7
REMARK                            x       y       z     vdW  Elec       q    Type
REMARK                         _______ _______ _______ _____ _____    ______ ____
ROOT
ATOM      1  P   UNL     1      40.116 -25.924 -14.570  0.00  0.00    +0.470 P 
ATOM      2  O   UNL     1      39.983 -24.602 -13.871  0.00  0.00    -0.228 OA
ENDROOT
BRANCH   1   3
ATOM      3  O   UNL     1      38.802 -26.859 -14.475  0.00  0.00    -0.303 OA
ATOM      4  H   UNL     1      38.340 -26.855 -15.328  0.00  0.00    +0.222 HD
ENDBRANCH   1   3
BRANCH   1   5
ATOM      5  O   UNL     1      40.386 -25.794 -16.159  0.00  0.00    -0.303 OA
ATOM      6  H   UNL     1      40.017 -24.958 -16.482  0.00  0.00    +0.222 HD
ENDBRANCH   1   5
BRANCH   1   7
ATOM      7  O   UNL     1      41.326 -26.842 -14.021  0.00  0.00    -0.303 OA
ATOM      8  H   UNL     1      40.965 -27.561 -13.479  0.00  0.00    +0.222 HD
ENDBRANCH   1   7
TORSDOF 3
ENDMDL
MODEL 2
REMARK VINA RESULT:      -4.1      0.015      1.983
REMARK  Name = 1004
REMARK  3 active torsions:
REMARK  status: ('A' for Active; 'I' for Inactive)
REMARK    1  A    between atoms: P_1  and  O_3
REMARK    2  A    between atoms: P_1  and  O_5
REMARK    3  A    between atoms: P_1  and  O_7
REMARK                            x       y       z     vdW  Elec       q    Type
REMARK                         _______ _______ _______ _____ _____    ______ ____
ROOT
ATOM      1  P   UNL     1      40.113 -25.917 -14.580  0.00  0.00    +0.470 P 
ATOM      2  O   UNL     1      39.964 -24.600 -13.873  0.00  0.00    -0.228 OA
ENDROOT
BRANCH   1   3
ATOM      3  O   UNL     1      41.318 -26.836 -14.023  0.00  0.00    -0.303 OA
ATOM      4  H   UNL     1      42.117 -26.675 -14.549  0.00  0.00    +0.222 HD
ENDBRANCH   1   3
BRANCH   1   5
ATOM      5  O   UNL     1      38.812 -26.868 -14.461  0.00  0.00    -0.303 OA
ATOM      6  H   UNL     1      39.093 -27.793 -14.387  0.00  0.00    +0.222 HD
ENDBRANCH   1   5
BRANCH   1   7
ATOM      7  O   UNL     1      40.383 -25.786 -16.167  0.00  0.00    -0.303 OA
ATOM      8  H   UNL     1      39.589 -25.436 -16.602  0.00  0.00    +0.222 HD
ENDBRANCH   1   7
TORSDOF 3
ENDMDL
MODEL 3
REMARK VINA RESULT:      -4.0      1.193      2.238
REMARK  Name = 1004
REMARK  3 active torsions:
REMARK  status: ('A' for Active; 'I' for Inactive)
REMARK    1  A    between atoms: P_1  and  O_3
REMARK    2  A    between atoms: P_1  and  O_5
REMARK    3  A    between atoms: P_1  and  O_7
REMARK                            x       y       z     vdW  Elec       q    Type
REMARK                         _______ _______ _______ _____ _____    ______ ____
ROOT
ATOM      1  P   UNL     1      39.758 -25.352 -14.820  0.00  0.00    +0.470 P 
ATOM      2  O   UNL     1      38.974 -26.349 -14.017  0.00  0.00    -0.228 OA
ENDROOT
BRANCH   1   3
ATOM      3  O   UNL     1      38.874 -24.138 -15.416  0.00  0.00    -0.303 OA
ATOM      4  H   UNL     1      38.413 -24.436 -16.215  0.00  0.00    +0.222 HD
ENDBRANCH   1   3
BRANCH   1   5
ATOM      5  O   UNL     1      40.920 -24.610 -13.978  0.00  0.00    -0.303 OA
ATOM      6  H   UNL     1      40.998 -25.021 -13.103  0.00  0.00    +0.222 HD
ENDBRANCH   1   5
BRANCH   1   7
ATOM      7  O   UNL     1      40.516 -25.985 -16.098  0.00  0.00    -0.303 OA
ATOM      8  H   UNL     1      41.033 -26.757 -15.817  0.00  0.00    +0.222 HD
ENDBRANCH   1   7
TORSDOF 3
ENDMDL
MODEL 4
REMARK VINA RESULT:      -3.9      0.099      1.991
REMARK  Name = 1004
REMARK  3 active torsions:
REMARK  status: ('A' for Active; 'I' for Inactive)
REMARK    1  A    between atoms: P_1  and  O_3
REMARK    2  A    between atoms: P_1  and  O_5
REMARK    3  A    between atoms: P_1  and  O_7
REMARK                            x       y       z     vdW  Elec       q    Type
REMARK                         _______ _______ _______ _____ _____    ______ ____
ROOT
ATOM      1  P   UNL     1      40.052 -26.066 -14.594  0.00  0.00    +0.470 P 
ATOM      2  O   UNL     1      38.755 -26.800 -14.415  0.00  0.00    -0.228 OA
ENDROOT
BRANCH   1   3
ATOM      3  O   UNL     1      41.343 -26.849 -14.021  0.00  0.00    -0.303 OA
ATOM      4  H   UNL     1      41.904 -27.132 -14.760  0.00  0.00    +0.222 HD
ENDBRANCH   1   3
BRANCH   1   5
ATOM      5  O   UNL     1      40.427 -25.778 -16.140  0.00  0.00    -0.303 OA
ATOM      6  H   UNL     1      41.348 -26.034 -16.302  0.00  0.00    +0.222 HD
ENDBRANCH   1   5
BRANCH   1   7
ATOM      7  O   UNL     1      40.091 -24.615 -13.886  0.00  0.00    -0.303 OA
ATOM      8  H   UNL     1      40.629 -24.664 -13.079  0.00  0.00    +0.222 HD
ENDBRANCH   1   7
TORSDOF 3
ENDMDL
MODEL 5
REMARK VINA RESULT:      -3.9      5.216      6.192
REMARK  Name = 1004
REMARK  3 active torsions:
REMARK  status: ('A' for Active; 'I' for Inactive)
REMARK    1  A    between atoms: P_1  and  O_3
REMARK    2  A    between atoms: P_1  and  O_5
REMARK    3  A    between atoms: P_1  and  O_7
REMARK                            x       y       z     vdW  Elec       q    Type
REMARK                         _______ _______ _______ _____ _____    ______ ____
ROOT
ATOM      1  P   UNL     1      36.020 -24.123 -11.094  0.00  0.00    +0.470 P 
ATOM      2  O   UNL     1      37.141 -23.134 -10.958  0.00  0.00    -0.228 OA
ENDROOT
BRANCH   1   3
ATOM      3  O   UNL     1      36.459 -25.538 -11.738  0.00  0.00    -0.303 OA
ATOM      4  H   UNL     1      35.695 -25.945 -12.177  0.00  0.00    +0.222 HD
ENDBRANCH   1   3
BRANCH   1   5
ATOM      5  O   UNL     1      35.339 -24.531  -9.687  0.00  0.00    -0.303 OA
ATOM      6  H   UNL     1      35.527 -23.846  -9.026  0.00  0.00    +0.222 HD
ENDBRANCH   1   5
BRANCH   1   7
ATOM      7  O   UNL     1      34.794 -23.607 -12.010  0.00  0.00    -0.303 OA
ATOM      8  H   UNL     1      34.114 -23.208 -11.445  0.00  0.00    +0.222 HD
ENDBRANCH   1   7
TORSDOF 3
ENDMDL
MODEL 6
REMARK VINA RESULT:      -3.9      5.213      5.915
REMARK  Name = 1004
REMARK  3 active torsions:
REMARK  status: ('A' for Active; 'I' for Inactive)
REMARK    1  A    between atoms: P_1  and  O_3
REMARK    2  A    between atoms: P_1  and  O_5
REMARK    3  A    between atoms: P_1  and  O_7
REMARK                            x       y       z     vdW  Elec       q    Type
REMARK                         _______ _______ _______ _____ _____    ______ ____
ROOT
ATOM      1  P   UNL     1      36.027 -24.131 -11.089  0.00  0.00    +0.470 P 
ATOM      2  O   UNL     1      37.144 -23.136 -10.964  0.00  0.00    -0.228 OA
ENDROOT
BRANCH   1   3
ATOM      3  O   UNL     1      35.332 -24.528  -9.686  0.00  0.00    -0.303 OA
ATOM      4  H   UNL     1      34.687 -23.846  -9.440  0.00  0.00    +0.222 HD
ENDBRANCH   1   3
BRANCH   1   5
ATOM      5  O   UNL     1      34.796 -23.612 -11.999  0.00  0.00    -0.303 OA
ATOM      6  H   UNL     1      34.037 -24.205 -11.884  0.00  0.00    +0.222 HD
ENDBRANCH   1   5
BRANCH   1   7
ATOM      7  O   UNL     1      36.466 -25.536 -11.753  0.00  0.00    -0.303 OA
ATOM      8  H   UNL     1      36.348 -26.250 -11.106  0.00  0.00    +0.222 HD
ENDBRANCH   1   7
TORSDOF 3
ENDMDL
MODEL 7
REMARK VINA RESULT:      -3.8     12.245     13.041
REMARK  Name = 1004
REMARK  3 active torsions:
REMARK  status: ('A' for Active; 'I' for Inactive)
REMARK    1  A    between atoms: P_1  and  O_3
REMARK    2  A    between atoms: P_1  and  O_5
REMARK    3  A    between atoms: P_1  and  O_7
REMARK                            x       y       z     vdW  Elec       q    Type
REMARK                         _______ _______ _______ _____ _____    ______ ____
ROOT
ATOM      1  P   UNL     1      27.837 -22.645 -16.794  0.00  0.00    +0.470 P 
ATOM      2  O   UNL     1      27.482 -22.845 -15.349  0.00  0.00    -0.228 OA
ENDROOT
BRANCH   1   3
ATOM      3  O   UNL     1      27.051 -21.428 -17.508  0.00  0.00    -0.303 OA
ATOM      4  H   UNL     1      27.504 -21.191 -18.333  0.00  0.00    +0.222 HD
ENDBRANCH   1   3
BRANCH   1   5
ATOM      5  O   UNL     1      29.397 -22.296 -17.037  0.00  0.00    -0.303 OA
ATOM      6  H   UNL     1      29.504 -21.336 -17.122  0.00  0.00    +0.222 HD
ENDBRANCH   1   5
BRANCH   1   7
ATOM      7  O   UNL     1      27.555 -23.933 -17.727  0.00  0.00    -0.303 OA
ATOM      8  H   UNL     1      26.597 -24.058 -17.823  0.00  0.00    +0.222 HD
ENDBRANCH   1   7
TORSDOF 3
ENDMDL
MODEL 8
REMARK VINA RESULT:      -3.8      5.222      5.989
REMARK  Name = 1004
REMARK  3 active torsions:
REMARK  status: ('A' for Active; 'I' for Inactive)
REMARK    1  A    between atoms: P_1  and  O_3
REMARK    2  A    between atoms: P_1  and  O_5
REMARK    3  A    between atoms: P_1  and  O_7
REMARK                            x       y       z     vdW  Elec       q    Type
REMARK                         _______ _______ _______ _____ _____    ______ ____
ROOT
ATOM      1  P   UNL     1      35.914 -24.233 -10.998  0.00  0.00    +0.470 P 
ATOM      2  O   UNL     1      35.340 -24.533  -9.644  0.00  0.00    -0.228 OA
ENDROOT
BRANCH   1   3
ATOM      3  O   UNL     1      34.860 -23.585 -12.037  0.00  0.00    -0.303 OA
ATOM      4  H   UNL     1      33.959 -23.844 -11.787  0.00  0.00    +0.222 HD
ENDBRANCH   1   3
BRANCH   1   5
ATOM      5  O   UNL     1      37.131 -23.169 -10.966  0.00  0.00    -0.303 OA
ATOM      6  H   UNL     1      37.932 -23.604 -10.636  0.00  0.00    +0.222 HD
ENDBRANCH   1   5
BRANCH   1   7
ATOM      7  O   UNL     1      36.516 -25.523 -11.760  0.00  0.00    -0.303 OA
ATOM      8  H   UNL     1      36.115 -26.329 -11.397  0.00  0.00    +0.222 HD
ENDBRANCH   1   7
TORSDOF 3
ENDMDL
MODEL 9
REMARK VINA RESULT:      -3.8     12.272     13.145
REMARK  Name = 1004
REMARK  3 active torsions:
REMARK  status: ('A' for Active; 'I' for Inactive)
REMARK    1  A    between atoms: P_1  and  O_3
REMARK    2  A    between atoms: P_1  and  O_5
REMARK    3  A    between atoms: P_1  and  O_7
REMARK                            x       y       z     vdW  Elec       q    Type
REMARK                         _______ _______ _______ _____ _____    ______ ____
ROOT
ATOM      1  P   UNL     1      27.821 -22.717 -16.941  0.00  0.00    +0.470 P 
ATOM      2  O   UNL     1      27.530 -23.986 -17.687  0.00  0.00    -0.228 OA
ENDROOT
BRANCH   1   3
ATOM      3  O   UNL     1      29.371 -22.262 -16.984  0.00  0.00    -0.303 OA
ATOM      4  H   UNL     1      29.490 -21.584 -17.667  0.00  0.00    +0.222 HD
ENDBRANCH   1   3
BRANCH   1   5
ATOM      5  O   UNL     1      27.024 -21.431 -17.510  0.00  0.00    -0.303 OA
ATOM      6  H   UNL     1      26.890 -21.531 -18.465  0.00  0.00    +0.222 HD
ENDBRANCH   1   5
BRANCH   1   7
ATOM      7  O   UNL     1      27.444 -22.773 -15.372  0.00  0.00    -0.303 OA
ATOM      8  H   UNL     1      26.837 -22.047 -15.159  0.00  0.00    +0.222 HD
ENDBRANCH   1   7
TORSDOF 3
ENDMDL
