MODEL 1
REMARK VINA RESULT:      -8.1      0.000      0.000
REMARK  Name = 11708451
REMARK  3 active torsions:
REMARK  status: ('A' for Active; 'I' for Inactive)
REMARK    1  A    between atoms: C_3  and  C_9
REMARK    2  A    between atoms: C_10  and  C_13
REMARK    3  A    between atoms: N_12  and  O_15
REMARK                            x       y       z     vdW  Elec       q    Type
REMARK                         _______ _______ _______ _____ _____    ______ ____
ROOT
ATOM      1 CL   UNL     1      37.038 -19.819 -20.588  0.00  0.00    -0.082 Cl
ATOM      2 CL   UNL     1      33.605 -23.183 -18.178  0.00  0.00    -0.082 Cl
ATOM      3  C   UNL     1      34.323 -19.632 -20.865  0.00  0.00    +0.011 C 
ATOM      4  C   UNL     1      35.404 -20.304 -20.296  0.00  0.00    +0.058 C 
ATOM      5  C   UNL     1      33.020 -20.057 -20.604  0.00  0.00    +0.002 C 
ATOM      6  C   UNL     1      35.183 -21.402 -19.465  0.00  0.00    +0.023 C 
ATOM      7  C   UNL     1      32.800 -21.155 -19.772  0.00  0.00    +0.011 C 
ATOM      8  C   UNL     1      33.880 -21.828 -19.202  0.00  0.00    +0.059 C 
ENDROOT
BRANCH   3   9
ATOM      9  C   UNL     1      34.499 -18.479 -21.741  0.00  0.00    +0.006 C 
ATOM     10  C   UNL     1      34.786 -18.540 -23.058  0.00  0.00    +0.060 C 
BRANCH  10  13
ATOM     11  O   UNL     1      35.450 -16.274 -23.410  0.00  0.00    -0.268 OA
ATOM     12  N   UNL     1      34.433 -17.441 -25.126  0.00  0.00    -0.193 N 
ATOM     13  C   UNL     1      34.934 -17.293 -23.858  0.00  0.00    +0.268 C 
ATOM     14  H   UNL     1      34.028 -18.284 -25.433  0.00  0.00    +0.183 HD
BRANCH  12  15
ATOM     15  O   UNL     1      34.533 -16.315 -25.954  0.00  0.00    -0.295 OA
ATOM     16  H   UNL     1      34.818 -16.590 -26.840  0.00  0.00    +0.241 HD
ENDBRANCH  12  15
ENDBRANCH  10  13
ENDBRANCH   3   9
TORSDOF 3
ENDMDL
MODEL 2
REMARK VINA RESULT:      -7.8      4.228      6.234
REMARK  Name = 11708451
REMARK  3 active torsions:
REMARK  status: ('A' for Active; 'I' for Inactive)
REMARK    1  A    between atoms: C_3  and  C_9
REMARK    2  A    between atoms: C_10  and  C_13
REMARK    3  A    between atoms: N_12  and  O_15
REMARK                            x       y       z     vdW  Elec       q    Type
REMARK                         _______ _______ _______ _____ _____    ______ ____
ROOT
ATOM      1 CL   UNL     1      34.768 -16.003 -20.699  0.00  0.00    -0.082 Cl
ATOM      2 CL   UNL     1      33.650 -15.445 -25.928  0.00  0.00    -0.082 Cl
ATOM      3  C   UNL     1      35.078 -18.025 -22.514  0.00  0.00    +0.011 C 
ATOM      4  C   UNL     1      34.704 -16.702 -22.279  0.00  0.00    +0.058 C 
ATOM      5  C   UNL     1      35.010 -18.550 -23.805  0.00  0.00    +0.002 C 
ATOM      6  C   UNL     1      34.263 -15.904 -23.334  0.00  0.00    +0.023 C 
ATOM      7  C   UNL     1      34.569 -17.751 -24.860  0.00  0.00    +0.011 C 
ATOM      8  C   UNL     1      34.196 -16.428 -24.625  0.00  0.00    +0.059 C 
ENDROOT
BRANCH   3   9
ATOM      9  C   UNL     1      35.546 -18.903 -21.447  0.00  0.00    +0.006 C 
ATOM     10  C   UNL     1      34.867 -19.962 -20.960  0.00  0.00    +0.060 C 
BRANCH  10  13
ATOM     11  O   UNL     1      36.565 -20.591 -19.403  0.00  0.00    -0.268 OA
ATOM     12  N   UNL     1      34.589 -21.789 -19.478  0.00  0.00    -0.193 N 
ATOM     13  C   UNL     1      35.450 -20.796 -19.871  0.00  0.00    +0.268 C 
ATOM     14  H   UNL     1      33.704 -21.909 -19.891  0.00  0.00    +0.183 HD
BRANCH  12  15
ATOM     15  O   UNL     1      35.054 -22.624 -18.452  0.00  0.00    -0.295 OA
ATOM     16  H   UNL     1      35.145 -23.529 -18.788  0.00  0.00    +0.241 HD
ENDBRANCH  12  15
ENDBRANCH  10  13
ENDBRANCH   3   9
TORSDOF 3
ENDMDL
MODEL 3
REMARK VINA RESULT:      -7.7      4.240      6.190
REMARK  Name = 11708451
REMARK  3 active torsions:
REMARK  status: ('A' for Active; 'I' for Inactive)
REMARK    1  A    between atoms: C_3  and  C_9
REMARK    2  A    between atoms: C_10  and  C_13
REMARK    3  A    between atoms: N_12  and  O_15
REMARK                            x       y       z     vdW  Elec       q    Type
REMARK                         _______ _______ _______ _____ _____    ______ ____
ROOT
ATOM      1 CL   UNL     1      34.950 -19.137 -24.068  0.00  0.00    -0.082 Cl
ATOM      2 CL   UNL     1      34.213 -13.818 -23.799  0.00  0.00    -0.082 Cl
ATOM      3  C   UNL     1      34.502 -17.810 -21.719  0.00  0.00    +0.011 C 
ATOM      4  C   UNL     1      34.652 -17.734 -23.103  0.00  0.00    +0.058 C 
ATOM      5  C   UNL     1      34.263 -16.653 -20.978  0.00  0.00    +0.002 C 
ATOM      6  C   UNL     1      34.563 -16.500 -23.747  0.00  0.00    +0.023 C 
ATOM      7  C   UNL     1      34.174 -15.419 -21.622  0.00  0.00    +0.011 C 
ATOM      8  C   UNL     1      34.322 -15.342 -23.007  0.00  0.00    +0.059 C 
ENDROOT
BRANCH   3   9
ATOM      9  C   UNL     1      34.587 -19.074 -20.996  0.00  0.00    +0.006 C 
ATOM     10  C   UNL     1      33.533 -19.840 -20.645  0.00  0.00    +0.060 C 
BRANCH  10  13
ATOM     11  O   UNL     1      32.835 -21.924 -19.712  0.00  0.00    -0.268 OA
ATOM     12  N   UNL     1      35.045 -21.273 -19.517  0.00  0.00    -0.193 N 
ATOM     13  C   UNL     1      33.740 -21.122 -19.914  0.00  0.00    +0.268 C 
ATOM     14  H   UNL     1      35.732 -20.594 -19.706  0.00  0.00    +0.183 HD
BRANCH  12  15
ATOM     15  O   UNL     1      35.334 -22.456 -18.824  0.00  0.00    -0.295 OA
ATOM     16  H   UNL     1      36.242 -22.734 -19.024  0.00  0.00    +0.241 HD
ENDBRANCH  12  15
ENDBRANCH  10  13
ENDBRANCH   3   9
TORSDOF 3
ENDMDL
MODEL 4
REMARK VINA RESULT:      -7.6      1.423      1.532
REMARK  Name = 11708451
REMARK  3 active torsions:
REMARK  status: ('A' for Active; 'I' for Inactive)
REMARK    1  A    between atoms: C_3  and  C_9
REMARK    2  A    between atoms: C_10  and  C_13
REMARK    3  A    between atoms: N_12  and  O_15
REMARK                            x       y       z     vdW  Elec       q    Type
REMARK                         _______ _______ _______ _____ _____    ______ ____
ROOT
ATOM      1 CL   UNL     1      37.087 -19.445 -20.723  0.00  0.00    -0.082 Cl
ATOM      2 CL   UNL     1      33.751 -22.952 -18.383  0.00  0.00    -0.082 Cl
ATOM      3  C   UNL     1      34.382 -19.427 -21.126  0.00  0.00    +0.011 C 
ATOM      4  C   UNL     1      35.473 -20.020 -20.492  0.00  0.00    +0.058 C 
ATOM      5  C   UNL     1      33.096 -19.923 -20.912  0.00  0.00    +0.002 C 
ATOM      6  C   UNL     1      35.279 -21.110 -19.643  0.00  0.00    +0.023 C 
ATOM      7  C   UNL     1      32.902 -21.013 -20.063  0.00  0.00    +0.011 C 
ATOM      8  C   UNL     1      33.993 -21.607 -19.428  0.00  0.00    +0.059 C 
ENDROOT
BRANCH   3   9
ATOM      9  C   UNL     1      34.529 -18.286 -22.022  0.00  0.00    +0.006 C 
ATOM     10  C   UNL     1      34.225 -17.009 -21.710  0.00  0.00    +0.060 C 
BRANCH  10  13
ATOM     11  O   UNL     1      35.457 -15.799 -23.359  0.00  0.00    -0.268 OA
ATOM     12  N   UNL     1      33.328 -15.101 -22.790  0.00  0.00    -0.193 N 
ATOM     13  C   UNL     1      34.426 -15.920 -22.706  0.00  0.00    +0.268 C 
ATOM     14  H   UNL     1      32.525 -15.244 -22.240  0.00  0.00    +0.183 HD
BRANCH  12  15
ATOM     15  O   UNL     1      33.427 -14.047 -23.709  0.00  0.00    -0.295 OA
ATOM     16  H   UNL     1      34.220 -14.166 -24.253  0.00  0.00    +0.241 HD
ENDBRANCH  12  15
ENDBRANCH  10  13
ENDBRANCH   3   9
TORSDOF 3
ENDMDL
MODEL 5
REMARK VINA RESULT:      -7.5      1.594      2.110
REMARK  Name = 11708451
REMARK  3 active torsions:
REMARK  status: ('A' for Active; 'I' for Inactive)
REMARK    1  A    between atoms: C_3  and  C_9
REMARK    2  A    between atoms: C_10  and  C_13
REMARK    3  A    between atoms: N_12  and  O_15
REMARK                            x       y       z     vdW  Elec       q    Type
REMARK                         _______ _______ _______ _____ _____    ______ ____
ROOT
ATOM      1 CL   UNL     1      32.456 -20.152 -20.994  0.00  0.00    -0.082 Cl
ATOM      2 CL   UNL     1      35.339 -22.780 -17.294  0.00  0.00    -0.082 Cl
ATOM      3  C   UNL     1      35.188 -20.059 -20.890  0.00  0.00    +0.011 C 
ATOM      4  C   UNL     1      34.005 -20.552 -20.338  0.00  0.00    +0.058 C 
ATOM      5  C   UNL     1      36.417 -20.408 -20.329  0.00  0.00    +0.002 C 
ATOM      6  C   UNL     1      34.051 -21.393 -19.227  0.00  0.00    +0.023 C 
ATOM      7  C   UNL     1      36.462 -21.249 -19.218  0.00  0.00    +0.011 C 
ATOM      8  C   UNL     1      35.280 -21.743 -18.667  0.00  0.00    +0.059 C 
ENDROOT
BRANCH   3   9
ATOM      9  C   UNL     1      35.196 -19.177 -22.051  0.00  0.00    +0.006 C 
ATOM     10  C   UNL     1      35.049 -17.836 -22.008  0.00  0.00    +0.060 C 
BRANCH  10  13
ATOM     11  O   UNL     1      35.335 -15.832 -23.274  0.00  0.00    -0.268 OA
ATOM     12  N   UNL     1      34.808 -17.801 -24.364  0.00  0.00    -0.193 N 
ATOM     13  C   UNL     1      35.083 -17.032 -23.262  0.00  0.00    +0.268 C 
ATOM     14  H   UNL     1      34.611 -18.763 -24.296  0.00  0.00    +0.183 HD
BRANCH  12  15
ATOM     15  O   UNL     1      34.822 -17.127 -25.593  0.00  0.00    -0.295 OA
ATOM     16  H   UNL     1      33.923 -16.839 -25.814  0.00  0.00    +0.241 HD
ENDBRANCH  12  15
ENDBRANCH  10  13
ENDBRANCH   3   9
TORSDOF 3
ENDMDL
MODEL 6
REMARK VINA RESULT:      -7.5      7.819      8.820
REMARK  Name = 11708451
REMARK  3 active torsions:
REMARK  status: ('A' for Active; 'I' for Inactive)
REMARK    1  A    between atoms: C_3  and  C_9
REMARK    2  A    between atoms: C_10  and  C_13
REMARK    3  A    between atoms: N_12  and  O_15
REMARK                            x       y       z     vdW  Elec       q    Type
REMARK                         _______ _______ _______ _____ _____    ______ ____
ROOT
ATOM      1 CL   UNL     1      32.969 -22.776 -18.013  0.00  0.00    -0.082 Cl
ATOM      2 CL   UNL     1      35.437 -24.377 -13.514  0.00  0.00    -0.082 Cl
ATOM      3  C   UNL     1      31.630 -23.321 -15.691  0.00  0.00    +0.011 C 
ATOM      4  C   UNL     1      32.854 -23.255 -16.356  0.00  0.00    +0.058 C 
ATOM      5  C   UNL     1      31.583 -23.713 -14.353  0.00  0.00    +0.002 C 
ATOM      6  C   UNL     1      34.032 -23.581 -15.684  0.00  0.00    +0.023 C 
ATOM      7  C   UNL     1      32.761 -24.039 -13.681  0.00  0.00    +0.011 C 
ATOM      8  C   UNL     1      33.986 -23.973 -14.345  0.00  0.00    +0.059 C 
ENDROOT
BRANCH   3   9
ATOM      9  C   UNL     1      30.370 -22.991 -16.347  0.00  0.00    +0.006 C 
ATOM     10  C   UNL     1      29.149 -23.374 -15.921  0.00  0.00    +0.060 C 
BRANCH  10  13
ATOM     11  O   UNL     1      27.758 -23.227 -17.856  0.00  0.00    -0.268 OA
ATOM     12  N   UNL     1      27.042 -22.293 -15.866  0.00  0.00    -0.193 N 
ATOM     13  C   UNL     1      27.926 -22.969 -16.669  0.00  0.00    +0.268 C 
ATOM     14  H   UNL     1      27.230 -22.112 -14.917  0.00  0.00    +0.183 HD
BRANCH  12  15
ATOM     15  O   UNL     1      25.857 -21.875 -16.486  0.00  0.00    -0.295 OA
ATOM     16  H   UNL     1      25.877 -22.124 -17.423  0.00  0.00    +0.241 HD
ENDBRANCH  12  15
ENDBRANCH  10  13
ENDBRANCH   3   9
TORSDOF 3
ENDMDL
MODEL 7
REMARK VINA RESULT:      -7.4      7.768      8.966
REMARK  Name = 11708451
REMARK  3 active torsions:
REMARK  status: ('A' for Active; 'I' for Inactive)
REMARK    1  A    between atoms: C_3  and  C_9
REMARK    2  A    between atoms: C_10  and  C_13
REMARK    3  A    between atoms: N_12  and  O_15
REMARK                            x       y       z     vdW  Elec       q    Type
REMARK                         _______ _______ _______ _____ _____    ______ ____
ROOT
ATOM      1 CL   UNL     1      30.803 -23.541 -13.306  0.00  0.00    -0.082 Cl
ATOM      2 CL   UNL     1      35.777 -24.148 -15.252  0.00  0.00    -0.082 Cl
ATOM      3  C   UNL     1      31.451 -23.061 -15.920  0.00  0.00    +0.011 C 
ATOM      4  C   UNL     1      31.883 -23.454 -14.654  0.00  0.00    +0.058 C 
ATOM      5  C   UNL     1      32.356 -23.005 -16.980  0.00  0.00    +0.002 C 
ATOM      6  C   UNL     1      33.220 -23.790 -14.446  0.00  0.00    +0.023 C 
ATOM      7  C   UNL     1      33.694 -23.341 -16.772  0.00  0.00    +0.011 C 
ATOM      8  C   UNL     1      34.126 -23.735 -15.506  0.00  0.00    +0.059 C 
ENDROOT
BRANCH   3   9
ATOM      9  C   UNL     1      30.064 -22.699 -16.191  0.00  0.00    +0.006 C 
ATOM     10  C   UNL     1      29.128 -23.531 -16.693  0.00  0.00    +0.060 C 
BRANCH  10  13
ATOM     11  O   UNL     1      27.168 -23.154 -18.003  0.00  0.00    -0.268 OA
ATOM     12  N   UNL     1      27.196 -22.507 -15.784  0.00  0.00    -0.193 N 
ATOM     13  C   UNL     1      27.736 -23.053 -16.921  0.00  0.00    +0.268 C 
ATOM     14  H   UNL     1      27.699 -22.452 -14.940  0.00  0.00    +0.183 HD
BRANCH  12  15
ATOM     15  O   UNL     1      25.882 -22.033 -15.903  0.00  0.00    -0.295 OA
ATOM     16  H   UNL     1      25.729 -21.338 -15.245  0.00  0.00    +0.241 HD
ENDBRANCH  12  15
ENDBRANCH  10  13
ENDBRANCH   3   9
TORSDOF 3
ENDMDL
MODEL 8
REMARK VINA RESULT:      -7.2      7.755      8.837
REMARK  Name = 11708451
REMARK  3 active torsions:
REMARK  status: ('A' for Active; 'I' for Inactive)
REMARK    1  A    between atoms: C_3  and  C_9
REMARK    2  A    between atoms: C_10  and  C_13
REMARK    3  A    between atoms: N_12  and  O_15
REMARK                            x       y       z     vdW  Elec       q    Type
REMARK                         _______ _______ _______ _____ _____    ______ ____
ROOT
ATOM      1 CL   UNL     1      33.623 -23.038 -18.356  0.00  0.00    -0.082 Cl
ATOM      2 CL   UNL     1      29.157 -22.779 -15.375  0.00  0.00    -0.082 Cl
ATOM      3  C   UNL     1      33.622 -23.359 -15.640  0.00  0.00    +0.011 C 
ATOM      4  C   UNL     1      32.881 -23.121 -16.797  0.00  0.00    +0.058 C 
ATOM      5  C   UNL     1      32.983 -23.417 -14.401  0.00  0.00    +0.002 C 
ATOM      6  C   UNL     1      31.500 -22.942 -16.716  0.00  0.00    +0.023 C 
ATOM      7  C   UNL     1      31.603 -23.238 -14.320  0.00  0.00    +0.011 C 
ATOM      8  C   UNL     1      30.860 -23.002 -15.477  0.00  0.00    +0.059 C 
ENDROOT
BRANCH   3   9
ATOM      9  C   UNL     1      35.068 -23.552 -15.669  0.00  0.00    +0.006 C 
ATOM     10  C   UNL     1      35.748 -24.438 -14.911  0.00  0.00    +0.060 C 
BRANCH  10  13
ATOM     11  O   UNL     1      37.981 -23.595 -14.923  0.00  0.00    -0.268 OA
ATOM     12  N   UNL     1      37.614 -25.851 -15.272  0.00  0.00    -0.193 N 
ATOM     13  C   UNL     1      37.228 -24.556 -15.033  0.00  0.00    +0.268 C 
ATOM     14  H   UNL     1      36.964 -26.585 -15.352  0.00  0.00    +0.183 HD
BRANCH  12  15
ATOM     15  O   UNL     1      38.995 -26.058 -15.397  0.00  0.00    -0.295 OA
ATOM     16  H   UNL     1      39.469 -25.270 -15.090  0.00  0.00    +0.241 HD
ENDBRANCH  12  15
ENDBRANCH  10  13
ENDBRANCH   3   9
TORSDOF 3
ENDMDL
MODEL 9
REMARK VINA RESULT:      -7.2      2.919      4.110
REMARK  Name = 11708451
REMARK  3 active torsions:
REMARK  status: ('A' for Active; 'I' for Inactive)
REMARK    1  A    between atoms: C_3  and  C_9
REMARK    2  A    between atoms: C_10  and  C_13
REMARK    3  A    between atoms: N_12  and  O_15
REMARK                            x       y       z     vdW  Elec       q    Type
REMARK                         _______ _______ _______ _____ _____    ______ ____
ROOT
ATOM      1 CL   UNL     1      34.573 -15.142 -20.964  0.00  0.00    -0.082 Cl
ATOM      2 CL   UNL     1      35.339 -20.455 -20.673  0.00  0.00    -0.082 Cl
ATOM      3  C   UNL     1      34.799 -16.739 -23.173  0.00  0.00    +0.011 C 
ATOM      4  C   UNL     1      34.788 -16.650 -21.781  0.00  0.00    +0.058 C 
ATOM      5  C   UNL     1      34.976 -17.977 -23.791  0.00  0.00    +0.002 C 
ATOM      6  C   UNL     1      34.955 -17.799 -21.007  0.00  0.00    +0.023 C 
ATOM      7  C   UNL     1      35.143 -19.125 -23.018  0.00  0.00    +0.011 C 
ATOM      8  C   UNL     1      35.131 -19.037 -21.626  0.00  0.00    +0.059 C 
ENDROOT
BRANCH   3   9
ATOM      9  C   UNL     1      34.629 -15.570 -24.028  0.00  0.00    +0.006 C 
ATOM     10  C   UNL     1      33.447 -15.113 -24.493  0.00  0.00    +0.060 C 
BRANCH  10  13
ATOM     11  O   UNL     1      33.541 -12.765 -24.912  0.00  0.00    -0.268 OA
ATOM     12  N   UNL     1      33.167 -14.220 -26.668  0.00  0.00    -0.193 N 
ATOM     13  C   UNL     1      33.393 -13.899 -25.354  0.00  0.00    +0.268 C 
ATOM     14  H   UNL     1      33.054 -15.151 -26.968  0.00  0.00    +0.183 HD
BRANCH  12  15
ATOM     15  O   UNL     1      33.104 -13.137 -27.556  0.00  0.00    -0.295 OA
ATOM     16  H   UNL     1      32.501 -13.351 -28.285  0.00  0.00    +0.241 HD
ENDBRANCH  12  15
ENDBRANCH  10  13
ENDBRANCH   3   9
TORSDOF 3
ENDMDL
