MODEL 1
REMARK VINA RESULT:     -11.0      0.000      0.000
REMARK  Name = 53262401
REMARK  5 active torsions:
REMARK  status: ('A' for Active; 'I' for Inactive)
REMARK    1  A    between atoms: N_1  and  C_24
REMARK    2  A    between atoms: C_5  and  C_11
REMARK    3  A    between atoms: C_8  and  C_33
REMARK    4  A    between atoms: C_19  and  C_25
REMARK    5  A    between atoms: C_25  and  N_29
REMARK                            x       y       z     vdW  Elec       q    Type
REMARK                         _______ _______ _______ _____ _____    ______ ____
ROOT
ATOM      1  N   UNL     1      33.514 -23.855 -15.241  0.00  0.00    -0.214 N 
ATOM      2  N   UNL     1      33.412 -25.014 -13.341  0.00  0.00    -0.382 NA
ATOM      3  N   UNL     1      31.156 -23.411 -15.602  0.00  0.00    -0.384 NA
ATOM      4  C   UNL     1      32.189 -23.930 -14.917  0.00  0.00    +0.222 C 
ATOM      5  C   UNL     1      34.207 -24.520 -14.265  0.00  0.00    +0.195 C 
ATOM      6  C   UNL     1      32.145 -24.653 -13.734  0.00  0.00    +0.177 C 
ATOM      7  C   UNL     1      30.890 -24.889 -13.159  0.00  0.00    +0.039 C 
ATOM      8  C   UNL     1      29.966 -23.666 -15.007  0.00  0.00    +0.133 C 
ATOM      9  C   UNL     1      29.777 -24.375 -13.824  0.00  0.00    +0.035 C 
ENDROOT
BRANCH   5  11
ATOM     10  N   UNL     1      37.816 -24.032 -13.390  0.00  0.00    -0.229 NA
ATOM     11  C   UNL     1      35.649 -24.655 -14.263  0.00  0.00    +0.076 C 
ATOM     12  C   UNL     1      36.468 -23.928 -13.415  0.00  0.00    +0.129 C 
ATOM     13  C   UNL     1      36.251 -25.548 -15.143  0.00  0.00    +0.008 C 
ATOM     14  C   UNL     1      37.636 -25.683 -15.147  0.00  0.00    +0.021 C 
ATOM     15  C   UNL     1      38.366 -24.909 -14.260  0.00  0.00    +0.100 C 
ATOM     16  N   UNL     1      35.869 -23.013 -12.512  0.00  0.00    -0.343 N 
ATOM     17  H   UNL     1      36.431 -22.485 -11.900  0.00  0.00    +0.144 HD
ATOM     18  H   UNL     1      34.890 -22.905 -12.498  0.00  0.00    +0.144 HD
ENDBRANCH   5  11
BRANCH   1  24
ATOM     19  C   UNL     1      35.108 -21.942 -18.606  0.00  0.00    -0.041 C 
ATOM     20  C   UNL     1      35.836 -21.983 -17.417  0.00  0.00    -0.005 C 
ATOM     21  C   UNL     1      33.848 -22.539 -18.674  0.00  0.00    -0.005 C 
ATOM     22  C   UNL     1      35.305 -22.620 -16.296  0.00  0.00    +0.015 C 
ATOM     23  C   UNL     1      33.318 -23.177 -17.553  0.00  0.00    +0.015 C 
ATOM     24  C   UNL     1      34.046 -23.217 -16.363  0.00  0.00    +0.060 C 
BRANCH  19  25
ATOM     25  C   UNL     1      35.698 -21.234 -19.852  0.00  0.00    -0.029 C 
ATOM     26  C   UNL     1      34.869 -20.173 -20.604  0.00  0.00    -0.016 C 
ATOM     27  C   UNL     1      36.788 -20.154 -19.686  0.00  0.00    -0.016 C 
ATOM     28  C   UNL     1      36.205 -19.481 -20.947  0.00  0.00    -0.003 C 
BRANCH  25  29
ATOM     29  N   UNL     1      36.169 -22.234 -20.815  0.00  0.00    +0.385 N 
ATOM     30  H   UNL     1      37.119 -22.518 -20.574  0.00  0.00    -0.089 HD
ATOM     31  H   UNL     1      36.163 -21.834 -21.753  0.00  0.00    -0.089 HD
ATOM     32  H   UNL     1      35.554 -23.048 -20.788  0.00  0.00    -0.089 HD
ENDBRANCH  25  29
ENDBRANCH  19  25
ENDBRANCH   1  24
BRANCH   8  33
ATOM     33  C   UNL     1      28.825 -23.125 -15.711  0.00  0.00    +0.030 C 
ATOM     34  C   UNL     1      28.702 -23.311 -17.088  0.00  0.00    +0.003 C 
ATOM     35  C   UNL     1      27.847 -22.415 -15.014  0.00  0.00    +0.003 C 
ATOM     36  C   UNL     1      27.602 -22.788 -17.768  0.00  0.00    +0.000 C 
ATOM     37  C   UNL     1      26.746 -21.893 -15.693  0.00  0.00    +0.000 C 
ATOM     38  C   UNL     1      26.624 -22.079 -17.070  0.00  0.00    +0.000 C 
ENDBRANCH   8  33
TORSDOF 5
ENDMDL
MODEL 2
REMARK VINA RESULT:      -9.3      1.930      6.557
REMARK  Name = 53262401
REMARK  5 active torsions:
REMARK  status: ('A' for Active; 'I' for Inactive)
REMARK    1  A    between atoms: N_1  and  C_24
REMARK    2  A    between atoms: C_5  and  C_11
REMARK    3  A    between atoms: C_8  and  C_33
REMARK    4  A    between atoms: C_19  and  C_25
REMARK    5  A    between atoms: C_25  and  N_29
REMARK                            x       y       z     vdW  Elec       q    Type
REMARK                         _______ _______ _______ _____ _____    ______ ____
ROOT
ATOM      1  N   UNL     1      35.641 -23.050 -15.999  0.00  0.00    -0.214 N 
ATOM      2  N   UNL     1      37.857 -22.814 -15.977  0.00  0.00    -0.382 NA
ATOM      3  N   UNL     1      35.100 -21.832 -18.026  0.00  0.00    -0.384 NA
ATOM      4  C   UNL     1      35.952 -22.315 -17.107  0.00  0.00    +0.222 C 
ATOM      5  C   UNL     1      36.817 -23.326 -15.353  0.00  0.00    +0.195 C 
ATOM      6  C   UNL     1      37.333 -22.179 -17.077  0.00  0.00    +0.177 C 
ATOM      7  C   UNL     1      37.941 -21.457 -18.112  0.00  0.00    +0.039 C 
ATOM      8  C   UNL     1      35.735 -21.143 -19.004  0.00  0.00    +0.133 C 
ATOM      9  C   UNL     1      37.107 -20.930 -19.098  0.00  0.00    +0.035 C 
ENDROOT
BRANCH   5  11
ATOM     10  N   UNL     1      37.163 -26.205 -12.984  0.00  0.00    -0.229 NA
ATOM     11  C   UNL     1      36.892 -24.092 -14.127  0.00  0.00    +0.076 C 
ATOM     12  C   UNL     1      37.089 -25.464 -14.112  0.00  0.00    +0.129 C 
ATOM     13  C   UNL     1      36.764 -23.440 -12.906  0.00  0.00    +0.008 C 
ATOM     14  C   UNL     1      36.834 -24.169 -11.724  0.00  0.00    +0.021 C 
ATOM     15  C   UNL     1      37.033 -25.538 -11.816  0.00  0.00    +0.100 C 
ATOM     16  N   UNL     1      37.221 -26.144 -15.350  0.00  0.00    -0.343 N 
ATOM     17  H   UNL     1      37.362 -27.118 -15.363  0.00  0.00    +0.144 HD
ATOM     18  H   UNL     1      37.173 -25.641 -16.195  0.00  0.00    +0.144 HD
ENDBRANCH   5  11
BRANCH   1  24
ATOM     19  C   UNL     1      31.793 -24.213 -14.833  0.00  0.00    -0.041 C 
ATOM     20  C   UNL     1      32.867 -24.381 -13.959  0.00  0.00    -0.005 C 
ATOM     21  C   UNL     1      32.002 -23.658 -16.096  0.00  0.00    -0.005 C 
ATOM     22  C   UNL     1      34.149 -23.994 -14.347  0.00  0.00    +0.015 C 
ATOM     23  C   UNL     1      33.284 -23.270 -16.484  0.00  0.00    +0.015 C 
ATOM     24  C   UNL     1      34.358 -23.438 -15.610  0.00  0.00    +0.060 C 
BRANCH  19  25
ATOM     25  C   UNL     1      30.368 -24.644 -14.401  0.00  0.00    -0.029 C 
ATOM     26  C   UNL     1      29.141 -23.833 -14.865  0.00  0.00    -0.016 C 
ATOM     27  C   UNL     1      29.703 -25.877 -15.048  0.00  0.00    -0.016 C 
ATOM     28  C   UNL     1      28.352 -25.159 -14.843  0.00  0.00    -0.003 C 
BRANCH  25  29
ATOM     29  N   UNL     1      30.314 -24.790 -12.944  0.00  0.00    +0.385 N 
ATOM     30  H   UNL     1      30.421 -25.774 -12.695  0.00  0.00    -0.089 HD
ATOM     31  H   UNL     1      29.416 -24.450 -12.600  0.00  0.00    -0.089 HD
ATOM     32  H   UNL     1      31.068 -24.249 -12.519  0.00  0.00    -0.089 HD
ENDBRANCH  25  29
ENDBRANCH  19  25
ENDBRANCH   1  24
BRANCH   8  33
ATOM     33  C   UNL     1      34.852 -20.605 -20.016  0.00  0.00    +0.030 C 
ATOM     34  C   UNL     1      33.472 -20.763 -19.894  0.00  0.00    +0.003 C 
ATOM     35  C   UNL     1      35.382 -19.927 -21.114  0.00  0.00    +0.003 C 
ATOM     36  C   UNL     1      32.621 -20.245 -20.870  0.00  0.00    +0.000 C 
ATOM     37  C   UNL     1      34.532 -19.407 -22.090  0.00  0.00    +0.000 C 
ATOM     38  C   UNL     1      33.152 -19.567 -21.968  0.00  0.00    +0.000 C 
ENDBRANCH   8  33
TORSDOF 5
ENDMDL
