MODEL 1
REMARK VINA RESULT:      -7.2      0.000      0.000
REMARK  Name = 14113
REMARK  6 active torsions:
REMARK  status: ('A' for Active; 'I' for Inactive)
REMARK    1  A    between atoms: C_1  and  C_2
REMARK    2  A    between atoms: C_1  and  C_8
REMARK    3  A    between atoms: C_1  and  C_13
REMARK    4  A    between atoms: C_8  and  C_10
REMARK    5  A    between atoms: C_10  and  O_11
REMARK    6  A    between atoms: C_13  and  N_14
REMARK                            x       y       z     vdW  Elec       q    Type
REMARK                         _______ _______ _______ _____ _____    ______ ____
ROOT
ATOM      1  C   UNL     1      34.508 -18.620 -21.746  0.00  0.00    +0.012 C 
ENDROOT
BRANCH   1   2
ATOM      2  C   UNL     1      34.473 -19.838 -20.828  0.00  0.00    -0.024 C 
ATOM      3  C   UNL     1      35.663 -20.440 -20.478  0.00  0.00    -0.004 C 
ATOM      4  C   UNL     1      33.252 -20.296 -20.381  0.00  0.00    -0.004 C 
ATOM      5  C   UNL     1      35.631 -21.553 -19.639  0.00  0.00    -0.000 C 
ATOM      6  C   UNL     1      33.221 -21.410 -19.541  0.00  0.00    -0.000 C 
ATOM      7  C   UNL     1      34.409 -22.038 -19.171  0.00  0.00    -0.000 C 
ENDBRANCH   1   2
BRANCH   1   8
ATOM      8  C   UNL     1      35.373 -17.501 -21.121  0.00  0.00    +0.112 C 
BRANCH   8  10
ATOM      9  O   UNL     1      34.887 -15.310 -20.164  0.00  0.00    -0.250 OA
ATOM     10  C   UNL     1      34.661 -16.168 -21.006  0.00  0.00    +0.314 C 
BRANCH  10  11
ATOM     11  O   UNL     1      33.741 -16.008 -21.994  0.00  0.00    -0.480 OA
ATOM     12  H   UNL     1      33.880 -15.369 -22.665  0.00  0.00    +0.295 HD
ENDBRANCH  10  11
ENDBRANCH   8  10
ENDBRANCH   1   8
BRANCH   1  13
ATOM     13  C   UNL     1      34.987 -19.056 -23.150  0.00  0.00    -0.081 C 
BRANCH  13  14
ATOM     14  N   UNL     1      35.438 -17.941 -23.975  0.00  0.00    +0.381 N 
ATOM     15  H   UNL     1      35.327 -18.181 -24.960  0.00  0.00    -0.089 HD
ATOM     16  H   UNL     1      36.421 -17.750 -23.780  0.00  0.00    -0.089 HD
ATOM     17  H   UNL     1      34.882 -17.113 -23.761  0.00  0.00    -0.089 HD
ENDBRANCH  13  14
ENDBRANCH   1  13
TORSDOF 6
ENDMDL
MODEL 2
REMARK VINA RESULT:      -7.1      1.846      2.864
REMARK  Name = 14113
REMARK  6 active torsions:
REMARK  status: ('A' for Active; 'I' for Inactive)
REMARK    1  A    between atoms: C_1  and  C_2
REMARK    2  A    between atoms: C_1  and  C_8
REMARK    3  A    between atoms: C_1  and  C_13
REMARK    4  A    between atoms: C_8  and  C_10
REMARK    5  A    between atoms: C_10  and  O_11
REMARK    6  A    between atoms: C_13  and  N_14
REMARK                            x       y       z     vdW  Elec       q    Type
REMARK                         _______ _______ _______ _____ _____    ______ ____
ROOT
ATOM      1  C   UNL     1      34.950 -18.161 -21.898  0.00  0.00    +0.012 C 
ENDROOT
BRANCH   1   2
ATOM      2  C   UNL     1      34.781 -19.404 -21.031  0.00  0.00    -0.024 C 
ATOM      3  C   UNL     1      33.508 -19.827 -20.717  0.00  0.00    -0.004 C 
ATOM      4  C   UNL     1      35.910 -20.062 -20.589  0.00  0.00    -0.004 C 
ATOM      5  C   UNL     1      33.354 -20.964 -19.923  0.00  0.00    -0.000 C 
ATOM      6  C   UNL     1      35.756 -21.200 -19.796  0.00  0.00    -0.000 C 
ATOM      7  C   UNL     1      34.478 -21.650 -19.463  0.00  0.00    -0.000 C 
ENDBRANCH   1   2
BRANCH   1   8
ATOM      8  C   UNL     1      34.711 -18.507 -23.386  0.00  0.00    +0.112 C 
BRANCH   8  10
ATOM      9  O   UNL     1      34.575 -17.264 -25.480  0.00  0.00    -0.250 OA
ATOM     10  C   UNL     1      34.994 -17.361 -24.335  0.00  0.00    +0.314 C 
BRANCH  10  11
ATOM     11  O   UNL     1      35.758 -16.403 -23.745  0.00  0.00    -0.480 OA
ATOM     12  H   UNL     1      35.423 -15.534 -23.643  0.00  0.00    +0.295 HD
ENDBRANCH  10  11
ENDBRANCH   8  10
ENDBRANCH   1   8
BRANCH   1  13
ATOM     13  C   UNL     1      34.019 -17.044 -21.370  0.00  0.00    -0.081 C 
BRANCH  13  14
ATOM     14  N   UNL     1      34.745 -15.887 -20.857  0.00  0.00    +0.381 N 
ATOM     15  H   UNL     1      35.045 -15.301 -21.636  0.00  0.00    -0.089 HD
ATOM     16  H   UNL     1      35.561 -16.202 -20.334  0.00  0.00    -0.089 HD
ATOM     17  H   UNL     1      34.134 -15.349 -20.242  0.00  0.00    -0.089 HD
ENDBRANCH  13  14
ENDBRANCH   1  13
TORSDOF 6
ENDMDL
MODEL 3
REMARK VINA RESULT:      -6.5      7.088      8.640
REMARK  Name = 14113
REMARK  6 active torsions:
REMARK  status: ('A' for Active; 'I' for Inactive)
REMARK    1  A    between atoms: C_1  and  C_2
REMARK    2  A    between atoms: C_1  and  C_8
REMARK    3  A    between atoms: C_1  and  C_13
REMARK    4  A    between atoms: C_8  and  C_10
REMARK    5  A    between atoms: C_10  and  O_11
REMARK    6  A    between atoms: C_13  and  N_14
REMARK                            x       y       z     vdW  Elec       q    Type
REMARK                         _______ _______ _______ _____ _____    ______ ____
ROOT
ATOM      1  C   UNL     1      30.488 -23.196 -15.175  0.00  0.00    +0.012 C 
ENDROOT
BRANCH   1   2
ATOM      2  C   UNL     1      31.913 -23.174 -15.720  0.00  0.00    -0.024 C 
ATOM      3  C   UNL     1      32.964 -23.271 -14.834  0.00  0.00    -0.004 C 
ATOM      4  C   UNL     1      32.100 -23.055 -17.081  0.00  0.00    -0.004 C 
ATOM      5  C   UNL     1      34.267 -23.250 -15.332  0.00  0.00    -0.000 C 
ATOM      6  C   UNL     1      33.404 -23.035 -17.579  0.00  0.00    -0.000 C 
ATOM      7  C   UNL     1      34.486 -23.132 -16.705  0.00  0.00    -0.000 C 
ENDBRANCH   1   2
BRANCH   1   8
ATOM      8  C   UNL     1      29.566 -24.006 -16.116  0.00  0.00    +0.112 C 
BRANCH   8  10
ATOM      9  O   UNL     1      28.367 -21.961 -16.691  0.00  0.00    -0.250 OA
ATOM     10  C   UNL     1      28.487 -23.174 -16.781  0.00  0.00    +0.314 C 
BRANCH  10  11
ATOM     11  O   UNL     1      27.664 -23.944 -17.542  0.00  0.00    -0.480 OA
ATOM     12  H   UNL     1      26.764 -24.044 -17.303  0.00  0.00    +0.295 HD
ENDBRANCH  10  11
ENDBRANCH   8  10
ENDBRANCH   1   8
BRANCH   1  13
ATOM     13  C   UNL     1      30.509 -23.731 -13.724  0.00  0.00    -0.081 C 
BRANCH  13  14
ATOM     14  N   UNL     1      30.153 -25.143 -13.627  0.00  0.00    +0.381 N 
ATOM     15  H   UNL     1      30.924 -25.660 -13.205  0.00  0.00    -0.089 HD
ATOM     16  H   UNL     1      29.967 -25.510 -14.560  0.00  0.00    -0.089 HD
ATOM     17  H   UNL     1      29.319 -25.243 -13.048  0.00  0.00    -0.089 HD
ENDBRANCH  13  14
ENDBRANCH   1  13
TORSDOF 6
ENDMDL
MODEL 4
REMARK VINA RESULT:      -6.5      8.560     10.332
REMARK  Name = 14113
REMARK  6 active torsions:
REMARK  status: ('A' for Active; 'I' for Inactive)
REMARK    1  A    between atoms: C_1  and  C_2
REMARK    2  A    between atoms: C_1  and  C_8
REMARK    3  A    between atoms: C_1  and  C_13
REMARK    4  A    between atoms: C_8  and  C_10
REMARK    5  A    between atoms: C_10  and  O_11
REMARK    6  A    between atoms: C_13  and  N_14
REMARK                            x       y       z     vdW  Elec       q    Type
REMARK                         _______ _______ _______ _____ _____    ______ ____
ROOT
ATOM      1  C   UNL     1      38.127 -25.467 -13.871  0.00  0.00    +0.012 C 
ENDROOT
BRANCH   1   2
ATOM      2  C   UNL     1      37.202 -24.557 -14.672  0.00  0.00    -0.024 C 
ATOM      3  C   UNL     1      37.743 -23.477 -15.335  0.00  0.00    -0.004 C 
ATOM      4  C   UNL     1      35.854 -24.847 -14.705  0.00  0.00    -0.004 C 
ATOM      5  C   UNL     1      36.896 -22.645 -16.068  0.00  0.00    -0.000 C 
ATOM      6  C   UNL     1      35.007 -24.014 -15.438  0.00  0.00    -0.000 C 
ATOM      7  C   UNL     1      35.528 -22.914 -16.118  0.00  0.00    -0.000 C 
ENDBRANCH   1   2
BRANCH   1   8
ATOM      8  C   UNL     1      39.594 -24.998 -14.011  0.00  0.00    +0.112 C 
BRANCH   8  10
ATOM      9  O   UNL     1      41.233 -26.800 -14.141  0.00  0.00    -0.250 OA
ATOM     10  C   UNL     1      40.496 -26.002 -14.701  0.00  0.00    +0.314 C 
BRANCH  10  11
ATOM     11  O   UNL     1      40.364 -25.942 -16.053  0.00  0.00    -0.480 OA
ATOM     12  H   UNL     1      39.979 -25.187 -16.453  0.00  0.00    +0.295 HD
ENDBRANCH  10  11
ENDBRANCH   8  10
ENDBRANCH   1   8
BRANCH   1  13
ATOM     13  C   UNL     1      37.637 -25.526 -12.406  0.00  0.00    -0.081 C 
BRANCH  13  14
ATOM     14  N   UNL     1      37.939 -24.316 -11.649  0.00  0.00    +0.381 N 
ATOM     15  H   UNL     1      37.083 -23.782 -11.506  0.00  0.00    -0.089 HD
ATOM     16  H   UNL     1      38.610 -23.751 -12.168  0.00  0.00    -0.089 HD
ATOM     17  H   UNL     1      38.337 -24.572 -10.745  0.00  0.00    -0.089 HD
ENDBRANCH  13  14
ENDBRANCH   1  13
TORSDOF 6
ENDMDL
MODEL 5
REMARK VINA RESULT:      -6.5      1.664      2.282
REMARK  Name = 14113
REMARK  6 active torsions:
REMARK  status: ('A' for Active; 'I' for Inactive)
REMARK    1  A    between atoms: C_1  and  C_2
REMARK    2  A    between atoms: C_1  and  C_8
REMARK    3  A    between atoms: C_1  and  C_13
REMARK    4  A    between atoms: C_8  and  C_10
REMARK    5  A    between atoms: C_10  and  O_11
REMARK    6  A    between atoms: C_13  and  N_14
REMARK                            x       y       z     vdW  Elec       q    Type
REMARK                         _______ _______ _______ _____ _____    ______ ____
ROOT
ATOM      1  C   UNL     1      35.715 -18.999 -21.600  0.00  0.00    +0.012 C 
ENDROOT
BRANCH   1   2
ATOM      2  C   UNL     1      34.892 -19.966 -20.755  0.00  0.00    -0.024 C 
ATOM      3  C   UNL     1      33.524 -19.810 -20.711  0.00  0.00    -0.004 C 
ATOM      4  C   UNL     1      35.547 -20.964 -20.064  0.00  0.00    -0.004 C 
ATOM      5  C   UNL     1      32.771 -20.695 -19.938  0.00  0.00    -0.000 C 
ATOM      6  C   UNL     1      34.794 -21.849 -19.292  0.00  0.00    -0.000 C 
ATOM      7  C   UNL     1      33.407 -21.714 -19.229  0.00  0.00    -0.000 C 
ENDBRANCH   1   2
BRANCH   1   8
ATOM      8  C   UNL     1      35.087 -17.586 -21.564  0.00  0.00    +0.112 C 
BRANCH   8  10
ATOM      9  O   UNL     1      35.126 -15.598 -22.976  0.00  0.00    -0.250 OA
ATOM     10  C   UNL     1      35.258 -16.807 -22.853  0.00  0.00    +0.314 C 
BRANCH  10  11
ATOM     11  O   UNL     1      35.621 -17.619 -23.881  0.00  0.00    -0.480 OA
ATOM     12  H   UNL     1      35.911 -17.247 -24.691  0.00  0.00    +0.295 HD
ENDBRANCH  10  11
ENDBRANCH   8  10
ENDBRANCH   1   8
BRANCH   1  13
ATOM     13  C   UNL     1      37.186 -19.031 -21.120  0.00  0.00    -0.081 C 
BRANCH  13  14
ATOM     14  N   UNL     1      38.134 -18.620 -22.149  0.00  0.00    +0.381 N 
ATOM     15  H   UNL     1      38.349 -17.629 -22.038  0.00  0.00    -0.089 HD
ATOM     16  H   UNL     1      37.727 -18.779 -23.070  0.00  0.00    -0.089 HD
ATOM     17  H   UNL     1      38.992 -19.166 -22.058  0.00  0.00    -0.089 HD
ENDBRANCH  13  14
ENDBRANCH   1  13
TORSDOF 6
ENDMDL
MODEL 6
REMARK VINA RESULT:      -6.4      1.016      1.713
REMARK  Name = 14113
REMARK  6 active torsions:
REMARK  status: ('A' for Active; 'I' for Inactive)
REMARK    1  A    between atoms: C_1  and  C_2
REMARK    2  A    between atoms: C_1  and  C_8
REMARK    3  A    between atoms: C_1  and  C_13
REMARK    4  A    between atoms: C_8  and  C_10
REMARK    5  A    between atoms: C_10  and  O_11
REMARK    6  A    between atoms: C_13  and  N_14
REMARK                            x       y       z     vdW  Elec       q    Type
REMARK                         _______ _______ _______ _____ _____    ______ ____
ROOT
ATOM      1  C   UNL     1      34.391 -17.826 -21.821  0.00  0.00    +0.012 C 
ENDROOT
BRANCH   1   2
ATOM      2  C   UNL     1      34.505 -19.118 -21.018  0.00  0.00    -0.024 C 
ATOM      3  C   UNL     1      33.351 -19.743 -20.598  0.00  0.00    -0.004 C 
ATOM      4  C   UNL     1      35.760 -19.616 -20.739  0.00  0.00    -0.004 C 
ATOM      5  C   UNL     1      33.455 -20.924 -19.864  0.00  0.00    -0.000 C 
ATOM      6  C   UNL     1      35.865 -20.798 -20.005  0.00  0.00    -0.000 C 
ATOM      7  C   UNL     1      34.713 -21.451 -19.568  0.00  0.00    -0.000 C 
ENDBRANCH   1   2
BRANCH   1   8
ATOM      8  C   UNL     1      34.617 -16.602 -20.905  0.00  0.00    +0.112 C 
BRANCH   8  10
ATOM      9  O   UNL     1      34.602 -14.337 -21.811  0.00  0.00    -0.250 OA
ATOM     10  C   UNL     1      33.991 -15.323 -21.424  0.00  0.00    +0.314 C 
BRANCH  10  11
ATOM     11  O   UNL     1      32.634 -15.407 -21.448  0.00  0.00    -0.480 OA
ATOM     12  H   UNL     1      32.202 -16.117 -21.015  0.00  0.00    +0.295 HD
ENDBRANCH  10  11
ENDBRANCH   8  10
ENDBRANCH   1   8
BRANCH   1  13
ATOM     13  C   UNL     1      35.366 -17.886 -23.020  0.00  0.00    -0.081 C 
BRANCH  13  14
ATOM     14  N   UNL     1      34.872 -18.704 -24.122  0.00  0.00    +0.381 N 
ATOM     15  H   UNL     1      34.748 -18.122 -24.949  0.00  0.00    -0.089 HD
ATOM     16  H   UNL     1      33.979 -19.121 -23.862  0.00  0.00    -0.089 HD
ATOM     17  H   UNL     1      35.546 -19.444 -24.325  0.00  0.00    -0.089 HD
ENDBRANCH  13  14
ENDBRANCH   1  13
TORSDOF 6
ENDMDL
MODEL 7
REMARK VINA RESULT:      -6.4      2.793      5.033
REMARK  Name = 14113
REMARK  6 active torsions:
REMARK  status: ('A' for Active; 'I' for Inactive)
REMARK    1  A    between atoms: C_1  and  C_2
REMARK    2  A    between atoms: C_1  and  C_8
REMARK    3  A    between atoms: C_1  and  C_13
REMARK    4  A    between atoms: C_8  and  C_10
REMARK    5  A    between atoms: C_10  and  O_11
REMARK    6  A    between atoms: C_13  and  N_14
REMARK                            x       y       z     vdW  Elec       q    Type
REMARK                         _______ _______ _______ _____ _____    ______ ____
ROOT
ATOM      1  C   UNL     1      34.997 -18.397 -20.939  0.00  0.00    +0.012 C 
ENDROOT
BRANCH   1   2
ATOM      2  C   UNL     1      34.796 -17.050 -21.625  0.00  0.00    -0.024 C 
ATOM      3  C   UNL     1      34.908 -16.980 -22.997  0.00  0.00    -0.004 C 
ATOM      4  C   UNL     1      34.510 -15.947 -20.848  0.00  0.00    -0.004 C 
ATOM      5  C   UNL     1      34.724 -15.748 -23.624  0.00  0.00    -0.000 C 
ATOM      6  C   UNL     1      34.326 -14.714 -21.477  0.00  0.00    -0.000 C 
ATOM      7  C   UNL     1      34.433 -14.616 -22.863  0.00  0.00    -0.000 C 
ENDBRANCH   1   2
BRANCH   1   8
ATOM      8  C   UNL     1      33.922 -19.404 -21.407  0.00  0.00    +0.112 C 
BRANCH   8  10
ATOM      9  O   UNL     1      34.173 -21.266 -19.851  0.00  0.00    -0.250 OA
ATOM     10  C   UNL     1      33.484 -20.377 -20.331  0.00  0.00    +0.314 C 
BRANCH  10  11
ATOM     11  O   UNL     1      32.213 -20.124 -19.917  0.00  0.00    -0.480 OA
ATOM     12  H   UNL     1      31.663 -19.554 -20.418  0.00  0.00    +0.295 HD
ENDBRANCH  10  11
ENDBRANCH   8  10
ENDBRANCH   1   8
BRANCH   1  13
ATOM     13  C   UNL     1      36.445 -18.882 -21.188  0.00  0.00    -0.081 C 
BRANCH  13  14
ATOM     14  N   UNL     1      36.933 -19.790 -20.156  0.00  0.00    +0.381 N 
ATOM     15  H   UNL     1      36.606 -19.473 -19.243  0.00  0.00    -0.089 HD
ATOM     16  H   UNL     1      37.952 -19.801 -20.167  0.00  0.00    -0.089 HD
ATOM     17  H   UNL     1      36.580 -20.730 -20.336  0.00  0.00    -0.089 HD
ENDBRANCH  13  14
ENDBRANCH   1  13
TORSDOF 6
ENDMDL
MODEL 8
REMARK VINA RESULT:      -6.3      5.606      7.241
REMARK  Name = 14113
REMARK  6 active torsions:
REMARK  status: ('A' for Active; 'I' for Inactive)
REMARK    1  A    between atoms: C_1  and  C_2
REMARK    2  A    between atoms: C_1  and  C_8
REMARK    3  A    between atoms: C_1  and  C_13
REMARK    4  A    between atoms: C_8  and  C_10
REMARK    5  A    between atoms: C_10  and  O_11
REMARK    6  A    between atoms: C_13  and  N_14
REMARK                            x       y       z     vdW  Elec       q    Type
REMARK                         _______ _______ _______ _____ _____    ______ ____
ROOT
ATOM      1  C   UNL     1      33.737 -23.303 -17.197  0.00  0.00    +0.012 C 
ENDROOT
BRANCH   1   2
ATOM      2  C   UNL     1      34.205 -22.343 -18.286  0.00  0.00    -0.024 C 
ATOM      3  C   UNL     1      33.262 -21.746 -19.096  0.00  0.00    -0.004 C 
ATOM      4  C   UNL     1      35.556 -22.105 -18.424  0.00  0.00    -0.004 C 
ATOM      5  C   UNL     1      33.690 -20.869 -20.092  0.00  0.00    -0.000 C 
ATOM      6  C   UNL     1      35.984 -21.226 -19.421  0.00  0.00    -0.000 C 
ATOM      7  C   UNL     1      35.051 -20.609 -20.253  0.00  0.00    -0.000 C 
ENDBRANCH   1   2
BRANCH   1   8
ATOM      8  C   UNL     1      34.577 -23.111 -15.914  0.00  0.00    +0.112 C 
BRANCH   8  10
ATOM      9  O   UNL     1      36.202 -24.907 -15.624  0.00  0.00    -0.250 OA
ATOM     10  C   UNL     1      35.125 -24.402 -15.341  0.00  0.00    +0.314 C 
BRANCH  10  11
ATOM     11  O   UNL     1      34.278 -24.937 -14.421  0.00  0.00    -0.480 OA
ATOM     12  H   UNL     1      33.642 -25.572 -14.684  0.00  0.00    +0.295 HD
ENDBRANCH  10  11
ENDBRANCH   8  10
ENDBRANCH   1   8
BRANCH   1  13
ATOM     13  C   UNL     1      32.218 -23.112 -16.972  0.00  0.00    -0.081 C 
BRANCH  13  14
ATOM     14  N   UNL     1      31.754 -23.651 -15.699  0.00  0.00    +0.381 N 
ATOM     15  H   UNL     1      32.218 -24.541 -15.516  0.00  0.00    -0.089 HD
ATOM     16  H   UNL     1      30.746 -23.795 -15.738  0.00  0.00    -0.089 HD
ATOM     17  H   UNL     1      31.975 -22.993 -14.951  0.00  0.00    -0.089 HD
ENDBRANCH  13  14
ENDBRANCH   1  13
TORSDOF 6
ENDMDL
MODEL 9
REMARK VINA RESULT:      -6.3      3.804      5.943
REMARK  Name = 14113
REMARK  6 active torsions:
REMARK  status: ('A' for Active; 'I' for Inactive)
REMARK    1  A    between atoms: C_1  and  C_2
REMARK    2  A    between atoms: C_1  and  C_8
REMARK    3  A    between atoms: C_1  and  C_13
REMARK    4  A    between atoms: C_8  and  C_10
REMARK    5  A    between atoms: C_10  and  O_11
REMARK    6  A    between atoms: C_13  and  N_14
REMARK                            x       y       z     vdW  Elec       q    Type
REMARK                         _______ _______ _______ _____ _____    ______ ____
ROOT
ATOM      1  C   UNL     1      34.139 -16.285 -22.273  0.00  0.00    +0.012 C 
ENDROOT
BRANCH   1   2
ATOM      2  C   UNL     1      33.366 -14.993 -22.033  0.00  0.00    -0.024 C 
ATOM      3  C   UNL     1      33.037 -14.206 -23.116  0.00  0.00    -0.004 C 
ATOM      4  C   UNL     1      33.023 -14.655 -20.741  0.00  0.00    -0.004 C 
ATOM      5  C   UNL     1      32.329 -13.024 -22.898  0.00  0.00    -0.000 C 
ATOM      6  C   UNL     1      32.315 -13.472 -20.523  0.00  0.00    -0.000 C 
ATOM      7  C   UNL     1      31.969 -12.658 -21.600  0.00  0.00    -0.000 C 
ENDBRANCH   1   2
BRANCH   1   8
ATOM      8  C   UNL     1      35.009 -16.164 -23.545  0.00  0.00    +0.112 C 
BRANCH   8  10
ATOM      9  O   UNL     1      34.880 -18.526 -24.139  0.00  0.00    -0.250 OA
ATOM     10  C   UNL     1      34.899 -17.352 -24.479  0.00  0.00    +0.314 C 
BRANCH  10  11
ATOM     11  O   UNL     1      34.782 -16.957 -25.775  0.00  0.00    -0.480 OA
ATOM     12  H   UNL     1      33.933 -16.842 -26.155  0.00  0.00    +0.295 HD
ENDBRANCH  10  11
ENDBRANCH   8  10
ENDBRANCH   1   8
BRANCH   1  13
ATOM     13  C   UNL     1      34.952 -16.633 -21.003  0.00  0.00    -0.081 C 
BRANCH  13  14
ATOM     14  N   UNL     1      35.332 -18.039 -20.931  0.00  0.00    +0.381 N 
ATOM     15  H   UNL     1      36.053 -18.160 -20.220  0.00  0.00    -0.089 HD
ATOM     16  H   UNL     1      35.692 -18.340 -21.836  0.00  0.00    -0.089 HD
ATOM     17  H   UNL     1      34.515 -18.599 -20.686  0.00  0.00    -0.089 HD
ENDBRANCH  13  14
ENDBRANCH   1  13
TORSDOF 6
ENDMDL
