MODEL 1
REMARK VINA RESULT:      -9.7      0.000      0.000
REMARK  Name = 5289320
REMARK  9 active torsions:
REMARK  status: ('A' for Active; 'I' for Inactive)
REMARK    1  A    between atoms: C_1  and  N_3
REMARK    2  A    between atoms: C_1  and  C_12
REMARK    3  A    between atoms: C_1  and  C_22
REMARK    4  A    between atoms: C_4  and  C_6
REMARK    5  A    between atoms: C_12  and  C_15
REMARK    6  A    between atoms: C_22  and  C_23
REMARK    7  A    between atoms: C_23  and  C_24
REMARK    8  A    between atoms: C_24  and  N_25
REMARK    9  A    between atoms: N_25  and  C_28
REMARK                            x       y       z     vdW  Elec       q    Type
REMARK                         _______ _______ _______ _____ _____    ______ ____
ROOT
ATOM      1  C   UNL     1      34.304 -23.458 -14.178  0.00  0.00    +0.137 C 
ENDROOT
BRANCH   1   3
ATOM      2  O   UNL     1      32.255 -25.495 -13.895  0.00  0.00    -0.275 OA
ATOM      3  N   UNL     1      32.873 -23.267 -14.173  0.00  0.00    -0.299 N 
ATOM      4  C   UNL     1      31.970 -24.309 -14.031  0.00  0.00    +0.222 C 
ATOM      5  H   UNL     1      32.523 -22.354 -14.275  0.00  0.00    +0.150 HD
BRANCH   4   6
ATOM      6  C   UNL     1      30.549 -23.832 -14.035  0.00  0.00    +0.076 C 
ATOM      7  C   UNL     1      29.623 -24.927 -14.578  0.00  0.00    +0.009 C 
ATOM      8  C   UNL     1      30.385 -22.631 -14.967  0.00  0.00    +0.009 C 
ATOM      9  C   UNL     1      28.875 -24.296 -15.747  0.00  0.00    +0.001 C 
ATOM     10  C   UNL     1      29.815 -23.215 -16.251  0.00  0.00    +0.001 C 
ENDBRANCH   4   6
ENDBRANCH   1   3
BRANCH   1  12
ATOM     11  O   UNL     1      34.992 -25.279 -15.566  0.00  0.00    -0.286 OA
ATOM     12  C   UNL     1      34.698 -24.081 -15.522  0.00  0.00    +0.226 C 
BRANCH  12  15
ATOM     13  S   UNL     1      33.236 -22.984 -17.601  0.00  0.00    -0.050 S 
ATOM     14  N   UNL     1      35.764 -22.658 -17.209  0.00  0.00    -0.396 NA
ATOM     15  C   UNL     1      34.688 -23.241 -16.735  0.00  0.00    +0.197 C 
ATOM     16  C   UNL     1      34.094 -21.999 -18.727  0.00  0.00    +0.058 C 
ATOM     17  C   UNL     1      35.440 -21.942 -18.352  0.00  0.00    +0.120 C 
ATOM     18  C   UNL     1      33.610 -21.326 -19.861  0.00  0.00    +0.008 C 
ATOM     19  C   UNL     1      36.331 -21.183 -19.141  0.00  0.00    +0.085 C 
ATOM     20  C   UNL     1      34.513 -20.583 -20.624  0.00  0.00    -0.004 C 
ATOM     21  C   UNL     1      35.857 -20.511 -20.271  0.00  0.00    -0.019 C 
ENDBRANCH  12  15
ENDBRANCH   1  12
BRANCH   1  22
ATOM     22  C   UNL     1      34.770 -24.286 -12.975  0.00  0.00    +0.030 C 
BRANCH  22  23
ATOM     23  C   UNL     1      36.092 -23.813 -12.351  0.00  0.00    +0.029 C 
BRANCH  23  24
ATOM     24  C   UNL     1      37.251 -24.752 -12.672  0.00  0.00    +0.129 C 
BRANCH  24  25
ATOM     25  N   UNL     1      38.217 -24.071 -13.535  0.00  0.00    -0.240 NA
BRANCH  25  28
ATOM     26  N   UNL     1      38.343 -23.540 -15.875  0.00  0.00    -0.370 N 
ATOM     27  N   UNL     1      38.000 -25.685 -15.185  0.00  0.00    -0.370 N 
ATOM     28  C   UNL     1      38.193 -24.381 -14.794  0.00  0.00    +0.189 C 
ATOM     29  H   UNL     1      38.489 -22.577 -15.732  0.00  0.00    +0.159 HD
ATOM     30  H   UNL     1      38.305 -23.903 -16.789  0.00  0.00    +0.159 HD
ATOM     31  H   UNL     1      37.880 -26.389 -14.507  0.00  0.00    +0.159 HD
ATOM     32  H   UNL     1      37.984 -25.915 -16.142  0.00  0.00    +0.159 HD
ENDBRANCH  25  28
ENDBRANCH  24  25
ENDBRANCH  23  24
ENDBRANCH  22  23
ENDBRANCH   1  22
TORSDOF 9
ENDMDL
MODEL 2
REMARK VINA RESULT:      -9.6      1.882      2.578
REMARK  Name = 5289320
REMARK  9 active torsions:
REMARK  status: ('A' for Active; 'I' for Inactive)
REMARK    1  A    between atoms: C_1  and  N_3
REMARK    2  A    between atoms: C_1  and  C_12
REMARK    3  A    between atoms: C_1  and  C_22
REMARK    4  A    between atoms: C_4  and  C_6
REMARK    5  A    between atoms: C_12  and  C_15
REMARK    6  A    between atoms: C_22  and  C_23
REMARK    7  A    between atoms: C_23  and  C_24
REMARK    8  A    between atoms: C_24  and  N_25
REMARK    9  A    between atoms: N_25  and  C_28
REMARK                            x       y       z     vdW  Elec       q    Type
REMARK                         _______ _______ _______ _____ _____    ______ ____
ROOT
ATOM      1  C   UNL     1      33.308 -23.118 -16.450  0.00  0.00    +0.137 C 
ENDROOT
BRANCH   1   3
ATOM      2  O   UNL     1      31.733 -22.308 -14.149  0.00  0.00    -0.275 OA
ATOM      3  N   UNL     1      31.944 -23.482 -16.149  0.00  0.00    -0.299 N 
ATOM      4  C   UNL     1      31.273 -23.042 -15.019  0.00  0.00    +0.222 C 
ATOM      5  H   UNL     1      31.467 -24.070 -16.777  0.00  0.00    +0.150 HD
BRANCH   4   6
ATOM      6  C   UNL     1      29.863 -23.547 -14.964  0.00  0.00    +0.076 C 
ATOM      7  C   UNL     1      29.640 -24.622 -16.035  0.00  0.00    +0.009 C 
ATOM      8  C   UNL     1      28.874 -22.422 -15.275  0.00  0.00    +0.009 C 
ATOM      9  C   UNL     1      28.463 -24.137 -16.873  0.00  0.00    +0.001 C 
ATOM     10  C   UNL     1      28.509 -22.625 -16.738  0.00  0.00    +0.001 C 
ENDBRANCH   4   6
ENDBRANCH   1   3
BRANCH   1  12
ATOM     11  O   UNL     1      33.364 -24.498 -18.402  0.00  0.00    -0.286 OA
ATOM     12  C   UNL     1      33.550 -23.367 -17.943  0.00  0.00    +0.226 C 
BRANCH  12  15
ATOM     13  S   UNL     1      35.630 -21.877 -18.999  0.00  0.00    -0.050 S 
ATOM     14  N   UNL     1      33.122 -21.477 -19.445  0.00  0.00    -0.396 NA
ATOM     15  C   UNL     1      33.971 -22.243 -18.801  0.00  0.00    +0.197 C 
ATOM     16  C   UNL     1      35.207 -20.572 -20.043  0.00  0.00    +0.058 C 
ATOM     17  C   UNL     1      33.815 -20.514 -20.162  0.00  0.00    +0.120 C 
ATOM     18  C   UNL     1      36.047 -19.665 -20.710  0.00  0.00    +0.008 C 
ATOM     19  C   UNL     1      33.246 -19.512 -20.977  0.00  0.00    +0.085 C 
ATOM     20  C   UNL     1      35.458 -18.682 -21.509  0.00  0.00    -0.004 C 
ATOM     21  C   UNL     1      34.075 -18.605 -21.643  0.00  0.00    -0.019 C 
ENDBRANCH  12  15
ENDBRANCH   1  12
BRANCH   1  22
ATOM     22  C   UNL     1      34.303 -23.860 -15.550  0.00  0.00    +0.030 C 
BRANCH  22  23
ATOM     23  C   UNL     1      35.459 -22.991 -15.029  0.00  0.00    +0.029 C 
BRANCH  23  24
ATOM     24  C   UNL     1      36.575 -23.826 -14.407  0.00  0.00    +0.129 C 
BRANCH  24  25
ATOM     25  N   UNL     1      37.033 -24.835 -15.363  0.00  0.00    -0.240 NA
BRANCH  25  28
ATOM     26  N   UNL     1      38.232 -26.595 -14.251  0.00  0.00    -0.370 N 
ATOM     27  N   UNL     1      36.144 -26.957 -15.088  0.00  0.00    -0.370 N 
ATOM     28  C   UNL     1      37.159 -26.046 -14.917  0.00  0.00    +0.189 C 
ATOM     29  H   UNL     1      39.028 -26.046 -14.064  0.00  0.00    +0.159 HD
ATOM     30  H   UNL     1      38.203 -27.535 -13.962  0.00  0.00    +0.159 HD
ATOM     31  H   UNL     1      35.316 -26.691 -15.551  0.00  0.00    +0.159 HD
ATOM     32  H   UNL     1      36.243 -27.876 -14.747  0.00  0.00    +0.159 HD
ENDBRANCH  25  28
ENDBRANCH  24  25
ENDBRANCH  23  24
ENDBRANCH  22  23
ENDBRANCH   1  22
TORSDOF 9
ENDMDL
MODEL 3
REMARK VINA RESULT:      -9.2      1.723      2.171
REMARK  Name = 5289320
REMARK  9 active torsions:
REMARK  status: ('A' for Active; 'I' for Inactive)
REMARK    1  A    between atoms: C_1  and  N_3
REMARK    2  A    between atoms: C_1  and  C_12
REMARK    3  A    between atoms: C_1  and  C_22
REMARK    4  A    between atoms: C_4  and  C_6
REMARK    5  A    between atoms: C_12  and  C_15
REMARK    6  A    between atoms: C_22  and  C_23
REMARK    7  A    between atoms: C_23  and  C_24
REMARK    8  A    between atoms: C_24  and  N_25
REMARK    9  A    between atoms: N_25  and  C_28
REMARK                            x       y       z     vdW  Elec       q    Type
REMARK                         _______ _______ _______ _____ _____    ______ ____
ROOT
ATOM      1  C   UNL     1      35.224 -24.167 -14.215  0.00  0.00    +0.137 C 
ENDROOT
BRANCH   1   3
ATOM      2  O   UNL     1      32.701 -24.877 -12.965  0.00  0.00    -0.275 OA
ATOM      3  N   UNL     1      33.952 -23.501 -14.367  0.00  0.00    -0.299 N 
ATOM      4  C   UNL     1      32.797 -23.917 -13.725  0.00  0.00    +0.222 C 
ATOM      5  H   UNL     1      33.904 -22.714 -14.954  0.00  0.00    +0.150 HD
BRANCH   4   6
ATOM      6  C   UNL     1      31.626 -23.036 -14.036  0.00  0.00    +0.076 C 
ATOM      7  C   UNL     1      30.314 -23.758 -13.706  0.00  0.00    +0.009 C 
ATOM      8  C   UNL     1      31.573 -22.716 -15.531  0.00  0.00    +0.009 C 
ATOM      9  C   UNL     1      29.497 -23.746 -14.993  0.00  0.00    +0.001 C 
ATOM     10  C   UNL     1      30.539 -23.680 -16.095  0.00  0.00    +0.001 C 
ENDBRANCH   4   6
ENDBRANCH   1   3
BRANCH   1  12
ATOM     11  O   UNL     1      37.347 -23.069 -14.187  0.00  0.00    -0.286 OA
ATOM     12  C   UNL     1      36.308 -23.270 -14.822  0.00  0.00    +0.226 C 
BRANCH  12  15
ATOM     13  S   UNL     1      37.325 -21.771 -16.915  0.00  0.00    -0.050 S 
ATOM     14  N   UNL     1      34.981 -22.843 -16.838  0.00  0.00    -0.396 NA
ATOM     15  C   UNL     1      36.096 -22.691 -16.162  0.00  0.00    +0.197 C 
ATOM     16  C   UNL     1      36.300 -21.537 -18.281  0.00  0.00    +0.058 C 
ATOM     17  C   UNL     1      35.083 -22.187 -18.056  0.00  0.00    +0.120 C 
ATOM     18  C   UNL     1      36.555 -20.830 -19.467  0.00  0.00    +0.008 C 
ATOM     19  C   UNL     1      34.087 -22.125 -19.055  0.00  0.00    +0.085 C 
ATOM     20  C   UNL     1      35.553 -20.784 -20.439  0.00  0.00    -0.004 C 
ATOM     21  C   UNL     1      34.333 -21.422 -20.237  0.00  0.00    -0.019 C 
ENDBRANCH  12  15
ENDBRANCH   1  12
BRANCH   1  22
ATOM     22  C   UNL     1      35.202 -25.575 -14.823  0.00  0.00    +0.030 C 
BRANCH  22  23
ATOM     23  C   UNL     1      36.571 -26.083 -15.299  0.00  0.00    +0.029 C 
BRANCH  23  24
ATOM     24  C   UNL     1      37.318 -26.844 -14.207  0.00  0.00    +0.129 C 
BRANCH  24  25
ATOM     25  N   UNL     1      38.741 -26.921 -14.539  0.00  0.00    -0.240 NA
BRANCH  25  28
ATOM     26  N   UNL     1      40.152 -25.237 -15.512  0.00  0.00    -0.370 N 
ATOM     27  N   UNL     1      39.430 -25.049 -13.359  0.00  0.00    -0.370 N 
ATOM     28  C   UNL     1      39.409 -25.810 -14.504  0.00  0.00    +0.189 C 
ATOM     29  H   UNL     1      40.219 -25.682 -16.388  0.00  0.00    +0.159 HD
ATOM     30  H   UNL     1      40.615 -24.382 -15.357  0.00  0.00    +0.159 HD
ATOM     31  H   UNL     1      38.937 -25.347 -12.561  0.00  0.00    +0.159 HD
ATOM     32  H   UNL     1      39.938 -24.206 -13.337  0.00  0.00    +0.159 HD
ENDBRANCH  25  28
ENDBRANCH  24  25
ENDBRANCH  23  24
ENDBRANCH  22  23
ENDBRANCH   1  22
TORSDOF 9
ENDMDL
MODEL 4
REMARK VINA RESULT:      -9.0      2.075      2.987
REMARK  Name = 5289320
REMARK  9 active torsions:
REMARK  status: ('A' for Active; 'I' for Inactive)
REMARK    1  A    between atoms: C_1  and  N_3
REMARK    2  A    between atoms: C_1  and  C_12
REMARK    3  A    between atoms: C_1  and  C_22
REMARK    4  A    between atoms: C_4  and  C_6
REMARK    5  A    between atoms: C_12  and  C_15
REMARK    6  A    between atoms: C_22  and  C_23
REMARK    7  A    between atoms: C_23  and  C_24
REMARK    8  A    between atoms: C_24  and  N_25
REMARK    9  A    between atoms: N_25  and  C_28
REMARK                            x       y       z     vdW  Elec       q    Type
REMARK                         _______ _______ _______ _____ _____    ______ ____
ROOT
ATOM      1  C   UNL     1      33.702 -23.100 -16.560  0.00  0.00    +0.137 C 
ENDROOT
BRANCH   1   3
ATOM      2  O   UNL     1      31.115 -22.059 -17.371  0.00  0.00    -0.275 OA
ATOM      3  N   UNL     1      32.400 -23.568 -16.148  0.00  0.00    -0.299 N 
ATOM      4  C   UNL     1      31.216 -23.003 -16.592  0.00  0.00    +0.222 C 
ATOM      5  H   UNL     1      32.352 -24.325 -15.523  0.00  0.00    +0.150 HD
BRANCH   4   6
ATOM      6  C   UNL     1      30.011 -23.695 -16.030  0.00  0.00    +0.076 C 
ATOM      7  C   UNL     1      28.796 -23.469 -16.938  0.00  0.00    +0.009 C 
ATOM      8  C   UNL     1      29.640 -23.111 -14.666  0.00  0.00    +0.009 C 
ATOM      9  C   UNL     1      27.721 -22.853 -16.049  0.00  0.00    +0.001 C 
ATOM     10  C   UNL     1      28.503 -22.144 -14.958  0.00  0.00    +0.001 C 
ENDBRANCH   4   6
ENDBRANCH   1   3
BRANCH   1  12
ATOM     11  O   UNL     1      33.543 -24.401 -18.560  0.00  0.00    -0.286 OA
ATOM     12  C   UNL     1      33.824 -23.301 -18.075  0.00  0.00    +0.226 C 
BRANCH  12  15
ATOM     13  S   UNL     1      35.897 -21.733 -19.026  0.00  0.00    -0.050 S 
ATOM     14  N   UNL     1      33.404 -21.446 -19.621  0.00  0.00    -0.396 NA
ATOM     15  C   UNL     1      34.247 -22.168 -18.920  0.00  0.00    +0.197 C 
ATOM     16  C   UNL     1      35.480 -20.457 -20.108  0.00  0.00    +0.058 C 
ATOM     17  C   UNL     1      34.097 -20.460 -20.308  0.00  0.00    +0.120 C 
ATOM     18  C   UNL     1      36.319 -19.520 -20.736  0.00  0.00    +0.008 C 
ATOM     19  C   UNL     1      33.534 -19.491 -21.167  0.00  0.00    +0.085 C 
ATOM     20  C   UNL     1      35.736 -18.572 -21.579  0.00  0.00    -0.004 C 
ATOM     21  C   UNL     1      34.362 -18.555 -21.793  0.00  0.00    -0.019 C 
ENDBRANCH  12  15
ENDBRANCH   1  12
BRANCH   1  22
ATOM     22  C   UNL     1      34.826 -23.784 -15.773  0.00  0.00    +0.030 C 
BRANCH  22  23
ATOM     23  C   UNL     1      35.898 -22.825 -15.232  0.00  0.00    +0.029 C 
BRANCH  23  24
ATOM     24  C   UNL     1      37.183 -23.553 -14.848  0.00  0.00    +0.129 C 
BRANCH  24  25
ATOM     25  N   UNL     1      37.629 -23.109 -13.527  0.00  0.00    -0.240 NA
BRANCH  25  28
ATOM     26  N   UNL     1      36.736 -25.071 -12.468  0.00  0.00    -0.370 N 
ATOM     27  N   UNL     1      37.084 -23.161 -11.275  0.00  0.00    -0.370 N 
ATOM     28  C   UNL     1      37.174 -23.766 -12.506  0.00  0.00    +0.189 C 
ATOM     29  H   UNL     1      36.749 -25.619 -13.287  0.00  0.00    +0.159 HD
ATOM     30  H   UNL     1      36.412 -25.457 -11.622  0.00  0.00    +0.159 HD
ATOM     31  H   UNL     1      37.367 -22.225 -11.165  0.00  0.00    +0.159 HD
ATOM     32  H   UNL     1      36.738 -23.665 -10.502  0.00  0.00    +0.159 HD
ENDBRANCH  25  28
ENDBRANCH  24  25
ENDBRANCH  23  24
ENDBRANCH  22  23
ENDBRANCH   1  22
TORSDOF 9
ENDMDL
MODEL 5
REMARK VINA RESULT:      -8.9      6.881     10.883
REMARK  Name = 5289320
REMARK  9 active torsions:
REMARK  status: ('A' for Active; 'I' for Inactive)
REMARK    1  A    between atoms: C_1  and  N_3
REMARK    2  A    between atoms: C_1  and  C_12
REMARK    3  A    between atoms: C_1  and  C_22
REMARK    4  A    between atoms: C_4  and  C_6
REMARK    5  A    between atoms: C_12  and  C_15
REMARK    6  A    between atoms: C_22  and  C_23
REMARK    7  A    between atoms: C_23  and  C_24
REMARK    8  A    between atoms: C_24  and  N_25
REMARK    9  A    between atoms: N_25  and  C_28
REMARK                            x       y       z     vdW  Elec       q    Type
REMARK                         _______ _______ _______ _____ _____    ______ ____
ROOT
ATOM      1  C   UNL     1      34.593 -17.992 -22.710  0.00  0.00    +0.137 C 
ENDROOT
BRANCH   1   3
ATOM      2  O   UNL     1      32.715 -16.680 -20.926  0.00  0.00    -0.275 OA
ATOM      3  N   UNL     1      34.571 -16.600 -22.331  0.00  0.00    -0.299 N 
ATOM      4  C   UNL     1      33.628 -16.064 -21.468  0.00  0.00    +0.222 C 
ATOM      5  H   UNL     1      35.258 -16.003 -22.703  0.00  0.00    +0.150 HD
BRANCH   4   6
ATOM      6  C   UNL     1      33.848 -14.602 -21.224  0.00  0.00    +0.076 C 
ATOM      7  C   UNL     1      32.763 -14.049 -20.292  0.00  0.00    +0.009 C 
ATOM      8  C   UNL     1      33.734 -13.814 -22.530  0.00  0.00    +0.009 C 
ATOM      9  C   UNL     1      32.119 -12.891 -21.046  0.00  0.00    +0.001 C 
ATOM     10  C   UNL     1      32.325 -13.238 -22.509  0.00  0.00    +0.001 C 
ENDBRANCH   4   6
ENDBRANCH   1   3
BRANCH   1  12
ATOM     11  O   UNL     1      36.852 -18.390 -22.037  0.00  0.00    -0.286 OA
ATOM     12  C   UNL     1      35.668 -18.697 -21.875  0.00  0.00    +0.226 C 
BRANCH  12  15
ATOM     13  S   UNL     1      33.629 -20.214 -20.777  0.00  0.00    -0.050 S 
ATOM     14  N   UNL     1      36.097 -20.255 -20.031  0.00  0.00    -0.396 NA
ATOM     15  C   UNL     1      35.258 -19.704 -20.878  0.00  0.00    +0.197 C 
ATOM     16  C   UNL     1      34.051 -21.274 -19.484  0.00  0.00    +0.058 C 
ATOM     17  C   UNL     1      35.420 -21.157 -19.226  0.00  0.00    +0.120 C 
ATOM     18  C   UNL     1      33.229 -22.148 -18.753  0.00  0.00    +0.008 C 
ATOM     19  C   UNL     1      35.984 -21.943 -18.197  0.00  0.00    +0.085 C 
ATOM     20  C   UNL     1      33.813 -22.913 -17.741  0.00  0.00    -0.004 C 
ATOM     21  C   UNL     1      35.173 -22.814 -17.464  0.00  0.00    -0.019 C 
ENDBRANCH  12  15
ENDBRANCH   1  12
BRANCH   1  22
ATOM     22  C   UNL     1      34.799 -18.165 -24.220  0.00  0.00    +0.030 C 
BRANCH  22  23
ATOM     23  C   UNL     1      34.949 -16.848 -24.996  0.00  0.00    +0.029 C 
BRANCH  23  24
ATOM     24  C   UNL     1      33.611 -16.320 -25.504  0.00  0.00    +0.129 C 
BRANCH  24  25
ATOM     25  N   UNL     1      33.828 -15.448 -26.660  0.00  0.00    -0.240 NA
BRANCH  25  28
ATOM     26  N   UNL     1      33.464 -13.206 -27.443  0.00  0.00    -0.370 N 
ATOM     27  N   UNL     1      32.178 -14.081 -25.777  0.00  0.00    -0.370 N 
ATOM     28  C   UNL     1      33.215 -14.306 -26.652  0.00  0.00    +0.189 C 
ATOM     29  H   UNL     1      34.185 -13.236 -28.114  0.00  0.00    +0.159 HD
ATOM     30  H   UNL     1      32.923 -12.391 -27.337  0.00  0.00    +0.159 HD
ATOM     31  H   UNL     1      31.897 -14.790 -25.154  0.00  0.00    +0.159 HD
ATOM     32  H   UNL     1      31.715 -13.212 -25.775  0.00  0.00    +0.159 HD
ENDBRANCH  25  28
ENDBRANCH  24  25
ENDBRANCH  23  24
ENDBRANCH  22  23
ENDBRANCH   1  22
TORSDOF 9
ENDMDL
MODEL 6
REMARK VINA RESULT:      -8.8      8.569     11.962
REMARK  Name = 5289320
REMARK  9 active torsions:
REMARK  status: ('A' for Active; 'I' for Inactive)
REMARK    1  A    between atoms: C_1  and  N_3
REMARK    2  A    between atoms: C_1  and  C_12
REMARK    3  A    between atoms: C_1  and  C_22
REMARK    4  A    between atoms: C_4  and  C_6
REMARK    5  A    between atoms: C_12  and  C_15
REMARK    6  A    between atoms: C_22  and  C_23
REMARK    7  A    between atoms: C_23  and  C_24
REMARK    8  A    between atoms: C_24  and  N_25
REMARK    9  A    between atoms: N_25  and  C_28
REMARK                            x       y       z     vdW  Elec       q    Type
REMARK                         _______ _______ _______ _____ _____    ______ ____
ROOT
ATOM      1  C   UNL     1      34.278 -15.940 -22.071  0.00  0.00    +0.137 C 
ENDROOT
BRANCH   1   3
ATOM      2  O   UNL     1      35.680 -17.964 -20.532  0.00  0.00    -0.275 OA
ATOM      3  N   UNL     1      34.033 -17.363 -22.065  0.00  0.00    -0.299 N 
ATOM      4  C   UNL     1      34.760 -18.254 -21.292  0.00  0.00    +0.222 C 
ATOM      5  H   UNL     1      33.316 -17.716 -22.637  0.00  0.00    +0.150 HD
BRANCH   4   6
ATOM      6  C   UNL     1      34.284 -19.665 -21.454  0.00  0.00    +0.076 C 
ATOM      7  C   UNL     1      33.043 -19.912 -20.588  0.00  0.00    +0.009 C 
ATOM      8  C   UNL     1      35.347 -20.652 -20.969  0.00  0.00    +0.009 C 
ATOM      9  C   UNL     1      33.387 -21.099 -19.696  0.00  0.00    +0.001 C 
ATOM     10  C   UNL     1      34.898 -21.043 -19.568  0.00  0.00    +0.001 C 
ENDBRANCH   4   6
ENDBRANCH   1   3
BRANCH   1  12
ATOM     11  O   UNL     1      32.064 -15.857 -21.174  0.00  0.00    -0.286 OA
ATOM     12  C   UNL     1      32.962 -15.228 -21.740  0.00  0.00    +0.226 C 
BRANCH  12  15
ATOM     13  S   UNL     1      31.834 -12.778 -21.116  0.00  0.00    -0.050 S 
ATOM     14  N   UNL     1      33.403 -13.243 -23.109  0.00  0.00    -0.396 NA
ATOM     15  C   UNL     1      32.812 -13.800 -22.078  0.00  0.00    +0.197 C 
ATOM     16  C   UNL     1      32.217 -11.454 -22.152  0.00  0.00    +0.058 C 
ATOM     17  C   UNL     1      33.072 -11.898 -23.165  0.00  0.00    +0.120 C 
ATOM     18  C   UNL     1      31.791 -10.118 -22.073  0.00  0.00    +0.008 C 
ATOM     19  C   UNL     1      33.515 -10.970 -24.133  0.00  0.00    +0.085 C 
ATOM     20  C   UNL     1      32.244  -9.220 -23.043  0.00  0.00    -0.004 C 
ATOM     21  C   UNL     1      33.094  -9.639 -24.061  0.00  0.00    -0.019 C 
ENDBRANCH  12  15
ENDBRANCH   1  12
BRANCH   1  22
ATOM     22  C   UNL     1      34.892 -15.477 -23.398  0.00  0.00    +0.030 C 
BRANCH  22  23
ATOM     23  C   UNL     1      34.840 -16.523 -24.522  0.00  0.00    +0.029 C 
BRANCH  23  24
ATOM     24  C   UNL     1      33.600 -16.370 -25.398  0.00  0.00    +0.129 C 
BRANCH  24  25
ATOM     25  N   UNL     1      33.904 -15.514 -26.546  0.00  0.00    -0.240 NA
BRANCH  25  28
ATOM     26  N   UNL     1      33.571 -13.298 -27.411  0.00  0.00    -0.370 N 
ATOM     27  N   UNL     1      32.193 -14.139 -25.802  0.00  0.00    -0.370 N 
ATOM     28  C   UNL     1      33.283 -14.378 -26.606  0.00  0.00    +0.189 C 
ATOM     29  H   UNL     1      34.330 -13.340 -28.037  0.00  0.00    +0.159 HD
ATOM     30  H   UNL     1      33.017 -12.486 -27.362  0.00  0.00    +0.159 HD
ATOM     31  H   UNL     1      31.881 -14.833 -25.177  0.00  0.00    +0.159 HD
ATOM     32  H   UNL     1      31.724 -13.274 -25.852  0.00  0.00    +0.159 HD
ENDBRANCH  25  28
ENDBRANCH  24  25
ENDBRANCH  23  24
ENDBRANCH  22  23
ENDBRANCH   1  22
TORSDOF 9
ENDMDL
MODEL 7
REMARK VINA RESULT:      -8.8     11.544     14.977
REMARK  Name = 5289320
REMARK  9 active torsions:
REMARK  status: ('A' for Active; 'I' for Inactive)
REMARK    1  A    between atoms: C_1  and  N_3
REMARK    2  A    between atoms: C_1  and  C_12
REMARK    3  A    between atoms: C_1  and  C_22
REMARK    4  A    between atoms: C_4  and  C_6
REMARK    5  A    between atoms: C_12  and  C_15
REMARK    6  A    between atoms: C_22  and  C_23
REMARK    7  A    between atoms: C_23  and  C_24
REMARK    8  A    between atoms: C_24  and  N_25
REMARK    9  A    between atoms: N_25  and  C_28
REMARK                            x       y       z     vdW  Elec       q    Type
REMARK                         _______ _______ _______ _____ _____    ______ ____
ROOT
ATOM      1  C   UNL     1      33.022 -11.511 -23.294  0.00  0.00    +0.137 C 
ENDROOT
BRANCH   1   3
ATOM      2  O   UNL     1      33.988  -8.806 -22.866  0.00  0.00    -0.275 OA
ATOM      3  N   UNL     1      32.448 -10.285 -23.795  0.00  0.00    -0.299 N 
ATOM      4  C   UNL     1      32.984  -9.034 -23.536  0.00  0.00    +0.222 C 
ATOM      5  H   UNL     1      31.636 -10.340 -24.348  0.00  0.00    +0.150 HD
BRANCH   4   6
ATOM      6  C   UNL     1      32.208  -7.935 -24.196  0.00  0.00    +0.076 C 
ATOM      7  C   UNL     1      32.941  -6.597 -24.038  0.00  0.00    +0.009 C 
ATOM      8  C   UNL     1      30.846  -7.758 -23.524  0.00  0.00    +0.009 C 
ATOM      9  C   UNL     1      31.947  -5.654 -23.370  0.00  0.00    +0.001 C 
ATOM     10  C   UNL     1      31.031  -6.575 -22.585  0.00  0.00    +0.001 C 
ENDBRANCH   4   6
ENDBRANCH   1   3
BRANCH   1  12
ATOM     11  O   UNL     1      34.062 -11.574 -25.446  0.00  0.00    -0.286 OA
ATOM     12  C   UNL     1      33.708 -12.229 -24.462  0.00  0.00    +0.226 C 
BRANCH  12  15
ATOM     13  S   UNL     1      33.456 -14.727 -25.627  0.00  0.00    -0.050 S 
ATOM     14  N   UNL     1      34.551 -14.241 -23.344  0.00  0.00    -0.396 NA
ATOM     15  C   UNL     1      33.953 -13.681 -24.369  0.00  0.00    +0.197 C 
ATOM     16  C   UNL     1      34.086 -16.069 -24.747  0.00  0.00    +0.058 C 
ATOM     17  C   UNL     1      34.635 -15.610 -23.546  0.00  0.00    +0.120 C 
ATOM     18  C   UNL     1      34.096 -17.429 -25.096  0.00  0.00    +0.008 C 
ATOM     19  C   UNL     1      35.212 -16.549 -22.663  0.00  0.00    +0.085 C 
ATOM     20  C   UNL     1      34.672 -18.337 -24.204  0.00  0.00    -0.004 C 
ATOM     21  C   UNL     1      35.224 -17.905 -23.003  0.00  0.00    -0.019 C 
ENDBRANCH  12  15
ENDBRANCH   1  12
BRANCH   1  22
ATOM     22  C   UNL     1      31.975 -12.380 -22.588  0.00  0.00    +0.030 C 
BRANCH  22  23
ATOM     23  C   UNL     1      32.033 -12.326 -21.054  0.00  0.00    +0.029 C 
BRANCH  23  24
ATOM     24  C   UNL     1      31.017 -11.348 -20.470  0.00  0.00    +0.129 C 
BRANCH  24  25
ATOM     25  N   UNL     1      31.427  -9.974 -20.760  0.00  0.00    -0.240 NA
BRANCH  25  28
ATOM     26  N   UNL     1      32.828  -8.192 -19.963  0.00  0.00    -0.370 N 
ATOM     27  N   UNL     1      32.214  -9.897 -18.581  0.00  0.00    -0.370 N 
ATOM     28  C   UNL     1      32.121  -9.368 -19.847  0.00  0.00    +0.189 C 
ATOM     29  H   UNL     1      32.843  -7.710 -20.821  0.00  0.00    +0.159 HD
ATOM     30  H   UNL     1      33.318  -7.834 -19.188  0.00  0.00    +0.159 HD
ATOM     31  H   UNL     1      31.753 -10.739 -18.364  0.00  0.00    +0.159 HD
ATOM     32  H   UNL     1      32.742  -9.433 -17.891  0.00  0.00    +0.159 HD
ENDBRANCH  25  28
ENDBRANCH  24  25
ENDBRANCH  23  24
ENDBRANCH  22  23
ENDBRANCH   1  22
TORSDOF 9
ENDMDL
MODEL 8
REMARK VINA RESULT:      -8.8      3.091      7.358
REMARK  Name = 5289320
REMARK  9 active torsions:
REMARK  status: ('A' for Active; 'I' for Inactive)
REMARK    1  A    between atoms: C_1  and  N_3
REMARK    2  A    between atoms: C_1  and  C_12
REMARK    3  A    between atoms: C_1  and  C_22
REMARK    4  A    between atoms: C_4  and  C_6
REMARK    5  A    between atoms: C_12  and  C_15
REMARK    6  A    between atoms: C_22  and  C_23
REMARK    7  A    between atoms: C_23  and  C_24
REMARK    8  A    between atoms: C_24  and  N_25
REMARK    9  A    between atoms: N_25  and  C_28
REMARK                            x       y       z     vdW  Elec       q    Type
REMARK                         _______ _______ _______ _____ _____    ______ ____
ROOT
ATOM      1  C   UNL     1      32.252 -23.279 -15.191  0.00  0.00    +0.137 C 
ENDROOT
BRANCH   1   3
ATOM      2  O   UNL     1      32.045 -22.382 -17.945  0.00  0.00    -0.275 OA
ATOM      3  N   UNL     1      33.258 -23.375 -16.222  0.00  0.00    -0.299 N 
ATOM      4  C   UNL     1      33.064 -22.916 -17.515  0.00  0.00    +0.222 C 
ATOM      5  H   UNL     1      34.122 -23.786 -15.996  0.00  0.00    +0.150 HD
BRANCH   4   6
ATOM      6  C   UNL     1      34.275 -23.115 -18.376  0.00  0.00    +0.076 C 
ATOM      7  C   UNL     1      35.486 -22.399 -17.765  0.00  0.00    +0.009 C 
ATOM      8  C   UNL     1      34.063 -22.495 -19.758  0.00  0.00    +0.009 C 
ATOM      9  C   UNL     1      36.002 -21.458 -18.847  0.00  0.00    +0.001 C 
ATOM     10  C   UNL     1      34.777 -21.152 -19.689  0.00  0.00    +0.001 C 
ENDBRANCH   4   6
ENDBRANCH   1   3
BRANCH   1  12
ATOM     11  O   UNL     1      31.935 -24.429 -13.119  0.00  0.00    -0.286 OA
ATOM     12  C   UNL     1      32.751 -24.051 -13.965  0.00  0.00    +0.226 C 
BRANCH  12  15
ATOM     13  S   UNL     1      35.055 -23.875 -12.440  0.00  0.00    -0.050 S 
ATOM     14  N   UNL     1      34.875 -24.976 -14.766  0.00  0.00    -0.396 NA
ATOM     15  C   UNL     1      34.190 -24.348 -13.838  0.00  0.00    +0.197 C 
ATOM     16  C   UNL     1      36.489 -24.562 -13.107  0.00  0.00    +0.058 C 
ATOM     17  C   UNL     1      36.195 -25.106 -14.361  0.00  0.00    +0.120 C 
ATOM     18  C   UNL     1      37.781 -24.615 -12.560  0.00  0.00    +0.008 C 
ATOM     19  C   UNL     1      37.233 -25.726 -15.091  0.00  0.00    +0.085 C 
ATOM     20  C   UNL     1      38.790 -25.233 -13.303  0.00  0.00    -0.004 C 
ATOM     21  C   UNL     1      38.521 -25.782 -14.553  0.00  0.00    -0.019 C 
ENDBRANCH  12  15
ENDBRANCH   1  12
BRANCH   1  22
ATOM     22  C   UNL     1      30.884 -23.762 -15.687  0.00  0.00    +0.030 C 
BRANCH  22  23
ATOM     23  C   UNL     1      29.711 -22.843 -15.314  0.00  0.00    +0.029 C 
BRANCH  23  24
ATOM     24  C   UNL     1      28.436 -23.194 -16.076  0.00  0.00    +0.129 C 
BRANCH  24  25
ATOM     25  N   UNL     1      27.975 -22.031 -16.835  0.00  0.00    -0.240 NA
BRANCH  25  28
ATOM     26  N   UNL     1      25.890 -21.866 -15.653  0.00  0.00    -0.370 N 
ATOM     27  N   UNL     1      26.041 -21.241 -17.839  0.00  0.00    -0.370 N 
ATOM     28  C   UNL     1      26.714 -21.740 -16.749  0.00  0.00    +0.189 C 
ATOM     29  H   UNL     1      26.250 -22.213 -14.804  0.00  0.00    +0.159 HD
ATOM     30  H   UNL     1      24.943 -21.608 -15.717  0.00  0.00    +0.159 HD
ATOM     31  H   UNL     1      26.516 -21.101 -18.690  0.00  0.00    +0.159 HD
ATOM     32  H   UNL     1      25.083 -21.021 -17.768  0.00  0.00    +0.159 HD
ENDBRANCH  25  28
ENDBRANCH  24  25
ENDBRANCH  23  24
ENDBRANCH  22  23
ENDBRANCH   1  22
TORSDOF 9
ENDMDL
MODEL 9
REMARK VINA RESULT:      -8.7      2.019      2.805
REMARK  Name = 5289320
REMARK  9 active torsions:
REMARK  status: ('A' for Active; 'I' for Inactive)
REMARK    1  A    between atoms: C_1  and  N_3
REMARK    2  A    between atoms: C_1  and  C_12
REMARK    3  A    between atoms: C_1  and  C_22
REMARK    4  A    between atoms: C_4  and  C_6
REMARK    5  A    between atoms: C_12  and  C_15
REMARK    6  A    between atoms: C_22  and  C_23
REMARK    7  A    between atoms: C_23  and  C_24
REMARK    8  A    between atoms: C_24  and  N_25
REMARK    9  A    between atoms: N_25  and  C_28
REMARK                            x       y       z     vdW  Elec       q    Type
REMARK                         _______ _______ _______ _____ _____    ______ ____
ROOT
ATOM      1  C   UNL     1      33.881 -22.732 -16.941  0.00  0.00    +0.137 C 
ENDROOT
BRANCH   1   3
ATOM      2  O   UNL     1      30.987 -22.511 -16.859  0.00  0.00    -0.275 OA
ATOM      3  N   UNL     1      32.940 -23.708 -16.444  0.00  0.00    -0.299 N 
ATOM      4  C   UNL     1      31.569 -23.510 -16.447  0.00  0.00    +0.222 C 
ATOM      5  H   UNL     1      33.290 -24.555 -16.087  0.00  0.00    +0.150 HD
BRANCH   4   6
ATOM      6  C   UNL     1      30.824 -24.690 -15.900  0.00  0.00    +0.076 C 
ATOM      7  C   UNL     1      29.319 -24.397 -15.861  0.00  0.00    +0.009 C 
ATOM      8  C   UNL     1      31.242 -24.970 -14.455  0.00  0.00    +0.009 C 
ATOM      9  C   UNL     1      28.890 -24.614 -14.415  0.00  0.00    +0.001 C 
ATOM     10  C   UNL     1      30.146 -24.339 -13.609  0.00  0.00    +0.001 C 
ENDBRANCH   4   6
ENDBRANCH   1   3
BRANCH   1  12
ATOM     11  O   UNL     1      33.817 -24.045 -18.938  0.00  0.00    -0.286 OA
ATOM     12  C   UNL     1      34.016 -22.927 -18.455  0.00  0.00    +0.226 C 
BRANCH  12  15
ATOM     13  S   UNL     1      33.114 -20.836 -20.029  0.00  0.00    -0.050 S 
ATOM     14  N   UNL     1      35.585 -21.390 -19.543  0.00  0.00    -0.396 NA
ATOM     15  C   UNL     1      34.351 -21.766 -19.303  0.00  0.00    +0.197 C 
ATOM     16  C   UNL     1      34.311 -19.821 -20.743  0.00  0.00    +0.058 C 
ATOM     17  C   UNL     1      35.579 -20.275 -20.368  0.00  0.00    +0.120 C 
ATOM     18  C   UNL     1      34.139 -18.702 -21.575  0.00  0.00    +0.008 C 
ATOM     19  C   UNL     1      36.714 -19.583 -20.843  0.00  0.00    +0.085 C 
ATOM     20  C   UNL     1      35.279 -18.036 -22.032  0.00  0.00    -0.004 C 
ATOM     21  C   UNL     1      36.551 -18.470 -21.672  0.00  0.00    -0.019 C 
ENDBRANCH  12  15
ENDBRANCH   1  12
BRANCH   1  22
ATOM     22  C   UNL     1      35.223 -22.813 -16.205  0.00  0.00    +0.030 C 
BRANCH  22  23
ATOM     23  C   UNL     1      35.299 -23.917 -15.139  0.00  0.00    +0.029 C 
BRANCH  23  24
ATOM     24  C   UNL     1      36.697 -24.051 -14.543  0.00  0.00    +0.129 C 
BRANCH  24  25
ATOM     25  N   UNL     1      36.758 -25.232 -13.680  0.00  0.00    -0.240 NA
BRANCH  25  28
ATOM     26  N   UNL     1      38.579 -26.694 -14.246  0.00  0.00    -0.370 N 
ATOM     27  N   UNL     1      36.436 -27.234 -14.802  0.00  0.00    -0.370 N 
ATOM     28  C   UNL     1      37.257 -26.309 -14.201  0.00  0.00    +0.189 C 
ATOM     29  H   UNL     1      39.272 -26.118 -13.849  0.00  0.00    +0.159 HD
ATOM     30  H   UNL     1      38.830 -27.544 -14.674  0.00  0.00    +0.159 HD
ATOM     31  H   UNL     1      35.464 -27.080 -14.838  0.00  0.00    +0.159 HD
ATOM     32  H   UNL     1      36.819 -28.052 -15.196  0.00  0.00    +0.159 HD
ENDBRANCH  25  28
ENDBRANCH  24  25
ENDBRANCH  23  24
ENDBRANCH  22  23
ENDBRANCH   1  22
TORSDOF 9
ENDMDL
