MODEL 1
REMARK VINA RESULT:     -10.1      0.000      0.000
REMARK  Name = 9064
REMARK  6 active torsions:
REMARK  status: ('A' for Active; 'I' for Inactive)
REMARK    1  A    between atoms: C_2  and  O_21
REMARK    2  A    between atoms: C_3  and  C_11
REMARK    3  A    between atoms: C_7  and  O_23
REMARK    4  A    between atoms: C_10  and  O_25
REMARK    5  A    between atoms: C_14  and  O_17
REMARK    6  A    between atoms: C_16  and  O_19
REMARK                            x       y       z     vdW  Elec       q    Type
REMARK                         _______ _______ _______ _____ _____    ______ ____
ROOT
ATOM      1  O   UNL     1      34.483 -17.153 -23.235  0.00  0.00    -0.472 OA
ATOM      2  C   UNL     1      34.333 -15.982 -21.069  0.00  0.00    +0.159 C 
ATOM      3  C   UNL     1      35.085 -16.999 -21.940  0.00  0.00    +0.215 C 
ATOM      4  C   UNL     1      34.341 -14.622 -21.761  0.00  0.00    +0.066 C 
ATOM      5  C   UNL     1      34.025 -14.757 -23.220  0.00  0.00    +0.048 C 
ATOM      6  C   UNL     1      34.124 -15.994 -23.867  0.00  0.00    +0.141 C 
ATOM      7  C   UNL     1      33.651 -13.628 -23.961  0.00  0.00    +0.136 C 
ATOM      8  C   UNL     1      33.816 -16.105 -25.225  0.00  0.00    +0.073 C 
ATOM      9  C   UNL     1      33.355 -13.738 -25.319  0.00  0.00    +0.073 C 
ATOM     10  C   UNL     1      33.433 -14.977 -25.951  0.00  0.00    +0.140 C 
ENDROOT
BRANCH   3  11
ATOM     11  C   UNL     1      35.122 -18.374 -21.299  0.00  0.00    +0.023 C 
ATOM     12  C   UNL     1      33.932 -19.053 -21.046  0.00  0.00    +0.039 C 
ATOM     13  C   UNL     1      36.345 -18.952 -20.965  0.00  0.00    +0.003 C 
ATOM     14  C   UNL     1      33.965 -20.318 -20.457  0.00  0.00    +0.167 C 
ATOM     15  C   UNL     1      36.378 -20.216 -20.377  0.00  0.00    +0.040 C 
ATOM     16  C   UNL     1      35.189 -20.899 -20.122  0.00  0.00    +0.167 C 
BRANCH  14  17
ATOM     17  O   UNL     1      32.798 -20.975 -20.215  0.00  0.00    -0.503 OA
ATOM     18  H   UNL     1      32.397 -21.484 -20.892  0.00  0.00    +0.292 HD
ENDBRANCH  14  17
BRANCH  16  19
ATOM     19  O   UNL     1      35.234 -22.133 -19.548  0.00  0.00    -0.503 OA
ATOM     20  H   UNL     1      34.642 -22.803 -19.830  0.00  0.00    +0.292 HD
ENDBRANCH  16  19
ENDBRANCH   3  11
BRANCH   2  21
ATOM     21  O   UNL     1      34.977 -15.855 -19.806  0.00  0.00    -0.380 OA
ATOM     22  H   UNL     1      34.309 -15.836 -19.102  0.00  0.00    +0.211 HD
ENDBRANCH   2  21
BRANCH   7  23
ATOM     23  O   UNL     1      33.568 -12.400 -23.372  0.00  0.00    -0.506 OA
ATOM     24  H   UNL     1      33.069 -11.718 -23.776  0.00  0.00    +0.292 HD
ENDBRANCH   7  23
BRANCH  10  25
ATOM     25  O   UNL     1      33.141 -15.086 -27.276  0.00  0.00    -0.505 OA
ATOM     26  H   UNL     1      33.813 -15.320 -27.885  0.00  0.00    +0.292 HD
ENDBRANCH  10  25
TORSDOF 6
ENDMDL
MODEL 2
REMARK VINA RESULT:      -9.7      1.773      7.165
REMARK  Name = 9064
REMARK  6 active torsions:
REMARK  status: ('A' for Active; 'I' for Inactive)
REMARK    1  A    between atoms: C_2  and  O_21
REMARK    2  A    between atoms: C_3  and  C_11
REMARK    3  A    between atoms: C_7  and  O_23
REMARK    4  A    between atoms: C_10  and  O_25
REMARK    5  A    between atoms: C_14  and  O_17
REMARK    6  A    between atoms: C_16  and  O_19
REMARK                            x       y       z     vdW  Elec       q    Type
REMARK                         _______ _______ _______ _____ _____    ______ ____
ROOT
ATOM      1  O   UNL     1      34.079 -19.297 -21.362  0.00  0.00    -0.472 OA
ATOM      2  C   UNL     1      36.496 -19.174 -21.844  0.00  0.00    +0.159 C 
ATOM      3  C   UNL     1      35.170 -18.417 -21.679  0.00  0.00    +0.215 C 
ATOM      4  C   UNL     1      36.830 -19.896 -20.542  0.00  0.00    +0.066 C 
ATOM      5  C   UNL     1      35.623 -20.586 -19.981  0.00  0.00    +0.048 C 
ATOM      6  C   UNL     1      34.336 -20.244 -20.408  0.00  0.00    +0.141 C 
ATOM      7  C   UNL     1      35.777 -21.569 -18.994  0.00  0.00    +0.136 C 
ATOM      8  C   UNL     1      33.221 -20.904 -19.882  0.00  0.00    +0.073 C 
ATOM      9  C   UNL     1      34.663 -22.218 -18.463  0.00  0.00    +0.073 C 
ATOM     10  C   UNL     1      33.386 -21.889 -18.909  0.00  0.00    +0.140 C 
ENDROOT
BRANCH   3  11
ATOM     11  C   UNL     1      34.785 -17.668 -22.941  0.00  0.00    +0.023 C 
ATOM     12  C   UNL     1      34.538 -16.297 -22.885  0.00  0.00    +0.039 C 
ATOM     13  C   UNL     1      34.680 -18.352 -24.150  0.00  0.00    +0.003 C 
ATOM     14  C   UNL     1      34.184 -15.608 -24.045  0.00  0.00    +0.167 C 
ATOM     15  C   UNL     1      34.326 -17.662 -25.310  0.00  0.00    +0.040 C 
ATOM     16  C   UNL     1      34.078 -16.290 -25.257  0.00  0.00    +0.167 C 
BRANCH  14  17
ATOM     17  O   UNL     1      33.946 -14.269 -23.982  0.00  0.00    -0.503 OA
ATOM     18  H   UNL     1      34.575 -13.699 -23.585  0.00  0.00    +0.292 HD
ENDBRANCH  14  17
BRANCH  16  19
ATOM     19  O   UNL     1      33.735 -15.628 -26.397  0.00  0.00    -0.503 OA
ATOM     20  H   UNL     1      33.004 -15.041 -26.395  0.00  0.00    +0.292 HD
ENDBRANCH  16  19
ENDBRANCH   3  11
BRANCH   2  21
ATOM     21  O   UNL     1      37.543 -18.258 -22.142  0.00  0.00    -0.380 OA
ATOM     22  H   UNL     1      37.912 -18.460 -23.016  0.00  0.00    +0.211 HD
ENDBRANCH   2  21
BRANCH   7  23
ATOM     23  O   UNL     1      37.015 -21.912 -18.534  0.00  0.00    -0.506 OA
ATOM     24  H   UNL     1      37.151 -22.060 -17.619  0.00  0.00    +0.292 HD
ENDBRANCH   7  23
BRANCH  10  25
ATOM     25  O   UNL     1      32.299 -22.525 -18.394  0.00  0.00    -0.505 OA
ATOM     26  H   UNL     1      31.535 -22.034 -18.162  0.00  0.00    +0.292 HD
ENDBRANCH  10  25
TORSDOF 6
ENDMDL
MODEL 3
REMARK VINA RESULT:      -9.5      2.385      7.273
REMARK  Name = 9064
REMARK  6 active torsions:
REMARK  status: ('A' for Active; 'I' for Inactive)
REMARK    1  A    between atoms: C_2  and  O_21
REMARK    2  A    between atoms: C_3  and  C_11
REMARK    3  A    between atoms: C_7  and  O_23
REMARK    4  A    between atoms: C_10  and  O_25
REMARK    5  A    between atoms: C_14  and  O_17
REMARK    6  A    between atoms: C_16  and  O_19
REMARK                            x       y       z     vdW  Elec       q    Type
REMARK                         _______ _______ _______ _____ _____    ______ ____
ROOT
ATOM      1  O   UNL     1      34.170 -14.587 -22.596  0.00  0.00    -0.472 OA
ATOM      2  C   UNL     1      33.141 -14.637 -24.837  0.00  0.00    +0.159 C 
ATOM      3  C   UNL     1      33.960 -13.845 -23.807  0.00  0.00    +0.215 C 
ATOM      4  C   UNL     1      33.883 -15.923 -25.190  0.00  0.00    +0.066 C 
ATOM      5  C   UNL     1      34.416 -16.594 -23.961  0.00  0.00    +0.048 C 
ATOM      6  C   UNL     1      34.538 -15.896 -22.755  0.00  0.00    +0.141 C 
ATOM      7  C   UNL     1      34.826 -17.933 -24.018  0.00  0.00    +0.136 C 
ATOM      8  C   UNL     1      35.028 -16.539 -21.615  0.00  0.00    +0.073 C 
ATOM      9  C   UNL     1      35.324 -18.570 -22.883  0.00  0.00    +0.073 C 
ATOM     10  C   UNL     1      35.421 -17.875 -21.680  0.00  0.00    +0.140 C 
ENDROOT
BRANCH   3  11
ATOM     11  C   UNL     1      33.277 -12.546 -23.421  0.00  0.00    +0.023 C 
ATOM     12  C   UNL     1      32.175 -12.569 -22.569  0.00  0.00    +0.039 C 
ATOM     13  C   UNL     1      33.755 -11.336 -23.919  0.00  0.00    +0.003 C 
ATOM     14  C   UNL     1      31.547 -11.374 -22.213  0.00  0.00    +0.167 C 
ATOM     15  C   UNL     1      33.127 -10.142 -23.564  0.00  0.00    +0.040 C 
ATOM     16  C   UNL     1      32.023 -10.161 -22.711  0.00  0.00    +0.167 C 
BRANCH  14  17
ATOM     17  O   UNL     1      30.472 -11.406 -21.379  0.00  0.00    -0.503 OA
ATOM     18  H   UNL     1      29.797 -12.043 -21.508  0.00  0.00    +0.292 HD
ENDBRANCH  14  17
BRANCH  16  19
ATOM     19  O   UNL     1      31.420  -8.989 -22.370  0.00  0.00    -0.503 OA
ATOM     20  H   UNL     1      30.487  -8.912 -22.415  0.00  0.00    +0.292 HD
ENDBRANCH  16  19
ENDBRANCH   3  11
BRANCH   2  21
ATOM     21  O   UNL     1      32.974 -13.866 -26.021  0.00  0.00    -0.380 OA
ATOM     22  H   UNL     1      33.658 -14.109 -26.666  0.00  0.00    +0.211 HD
ENDBRANCH   2  21
BRANCH   7  23
ATOM     23  O   UNL     1      34.746 -18.640 -25.182  0.00  0.00    -0.506 OA
ATOM     24  H   UNL     1      34.580 -19.562 -25.161  0.00  0.00    +0.292 HD
ENDBRANCH   7  23
BRANCH  10  25
ATOM     25  O   UNL     1      35.904 -18.498 -20.570  0.00  0.00    -0.505 OA
ATOM     26  H   UNL     1      36.626 -18.127 -20.102  0.00  0.00    +0.292 HD
ENDBRANCH  10  25
TORSDOF 6
ENDMDL
MODEL 4
REMARK VINA RESULT:      -9.5      1.548      2.814
REMARK  Name = 9064
REMARK  6 active torsions:
REMARK  status: ('A' for Active; 'I' for Inactive)
REMARK    1  A    between atoms: C_2  and  O_21
REMARK    2  A    between atoms: C_3  and  C_11
REMARK    3  A    between atoms: C_7  and  O_23
REMARK    4  A    between atoms: C_10  and  O_25
REMARK    5  A    between atoms: C_14  and  O_17
REMARK    6  A    between atoms: C_16  and  O_19
REMARK                            x       y       z     vdW  Elec       q    Type
REMARK                         _______ _______ _______ _____ _____    ______ ____
ROOT
ATOM      1  O   UNL     1      33.616 -16.846 -21.072  0.00  0.00    -0.472 OA
ATOM      2  C   UNL     1      35.358 -17.257 -22.770  0.00  0.00    +0.159 C 
ATOM      3  C   UNL     1      34.161 -17.813 -21.984  0.00  0.00    +0.215 C 
ATOM      4  C   UNL     1      34.910 -16.042 -23.577  0.00  0.00    +0.066 C 
ATOM      5  C   UNL     1      34.051 -15.132 -22.752  0.00  0.00    +0.048 C 
ATOM      6  C   UNL     1      33.453 -15.582 -21.570  0.00  0.00    +0.141 C 
ATOM      7  C   UNL     1      33.817 -13.817 -23.177  0.00  0.00    +0.136 C 
ATOM      8  C   UNL     1      32.663 -14.718 -20.807  0.00  0.00    +0.073 C 
ATOM      9  C   UNL     1      33.020 -12.960 -22.420  0.00  0.00    +0.073 C 
ATOM     10  C   UNL     1      32.446 -13.408 -21.233  0.00  0.00    +0.140 C 
ENDROOT
BRANCH   3  11
ATOM     11  C   UNL     1      34.539 -19.033 -21.166  0.00  0.00    +0.023 C 
ATOM     12  C   UNL     1      33.545 -19.898 -20.712  0.00  0.00    +0.039 C 
ATOM     13  C   UNL     1      35.878 -19.285 -20.871  0.00  0.00    +0.003 C 
ATOM     14  C   UNL     1      33.893 -21.021 -19.959  0.00  0.00    +0.167 C 
ATOM     15  C   UNL     1      36.225 -20.407 -20.119  0.00  0.00    +0.040 C 
ATOM     16  C   UNL     1      35.232 -21.275 -19.663  0.00  0.00    +0.167 C 
BRANCH  14  17
ATOM     17  O   UNL     1      32.916 -21.862 -19.520  0.00  0.00    -0.503 OA
ATOM     18  H   UNL     1      33.105 -22.495 -18.856  0.00  0.00    +0.292 HD
ENDBRANCH  14  17
BRANCH  16  19
ATOM     19  O   UNL     1      35.584 -22.368 -18.931  0.00  0.00    -0.503 OA
ATOM     20  H   UNL     1      35.412 -22.390 -18.010  0.00  0.00    +0.292 HD
ENDBRANCH  16  19
ENDBRANCH   3  11
BRANCH   2  21
ATOM     21  O   UNL     1      35.849 -18.246 -23.667  0.00  0.00    -0.380 OA
ATOM     22  H   UNL     1      36.730 -17.988 -23.983  0.00  0.00    +0.211 HD
ENDBRANCH   2  21
BRANCH   7  23
ATOM     23  O   UNL     1      34.363 -13.349 -24.337  0.00  0.00    -0.506 OA
ATOM     24  H   UNL     1      35.276 -13.143 -24.376  0.00  0.00    +0.292 HD
ENDBRANCH   7  23
BRANCH  10  25
ATOM     25  O   UNL     1      31.670 -12.571 -20.492  0.00  0.00    -0.505 OA
ATOM     26  H   UNL     1      30.937 -12.909 -20.018  0.00  0.00    +0.292 HD
ENDBRANCH  10  25
TORSDOF 6
ENDMDL
MODEL 5
REMARK VINA RESULT:      -9.4      1.250      2.740
REMARK  Name = 9064
REMARK  6 active torsions:
REMARK  status: ('A' for Active; 'I' for Inactive)
REMARK    1  A    between atoms: C_2  and  O_21
REMARK    2  A    between atoms: C_3  and  C_11
REMARK    3  A    between atoms: C_7  and  O_23
REMARK    4  A    between atoms: C_10  and  O_25
REMARK    5  A    between atoms: C_14  and  O_17
REMARK    6  A    between atoms: C_16  and  O_19
REMARK                            x       y       z     vdW  Elec       q    Type
REMARK                         _______ _______ _______ _____ _____    ______ ____
ROOT
ATOM      1  O   UNL     1      34.274 -16.965 -22.133  0.00  0.00    -0.472 OA
ATOM      2  C   UNL     1      35.038 -18.409 -23.982  0.00  0.00    +0.159 C 
ATOM      3  C   UNL     1      34.298 -18.309 -22.639  0.00  0.00    +0.215 C 
ATOM      4  C   UNL     1      34.337 -17.526 -25.010  0.00  0.00    +0.066 C 
ATOM      5  C   UNL     1      33.992 -16.188 -24.428  0.00  0.00    +0.048 C 
ATOM      6  C   UNL     1      33.969 -15.990 -23.044  0.00  0.00    +0.141 C 
ATOM      7  C   UNL     1      33.659 -15.123 -25.276  0.00  0.00    +0.136 C 
ATOM      8  C   UNL     1      33.655 -14.734 -22.517  0.00  0.00    +0.073 C 
ATOM      9  C   UNL     1      33.335 -13.874 -24.749  0.00  0.00    +0.073 C 
ATOM     10  C   UNL     1      33.337 -13.677 -23.370  0.00  0.00    +0.140 C 
ENDROOT
BRANCH   3  11
ATOM     11  C   UNL     1      34.941 -19.175 -21.573  0.00  0.00    +0.023 C 
ATOM     12  C   UNL     1      34.175 -20.119 -20.891  0.00  0.00    +0.039 C 
ATOM     13  C   UNL     1      36.295 -19.025 -21.279  0.00  0.00    +0.003 C 
ATOM     14  C   UNL     1      34.766 -20.916 -19.910  0.00  0.00    +0.167 C 
ATOM     15  C   UNL     1      36.886 -19.822 -20.298  0.00  0.00    +0.040 C 
ATOM     16  C   UNL     1      36.121 -20.767 -19.614  0.00  0.00    +0.167 C 
BRANCH  14  17
ATOM     17  O   UNL     1      34.010 -21.836 -19.250  0.00  0.00    -0.503 OA
ATOM     18  H   UNL     1      33.156 -21.607 -18.942  0.00  0.00    +0.292 HD
ENDBRANCH  14  17
BRANCH  16  19
ATOM     19  O   UNL     1      36.710 -21.541 -18.660  0.00  0.00    -0.503 OA
ATOM     20  H   UNL     1      37.456 -22.064 -18.876  0.00  0.00    +0.292 HD
ENDBRANCH  16  19
ENDBRANCH   3  11
BRANCH   2  21
ATOM     21  O   UNL     1      35.019 -19.754 -24.446  0.00  0.00    -0.380 OA
ATOM     22  H   UNL     1      35.303 -19.781 -25.373  0.00  0.00    +0.211 HD
ENDBRANCH   2  21
BRANCH   7  23
ATOM     23  O   UNL     1      33.646 -15.284 -26.631  0.00  0.00    -0.506 OA
ATOM     24  H   UNL     1      34.429 -15.532 -27.082  0.00  0.00    +0.292 HD
ENDBRANCH   7  23
BRANCH  10  25
ATOM     25  O   UNL     1      33.025 -12.457 -22.855  0.00  0.00    -0.505 OA
ATOM     26  H   UNL     1      32.345 -12.380 -22.215  0.00  0.00    +0.292 HD
ENDBRANCH  10  25
TORSDOF 6
ENDMDL
MODEL 6
REMARK VINA RESULT:      -9.3      2.429      8.068
REMARK  Name = 9064
REMARK  6 active torsions:
REMARK  status: ('A' for Active; 'I' for Inactive)
REMARK    1  A    between atoms: C_2  and  O_21
REMARK    2  A    between atoms: C_3  and  C_11
REMARK    3  A    between atoms: C_7  and  O_23
REMARK    4  A    between atoms: C_10  and  O_25
REMARK    5  A    between atoms: C_14  and  O_17
REMARK    6  A    between atoms: C_16  and  O_19
REMARK                            x       y       z     vdW  Elec       q    Type
REMARK                         _______ _______ _______ _____ _____    ______ ____
ROOT
ATOM      1  O   UNL     1      35.851 -20.481 -19.666  0.00  0.00    -0.472 OA
ATOM      2  C   UNL     1      33.406 -20.569 -19.982  0.00  0.00    +0.159 C 
ATOM      3  C   UNL     1      34.794 -20.514 -20.637  0.00  0.00    +0.215 C 
ATOM      4  C   UNL     1      33.303 -21.827 -19.124  0.00  0.00    +0.066 C 
ATOM      5  C   UNL     1      34.542 -22.024 -18.303  0.00  0.00    +0.048 C 
ATOM      6  C   UNL     1      35.731 -21.359 -18.623  0.00  0.00    +0.141 C 
ATOM      7  C   UNL     1      34.525 -22.907 -17.215  0.00  0.00    +0.136 C 
ATOM      8  C   UNL     1      36.874 -21.546 -17.842  0.00  0.00    +0.073 C 
ATOM      9  C   UNL     1      35.670 -23.101 -16.443  0.00  0.00    +0.073 C 
ATOM     10  C   UNL     1      36.844 -22.417 -16.753  0.00  0.00    +0.140 C 
ENDROOT
BRANCH   3  11
ATOM     11  C   UNL     1      34.957 -19.288 -21.515  0.00  0.00    +0.023 C 
ATOM     12  C   UNL     1      34.869 -18.016 -20.952  0.00  0.00    +0.039 C 
ATOM     13  C   UNL     1      35.193 -19.437 -22.880  0.00  0.00    +0.003 C 
ATOM     14  C   UNL     1      35.018 -16.887 -21.760  0.00  0.00    +0.167 C 
ATOM     15  C   UNL     1      35.342 -18.309 -23.687  0.00  0.00    +0.040 C 
ATOM     16  C   UNL     1      35.255 -17.034 -23.127  0.00  0.00    +0.167 C 
BRANCH  14  17
ATOM     17  O   UNL     1      34.932 -15.649 -21.201  0.00  0.00    -0.503 OA
ATOM     18  H   UNL     1      35.633 -15.324 -20.669  0.00  0.00    +0.292 HD
ENDBRANCH  14  17
BRANCH  16  19
ATOM     19  O   UNL     1      35.404 -15.940 -23.924  0.00  0.00    -0.503 OA
ATOM     20  H   UNL     1      34.655 -15.555 -24.335  0.00  0.00    +0.292 HD
ENDBRANCH  16  19
ENDBRANCH   3  11
BRANCH   2  21
ATOM     21  O   UNL     1      32.398 -20.616 -20.985  0.00  0.00    -0.380 OA
ATOM     22  H   UNL     1      31.846 -21.404 -20.853  0.00  0.00    +0.211 HD
ENDBRANCH   2  21
BRANCH   7  23
ATOM     23  O   UNL     1      33.392 -23.593 -16.887  0.00  0.00    -0.506 OA
ATOM     24  H   UNL     1      33.372 -24.526 -16.957  0.00  0.00    +0.292 HD
ENDBRANCH   7  23
BRANCH  10  25
ATOM     25  O   UNL     1      37.961 -22.603 -15.999  0.00  0.00    -0.505 OA
ATOM     26  H   UNL     1      38.803 -22.390 -16.349  0.00  0.00    +0.292 HD
ENDBRANCH  10  25
TORSDOF 6
ENDMDL
MODEL 7
REMARK VINA RESULT:      -9.0      5.671      9.008
REMARK  Name = 9064
REMARK  6 active torsions:
REMARK  status: ('A' for Active; 'I' for Inactive)
REMARK    1  A    between atoms: C_2  and  O_21
REMARK    2  A    between atoms: C_3  and  C_11
REMARK    3  A    between atoms: C_7  and  O_23
REMARK    4  A    between atoms: C_10  and  O_25
REMARK    5  A    between atoms: C_14  and  O_17
REMARK    6  A    between atoms: C_16  and  O_19
REMARK                            x       y       z     vdW  Elec       q    Type
REMARK                         _______ _______ _______ _____ _____    ______ ____
ROOT
ATOM      1  O   UNL     1      35.954 -22.681 -16.712  0.00  0.00    -0.472 OA
ATOM      2  C   UNL     1      33.757 -23.793 -16.566  0.00  0.00    +0.159 C 
ATOM      3  C   UNL     1      34.896 -23.077 -15.825  0.00  0.00    +0.215 C 
ATOM      4  C   UNL     1      33.171 -22.854 -17.617  0.00  0.00    +0.066 C 
ATOM      5  C   UNL     1      34.254 -22.154 -18.380  0.00  0.00    +0.048 C 
ATOM      6  C   UNL     1      35.562 -22.098 -17.886  0.00  0.00    +0.141 C 
ATOM      7  C   UNL     1      33.955 -21.519 -19.593  0.00  0.00    +0.136 C 
ATOM      8  C   UNL     1      36.563 -21.449 -18.614  0.00  0.00    +0.073 C 
ATOM      9  C   UNL     1      34.953 -20.863 -20.313  0.00  0.00    +0.073 C 
ATOM     10  C   UNL     1      36.257 -20.831 -19.827  0.00  0.00    +0.140 C 
ENDROOT
BRANCH   3  11
ATOM     11  C   UNL     1      35.516 -23.957 -14.756  0.00  0.00    +0.023 C 
ATOM     12  C   UNL     1      35.001 -23.940 -13.461  0.00  0.00    +0.039 C 
ATOM     13  C   UNL     1      36.597 -24.777 -15.072  0.00  0.00    +0.003 C 
ATOM     14  C   UNL     1      35.571 -24.749 -12.477  0.00  0.00    +0.167 C 
ATOM     15  C   UNL     1      37.167 -25.585 -14.088  0.00  0.00    +0.040 C 
ATOM     16  C   UNL     1      36.654 -25.571 -12.791  0.00  0.00    +0.167 C 
BRANCH  14  17
ATOM     17  O   UNL     1      35.061 -24.728 -11.215  0.00  0.00    -0.503 OA
ATOM     18  H   UNL     1      34.178 -25.001 -11.061  0.00  0.00    +0.292 HD
ENDBRANCH  14  17
BRANCH  16  19
ATOM     19  O   UNL     1      37.218 -26.366 -11.839  0.00  0.00    -0.503 OA
ATOM     20  H   UNL     1      37.503 -27.231 -12.061  0.00  0.00    +0.292 HD
ENDBRANCH  16  19
ENDBRANCH   3  11
BRANCH   2  21
ATOM     21  O   UNL     1      32.730 -24.149 -15.648  0.00  0.00    -0.380 OA
ATOM     22  H   UNL     1      32.639 -23.453 -14.977  0.00  0.00    +0.211 HD
ENDBRANCH   2  21
BRANCH   7  23
ATOM     23  O   UNL     1      32.686 -21.530 -20.095  0.00  0.00    -0.506 OA
ATOM     24  H   UNL     1      32.361 -22.293 -20.531  0.00  0.00    +0.292 HD
ENDBRANCH   7  23
BRANCH  10  25
ATOM     25  O   UNL     1      37.232 -20.193 -20.530  0.00  0.00    -0.505 OA
ATOM     26  H   UNL     1      38.052 -19.997 -20.122  0.00  0.00    +0.292 HD
ENDBRANCH  10  25
TORSDOF 6
ENDMDL
MODEL 8
REMARK VINA RESULT:      -8.9      9.555     12.144
REMARK  Name = 9064
REMARK  6 active torsions:
REMARK  status: ('A' for Active; 'I' for Inactive)
REMARK    1  A    between atoms: C_2  and  O_21
REMARK    2  A    between atoms: C_3  and  C_11
REMARK    3  A    between atoms: C_7  and  O_23
REMARK    4  A    between atoms: C_10  and  O_25
REMARK    5  A    between atoms: C_14  and  O_17
REMARK    6  A    between atoms: C_16  and  O_19
REMARK                            x       y       z     vdW  Elec       q    Type
REMARK                         _______ _______ _______ _____ _____    ______ ____
ROOT
ATOM      1  O   UNL     1      33.462 -23.784 -13.511  0.00  0.00    -0.472 OA
ATOM      2  C   UNL     1      34.213 -24.065 -15.844  0.00  0.00    +0.159 C 
ATOM      3  C   UNL     1      33.245 -23.375 -14.871  0.00  0.00    +0.215 C 
ATOM      4  C   UNL     1      35.647 -23.710 -15.464  0.00  0.00    +0.066 C 
ATOM      5  C   UNL     1      35.855 -23.812 -13.983  0.00  0.00    +0.048 C 
ATOM      6  C   UNL     1      34.768 -23.831 -13.103  0.00  0.00    +0.141 C 
ATOM      7  C   UNL     1      37.155 -23.861 -13.462  0.00  0.00    +0.136 C 
ATOM      8  C   UNL     1      34.978 -23.936 -11.726  0.00  0.00    +0.073 C 
ATOM      9  C   UNL     1      37.363 -23.954 -12.087  0.00  0.00    +0.073 C 
ATOM     10  C   UNL     1      36.275 -23.997 -11.219  0.00  0.00    +0.140 C 
ENDROOT
BRANCH   3  11
ATOM     11  C   UNL     1      31.796 -23.681 -15.202  0.00  0.00    +0.023 C 
ATOM     12  C   UNL     1      31.077 -22.817 -16.025  0.00  0.00    +0.039 C 
ATOM     13  C   UNL     1      31.191 -24.823 -14.683  0.00  0.00    +0.003 C 
ATOM     14  C   UNL     1      29.744 -23.098 -16.330  0.00  0.00    +0.167 C 
ATOM     15  C   UNL     1      29.859 -25.104 -14.988  0.00  0.00    +0.040 C 
ATOM     16  C   UNL     1      29.136 -24.241 -15.812  0.00  0.00    +0.167 C 
BRANCH  14  17
ATOM     17  O   UNL     1      29.048 -22.249 -17.136  0.00  0.00    -0.503 OA
ATOM     18  H   UNL     1      29.428 -21.433 -17.397  0.00  0.00    +0.292 HD
ENDBRANCH  14  17
BRANCH  16  19
ATOM     19  O   UNL     1      27.836 -24.526 -16.104  0.00  0.00    -0.503 OA
ATOM     20  H   UNL     1      27.190 -23.848 -16.075  0.00  0.00    +0.292 HD
ENDBRANCH  16  19
ENDBRANCH   3  11
BRANCH   2  21
ATOM     21  O   UNL     1      33.967 -23.615 -17.172  0.00  0.00    -0.380 OA
ATOM     22  H   UNL     1      34.672 -23.933 -17.758  0.00  0.00    +0.211 HD
ENDBRANCH   2  21
BRANCH   7  23
ATOM     23  O   UNL     1      38.242 -23.819 -14.287  0.00  0.00    -0.506 OA
ATOM     24  H   UNL     1      38.475 -23.019 -14.714  0.00  0.00    +0.292 HD
ENDBRANCH   7  23
BRANCH  10  25
ATOM     25  O   UNL     1      36.477 -24.092  -9.876  0.00  0.00    -0.505 OA
ATOM     26  H   UNL     1      35.747 -24.194  -9.299  0.00  0.00    +0.292 HD
ENDBRANCH  10  25
TORSDOF 6
ENDMDL
MODEL 9
REMARK VINA RESULT:      -8.8      6.048     11.540
REMARK  Name = 9064
REMARK  6 active torsions:
REMARK  status: ('A' for Active; 'I' for Inactive)
REMARK    1  A    between atoms: C_2  and  O_21
REMARK    2  A    between atoms: C_3  and  C_11
REMARK    3  A    between atoms: C_7  and  O_23
REMARK    4  A    between atoms: C_10  and  O_25
REMARK    5  A    between atoms: C_14  and  O_17
REMARK    6  A    between atoms: C_16  and  O_19
REMARK                            x       y       z     vdW  Elec       q    Type
REMARK                         _______ _______ _______ _____ _____    ______ ____
ROOT
ATOM      1  O   UNL     1      36.423 -24.056 -15.915  0.00  0.00    -0.472 OA
ATOM      2  C   UNL     1      34.483 -23.109 -14.720  0.00  0.00    +0.159 C 
ATOM      3  C   UNL     1      35.015 -23.784 -15.993  0.00  0.00    +0.215 C 
ATOM      4  C   UNL     1      34.724 -24.027 -13.525  0.00  0.00    +0.066 C 
ATOM      5  C   UNL     1      36.105 -24.607 -13.560  0.00  0.00    +0.048 C 
ATOM      6  C   UNL     1      36.860 -24.599 -14.737  0.00  0.00    +0.141 C 
ATOM      7  C   UNL     1      36.645 -25.194 -12.407  0.00  0.00    +0.136 C 
ATOM      8  C   UNL     1      38.151 -25.136 -14.751  0.00  0.00    +0.073 C 
ATOM      9  C   UNL     1      37.929 -25.738 -12.425  0.00  0.00    +0.073 C 
ATOM     10  C   UNL     1      38.683 -25.706 -13.595  0.00  0.00    +0.140 C 
ENDROOT
BRANCH   3  11
ATOM     11  C   UNL     1      34.795 -22.924 -17.224  0.00  0.00    +0.023 C 
ATOM     12  C   UNL     1      35.842 -22.156 -17.729  0.00  0.00    +0.039 C 
ATOM     13  C   UNL     1      33.547 -22.904 -17.843  0.00  0.00    +0.003 C 
ATOM     14  C   UNL     1      35.641 -21.365 -18.860  0.00  0.00    +0.167 C 
ATOM     15  C   UNL     1      33.346 -22.113 -18.974  0.00  0.00    +0.040 C 
ATOM     16  C   UNL     1      34.392 -21.343 -19.483  0.00  0.00    +0.167 C 
BRANCH  14  17
ATOM     17  O   UNL     1      36.670 -20.619 -19.348  0.00  0.00    -0.503 OA
ATOM     18  H   UNL     1      37.057 -19.950 -18.818  0.00  0.00    +0.292 HD
ENDBRANCH  14  17
BRANCH  16  19
ATOM     19  O   UNL     1      34.184 -20.575 -20.589  0.00  0.00    -0.503 OA
ATOM     20  H   UNL     1      34.875 -20.450 -21.209  0.00  0.00    +0.292 HD
ENDBRANCH  16  19
ENDBRANCH   3  11
BRANCH   2  21
ATOM     21  O   UNL     1      33.084 -22.877 -14.843  0.00  0.00    -0.380 OA
ATOM     22  H   UNL     1      32.933 -22.094 -15.397  0.00  0.00    +0.211 HD
ENDBRANCH   2  21
BRANCH   7  23
ATOM     23  O   UNL     1      35.930 -25.243 -11.246  0.00  0.00    -0.506 OA
ATOM     24  H   UNL     1      35.611 -24.453 -10.858  0.00  0.00    +0.292 HD
ENDBRANCH   7  23
BRANCH  10  25
ATOM     25  O   UNL     1      39.938 -26.234 -13.612  0.00  0.00    -0.505 OA
ATOM     26  H   UNL     1      40.642 -25.783 -13.190  0.00  0.00    +0.292 HD
ENDBRANCH  10  25
TORSDOF 6
ENDMDL
