MODEL 1
REMARK VINA RESULT:      -9.0      0.000      0.000
REMARK  Name = 126495573
REMARK  4 active torsions:
REMARK  status: ('A' for Active; 'I' for Inactive)
REMARK    1  A    between atoms: N_2  and  C_25
REMARK    2  A    between atoms: C_6  and  C_14
REMARK    3  A    between atoms: C_15  and  O_20
REMARK    4  A    between atoms: N_22  and  C_28
REMARK                            x       y       z     vdW  Elec       q    Type
REMARK                         _______ _______ _______ _____ _____    ______ ____
ROOT
ATOM      1  S   UNL     1      32.001 -24.465 -13.654  0.00  0.00    -0.087 S 
ATOM      2  N   UNL     1      32.242 -21.760 -18.773  0.00  0.00    -0.244 N 
ATOM      3  N   UNL     1      33.289 -22.746 -16.890  0.00  0.00    -0.337 NA
ATOM      4  N   UNL     1      30.875 -22.673 -17.064  0.00  0.00    -0.169 NA
ATOM      5  C   UNL     1      32.129 -22.436 -17.494  0.00  0.00    +0.149 C 
ATOM      6  C   UNL     1      34.185 -23.822 -14.840  0.00  0.00    +0.036 A 
ATOM      7  C   UNL     1      33.132 -23.377 -15.696  0.00  0.00    +0.152 A 
ATOM      8  C   UNL     1      31.875 -23.666 -15.167  0.00  0.00    +0.080 A 
ATOM      9  C   UNL     1      33.709 -24.427 -13.700  0.00  0.00    +0.010 A 
ATOM     10  C   UNL     1      30.738 -23.300 -15.879  0.00  0.00    +0.121 C 
ATOM     11  C   UNL     1      34.460 -25.020 -12.568  0.00  0.00    +0.038 C 
ATOM     12  H   UNL     1      31.368 -21.554 -19.175  0.00  0.00    +0.165 HD
ENDROOT
BRANCH   6  14
ATOM     13  F   UNL     1      39.652 -23.247 -15.744  0.00  0.00    -0.204 F 
ATOM     14  C   UNL     1      35.601 -23.690 -15.075  0.00  0.00    +0.037 C 
ATOM     15  C   UNL     1      36.416 -24.816 -15.185  0.00  0.00    +0.141 C 
ATOM     16  C   UNL     1      36.153 -22.414 -15.191  0.00  0.00    +0.005 C 
ATOM     17  C   UNL     1      37.784 -24.666 -15.411  0.00  0.00    +0.066 C 
ATOM     18  C   UNL     1      37.522 -22.264 -15.417  0.00  0.00    +0.030 C 
ATOM     19  C   UNL     1      38.337 -23.391 -15.527  0.00  0.00    +0.143 C 
BRANCH  15  20
ATOM     20  O   UNL     1      35.903 -26.075 -15.077  0.00  0.00    -0.471 OA
ATOM     21  C   UNL     1      36.836 -27.141 -14.913  0.00  0.00    +0.252 C 
ENDBRANCH  15  20
ENDBRANCH   6  14
BRANCH   2  25
ATOM     22  N   UNL     1      34.569 -20.248 -20.907  0.00  0.00    -0.211 N 
ATOM     23  N   UNL     1      35.334 -21.284 -20.521  0.00  0.00    -0.175 NA
ATOM     24  C   UNL     1      33.326 -20.240 -20.345  0.00  0.00    +0.101 C 
ATOM     25  C   UNL     1      33.274 -21.349 -19.535  0.00  0.00    +0.095 C 
ATOM     26  C   UNL     1      34.537 -21.953 -19.683  0.00  0.00    +0.134 C 
BRANCH  22  28
ATOM     27  N   UNL     1      34.817 -17.015 -23.777  0.00  0.00    +0.384 N 
ATOM     28  C   UNL     1      35.121 -19.227 -21.883  0.00  0.00    +0.092 C 
ATOM     29  C   UNL     1      34.583 -19.432 -23.309  0.00  0.00    -0.002 C 
ATOM     30  C   UNL     1      34.858 -17.782 -21.426  0.00  0.00    -0.002 C 
ATOM     31  C   UNL     1      35.387 -16.778 -22.451  0.00  0.00    -0.080 C 
ATOM     32  C   UNL     1      35.122 -18.362 -24.259  0.00  0.00    -0.080 C 
ATOM     33  H   UNL     1      35.203 -16.334 -24.431  0.00  0.00    -0.085 HD
ATOM     34  H   UNL     1      33.803 -16.920 -23.712  0.00  0.00    -0.085 HD
ENDBRANCH  22  28
ENDBRANCH   2  25
TORSDOF 4
ENDMDL
MODEL 2
REMARK VINA RESULT:      -8.9      2.684      4.454
REMARK  Name = 126495573
REMARK  4 active torsions:
REMARK  status: ('A' for Active; 'I' for Inactive)
REMARK    1  A    between atoms: N_2  and  C_25
REMARK    2  A    between atoms: C_6  and  C_14
REMARK    3  A    between atoms: C_15  and  O_20
REMARK    4  A    between atoms: N_22  and  C_28
REMARK                            x       y       z     vdW  Elec       q    Type
REMARK                         _______ _______ _______ _____ _____    ______ ____
ROOT
ATOM      1  S   UNL     1      36.447 -24.156 -13.585  0.00  0.00    -0.087 S 
ATOM      2  N   UNL     1      36.874 -21.254 -18.583  0.00  0.00    -0.244 N 
ATOM      3  N   UNL     1      35.590 -22.275 -16.873  0.00  0.00    -0.337 NA
ATOM      4  N   UNL     1      38.008 -22.276 -16.768  0.00  0.00    -0.169 NA
ATOM      5  C   UNL     1      36.820 -21.982 -17.327  0.00  0.00    +0.149 C 
ATOM      6  C   UNL     1      34.433 -23.395 -14.984  0.00  0.00    +0.036 A 
ATOM      7  C   UNL     1      35.590 -22.956 -15.696  0.00  0.00    +0.152 A 
ATOM      8  C   UNL     1      36.769 -23.306 -15.040  0.00  0.00    +0.080 A 
ATOM      9  C   UNL     1      34.757 -24.060 -13.823  0.00  0.00    +0.010 A 
ATOM     10  C   UNL     1      37.990 -22.951 -15.602  0.00  0.00    +0.121 C 
ATOM     11  C   UNL     1      33.864 -24.667 -12.808  0.00  0.00    +0.038 C 
ATOM     12  H   UNL     1      37.794 -21.064 -18.874  0.00  0.00    +0.165 HD
ENDROOT
BRANCH   6  14
ATOM     13  F   UNL     1      29.107 -22.620 -16.422  0.00  0.00    -0.204 F 
ATOM     14  C   UNL     1      33.058 -23.202 -15.370  0.00  0.00    +0.037 C 
ATOM     15  C   UNL     1      32.602 -23.612 -16.623  0.00  0.00    +0.141 C 
ATOM     16  C   UNL     1      32.179 -22.597 -14.472  0.00  0.00    +0.005 C 
ATOM     17  C   UNL     1      31.268 -23.415 -16.978  0.00  0.00    +0.066 C 
ATOM     18  C   UNL     1      30.845 -22.400 -14.827  0.00  0.00    +0.030 C 
ATOM     19  C   UNL     1      30.389 -22.809 -16.081  0.00  0.00    +0.143 C 
BRANCH  15  20
ATOM     20  O   UNL     1      33.439 -24.207 -17.521  0.00  0.00    -0.471 OA
ATOM     21  C   UNL     1      33.409 -23.714 -18.859  0.00  0.00    +0.252 C 
ENDBRANCH  15  20
ENDBRANCH   6  14
BRANCH   2  25
ATOM     22  N   UNL     1      34.899 -19.666 -20.997  0.00  0.00    -0.211 N 
ATOM     23  N   UNL     1      33.961 -20.509 -20.531  0.00  0.00    -0.175 NA
ATOM     24  C   UNL     1      36.107 -19.788 -20.376  0.00  0.00    +0.101 C 
ATOM     25  C   UNL     1      35.949 -20.781 -19.440  0.00  0.00    +0.095 C 
ATOM     26  C   UNL     1      34.608 -21.188 -19.580  0.00  0.00    +0.134 C 
BRANCH  22  28
ATOM     27  N   UNL     1      35.275 -16.947 -24.346  0.00  0.00    +0.384 N 
ATOM     28  C   UNL     1      34.554 -18.699 -22.113  0.00  0.00    +0.092 C 
ATOM     29  C   UNL     1      35.188 -17.314 -21.902  0.00  0.00    -0.002 C 
ATOM     30  C   UNL     1      34.941 -19.246 -23.498  0.00  0.00    -0.002 C 
ATOM     31  C   UNL     1      34.622 -18.232 -24.596  0.00  0.00    -0.080 C 
ATOM     32  C   UNL     1      34.860 -16.376 -23.064  0.00  0.00    -0.080 C 
ATOM     33  H   UNL     1      35.027 -16.298 -25.093  0.00  0.00    -0.085 HD
ATOM     34  H   UNL     1      36.283 -17.100 -24.317  0.00  0.00    -0.085 HD
ENDBRANCH  22  28
ENDBRANCH   2  25
TORSDOF 4
ENDMDL
MODEL 3
REMARK VINA RESULT:      -8.5     10.650     14.401
REMARK  Name = 126495573
REMARK  4 active torsions:
REMARK  status: ('A' for Active; 'I' for Inactive)
REMARK    1  A    between atoms: N_2  and  C_25
REMARK    2  A    between atoms: C_6  and  C_14
REMARK    3  A    between atoms: C_15  and  O_20
REMARK    4  A    between atoms: N_22  and  C_28
REMARK                            x       y       z     vdW  Elec       q    Type
REMARK                         _______ _______ _______ _____ _____    ______ ____
ROOT
ATOM      1  S   UNL     1      32.392 -14.103 -20.274  0.00  0.00    -0.087 S 
ATOM      2  N   UNL     1      31.501  -8.518 -21.535  0.00  0.00    -0.244 N 
ATOM      3  N   UNL     1      32.123 -10.718 -22.158  0.00  0.00    -0.337 NA
ATOM      4  N   UNL     1      31.465 -10.218 -19.882  0.00  0.00    -0.169 NA
ATOM      5  C   UNL     1      31.710  -9.907 -21.169  0.00  0.00    +0.149 C 
ATOM      6  C   UNL     1      32.737 -13.081 -22.603  0.00  0.00    +0.036 A 
ATOM      7  C   UNL     1      32.305 -12.008 -21.767  0.00  0.00    +0.152 A 
ATOM      8  C   UNL     1      32.078 -12.427 -20.458  0.00  0.00    +0.080 A 
ATOM      9  C   UNL     1      32.827 -14.271 -21.918  0.00  0.00    +0.010 A 
ATOM     10  C   UNL     1      31.650 -11.501 -19.513  0.00  0.00    +0.121 C 
ATOM     11  C   UNL     1      33.231 -15.610 -22.410  0.00  0.00    +0.038 C 
ATOM     12  H   UNL     1      31.200  -7.965 -20.778  0.00  0.00    +0.165 HD
ENDROOT
BRANCH   6  14
ATOM     13  F   UNL     1      33.943 -12.843 -28.037  0.00  0.00    -0.204 F 
ATOM     14  C   UNL     1      33.058 -13.006 -24.006  0.00  0.00    +0.037 C 
ATOM     15  C   UNL     1      33.812 -11.948 -24.512  0.00  0.00    +0.141 C 
ATOM     16  C   UNL     1      32.603 -14.010 -24.862  0.00  0.00    +0.005 C 
ATOM     17  C   UNL     1      34.111 -11.893 -25.874  0.00  0.00    +0.066 C 
ATOM     18  C   UNL     1      32.901 -13.955 -26.223  0.00  0.00    +0.030 C 
ATOM     19  C   UNL     1      33.656 -12.896 -26.729  0.00  0.00    +0.143 C 
BRANCH  15  20
ATOM     20  O   UNL     1      34.271 -10.953 -23.700  0.00  0.00    -0.471 OA
ATOM     21  C   UNL     1      34.799  -9.790 -24.335  0.00  0.00    +0.252 C 
ENDBRANCH  15  20
ENDBRANCH   6  14
BRANCH   2  25
ATOM     22  N   UNL     1      32.321  -6.476 -24.257  0.00  0.00    -0.211 N 
ATOM     23  N   UNL     1      31.186  -6.992 -24.761  0.00  0.00    -0.175 NA
ATOM     24  C   UNL     1      32.629  -6.935 -23.010  0.00  0.00    +0.101 C 
ATOM     25  C   UNL     1      31.627  -7.813 -22.676  0.00  0.00    +0.095 C 
ATOM     26  C   UNL     1      30.767  -7.808 -23.791  0.00  0.00    +0.134 C 
BRANCH  22  28
ATOM     27  N   UNL     1      34.082  -4.372 -27.607  0.00  0.00    +0.384 N 
ATOM     28  C   UNL     1      33.122  -5.479 -25.072  0.00  0.00    +0.092 C 
ATOM     29  C   UNL     1      34.227  -6.156 -25.900  0.00  0.00    -0.002 C 
ATOM     30  C   UNL     1      32.230  -4.624 -25.988  0.00  0.00    -0.002 C 
ATOM     31  C   UNL     1      33.069  -3.661 -26.827  0.00  0.00    -0.080 C 
ATOM     32  C   UNL     1      34.987  -5.131 -26.743  0.00  0.00    -0.080 C 
ATOM     33  H   UNL     1      34.625  -3.694 -28.141  0.00  0.00    -0.085 HD
ATOM     34  H   UNL     1      33.607  -5.026 -28.228  0.00  0.00    -0.085 HD
ENDBRANCH  22  28
ENDBRANCH   2  25
TORSDOF 4
ENDMDL
MODEL 4
REMARK VINA RESULT:      -8.4     11.383     15.175
REMARK  Name = 126495573
REMARK  4 active torsions:
REMARK  status: ('A' for Active; 'I' for Inactive)
REMARK    1  A    between atoms: N_2  and  C_25
REMARK    2  A    between atoms: C_6  and  C_14
REMARK    3  A    between atoms: C_15  and  O_20
REMARK    4  A    between atoms: N_22  and  C_28
REMARK                            x       y       z     vdW  Elec       q    Type
REMARK                         _______ _______ _______ _____ _____    ______ ____
ROOT
ATOM      1  S   UNL     1      32.459 -13.843 -21.345  0.00  0.00    -0.087 S 
ATOM      2  N   UNL     1      31.404  -8.162 -21.788  0.00  0.00    -0.244 N 
ATOM      3  N   UNL     1      32.344 -10.175 -22.614  0.00  0.00    -0.337 NA
ATOM      4  N   UNL     1      31.131 -10.147 -20.519  0.00  0.00    -0.169 NA
ATOM      5  C   UNL     1      31.642  -9.586 -21.631  0.00  0.00    +0.149 C 
ATOM      6  C   UNL     1      33.249 -12.381 -23.301  0.00  0.00    +0.036 A 
ATOM      7  C   UNL     1      32.542 -11.506 -22.423  0.00  0.00    +0.152 A 
ATOM      8  C   UNL     1      32.051 -12.177 -21.304  0.00  0.00    +0.080 A 
ATOM      9  C   UNL     1      33.280 -13.675 -22.835  0.00  0.00    +0.010 A 
ATOM     10  C   UNL     1      31.335 -11.468 -20.346  0.00  0.00    +0.121 C 
ATOM     11  C   UNL     1      33.903 -14.877 -23.438  0.00  0.00    +0.038 C 
ATOM     12  H   UNL     1      30.887  -7.778 -21.044  0.00  0.00    +0.165 HD
ENDROOT
BRANCH   6  14
ATOM     13  F   UNL     1      35.731 -10.966 -28.084  0.00  0.00    -0.204 F 
ATOM     14  C   UNL     1      33.882 -12.026 -24.547  0.00  0.00    +0.037 C 
ATOM     15  C   UNL     1      33.568 -12.700 -25.727  0.00  0.00    +0.141 C 
ATOM     16  C   UNL     1      34.820 -10.993 -24.561  0.00  0.00    +0.005 C 
ATOM     17  C   UNL     1      34.193 -12.342 -26.921  0.00  0.00    +0.066 C 
ATOM     18  C   UNL     1      35.445 -10.636 -25.756  0.00  0.00    +0.030 C 
ATOM     19  C   UNL     1      35.131 -11.310 -26.936  0.00  0.00    +0.143 C 
BRANCH  15  20
ATOM     20  O   UNL     1      32.655 -13.713 -25.742  0.00  0.00    -0.471 OA
ATOM     21  C   UNL     1      32.845 -14.741 -26.713  0.00  0.00    +0.252 C 
ENDBRANCH  15  20
ENDBRANCH   6  14
BRANCH   2  25
ATOM     22  N   UNL     1      31.693  -5.612 -24.168  0.00  0.00    -0.211 N 
ATOM     23  N   UNL     1      32.962  -6.053 -24.230  0.00  0.00    -0.175 NA
ATOM     24  C   UNL     1      30.915  -6.294 -23.280  0.00  0.00    +0.101 C 
ATOM     25  C   UNL     1      31.731  -7.248 -22.722  0.00  0.00    +0.095 C 
ATOM     26  C   UNL     1      32.979  -7.053 -23.344  0.00  0.00    +0.134 C 
BRANCH  22  28
ATOM     27  N   UNL     1      31.620  -1.788 -26.198  0.00  0.00    +0.384 N 
ATOM     28  C   UNL     1      31.256  -4.455 -25.044  0.00  0.00    +0.092 C 
ATOM     29  C   UNL     1      31.018  -3.168 -24.235  0.00  0.00    -0.002 C 
ATOM     30  C   UNL     1      32.248  -4.180 -26.186  0.00  0.00    -0.002 C 
ATOM     31  C   UNL     1      31.802  -2.981 -27.024  0.00  0.00    -0.080 C 
ATOM     32  C   UNL     1      30.622  -2.009 -25.151  0.00  0.00    -0.080 C 
ATOM     33  H   UNL     1      31.312  -1.018 -26.791  0.00  0.00    -0.085 HD
ATOM     34  H   UNL     1      32.510  -1.568 -25.751  0.00  0.00    -0.085 HD
ENDBRANCH  22  28
ENDBRANCH   2  25
TORSDOF 4
ENDMDL
MODEL 5
REMARK VINA RESULT:      -8.3      2.727      4.584
REMARK  Name = 126495573
REMARK  4 active torsions:
REMARK  status: ('A' for Active; 'I' for Inactive)
REMARK    1  A    between atoms: N_2  and  C_25
REMARK    2  A    between atoms: C_6  and  C_14
REMARK    3  A    between atoms: C_15  and  O_20
REMARK    4  A    between atoms: N_22  and  C_28
REMARK                            x       y       z     vdW  Elec       q    Type
REMARK                         _______ _______ _______ _____ _____    ______ ____
ROOT
ATOM      1  S   UNL     1      36.290 -24.361 -13.685  0.00  0.00    -0.087 S 
ATOM      2  N   UNL     1      36.786 -21.370 -18.624  0.00  0.00    -0.244 N 
ATOM      3  N   UNL     1      35.478 -22.402 -16.939  0.00  0.00    -0.337 NA
ATOM      4  N   UNL     1      37.896 -22.447 -16.826  0.00  0.00    -0.169 NA
ATOM      5  C   UNL     1      36.715 -22.121 -17.383  0.00  0.00    +0.149 C 
ATOM      6  C   UNL     1      34.295 -23.539 -15.076  0.00  0.00    +0.036 A 
ATOM      7  C   UNL     1      35.462 -23.106 -15.775  0.00  0.00    +0.152 A 
ATOM      8  C   UNL     1      36.632 -23.489 -15.122  0.00  0.00    +0.080 A 
ATOM      9  C   UNL     1      34.603 -24.231 -13.928  0.00  0.00    +0.010 A 
ATOM     10  C   UNL     1      37.862 -23.143 -15.673  0.00  0.00    +0.121 C 
ATOM     11  C   UNL     1      33.695 -24.843 -12.928  0.00  0.00    +0.038 C 
ATOM     12  H   UNL     1      37.711 -21.190 -18.908  0.00  0.00    +0.165 HD
ENDROOT
BRANCH   6  14
ATOM     13  F   UNL     1      29.014 -22.692 -16.634  0.00  0.00    -0.204 F 
ATOM     14  C   UNL     1      32.925 -23.315 -15.464  0.00  0.00    +0.037 C 
ATOM     15  C   UNL     1      31.964 -22.953 -14.520  0.00  0.00    +0.141 C 
ATOM     16  C   UNL     1      32.565 -23.466 -16.803  0.00  0.00    +0.005 C 
ATOM     17  C   UNL     1      30.643 -22.743 -14.915  0.00  0.00    +0.066 C 
ATOM     18  C   UNL     1      31.244 -23.256 -17.198  0.00  0.00    +0.030 C 
ATOM     19  C   UNL     1      30.283 -22.894 -16.253  0.00  0.00    +0.143 C 
BRANCH  15  20
ATOM     20  O   UNL     1      32.288 -22.797 -13.204  0.00  0.00    -0.471 OA
ATOM     21  C   UNL     1      31.214 -22.824 -12.266  0.00  0.00    +0.252 C 
ENDBRANCH  15  20
ENDBRANCH   6  14
BRANCH   2  25
ATOM     22  N   UNL     1      34.850 -19.706 -21.018  0.00  0.00    -0.211 N 
ATOM     23  N   UNL     1      33.891 -20.531 -20.561  0.00  0.00    -0.175 NA
ATOM     24  C   UNL     1      36.055 -19.866 -20.401  0.00  0.00    +0.101 C 
ATOM     25  C   UNL     1      35.873 -20.865 -19.475  0.00  0.00    +0.095 C 
ATOM     26  C   UNL     1      34.522 -21.236 -19.618  0.00  0.00    +0.134 C 
BRANCH  22  28
ATOM     27  N   UNL     1      35.290 -16.975 -24.349  0.00  0.00    +0.384 N 
ATOM     28  C   UNL     1      34.529 -18.719 -22.124  0.00  0.00    +0.092 C 
ATOM     29  C   UNL     1      35.213 -17.358 -21.908  0.00  0.00    -0.002 C 
ATOM     30  C   UNL     1      34.884 -19.268 -23.516  0.00  0.00    -0.002 C 
ATOM     31  C   UNL     1      34.591 -18.234 -24.604  0.00  0.00    -0.080 C 
ATOM     32  C   UNL     1      34.907 -16.401 -23.059  0.00  0.00    -0.080 C 
ATOM     33  H   UNL     1      35.058 -16.312 -25.089  0.00  0.00    -0.085 HD
ATOM     34  H   UNL     1      36.292 -17.163 -24.332  0.00  0.00    -0.085 HD
ENDBRANCH  22  28
ENDBRANCH   2  25
TORSDOF 4
ENDMDL
MODEL 6
REMARK VINA RESULT:      -7.7      2.969      4.950
REMARK  Name = 126495573
REMARK  4 active torsions:
REMARK  status: ('A' for Active; 'I' for Inactive)
REMARK    1  A    between atoms: N_2  and  C_25
REMARK    2  A    between atoms: C_6  and  C_14
REMARK    3  A    between atoms: C_15  and  O_20
REMARK    4  A    between atoms: N_22  and  C_28
REMARK                            x       y       z     vdW  Elec       q    Type
REMARK                         _______ _______ _______ _____ _____    ______ ____
ROOT
ATOM      1  S   UNL     1      33.436 -24.988 -13.264  0.00  0.00    -0.087 S 
ATOM      2  N   UNL     1      35.161 -22.243 -18.068  0.00  0.00    -0.244 N 
ATOM      3  N   UNL     1      33.464 -22.967 -16.580  0.00  0.00    -0.337 NA
ATOM      4  N   UNL     1      35.789 -23.484 -16.147  0.00  0.00    -0.169 NA
ATOM      5  C   UNL     1      34.779 -22.943 -16.854  0.00  0.00    +0.149 C 
ATOM      6  C   UNL     1      31.845 -23.815 -14.901  0.00  0.00    +0.036 A 
ATOM      7  C   UNL     1      33.156 -23.633 -15.435  0.00  0.00    +0.152 A 
ATOM      8  C   UNL     1      34.131 -24.227 -14.636  0.00  0.00    +0.080 A 
ATOM      9  C   UNL     1      31.855 -24.534 -13.728  0.00  0.00    +0.010 A 
ATOM     10  C   UNL     1      35.466 -24.140 -15.015  0.00  0.00    +0.121 C 
ATOM     11  C   UNL     1      30.721 -24.937 -12.863  0.00  0.00    +0.038 C 
ATOM     12  H   UNL     1      36.132 -22.253 -18.224  0.00  0.00    +0.165 HD
ENDROOT
BRANCH   6  14
ATOM     13  F   UNL     1      27.079 -21.896 -17.057  0.00  0.00    -0.204 F 
ATOM     14  C   UNL     1      30.609 -23.334 -15.466  0.00  0.00    +0.037 C 
ATOM     15  C   UNL     1      29.841 -24.143 -16.303  0.00  0.00    +0.141 C 
ATOM     16  C   UNL     1      30.184 -22.039 -15.166  0.00  0.00    +0.005 C 
ATOM     17  C   UNL     1      28.649 -23.657 -16.840  0.00  0.00    +0.066 C 
ATOM     18  C   UNL     1      28.993 -21.553 -15.703  0.00  0.00    +0.030 C 
ATOM     19  C   UNL     1      28.224 -22.363 -16.541  0.00  0.00    +0.143 C 
BRANCH  15  20
ATOM     20  O   UNL     1      30.230 -25.413 -16.612  0.00  0.00    -0.471 OA
ATOM     21  C   UNL     1      29.559 -26.477 -15.942  0.00  0.00    +0.252 C 
ENDBRANCH  15  20
ENDBRANCH   6  14
BRANCH   2  25
ATOM     22  N   UNL     1      33.921 -20.263 -20.674  0.00  0.00    -0.211 N 
ATOM     23  N   UNL     1      32.775 -20.901 -20.379  0.00  0.00    -0.175 NA
ATOM     24  C   UNL     1      34.976 -20.635 -19.893  0.00  0.00    +0.101 C 
ATOM     25  C   UNL     1      34.486 -21.583 -19.028  0.00  0.00    +0.095 C 
ATOM     26  C   UNL     1      33.126 -21.707 -19.374  0.00  0.00    +0.134 C 
BRANCH  22  28
ATOM     27  N   UNL     1      35.289 -17.222 -23.437  0.00  0.00    +0.384 N 
ATOM     28  C   UNL     1      33.945 -19.236 -21.789  0.00  0.00    +0.092 C 
ATOM     29  C   UNL     1      34.253 -17.820 -21.272  0.00  0.00    -0.002 C 
ATOM     30  C   UNL     1      34.933 -19.611 -22.906  0.00  0.00    -0.002 C 
ATOM     31  C   UNL     1      34.967 -18.537 -23.992  0.00  0.00    -0.080 C 
ATOM     32  C   UNL     1      34.315 -16.816 -22.424  0.00  0.00    -0.080 C 
ATOM     33  H   UNL     1      35.290 -16.535 -24.190  0.00  0.00    -0.085 HD
ATOM     34  H   UNL     1      36.207 -17.277 -22.995  0.00  0.00    -0.085 HD
ENDBRANCH  22  28
ENDBRANCH   2  25
TORSDOF 4
ENDMDL
MODEL 7
REMARK VINA RESULT:      -7.6      7.990     13.307
REMARK  Name = 126495573
REMARK  4 active torsions:
REMARK  status: ('A' for Active; 'I' for Inactive)
REMARK    1  A    between atoms: N_2  and  C_25
REMARK    2  A    between atoms: C_6  and  C_14
REMARK    3  A    between atoms: C_15  and  O_20
REMARK    4  A    between atoms: N_22  and  C_28
REMARK                            x       y       z     vdW  Elec       q    Type
REMARK                         _______ _______ _______ _____ _____    ______ ____
ROOT
ATOM      1  S   UNL     1      31.213  -8.263 -21.739  0.00  0.00    -0.087 S 
ATOM      2  N   UNL     1      32.491 -13.734 -20.315  0.00  0.00    -0.244 N 
ATOM      3  N   UNL     1      32.641 -11.875 -21.777  0.00  0.00    -0.337 NA
ATOM      4  N   UNL     1      31.362 -11.733 -19.727  0.00  0.00    -0.169 NA
ATOM      5  C   UNL     1      32.143 -12.359 -20.627  0.00  0.00    +0.149 C 
ATOM      6  C   UNL     1      32.671  -9.819 -23.168  0.00  0.00    +0.036 A 
ATOM      7  C   UNL     1      32.287 -10.586 -22.026  0.00  0.00    +0.152 A 
ATOM      8  C   UNL     1      31.483  -9.854 -21.155  0.00  0.00    +0.080 A 
ATOM      9  C   UNL     1      32.155  -8.544 -23.137  0.00  0.00    +0.010 A 
ATOM     10  C   UNL     1      31.022 -10.456 -19.989  0.00  0.00    +0.121 C 
ATOM     11  C   UNL     1      32.313  -7.442 -24.116  0.00  0.00    +0.038 C 
ATOM     12  H   UNL     1      32.103 -14.042 -19.465  0.00  0.00    +0.165 HD
ENDROOT
BRANCH   6  14
ATOM     13  F   UNL     1      35.822 -11.555 -27.422  0.00  0.00    -0.204 F 
ATOM     14  C   UNL     1      33.498 -10.258 -24.263  0.00  0.00    +0.037 C 
ATOM     15  C   UNL     1      34.765  -9.711 -24.468  0.00  0.00    +0.141 C 
ATOM     16  C   UNL     1      33.017 -11.245 -25.125  0.00  0.00    +0.005 C 
ATOM     17  C   UNL     1      35.549 -10.149 -25.535  0.00  0.00    +0.066 C 
ATOM     18  C   UNL     1      33.801 -11.682 -26.192  0.00  0.00    +0.030 C 
ATOM     19  C   UNL     1      35.068 -11.134 -26.397  0.00  0.00    +0.143 C 
BRANCH  15  20
ATOM     20  O   UNL     1      35.261  -8.747 -23.642  0.00  0.00    -0.471 OA
ATOM     21  C   UNL     1      35.214  -7.402 -24.115  0.00  0.00    +0.252 C 
ENDBRANCH  15  20
ENDBRANCH   6  14
BRANCH   2  25
ATOM     22  N   UNL     1      34.163 -16.568 -21.508  0.00  0.00    -0.211 N 
ATOM     23  N   UNL     1      34.667 -15.685 -22.388  0.00  0.00    -0.175 NA
ATOM     24  C   UNL     1      33.295 -16.018 -20.611  0.00  0.00    +0.101 C 
ATOM     25  C   UNL     1      33.225 -14.683 -20.927  0.00  0.00    +0.095 C 
ATOM     26  C   UNL     1      34.090 -14.535 -22.028  0.00  0.00    +0.134 C 
BRANCH  22  28
ATOM     27  N   UNL     1      35.326 -20.576 -20.353  0.00  0.00    +0.384 N 
ATOM     28  C   UNL     1      34.580 -18.024 -21.580  0.00  0.00    +0.092 C 
ATOM     29  C   UNL     1      35.967 -18.265 -20.958  0.00  0.00    -0.002 C 
ATOM     30  C   UNL     1      33.546 -18.960 -20.932  0.00  0.00    -0.002 C 
ATOM     31  C   UNL     1      34.015 -20.414 -20.981  0.00  0.00    -0.080 C 
ATOM     32  C   UNL     1      36.340 -19.747 -21.006  0.00  0.00    -0.080 C 
ATOM     33  H   UNL     1      35.606 -21.554 -20.418  0.00  0.00    -0.085 HD
ATOM     34  H   UNL     1      35.252 -20.284 -19.378  0.00  0.00    -0.085 HD
ENDBRANCH  22  28
ENDBRANCH   2  25
TORSDOF 4
ENDMDL
MODEL 8
REMARK VINA RESULT:      -7.6      9.278     13.203
REMARK  Name = 126495573
REMARK  4 active torsions:
REMARK  status: ('A' for Active; 'I' for Inactive)
REMARK    1  A    between atoms: N_2  and  C_25
REMARK    2  A    between atoms: C_6  and  C_14
REMARK    3  A    between atoms: C_15  and  O_20
REMARK    4  A    between atoms: N_22  and  C_28
REMARK                            x       y       z     vdW  Elec       q    Type
REMARK                         _______ _______ _______ _____ _____    ______ ____
ROOT
ATOM      1  S   UNL     1      30.847  -8.521 -21.981  0.00  0.00    -0.087 S 
ATOM      2  N   UNL     1      32.637 -13.751 -20.241  0.00  0.00    -0.244 N 
ATOM      3  N   UNL     1      32.647 -11.957 -21.790  0.00  0.00    -0.337 NA
ATOM      4  N   UNL     1      31.281 -11.857 -19.793  0.00  0.00    -0.169 NA
ATOM      5  C   UNL     1      32.158 -12.437 -20.634  0.00  0.00    +0.149 C 
ATOM      6  C   UNL     1      32.516  -9.976 -23.280  0.00  0.00    +0.036 A 
ATOM      7  C   UNL     1      32.170 -10.726 -22.115  0.00  0.00    +0.152 A 
ATOM      8  C   UNL     1      31.260 -10.045 -21.309  0.00  0.00    +0.080 A 
ATOM      9  C   UNL     1      31.868  -8.764 -23.331  0.00  0.00    +0.010 A 
ATOM     10  C   UNL     1      30.819 -10.637 -20.131  0.00  0.00    +0.121 C 
ATOM     11  C   UNL     1      31.947  -7.698 -24.358  0.00  0.00    +0.038 C 
ATOM     12  H   UNL     1      32.251 -14.059 -19.391  0.00  0.00    +0.165 HD
ENDROOT
BRANCH   6  14
ATOM     13  F   UNL     1      35.993 -11.556 -27.336  0.00  0.00    -0.204 F 
ATOM     14  C   UNL     1      33.427 -10.375 -24.323  0.00  0.00    +0.037 C 
ATOM     15  C   UNL     1      34.692  -9.797 -24.428  0.00  0.00    +0.141 C 
ATOM     16  C   UNL     1      33.029 -11.353 -25.235  0.00  0.00    +0.005 C 
ATOM     17  C   UNL     1      35.558 -10.195 -25.446  0.00  0.00    +0.066 C 
ATOM     18  C   UNL     1      33.896 -11.751 -26.253  0.00  0.00    +0.030 C 
ATOM     19  C   UNL     1      35.161 -11.172 -26.358  0.00  0.00    +0.143 C 
BRANCH  15  20
ATOM     20  O   UNL     1      35.108  -8.840 -23.550  0.00  0.00    -0.471 OA
ATOM     21  C   UNL     1      35.102  -7.491 -24.013  0.00  0.00    +0.252 C 
ENDBRANCH  15  20
ENDBRANCH   6  14
BRANCH   2  25
ATOM     22  N   UNL     1      34.486 -16.071 -22.099  0.00  0.00    -0.211 N 
ATOM     23  N   UNL     1      35.290 -16.030 -21.022  0.00  0.00    -0.175 NA
ATOM     24  C   UNL     1      33.394 -15.260 -22.003  0.00  0.00    +0.101 C 
ATOM     25  C   UNL     1      33.490 -14.644 -20.779  0.00  0.00    +0.095 C 
ATOM     26  C   UNL     1      34.676 -15.156 -20.219  0.00  0.00    +0.134 C 
BRANCH  22  28
ATOM     27  N   UNL     1      34.154 -18.894 -25.366  0.00  0.00    +0.384 N 
ATOM     28  C   UNL     1      34.840 -16.969 -23.268  0.00  0.00    +0.092 C 
ATOM     29  C   UNL     1      34.567 -18.453 -22.967  0.00  0.00    -0.002 C 
ATOM     30  C   UNL     1      34.118 -16.555 -24.561  0.00  0.00    -0.002 C 
ATOM     31  C   UNL     1      34.460 -17.505 -25.709  0.00  0.00    -0.080 C 
ATOM     32  C   UNL     1      34.891 -19.328 -24.179  0.00  0.00    -0.080 C 
ATOM     33  H   UNL     1      34.407 -19.493 -26.151  0.00  0.00    -0.085 HD
ATOM     34  H   UNL     1      33.156 -18.961 -25.165  0.00  0.00    -0.085 HD
ENDBRANCH  22  28
ENDBRANCH   2  25
TORSDOF 4
ENDMDL
MODEL 9
REMARK VINA RESULT:      -7.2     10.316     14.003
REMARK  Name = 126495573
REMARK  4 active torsions:
REMARK  status: ('A' for Active; 'I' for Inactive)
REMARK    1  A    between atoms: N_2  and  C_25
REMARK    2  A    between atoms: C_6  and  C_14
REMARK    3  A    between atoms: C_15  and  O_20
REMARK    4  A    between atoms: N_22  and  C_28
REMARK                            x       y       z     vdW  Elec       q    Type
REMARK                         _______ _______ _______ _____ _____    ______ ____
ROOT
ATOM      1  S   UNL     1      33.180 -15.508 -20.938  0.00  0.00    -0.087 S 
ATOM      2  N   UNL     1      31.481  -9.967 -20.901  0.00  0.00    -0.244 N 
ATOM      3  N   UNL     1      32.294 -11.887 -22.028  0.00  0.00    -0.337 NA
ATOM      4  N   UNL     1      31.836 -11.951 -19.652  0.00  0.00    -0.169 NA
ATOM      5  C   UNL     1      31.897 -11.358 -20.858  0.00  0.00    +0.149 C 
ATOM      6  C   UNL     1      33.137 -14.002 -23.016  0.00  0.00    +0.036 A 
ATOM      7  C   UNL     1      32.674 -13.190 -21.938  0.00  0.00    +0.152 A 
ATOM      8  C   UNL     1      32.645 -13.890 -20.733  0.00  0.00    +0.080 A 
ATOM      9  C   UNL     1      33.447 -15.280 -22.610  0.00  0.00    +0.010 A 
ATOM     10  C   UNL     1      32.215 -13.242 -19.580  0.00  0.00    +0.121 C 
ATOM     11  C   UNL     1      33.954 -16.422 -23.408  0.00  0.00    +0.038 C 
ATOM     12  H   UNL     1      31.201  -9.626 -20.022  0.00  0.00    +0.165 HD
ENDROOT
BRANCH   6  14
ATOM     13  F   UNL     1      33.697 -12.513 -28.355  0.00  0.00    -0.204 F 
ATOM     14  C   UNL     1      33.290 -13.603 -24.393  0.00  0.00    +0.037 C 
ATOM     15  C   UNL     1      33.838 -12.363 -24.722  0.00  0.00    +0.141 C 
ATOM     16  C   UNL     1      32.880 -14.475 -25.402  0.00  0.00    +0.005 C 
ATOM     17  C   UNL     1      33.975 -11.995 -26.060  0.00  0.00    +0.066 C 
ATOM     18  C   UNL     1      33.017 -14.107 -26.740  0.00  0.00    +0.030 C 
ATOM     19  C   UNL     1      33.565 -12.866 -27.069  0.00  0.00    +0.143 C 
BRANCH  15  20
ATOM     20  O   UNL     1      34.247 -11.491 -23.757  0.00  0.00    -0.471 OA
ATOM     21  C   UNL     1      34.401 -10.126 -24.141  0.00  0.00    +0.252 C 
ENDBRANCH  15  20
ENDBRANCH   6  14
BRANCH   2  25
ATOM     22  N   UNL     1      31.471  -7.183 -23.022  0.00  0.00    -0.211 N 
ATOM     23  N   UNL     1      30.975  -8.072 -23.900  0.00  0.00    -0.175 NA
ATOM     24  C   UNL     1      31.738  -7.711 -21.793  0.00  0.00    +0.101 C 
ATOM     25  C   UNL     1      31.393  -9.038 -21.873  0.00  0.00    +0.095 C 
ATOM     26  C   UNL     1      30.930  -9.204 -23.192  0.00  0.00    +0.134 C 
BRANCH  22  28
ATOM     27  N   UNL     1      30.739  -3.191 -24.530  0.00  0.00    +0.384 N 
ATOM     28  C   UNL     1      31.682  -5.743 -23.448  0.00  0.00    +0.092 C 
ATOM     29  C   UNL     1      31.414  -5.533 -24.948  0.00  0.00    -0.002 C 
ATOM     30  C   UNL     1      30.833  -4.761 -22.622  0.00  0.00    -0.002 C 
ATOM     31  C   UNL     1      31.033  -3.324 -23.104  0.00  0.00    -0.080 C 
ATOM     32  C   UNL     1      31.591  -4.065 -25.337  0.00  0.00    -0.080 C 
ATOM     33  H   UNL     1      30.896  -2.223 -24.812  0.00  0.00    -0.085 HD
ATOM     34  H   UNL     1      29.767  -3.460 -24.683  0.00  0.00    -0.085 HD
ENDBRANCH  22  28
ENDBRANCH   2  25
TORSDOF 4
ENDMDL
