MODEL 1
REMARK VINA RESULT:      -5.2      0.000      0.000
REMARK  Name = 444025
REMARK  8 active torsions:
REMARK  status: ('A' for Active; 'I' for Inactive)
REMARK    1  A    between atoms: C_6  and  C_24
REMARK    2  A    between atoms: C_6  and  O_28
REMARK    3  A    between atoms: C_8  and  O_21
REMARK    4  A    between atoms: C_24  and  O_25
REMARK    5  A    between atoms: O_25  and  C_27
REMARK    6  A    between atoms: O_28  and  C_30
REMARK    7  A    between atoms: C_30  and  O_31
REMARK    8  A    between atoms: O_31  and  C_32
REMARK                            x       y       z     vdW  Elec       q    Type
REMARK                         _______ _______ _______ _____ _____    ______ ____
ROOT
ATOM      1  O   UNL     1      36.140 -22.943 -15.231  0.00  0.00    -0.287 OA
ATOM      2  C   UNL     1      34.646 -18.130 -21.732  0.00  0.00    +0.046 C 
ATOM      3  C   UNL     1      33.634 -18.756 -20.747  0.00  0.00    +0.004 C 
ATOM      4  C   UNL     1      33.944 -20.219 -20.395  0.00  0.00    +0.003 C 
ATOM      5  C   UNL     1      35.361 -20.286 -19.724  0.00  0.00    +0.034 C 
ATOM      6  C   UNL     1      34.000 -16.727 -21.902  0.00  0.00    +0.227 C 
ATOM      7  C   UNL     1      36.031 -18.161 -21.054  0.00  0.00    +0.033 C 
ATOM      8  C   UNL     1      36.449 -19.574 -20.588  0.00  0.00    +0.111 C 
ATOM      9  C   UNL     1      32.281 -18.418 -21.368  0.00  0.00    +0.004 C 
ATOM     10  C   UNL     1      35.717 -21.742 -19.224  0.00  0.00    +0.036 C 
ATOM     11  C   UNL     1      32.483 -17.015 -21.976  0.00  0.00    +0.051 C 
ATOM     12  C   UNL     1      32.859 -20.789 -19.463  0.00  0.00    +0.004 C 
ATOM     13  C   UNL     1      34.691 -18.851 -23.108  0.00  0.00    +0.004 C 
ATOM     14  C   UNL     1      33.190 -22.196 -18.981  0.00  0.00    +0.022 C 
ATOM     15  C   UNL     1      34.556 -22.219 -18.343  0.00  0.00    -0.038 C 
ATOM     16  C   UNL     1      35.909 -22.770 -20.363  0.00  0.00    +0.009 C 
ATOM     17  C   UNL     1      37.024 -21.722 -18.446  0.00  0.00    -0.020 C 
ATOM     18  C   UNL     1      34.698 -22.600 -17.064  0.00  0.00    +0.034 C 
ATOM     19  C   UNL     1      37.172 -22.098 -17.172  0.00  0.00    +0.038 C 
ATOM     20  C   UNL     1      36.014 -22.578 -16.395  0.00  0.00    +0.195 C 
ENDROOT
BRANCH   8  21
ATOM     21  O   UNL     1      36.807 -20.360 -21.717  0.00  0.00    -0.384 OA
ATOM     22  H   UNL     1      36.006 -20.728 -22.121  0.00  0.00    +0.210 HD
ENDBRANCH   8  21
BRANCH   6  24
ATOM     23  O   UNL     1      35.677 -15.616 -23.224  0.00  0.00    -0.246 OA
ATOM     24  C   UNL     1      34.508 -15.944 -23.075  0.00  0.00    +0.355 C 
BRANCH  24  25
ATOM     25  O   UNL     1      33.475 -15.669 -23.921  0.00  0.00    -0.428 OA
BRANCH  25  27
ATOM     26 CL   UNL     1      32.728 -14.650 -26.206  0.00  0.00    -0.063 Cl
ATOM     27  C   UNL     1      33.784 -15.761 -25.314  0.00  0.00    +0.304 C 
ENDBRANCH  25  27
ENDBRANCH  24  25
ENDBRANCH   6  24
BRANCH   6  28
ATOM     28  O   UNL     1      34.269 -15.895 -20.778  0.00  0.00    -0.414 OA
BRANCH  28  30
ATOM     29  O   UNL     1      32.372 -15.263 -19.631  0.00  0.00    -0.203 OA
ATOM     30  C   UNL     1      33.273 -15.031 -20.426  0.00  0.00    +0.512 C 
BRANCH  30  31
ATOM     31  O   UNL     1      33.453 -13.868 -21.114  0.00  0.00    -0.418 OA
BRANCH  31  32
ATOM     32  C   UNL     1      32.260 -13.245 -21.599  0.00  0.00    +0.212 C 
ATOM     33  C   UNL     1      32.567 -12.537 -22.901  0.00  0.00    +0.051 C 
ENDBRANCH  31  32
ENDBRANCH  30  31
ENDBRANCH  28  30
ENDBRANCH   6  28
TORSDOF 8
ENDMDL
MODEL 2
REMARK VINA RESULT:      -4.1      4.907     10.614
REMARK  Name = 444025
REMARK  8 active torsions:
REMARK  status: ('A' for Active; 'I' for Inactive)
REMARK    1  A    between atoms: C_6  and  C_24
REMARK    2  A    between atoms: C_6  and  O_28
REMARK    3  A    between atoms: C_8  and  O_21
REMARK    4  A    between atoms: C_24  and  O_25
REMARK    5  A    between atoms: O_25  and  C_27
REMARK    6  A    between atoms: O_28  and  C_30
REMARK    7  A    between atoms: C_30  and  O_31
REMARK    8  A    between atoms: O_31  and  C_32
REMARK                            x       y       z     vdW  Elec       q    Type
REMARK                         _______ _______ _______ _____ _____    ______ ____
ROOT
ATOM      1  O   UNL     1      30.470  -5.024 -24.294  0.00  0.00    -0.287 OA
ATOM      2  C   UNL     1      33.571 -12.586 -23.368  0.00  0.00    +0.046 C 
ATOM      3  C   UNL     1      32.373 -11.943 -22.636  0.00  0.00    +0.004 C 
ATOM      4  C   UNL     1      32.625 -10.491 -22.202  0.00  0.00    +0.003 C 
ATOM      5  C   UNL     1      32.919  -9.628 -23.479  0.00  0.00    +0.034 C 
ATOM      6  C   UNL     1      32.998 -14.015 -23.585  0.00  0.00    +0.227 C 
ATOM      7  C   UNL     1      33.832 -11.760 -24.644  0.00  0.00    +0.033 C 
ATOM      8  C   UNL     1      34.045 -10.256 -24.361  0.00  0.00    +0.111 C 
ATOM      9  C   UNL     1      32.011 -12.978 -21.573  0.00  0.00    +0.004 C 
ATOM     10  C   UNL     1      33.080  -8.093 -23.139  0.00  0.00    +0.036 C 
ATOM     11  C   UNL     1      32.265 -14.334 -22.263  0.00  0.00    +0.051 C 
ATOM     12  C   UNL     1      31.414  -9.943 -21.426  0.00  0.00    +0.004 C 
ATOM     13  C   UNL     1      34.853 -12.669 -22.495  0.00  0.00    +0.004 C 
ATOM     14  C   UNL     1      31.564  -8.465 -21.087  0.00  0.00    +0.022 C 
ATOM     15  C   UNL     1      31.843  -7.671 -22.337  0.00  0.00    -0.038 C 
ATOM     16  C   UNL     1      34.333  -7.763 -22.296  0.00  0.00    +0.009 C 
ATOM     17  C   UNL     1      33.206  -7.285 -24.421  0.00  0.00    -0.020 C 
ATOM     18  C   UNL     1      31.010  -6.689 -22.714  0.00  0.00    +0.034 C 
ATOM     19  C   UNL     1      32.379  -6.307 -24.804  0.00  0.00    +0.038 C 
ATOM     20  C   UNL     1      31.226  -5.931 -23.964  0.00  0.00    +0.195 C 
ENDROOT
BRANCH   8  21
ATOM     21  O   UNL     1      35.326 -10.058 -23.778  0.00  0.00    -0.384 OA
ATOM     22  H   UNL     1      35.725 -10.919 -23.576  0.00  0.00    +0.210 HD
ENDBRANCH   8  21
BRANCH   6  24
ATOM     23  O   UNL     1      34.931 -14.856 -24.749  0.00  0.00    -0.246 OA
ATOM     24  C   UNL     1      34.020 -15.047 -23.955  0.00  0.00    +0.355 C 
BRANCH  24  25
ATOM     25  O   UNL     1      33.769 -16.201 -23.274  0.00  0.00    -0.428 OA
BRANCH  25  27
ATOM     26 CL   UNL     1      34.887 -16.413 -20.924  0.00  0.00    -0.063 Cl
ATOM     27  C   UNL     1      34.906 -16.806 -22.653  0.00  0.00    +0.304 C 
ENDBRANCH  25  27
ENDBRANCH  24  25
ENDBRANCH   6  24
BRANCH   6  28
ATOM     28  O   UNL     1      32.066 -14.039 -24.661  0.00  0.00    -0.414 OA
BRANCH  28  30
ATOM     29  O   UNL     1      32.746 -15.597 -26.217  0.00  0.00    -0.203 OA
ATOM     30  C   UNL     1      32.561 -14.439 -25.868  0.00  0.00    +0.512 C 
BRANCH  30  31
ATOM     31  O   UNL     1      32.817 -13.328 -26.616  0.00  0.00    -0.418 OA
BRANCH  31  32
ATOM     32  C   UNL     1      33.743 -13.506 -27.691  0.00  0.00    +0.212 C 
ATOM     33  C   UNL     1      34.848 -12.480 -27.566  0.00  0.00    +0.051 C 
ENDBRANCH  31  32
ENDBRANCH  30  31
ENDBRANCH  28  30
ENDBRANCH   6  28
TORSDOF 8
ENDMDL
MODEL 3
REMARK VINA RESULT:      -3.6      6.275     10.064
REMARK  Name = 444025
REMARK  8 active torsions:
REMARK  status: ('A' for Active; 'I' for Inactive)
REMARK    1  A    between atoms: C_6  and  C_24
REMARK    2  A    between atoms: C_6  and  O_28
REMARK    3  A    between atoms: C_8  and  O_21
REMARK    4  A    between atoms: C_24  and  O_25
REMARK    5  A    between atoms: O_25  and  C_27
REMARK    6  A    between atoms: O_28  and  C_30
REMARK    7  A    between atoms: C_30  and  O_31
REMARK    8  A    between atoms: O_31  and  C_32
REMARK                            x       y       z     vdW  Elec       q    Type
REMARK                         _______ _______ _______ _____ _____    ______ ____
ROOT
ATOM      1  O   UNL     1      26.921 -22.205 -17.460  0.00  0.00    -0.287 OA
ATOM      2  C   UNL     1      34.240 -23.655 -13.997  0.00  0.00    +0.046 C 
ATOM      3  C   UNL     1      33.649 -24.267 -15.286  0.00  0.00    +0.004 C 
ATOM      4  C   UNL     1      32.171 -24.664 -15.156  0.00  0.00    +0.003 C 
ATOM      5  C   UNL     1      31.334 -23.382 -14.814  0.00  0.00    +0.034 C 
ATOM      6  C   UNL     1      35.708 -23.448 -14.465  0.00  0.00    +0.227 C 
ATOM      7  C   UNL     1      33.441 -22.373 -13.685  0.00  0.00    +0.033 C 
ATOM      8  C   UNL     1      31.918 -22.615 -13.585  0.00  0.00    +0.111 C 
ATOM      9  C   UNL     1      34.669 -25.337 -15.670  0.00  0.00    +0.004 C 
ATOM     10  C   UNL     1      29.781 -23.675 -14.772  0.00  0.00    +0.036 C 
ATOM     11  C   UNL     1      36.028 -24.721 -15.281  0.00  0.00    +0.051 C 
ATOM     12  C   UNL     1      31.674 -25.322 -16.457  0.00  0.00    +0.004 C 
ATOM     13  C   UNL     1      34.213 -24.628 -12.786  0.00  0.00    +0.004 C 
ATOM     14  C   UNL     1      30.179 -25.615 -16.423  0.00  0.00    +0.022 C 
ATOM     15  C   UNL     1      29.410 -24.361 -16.092  0.00  0.00    -0.038 C 
ATOM     16  C   UNL     1      29.346 -24.600 -13.612  0.00  0.00    +0.009 C 
ATOM     17  C   UNL     1      29.009 -22.377 -14.593  0.00  0.00    -0.020 C 
ATOM     18  C   UNL     1      28.495 -23.884 -16.950  0.00  0.00    +0.034 C 
ATOM     19  C   UNL     1      28.098 -21.894 -15.443  0.00  0.00    +0.038 C 
ATOM     20  C   UNL     1      27.768 -22.627 -16.680  0.00  0.00    +0.195 C 
ENDROOT
BRANCH   8  21
ATOM     21  O   UNL     1      31.622 -23.287 -12.369  0.00  0.00    -0.384 OA
ATOM     22  H   UNL     1      32.435 -23.389 -11.850  0.00  0.00    +0.210 HD
ENDBRANCH   8  21
BRANCH   6  24
ATOM     23  O   UNL     1      36.463 -22.475 -12.396  0.00  0.00    -0.246 OA
ATOM     24  C   UNL     1      36.686 -23.198 -13.357  0.00  0.00    +0.355 C 
BRANCH  24  25
ATOM     25  O   UNL     1      37.833 -23.896 -13.596  0.00  0.00    -0.428 OA
BRANCH  25  27
ATOM     26 CL   UNL     1      37.461 -26.192 -12.410  0.00  0.00    -0.063 Cl
ATOM     27  C   UNL     1      38.333 -24.650 -12.489  0.00  0.00    +0.304 C 
ENDBRANCH  25  27
ENDBRANCH  24  25
ENDBRANCH   6  24
BRANCH   6  28
ATOM     28  O   UNL     1      35.826 -22.305 -15.305  0.00  0.00    -0.414 OA
BRANCH  28  30
ATOM     29  O   UNL     1      37.848 -22.561 -16.380  0.00  0.00    -0.203 OA
ATOM     30  C   UNL     1      36.630 -22.451 -16.398  0.00  0.00    +0.512 C 
BRANCH  30  31
ATOM     31  O   UNL     1      35.843 -22.450 -17.511  0.00  0.00    -0.418 OA
BRANCH  31  32
ATOM     32  C   UNL     1      36.318 -21.657 -18.604  0.00  0.00    +0.212 C 
ATOM     33  C   UNL     1      35.166 -21.371 -19.543  0.00  0.00    +0.051 C 
ENDBRANCH  31  32
ENDBRANCH  30  31
ENDBRANCH  28  30
ENDBRANCH   6  28
TORSDOF 8
ENDMDL
MODEL 4
REMARK VINA RESULT:      -3.5      5.626      9.440
REMARK  Name = 444025
REMARK  8 active torsions:
REMARK  status: ('A' for Active; 'I' for Inactive)
REMARK    1  A    between atoms: C_6  and  C_24
REMARK    2  A    between atoms: C_6  and  O_28
REMARK    3  A    between atoms: C_8  and  O_21
REMARK    4  A    between atoms: C_24  and  O_25
REMARK    5  A    between atoms: O_25  and  C_27
REMARK    6  A    between atoms: O_28  and  C_30
REMARK    7  A    between atoms: C_30  and  O_31
REMARK    8  A    between atoms: O_31  and  C_32
REMARK                            x       y       z     vdW  Elec       q    Type
REMARK                         _______ _______ _______ _____ _____    ______ ____
ROOT
ATOM      1  O   UNL     1      34.437 -15.759 -19.878  0.00  0.00    -0.287 OA
ATOM      2  C   UNL     1      32.764  -8.808 -23.947  0.00  0.00    +0.046 C 
ATOM      3  C   UNL     1      31.968  -9.463 -22.796  0.00  0.00    +0.004 C 
ATOM      4  C   UNL     1      31.830 -10.987 -22.934  0.00  0.00    +0.003 C 
ATOM      5  C   UNL     1      33.263 -11.624 -22.942  0.00  0.00    +0.034 C 
ATOM      6  C   UNL     1      32.645  -7.318 -23.521  0.00  0.00    +0.227 C 
ATOM      7  C   UNL     1      34.185  -9.408 -23.927  0.00  0.00    +0.033 C 
ATOM      8  C   UNL     1      34.195 -10.951 -23.999  0.00  0.00    +0.111 C 
ATOM      9  C   UNL     1      30.704  -8.612 -22.711  0.00  0.00    +0.004 C 
ATOM     10  C   UNL     1      33.214 -13.204 -22.967  0.00  0.00    +0.036 C 
ATOM     11  C   UNL     1      31.188  -7.181 -23.023  0.00  0.00    +0.051 C 
ATOM     12  C   UNL     1      30.973 -11.555 -21.788  0.00  0.00    +0.004 C 
ATOM     13  C   UNL     1      32.104  -9.005 -25.340  0.00  0.00    +0.004 C 
ATOM     14  C   UNL     1      30.915 -13.078 -21.809  0.00  0.00    +0.022 C 
ATOM     15  C   UNL     1      32.309 -13.652 -21.815  0.00  0.00    -0.038 C 
ATOM     16  C   UNL     1      32.650 -13.795 -24.279  0.00  0.00    +0.009 C 
ATOM     17  C   UNL     1      34.617 -13.772 -22.816  0.00  0.00    -0.020 C 
ATOM     18  C   UNL     1      32.707 -14.468 -20.827  0.00  0.00    +0.034 C 
ATOM     19  C   UNL     1      35.022 -14.584 -21.834  0.00  0.00    +0.038 C 
ATOM     20  C   UNL     1      34.084 -15.000 -20.775  0.00  0.00    +0.195 C 
ENDROOT
BRANCH   8  21
ATOM     21  O   UNL     1      33.865 -11.368 -25.317  0.00  0.00    -0.384 OA
ATOM     22  H   UNL     1      32.902 -11.345 -25.431  0.00  0.00    +0.210 HD
ENDBRANCH   8  21
BRANCH   6  24
ATOM     23  O   UNL     1      34.118  -6.198 -25.061  0.00  0.00    -0.246 OA
ATOM     24  C   UNL     1      32.995  -6.333 -24.595  0.00  0.00    +0.355 C 
BRANCH  24  25
ATOM     25  O   UNL     1      31.881  -5.634 -24.953  0.00  0.00    -0.428 OA
BRANCH  25  27
ATOM     26 CL   UNL     1      31.491  -3.543 -23.439  0.00  0.00    -0.063 Cl
ATOM     27  C   UNL     1      32.033  -4.213 -24.989  0.00  0.00    +0.304 C 
ENDBRANCH  25  27
ENDBRANCH  24  25
ENDBRANCH   6  24
BRANCH   6  28
ATOM     28  O   UNL     1      33.540  -7.013 -22.456  0.00  0.00    -0.414 OA
BRANCH  28  30
ATOM     29  O   UNL     1      32.320  -5.704 -21.002  0.00  0.00    -0.203 OA
ATOM     30  C   UNL     1      32.957  -6.717 -21.257  0.00  0.00    +0.512 C 
BRANCH  30  31
ATOM     31  O   UNL     1      33.210  -7.742 -20.395  0.00  0.00    -0.418 OA
BRANCH  31  32
ATOM     32  C   UNL     1      32.133  -8.095 -19.521  0.00  0.00    +0.212 C 
ATOM     33  C   UNL     1      32.182  -9.584 -19.254  0.00  0.00    +0.051 C 
ENDBRANCH  31  32
ENDBRANCH  30  31
ENDBRANCH  28  30
ENDBRANCH   6  28
TORSDOF 8
ENDMDL
MODEL 5
REMARK VINA RESULT:      -3.2      4.343      8.810
REMARK  Name = 444025
REMARK  8 active torsions:
REMARK  status: ('A' for Active; 'I' for Inactive)
REMARK    1  A    between atoms: C_6  and  C_24
REMARK    2  A    between atoms: C_6  and  O_28
REMARK    3  A    between atoms: C_8  and  O_21
REMARK    4  A    between atoms: C_24  and  O_25
REMARK    5  A    between atoms: O_25  and  C_27
REMARK    6  A    between atoms: O_28  and  C_30
REMARK    7  A    between atoms: C_30  and  O_31
REMARK    8  A    between atoms: O_31  and  C_32
REMARK                            x       y       z     vdW  Elec       q    Type
REMARK                         _______ _______ _______ _____ _____    ______ ____
ROOT
ATOM      1  O   UNL     1      35.921 -17.588 -21.600  0.00  0.00    -0.287 OA
ATOM      2  C   UNL     1      33.574 -23.589 -16.487  0.00  0.00    +0.046 C 
ATOM      3  C   UNL     1      34.697 -22.546 -16.293  0.00  0.00    +0.004 C 
ATOM      4  C   UNL     1      35.549 -22.319 -17.551  0.00  0.00    +0.003 C 
ATOM      5  C   UNL     1      34.617 -21.803 -18.704  0.00  0.00    +0.034 C 
ATOM      6  C   UNL     1      32.991 -23.604 -15.047  0.00  0.00    +0.227 C 
ATOM      7  C   UNL     1      32.638 -23.061 -17.593  0.00  0.00    +0.033 C 
ATOM      8  C   UNL     1      33.376 -22.729 -18.909  0.00  0.00    +0.111 C 
ATOM      9  C   UNL     1      35.386 -23.002 -15.009  0.00  0.00    +0.004 C 
ATOM     10  C   UNL     1      35.429 -21.434 -20.008  0.00  0.00    +0.036 C 
ATOM     11  C   UNL     1      34.236 -23.540 -14.133  0.00  0.00    +0.051 C 
ATOM     12  C   UNL     1      36.681 -21.317 -17.261  0.00  0.00    +0.004 C 
ATOM     13  C   UNL     1      34.106 -25.004 -16.847  0.00  0.00    +0.004 C 
ATOM     14  C   UNL     1      37.474 -20.961 -18.512  0.00  0.00    +0.022 C 
ATOM     15  C   UNL     1      36.546 -20.469 -19.594  0.00  0.00    -0.038 C 
ATOM     16  C   UNL     1      36.079 -22.648 -20.710  0.00  0.00    +0.009 C 
ATOM     17  C   UNL     1      34.505 -20.795 -21.034  0.00  0.00    -0.020 C 
ATOM     18  C   UNL     1      36.697 -19.238 -20.105  0.00  0.00    +0.034 C 
ATOM     19  C   UNL     1      34.648 -19.568 -21.547  0.00  0.00    +0.038 C 
ATOM     20  C   UNL     1      35.769 -18.708 -21.124  0.00  0.00    +0.195 C 
ENDROOT
BRANCH   8  21
ATOM     21  O   UNL     1      33.737 -23.935 -19.568  0.00  0.00    -0.384 OA
ATOM     22  H   UNL     1      33.036 -24.184 -20.191  0.00  0.00    +0.210 HD
ENDBRANCH   8  21
BRANCH   6  24
ATOM     23  O   UNL     1      32.284 -25.553 -13.823  0.00  0.00    -0.246 OA
ATOM     24  C   UNL     1      32.101 -24.772 -14.746  0.00  0.00    +0.355 C 
BRANCH  24  25
ATOM     25  O   UNL     1      31.081 -24.812 -15.650  0.00  0.00    -0.428 OA
BRANCH  25  27
ATOM     26 CL   UNL     1      28.857 -25.346 -14.390  0.00  0.00    -0.063 Cl
ATOM     27  C   UNL     1      30.151 -25.884 -15.478  0.00  0.00    +0.304 C 
ENDBRANCH  25  27
ENDBRANCH  24  25
ENDBRANCH   6  24
BRANCH   6  28
ATOM     28  O   UNL     1      32.171 -22.464 -14.810  0.00  0.00    -0.414 OA
BRANCH  28  30
ATOM     29  O   UNL     1      31.689 -22.745 -12.574  0.00  0.00    -0.203 OA
ATOM     30  C   UNL     1      31.341 -22.543 -13.729  0.00  0.00    +0.512 C 
BRANCH  30  31
ATOM     31  O   UNL     1      30.060 -22.361 -14.159  0.00  0.00    -0.418 OA
BRANCH  31  32
ATOM     32  C   UNL     1      29.916 -22.001 -15.537  0.00  0.00    +0.212 C 
ATOM     33  C   UNL     1      28.521 -22.366 -15.998  0.00  0.00    +0.051 C 
ENDBRANCH  31  32
ENDBRANCH  30  31
ENDBRANCH  28  30
ENDBRANCH   6  28
TORSDOF 8
ENDMDL
MODEL 6
REMARK VINA RESULT:      -3.2      4.388      9.269
REMARK  Name = 444025
REMARK  8 active torsions:
REMARK  status: ('A' for Active; 'I' for Inactive)
REMARK    1  A    between atoms: C_6  and  C_24
REMARK    2  A    between atoms: C_6  and  O_28
REMARK    3  A    between atoms: C_8  and  O_21
REMARK    4  A    between atoms: C_24  and  O_25
REMARK    5  A    between atoms: O_25  and  C_27
REMARK    6  A    between atoms: O_28  and  C_30
REMARK    7  A    between atoms: C_30  and  O_31
REMARK    8  A    between atoms: O_31  and  C_32
REMARK                            x       y       z     vdW  Elec       q    Type
REMARK                         _______ _______ _______ _____ _____    ______ ____
ROOT
ATOM      1  O   UNL     1      34.521 -17.830 -21.790  0.00  0.00    -0.287 OA
ATOM      2  C   UNL     1      34.326 -23.562 -15.893  0.00  0.00    +0.046 C 
ATOM      3  C   UNL     1      35.358 -22.431 -16.099  0.00  0.00    +0.004 C 
ATOM      4  C   UNL     1      35.779 -22.244 -17.565  0.00  0.00    +0.003 C 
ATOM      5  C   UNL     1      34.508 -21.886 -18.412  0.00  0.00    +0.034 C 
ATOM      6  C   UNL     1      34.195 -23.505 -14.345  0.00  0.00    +0.227 C 
ATOM      7  C   UNL     1      33.063 -23.188 -16.695  0.00  0.00    +0.033 C 
ATOM      8  C   UNL     1      33.350 -22.910 -18.187  0.00  0.00    +0.111 C 
ATOM      9  C   UNL     1      36.431 -22.736 -15.057  0.00  0.00    +0.004 C 
ATOM     10  C   UNL     1      34.865 -21.565 -19.918  0.00  0.00    +0.036 C 
ATOM     11  C   UNL     1      35.642 -23.282 -13.850  0.00  0.00    +0.051 C 
ATOM     12  C   UNL     1      36.853 -21.146 -17.681  0.00  0.00    +0.004 C 
ATOM     13  C   UNL     1      34.854 -24.960 -16.318  0.00  0.00    +0.004 C 
ATOM     14  C   UNL     1      37.208 -20.834 -19.129  0.00  0.00    +0.022 C 
ATOM     15  C   UNL     1      35.963 -20.495 -19.909  0.00  0.00    -0.038 C 
ATOM     16  C   UNL     1      35.387 -22.782 -20.716  0.00  0.00    +0.009 C 
ATOM     17  C   UNL     1      33.628 -21.074 -20.654  0.00  0.00    -0.020 C 
ATOM     18  C   UNL     1      35.846 -19.300 -20.508  0.00  0.00    +0.034 C 
ATOM     19  C   UNL     1      33.503 -19.885 -21.252  0.00  0.00    +0.038 C 
ATOM     20  C   UNL     1      34.616 -18.917 -21.230  0.00  0.00    +0.195 C 
ENDROOT
BRANCH   8  21
ATOM     21  O   UNL     1      33.608 -24.136 -18.858  0.00  0.00    -0.384 OA
ATOM     22  H   UNL     1      34.420 -24.533 -18.506  0.00  0.00    +0.210 HD
ENDBRANCH   8  21
BRANCH   6  24
ATOM     23  O   UNL     1      32.782 -25.454 -14.330  0.00  0.00    -0.246 OA
ATOM     24  C   UNL     1      33.541 -24.705 -13.730  0.00  0.00    +0.355 C 
BRANCH  24  25
ATOM     25  O   UNL     1      33.925 -24.816 -12.427  0.00  0.00    -0.428 OA
BRANCH  25  27
ATOM     26 CL   UNL     1      35.683 -24.333 -10.557  0.00  0.00    -0.063 Cl
ATOM     27  C   UNL     1      35.337 -24.880 -12.208  0.00  0.00    +0.304 C 
ENDBRANCH  25  27
ENDBRANCH  24  25
ENDBRANCH   6  24
BRANCH   6  28
ATOM     28  O   UNL     1      33.381 -22.410 -13.936  0.00  0.00    -0.414 OA
BRANCH  28  30
ATOM     29  O   UNL     1      31.643 -23.121 -12.600  0.00  0.00    -0.203 OA
ATOM     30  C   UNL     1      32.077 -22.707 -13.667  0.00  0.00    +0.512 C 
BRANCH  30  31
ATOM     31  O   UNL     1      31.342 -22.467 -14.790  0.00  0.00    -0.418 OA
BRANCH  31  32
ATOM     32  C   UNL     1      30.049 -23.078 -14.826  0.00  0.00    +0.212 C 
ATOM     33  C   UNL     1      29.419 -22.820 -16.178  0.00  0.00    +0.051 C 
ENDBRANCH  31  32
ENDBRANCH  30  31
ENDBRANCH  28  30
ENDBRANCH   6  28
TORSDOF 8
ENDMDL
MODEL 7
REMARK VINA RESULT:      -2.9      8.114     11.826
REMARK  Name = 444025
REMARK  8 active torsions:
REMARK  status: ('A' for Active; 'I' for Inactive)
REMARK    1  A    between atoms: C_6  and  C_24
REMARK    2  A    between atoms: C_6  and  O_28
REMARK    3  A    between atoms: C_8  and  O_21
REMARK    4  A    between atoms: C_24  and  O_25
REMARK    5  A    between atoms: O_25  and  C_27
REMARK    6  A    between atoms: O_28  and  C_30
REMARK    7  A    between atoms: C_30  and  O_31
REMARK    8  A    between atoms: O_31  and  C_32
REMARK                            x       y       z     vdW  Elec       q    Type
REMARK                         _______ _______ _______ _____ _____    ______ ____
ROOT
ATOM      1  O   UNL     1      32.992 -14.709 -26.633  0.00  0.00    -0.287 OA
ATOM      2  C   UNL     1      32.080  -7.449 -22.875  0.00  0.00    +0.046 C 
ATOM      3  C   UNL     1      33.102  -7.845 -23.963  0.00  0.00    +0.004 C 
ATOM      4  C   UNL     1      33.729  -9.230 -23.742  0.00  0.00    +0.003 C 
ATOM      5  C   UNL     1      32.587 -10.307 -23.749  0.00  0.00    +0.034 C 
ATOM      6  C   UNL     1      31.722  -6.021 -23.373  0.00  0.00    +0.227 C 
ATOM      7  C   UNL     1      30.940  -8.486 -22.911  0.00  0.00    +0.033 C 
ATOM      8  C   UNL     1      31.435  -9.941 -22.760  0.00  0.00    +0.111 C 
ATOM      9  C   UNL     1      34.018  -6.627 -24.050  0.00  0.00    +0.004 C 
ATOM     10  C   UNL     1      33.153 -11.778 -23.641  0.00  0.00    +0.036 C 
ATOM     11  C   UNL     1      33.074  -5.427 -23.828  0.00  0.00    +0.051 C 
ATOM     12  C   UNL     1      34.779  -9.525 -24.829  0.00  0.00    +0.004 C 
ATOM     13  C   UNL     1      32.700  -7.362 -21.453  0.00  0.00    +0.004 C 
ATOM     14  C   UNL     1      35.335 -10.940 -24.728  0.00  0.00    +0.022 C 
ATOM     15  C   UNL     1      34.210 -11.944 -24.738  0.00  0.00    -0.038 C 
ATOM     16  C   UNL     1      33.817 -12.099 -22.282  0.00  0.00    +0.009 C 
ATOM     17  C   UNL     1      32.025 -12.785 -23.809  0.00  0.00    -0.020 C 
ATOM     18  C   UNL     1      34.151 -12.883 -25.695  0.00  0.00    +0.034 C 
ATOM     19  C   UNL     1      31.959 -13.722 -24.760  0.00  0.00    +0.038 C 
ATOM     20  C   UNL     1      33.031 -13.843 -25.765  0.00  0.00    +0.195 C 
ENDROOT
BRANCH   8  21
ATOM     21  O   UNL     1      31.820 -10.175 -21.412  0.00  0.00    -0.384 OA
ATOM     22  H   UNL     1      32.098 -11.099 -21.311  0.00  0.00    +0.210 HD
ENDBRANCH   8  21
BRANCH   6  24
ATOM     23  O   UNL     1      29.986  -5.496 -21.789  0.00  0.00    -0.246 OA
ATOM     24  C   UNL     1      31.015  -5.167 -22.363  0.00  0.00    +0.355 C 
BRANCH  24  25
ATOM     25  O   UNL     1      31.696  -3.998 -22.198  0.00  0.00    -0.428 OA
BRANCH  25  27
ATOM     26 CL   UNL     1      32.042  -1.791 -23.550  0.00  0.00    -0.063 Cl
ATOM     27  C   UNL     1      30.982  -2.815 -22.564  0.00  0.00    +0.304 C 
ENDBRANCH  25  27
ENDBRANCH  24  25
ENDBRANCH   6  24
BRANCH   6  28
ATOM     28  O   UNL     1      30.829  -6.070 -24.481  0.00  0.00    -0.414 OA
BRANCH  28  30
ATOM     29  O   UNL     1      30.080  -4.044 -25.286  0.00  0.00    -0.203 OA
ATOM     30  C   UNL     1      30.857  -4.989 -25.315  0.00  0.00    +0.512 C 
BRANCH  30  31
ATOM     31  O   UNL     1      31.895  -5.146 -26.184  0.00  0.00    -0.418 OA
BRANCH  31  32
ATOM     32  C   UNL     1      32.281  -3.972 -26.905  0.00  0.00    +0.212 C 
ATOM     33  C   UNL     1      33.726  -4.108 -27.332  0.00  0.00    +0.051 C 
ENDBRANCH  31  32
ENDBRANCH  30  31
ENDBRANCH  28  30
ENDBRANCH   6  28
TORSDOF 8
ENDMDL
MODEL 8
REMARK VINA RESULT:      -2.7      4.306     10.033
REMARK  Name = 444025
REMARK  8 active torsions:
REMARK  status: ('A' for Active; 'I' for Inactive)
REMARK    1  A    between atoms: C_6  and  C_24
REMARK    2  A    between atoms: C_6  and  O_28
REMARK    3  A    between atoms: C_8  and  O_21
REMARK    4  A    between atoms: C_24  and  O_25
REMARK    5  A    between atoms: O_25  and  C_27
REMARK    6  A    between atoms: O_28  and  C_30
REMARK    7  A    between atoms: C_30  and  O_31
REMARK    8  A    between atoms: O_31  and  C_32
REMARK                            x       y       z     vdW  Elec       q    Type
REMARK                         _______ _______ _______ _____ _____    ______ ____
ROOT
ATOM      1  O   UNL     1      33.546 -17.975 -21.056  0.00  0.00    -0.287 OA
ATOM      2  C   UNL     1      35.773 -23.764 -15.652  0.00  0.00    +0.046 C 
ATOM      3  C   UNL     1      36.675 -22.785 -16.437  0.00  0.00    +0.004 C 
ATOM      4  C   UNL     1      36.270 -22.623 -17.910  0.00  0.00    +0.003 C 
ATOM      5  C   UNL     1      34.803 -22.070 -17.971  0.00  0.00    +0.034 C 
ATOM      6  C   UNL     1      36.496 -23.726 -14.277  0.00  0.00    +0.227 C 
ATOM      7  C   UNL     1      34.340 -23.198 -15.681  0.00  0.00    +0.033 C 
ATOM      8  C   UNL     1      33.820 -22.926 -17.110  0.00  0.00    +0.111 C 
ATOM      9  C   UNL     1      38.087 -23.262 -16.108  0.00  0.00    +0.004 C 
ATOM     10  C   UNL     1      34.341 -21.765 -19.452  0.00  0.00    +0.036 C 
ATOM     11  C   UNL     1      37.999 -23.721 -14.638  0.00  0.00    +0.051 C 
ATOM     12  C   UNL     1      37.250 -21.684 -18.637  0.00  0.00    +0.004 C 
ATOM     13  C   UNL     1      35.804 -25.212 -16.215  0.00  0.00    +0.004 C 
ATOM     14  C   UNL     1      36.816 -21.390 -20.068  0.00  0.00    +0.022 C 
ATOM     15  C   UNL     1      35.404 -20.861 -20.085  0.00  0.00    -0.038 C 
ATOM     16  C   UNL     1      34.192 -23.024 -20.337  0.00  0.00    +0.009 C 
ATOM     17  C   UNL     1      32.979 -21.088 -19.444  0.00  0.00    -0.020 C 
ATOM     18  C   UNL     1      35.144 -19.647 -20.595  0.00  0.00    +0.034 C 
ATOM     19  C   UNL     1      32.712 -19.879 -19.948  0.00  0.00    +0.038 C 
ATOM     20  C   UNL     1      33.781 -19.078 -20.574  0.00  0.00    +0.195 C 
ENDROOT
BRANCH   8  21
ATOM     21  O   UNL     1      33.517 -24.160 -17.748  0.00  0.00    -0.384 OA
ATOM     22  H   UNL     1      33.723 -24.094 -18.693  0.00  0.00    +0.210 HD
ENDBRANCH   8  21
BRANCH   6  24
ATOM     23  O   UNL     1      34.967 -25.117 -13.042  0.00  0.00    -0.246 OA
ATOM     24  C   UNL     1      36.120 -24.837 -13.344  0.00  0.00    +0.355 C 
BRANCH  24  25
ATOM     25  O   UNL     1      37.247 -25.465 -12.903  0.00  0.00    -0.428 OA
BRANCH  25  27
ATOM     26 CL   UNL     1      37.608 -27.272 -14.753  0.00  0.00    -0.063 Cl
ATOM     27  C   UNL     1      37.258 -26.886 -13.058  0.00  0.00    +0.304 C 
ENDBRANCH  25  27
ENDBRANCH  24  25
ENDBRANCH   6  24
BRANCH   6  28
ATOM     28  O   UNL     1      36.178 -22.539 -13.559  0.00  0.00    -0.414 OA
BRANCH  28  30
ATOM     29  O   UNL     1      37.968 -21.973 -12.223  0.00  0.00    -0.203 OA
ATOM     30  C   UNL     1      36.822 -22.374 -12.367  0.00  0.00    +0.512 C 
BRANCH  30  31
ATOM     31  O   UNL     1      35.969 -22.735 -11.367  0.00  0.00    -0.418 OA
BRANCH  31  32
ATOM     32  C   UNL     1      36.557 -23.464 -10.285  0.00  0.00    +0.212 C 
ATOM     33  C   UNL     1      35.579 -24.516  -9.809  0.00  0.00    +0.051 C 
ENDBRANCH  31  32
ENDBRANCH  30  31
ENDBRANCH  28  30
ENDBRANCH   6  28
TORSDOF 8
ENDMDL
MODEL 9
REMARK VINA RESULT:      -2.6      2.907      8.834
REMARK  Name = 444025
REMARK  8 active torsions:
REMARK  status: ('A' for Active; 'I' for Inactive)
REMARK    1  A    between atoms: C_6  and  C_24
REMARK    2  A    between atoms: C_6  and  O_28
REMARK    3  A    between atoms: C_8  and  O_21
REMARK    4  A    between atoms: C_24  and  O_25
REMARK    5  A    between atoms: O_25  and  C_27
REMARK    6  A    between atoms: O_28  and  C_30
REMARK    7  A    between atoms: C_30  and  O_31
REMARK    8  A    between atoms: O_31  and  C_32
REMARK                            x       y       z     vdW  Elec       q    Type
REMARK                         _______ _______ _______ _____ _____    ______ ____
ROOT
ATOM      1  O   UNL     1      35.711  -9.372 -26.250  0.00  0.00    -0.287 OA
ATOM      2  C   UNL     1      34.026 -16.454 -22.419  0.00  0.00    +0.046 C 
ATOM      3  C   UNL     1      34.280 -16.213 -23.924  0.00  0.00    +0.004 C 
ATOM      4  C   UNL     1      33.581 -14.959 -24.472  0.00  0.00    +0.003 C 
ATOM      5  C   UNL     1      34.113 -13.705 -23.694  0.00  0.00    +0.034 C 
ATOM      6  C   UNL     1      34.802 -17.789 -22.243  0.00  0.00    +0.227 C 
ATOM      7  C   UNL     1      34.586 -15.238 -21.654  0.00  0.00    +0.033 C 
ATOM      8  C   UNL     1      34.009 -13.891 -22.147  0.00  0.00    +0.111 C 
ATOM      9  C   UNL     1      33.970 -17.567 -24.557  0.00  0.00    +0.004 C 
ATOM     10  C   UNL     1      33.530 -12.354 -24.270  0.00  0.00    +0.036 C 
ATOM     11  C   UNL     1      34.469 -18.594 -23.520  0.00  0.00    +0.051 C 
ATOM     12  C   UNL     1      33.830 -14.823 -25.985  0.00  0.00    +0.004 C 
ATOM     13  C   UNL     1      32.526 -16.676 -22.078  0.00  0.00    +0.004 C 
ATOM     14  C   UNL     1      33.264 -13.526 -26.550  0.00  0.00    +0.022 C 
ATOM     15  C   UNL     1      33.799 -12.346 -25.779  0.00  0.00    -0.038 C 
ATOM     16  C   UNL     1      32.009 -12.181 -24.052  0.00  0.00    +0.009 C 
ATOM     17  C   UNL     1      34.194 -11.167 -23.588  0.00  0.00    -0.020 C 
ATOM     18  C   UNL     1      34.500 -11.390 -26.407  0.00  0.00    +0.034 C 
ATOM     19  C   UNL     1      34.895 -10.211 -24.206  0.00  0.00    +0.038 C 
ATOM     20  C   UNL     1      35.085 -10.252 -25.668  0.00  0.00    +0.195 C 
ENDROOT
BRANCH   8  21
ATOM     21  O   UNL     1      32.667 -13.757 -21.700  0.00  0.00    -0.384 OA
ATOM     22  H   UNL     1      32.207 -13.105 -22.252  0.00  0.00    +0.210 HD
ENDBRANCH   8  21
BRANCH   6  24
ATOM     23  O   UNL     1      34.704 -18.099 -19.857  0.00  0.00    -0.246 OA
ATOM     24  C   UNL     1      34.485 -18.532 -20.980  0.00  0.00    +0.355 C 
BRANCH  24  25
ATOM     25  O   UNL     1      33.925 -19.737 -21.288  0.00  0.00    -0.428 OA
BRANCH  25  27
ATOM     26 CL   UNL     1      33.331 -21.401 -19.366  0.00  0.00    -0.063 Cl
ATOM     27  C   UNL     1      32.812 -20.121 -20.478  0.00  0.00    +0.304 C 
ENDBRANCH  25  27
ENDBRANCH  24  25
ENDBRANCH   6  24
BRANCH   6  28
ATOM     28  O   UNL     1      36.207 -17.565 -22.177  0.00  0.00    -0.414 OA
BRANCH  28  30
ATOM     29  O   UNL     1      37.414 -19.216 -23.239  0.00  0.00    -0.203 OA
ATOM     30  C   UNL     1      36.990 -18.682 -22.223  0.00  0.00    +0.512 C 
BRANCH  30  31
ATOM     31  O   UNL     1      37.214 -19.099 -20.945  0.00  0.00    -0.418 OA
BRANCH  31  32
ATOM     32  C   UNL     1      37.184 -20.516 -20.743  0.00  0.00    +0.212 C 
ATOM     33  C   UNL     1      36.790 -20.801 -19.310  0.00  0.00    +0.051 C 
ENDBRANCH  31  32
ENDBRANCH  30  31
ENDBRANCH  28  30
ENDBRANCH   6  28
TORSDOF 8
ENDMDL
