MODEL 1
REMARK VINA RESULT:      -9.5      0.000      0.000
REMARK  Name = 56950369
REMARK  4 active torsions:
REMARK  status: ('A' for Active; 'I' for Inactive)
REMARK    1  A    between atoms: C_7  and  C_16
REMARK    2  A    between atoms: C_16  and  C_17
REMARK    3  A    between atoms: C_17  and  C_18
REMARK    4  A    between atoms: C_18  and  C_19
REMARK                            x       y       z     vdW  Elec       q    Type
REMARK                         _______ _______ _______ _____ _____    ______ ____
ROOT
ATOM      1  O   UNL     1      31.675 -23.289 -15.237  0.00  0.00    -0.405 OA
ATOM      2  O   UNL     1      36.396 -23.355 -16.138  0.00  0.00    -0.267 OA
ATOM      3  O   UNL     1      30.100 -22.774 -16.787  0.00  0.00    -0.244 OA
ATOM      4  O   UNL     1      34.762 -24.359 -11.963  0.00  0.00    -0.247 OA
ATOM      5  N   UNL     1      33.285 -23.819 -13.639  0.00  0.00    -0.278 N 
ATOM      6  N   UNL     1      35.576 -23.854 -14.060  0.00  0.00    -0.274 N 
ATOM      7  C   UNL     1      33.638 -22.896 -17.197  0.00  0.00    -0.007 C 
ATOM      8  C   UNL     1      34.014 -23.279 -15.845  0.00  0.00    +0.104 A 
ATOM      9  C   UNL     1      32.340 -22.731 -17.496  0.00  0.00    +0.078 C 
ATOM     10  C   UNL     1      33.041 -23.458 -14.936  0.00  0.00    +0.219 A 
ATOM     11  C   UNL     1      35.430 -23.491 -15.394  0.00  0.00    +0.265 A 
ATOM     12  C   UNL     1      31.280 -22.929 -16.492  0.00  0.00    +0.347 C 
ATOM     13  C   UNL     1      34.554 -24.035 -13.132  0.00  0.00    +0.329 A 
ATOM     14  H   UNL     1      32.516 -23.930 -13.034  0.00  0.00    +0.173 HD
ATOM     15  H   UNL     1      36.496 -23.998 -13.738  0.00  0.00    +0.173 HD
ENDROOT
BRANCH   7  16
ATOM     16  C   UNL     1      34.679 -22.680 -18.258  0.00  0.00    +0.027 C 
BRANCH  16  17
ATOM     17  C   UNL     1      34.091 -22.006 -19.492  0.00  0.00    +0.005 C 
BRANCH  17  18
ATOM     18  C   UNL     1      34.999 -20.878 -19.983  0.00  0.00    +0.000 C 
BRANCH  18  19
ATOM     19  C   UNL     1      34.244 -19.874 -20.799  0.00  0.00    +0.000 C 
ATOM     20  C   UNL     1      34.757 -19.552 -22.171  0.00  0.00    +0.000 C 
ATOM     21  C   UNL     1      34.899 -18.550 -21.064  0.00  0.00    +0.000 C 
ATOM     22  C   UNL     1      32.769 -19.892 -20.593  0.00  0.00    +0.000 C 
ENDBRANCH  18  19
ENDBRANCH  17  18
ENDBRANCH  16  17
ENDBRANCH   7  16
TORSDOF 4
ENDMDL
MODEL 2
REMARK VINA RESULT:      -9.4      4.543      6.156
REMARK  Name = 56950369
REMARK  4 active torsions:
REMARK  status: ('A' for Active; 'I' for Inactive)
REMARK    1  A    between atoms: C_7  and  C_16
REMARK    2  A    between atoms: C_16  and  C_17
REMARK    3  A    between atoms: C_17  and  C_18
REMARK    4  A    between atoms: C_18  and  C_19
REMARK                            x       y       z     vdW  Elec       q    Type
REMARK                         _______ _______ _______ _____ _____    ______ ____
ROOT
ATOM      1  O   UNL     1      37.131 -25.250 -11.748  0.00  0.00    -0.405 OA
ATOM      2  O   UNL     1      37.270 -23.376 -16.172  0.00  0.00    -0.267 OA
ATOM      3  O   UNL     1      35.353 -25.060 -10.350  0.00  0.00    -0.244 OA
ATOM      4  O   UNL     1      40.836 -25.723 -14.475  0.00  0.00    -0.247 OA
ATOM      5  N   UNL     1      38.961 -25.449 -13.175  0.00  0.00    -0.278 N 
ATOM      6  N   UNL     1      39.044 -24.546 -15.321  0.00  0.00    -0.274 N 
ATOM      7  C   UNL     1      35.705 -23.775 -13.656  0.00  0.00    -0.007 C 
ATOM      8  C   UNL     1      37.048 -24.251 -13.947  0.00  0.00    +0.104 A 
ATOM      9  C   UNL     1      35.155 -24.048 -12.462  0.00  0.00    +0.078 C 
ATOM     10  C   UNL     1      37.696 -24.955 -13.004  0.00  0.00    +0.219 A 
ATOM     11  C   UNL     1      37.765 -24.006 -15.243  0.00  0.00    +0.265 A 
ATOM     12  C   UNL     1      35.874 -24.821 -11.434  0.00  0.00    +0.347 C 
ATOM     13  C   UNL     1      39.699 -25.275 -14.331  0.00  0.00    +0.329 A 
ATOM     14  H   UNL     1      39.367 -25.957 -12.435  0.00  0.00    +0.173 HD
ATOM     15  H   UNL     1      39.536 -24.399 -16.162  0.00  0.00    +0.173 HD
ENDROOT
BRANCH   7  16
ATOM     16  C   UNL     1      34.930 -22.982 -14.668  0.00  0.00    +0.027 C 
BRANCH  16  17
ATOM     17  C   UNL     1      33.867 -23.833 -15.353  0.00  0.00    +0.005 C 
BRANCH  17  18
ATOM     18  C   UNL     1      32.539 -23.080 -15.447  0.00  0.00    +0.000 C 
BRANCH  18  19
ATOM     19  C   UNL     1      31.407 -23.878 -14.878  0.00  0.00    +0.000 C 
ATOM     20  C   UNL     1      30.236 -24.172 -15.768  0.00  0.00    +0.000 C 
ATOM     21  C   UNL     1      30.098 -23.177 -14.654  0.00  0.00    +0.000 C 
ATOM     22  C   UNL     1      31.816 -24.919 -13.896  0.00  0.00    +0.000 C 
ENDBRANCH  18  19
ENDBRANCH  17  18
ENDBRANCH  16  17
ENDBRANCH   7  16
TORSDOF 4
ENDMDL
MODEL 3
REMARK VINA RESULT:      -9.4      7.373     10.120
REMARK  Name = 56950369
REMARK  4 active torsions:
REMARK  status: ('A' for Active; 'I' for Inactive)
REMARK    1  A    between atoms: C_7  and  C_16
REMARK    2  A    between atoms: C_16  and  C_17
REMARK    3  A    between atoms: C_17  and  C_18
REMARK    4  A    between atoms: C_18  and  C_19
REMARK                            x       y       z     vdW  Elec       q    Type
REMARK                         _______ _______ _______ _____ _____    ______ ____
ROOT
ATOM      1  O   UNL     1      34.286 -16.964 -24.708  0.00  0.00    -0.405 OA
ATOM      2  O   UNL     1      34.696 -15.295 -20.219  0.00  0.00    -0.267 OA
ATOM      3  O   UNL     1      33.504 -15.734 -26.447  0.00  0.00    -0.244 OA
ATOM      4  O   UNL     1      35.897 -19.604 -21.269  0.00  0.00    -0.247 OA
ATOM      5  N   UNL     1      35.089 -18.235 -22.929  0.00  0.00    -0.278 N 
ATOM      6  N   UNL     1      35.293 -17.441 -20.748  0.00  0.00    -0.274 N 
ATOM      7  C   UNL     1      33.906 -14.739 -23.049  0.00  0.00    -0.007 C 
ATOM      8  C   UNL     1      34.433 -15.981 -22.506  0.00  0.00    +0.104 A 
ATOM      9  C   UNL     1      33.601 -14.669 -24.354  0.00  0.00    +0.078 C 
ATOM     10  C   UNL     1      34.601 -17.023 -23.336  0.00  0.00    +0.219 A 
ATOM     11  C   UNL     1      34.807 -16.178 -21.065  0.00  0.00    +0.265 A 
ATOM     12  C   UNL     1      33.788 -15.819 -25.258  0.00  0.00    +0.347 C 
ATOM     13  C   UNL     1      35.459 -18.510 -21.625  0.00  0.00    +0.329 A 
ATOM     14  H   UNL     1      35.182 -18.950 -23.600  0.00  0.00    +0.173 HD
ATOM     15  H   UNL     1      35.545 -17.596 -19.809  0.00  0.00    +0.173 HD
ENDROOT
BRANCH   7  16
ATOM     16  C   UNL     1      33.696 -13.539 -22.171  0.00  0.00    +0.027 C 
BRANCH  16  17
ATOM     17  C   UNL     1      32.222 -13.338 -21.839  0.00  0.00    +0.005 C 
BRANCH  17  18
ATOM     18  C   UNL     1      32.053 -12.696 -20.461  0.00  0.00    +0.000 C 
BRANCH  18  19
ATOM     19  C   UNL     1      31.475 -11.318 -20.557  0.00  0.00    +0.000 C 
ATOM     20  C   UNL     1      32.124 -10.225 -19.760  0.00  0.00    +0.000 C 
ATOM     21  C   UNL     1      30.785 -10.761 -19.346  0.00  0.00    +0.000 C 
ATOM     22  C   UNL     1      30.921 -10.971 -21.895  0.00  0.00    +0.000 C 
ENDBRANCH  18  19
ENDBRANCH  17  18
ENDBRANCH  16  17
ENDBRANCH   7  16
TORSDOF 4
ENDMDL
MODEL 4
REMARK VINA RESULT:      -9.4      6.671      9.564
REMARK  Name = 56950369
REMARK  4 active torsions:
REMARK  status: ('A' for Active; 'I' for Inactive)
REMARK    1  A    between atoms: C_7  and  C_16
REMARK    2  A    between atoms: C_16  and  C_17
REMARK    3  A    between atoms: C_17  and  C_18
REMARK    4  A    between atoms: C_18  and  C_19
REMARK                            x       y       z     vdW  Elec       q    Type
REMARK                         _______ _______ _______ _____ _____    ______ ____
ROOT
ATOM      1  O   UNL     1      34.427 -15.257 -22.183  0.00  0.00    -0.405 OA
ATOM      2  O   UNL     1      34.560 -19.263 -24.837  0.00  0.00    -0.267 OA
ATOM      3  O   UNL     1      34.893 -15.196 -19.963  0.00  0.00    -0.244 OA
ATOM      4  O   UNL     1      33.444 -15.215 -26.702  0.00  0.00    -0.247 OA
ATOM      5  N   UNL     1      33.945 -15.310 -24.462  0.00  0.00    -0.278 N 
ATOM      6  N   UNL     1      34.004 -17.243 -25.761  0.00  0.00    -0.274 N 
ATOM      7  C   UNL     1      34.922 -18.014 -22.144  0.00  0.00    -0.007 C 
ATOM      8  C   UNL     1      34.538 -17.353 -23.381  0.00  0.00    +0.104 A 
ATOM      9  C   UNL     1      35.036 -17.291 -21.019  0.00  0.00    +0.078 C 
ATOM     10  C   UNL     1      34.310 -16.029 -23.356  0.00  0.00    +0.219 A 
ATOM     11  C   UNL     1      34.378 -18.057 -24.698  0.00  0.00    +0.265 A 
ATOM     12  C   UNL     1      34.783 -15.839 -21.002  0.00  0.00    +0.347 C 
ATOM     13  C   UNL     1      33.773 -15.871 -25.714  0.00  0.00    +0.329 A 
ATOM     14  H   UNL     1      33.796 -14.342 -24.360  0.00  0.00    +0.173 HD
ATOM     15  H   UNL     1      33.892 -17.681 -26.636  0.00  0.00    +0.173 HD
ENDROOT
BRANCH   7  16
ATOM     16  C   UNL     1      35.190 -19.492 -22.108  0.00  0.00    +0.027 C 
BRANCH  16  17
ATOM     17  C   UNL     1      35.476 -19.975 -20.692  0.00  0.00    +0.005 C 
BRANCH  17  18
ATOM     18  C   UNL     1      34.257 -20.682 -20.097  0.00  0.00    +0.000 C 
BRANCH  18  19
ATOM     19  C   UNL     1      34.653 -21.827 -19.217  0.00  0.00    +0.000 C 
ATOM     20  C   UNL     1      34.131 -23.191 -19.558  0.00  0.00    +0.000 C 
ATOM     21  C   UNL     1      33.590 -22.458 -18.366  0.00  0.00    +0.000 C 
ATOM     22  C   UNL     1      36.028 -21.727 -18.654  0.00  0.00    +0.000 C 
ENDBRANCH  18  19
ENDBRANCH  17  18
ENDBRANCH  16  17
ENDBRANCH   7  16
TORSDOF 4
ENDMDL
MODEL 5
REMARK VINA RESULT:      -9.3      7.234     10.102
REMARK  Name = 56950369
REMARK  4 active torsions:
REMARK  status: ('A' for Active; 'I' for Inactive)
REMARK    1  A    between atoms: C_7  and  C_16
REMARK    2  A    between atoms: C_16  and  C_17
REMARK    3  A    between atoms: C_17  and  C_18
REMARK    4  A    between atoms: C_18  and  C_19
REMARK                            x       y       z     vdW  Elec       q    Type
REMARK                         _______ _______ _______ _____ _____    ______ ____
ROOT
ATOM      1  O   UNL     1      32.805 -14.409 -24.872  0.00  0.00    -0.405 OA
ATOM      2  O   UNL     1      34.504 -15.493 -20.508  0.00  0.00    -0.267 OA
ATOM      3  O   UNL     1      33.441 -15.468 -26.776  0.00  0.00    -0.244 OA
ATOM      4  O   UNL     1      31.408 -12.148 -21.087  0.00  0.00    -0.247 OA
ATOM      5  N   UNL     1      32.147 -13.314 -22.924  0.00  0.00    -0.278 N 
ATOM      6  N   UNL     1      32.961 -13.827 -20.803  0.00  0.00    -0.274 N 
ATOM      7  C   UNL     1      34.540 -16.078 -23.440  0.00  0.00    -0.007 C 
ATOM      8  C   UNL     1      33.751 -15.071 -22.749  0.00  0.00    +0.104 A 
ATOM      9  C   UNL     1      34.429 -16.200 -24.773  0.00  0.00    +0.078 C 
ATOM     10  C   UNL     1      32.931 -14.291 -23.474  0.00  0.00    +0.219 A 
ATOM     11  C   UNL     1      33.792 -14.841 -21.266  0.00  0.00    +0.265 A 
ATOM     12  C   UNL     1      33.527 -15.340 -25.559  0.00  0.00    +0.347 C 
ATOM     13  C   UNL     1      32.117 -13.030 -21.571  0.00  0.00    +0.329 A 
ATOM     14  H   UNL     1      31.572 -12.785 -23.524  0.00  0.00    +0.173 HD
ATOM     15  H   UNL     1      32.970 -13.656 -19.833  0.00  0.00    +0.173 HD
ENDROOT
BRANCH   7  16
ATOM     16  C   UNL     1      35.475 -16.980 -22.686  0.00  0.00    +0.027 C 
BRANCH  16  17
ATOM     17  C   UNL     1      35.601 -18.343 -23.355  0.00  0.00    +0.005 C 
BRANCH  17  18
ATOM     18  C   UNL     1      34.438 -19.256 -22.962  0.00  0.00    +0.000 C 
BRANCH  18  19
ATOM     19  C   UNL     1      34.381 -19.475 -21.482  0.00  0.00    +0.000 C 
ATOM     20  C   UNL     1      33.205 -20.222 -20.925  0.00  0.00    +0.000 C 
ATOM     21  C   UNL     1      33.326 -18.743 -20.705  0.00  0.00    +0.000 C 
ATOM     22  C   UNL     1      35.706 -19.678 -20.834  0.00  0.00    +0.000 C 
ENDBRANCH  18  19
ENDBRANCH  17  18
ENDBRANCH  16  17
ENDBRANCH   7  16
TORSDOF 4
ENDMDL
MODEL 6
REMARK VINA RESULT:      -9.2      1.402      3.286
REMARK  Name = 56950369
REMARK  4 active torsions:
REMARK  status: ('A' for Active; 'I' for Inactive)
REMARK    1  A    between atoms: C_7  and  C_16
REMARK    2  A    between atoms: C_16  and  C_17
REMARK    3  A    between atoms: C_17  and  C_18
REMARK    4  A    between atoms: C_18  and  C_19
REMARK                            x       y       z     vdW  Elec       q    Type
REMARK                         _______ _______ _______ _____ _____    ______ ____
ROOT
ATOM      1  O   UNL     1      34.566 -23.996 -14.759  0.00  0.00    -0.405 OA
ATOM      2  O   UNL     1      30.476 -22.671 -16.910  0.00  0.00    -0.267 OA
ATOM      3  O   UNL     1      36.614 -23.817 -15.719  0.00  0.00    -0.244 OA
ATOM      4  O   UNL     1      30.464 -24.430 -12.665  0.00  0.00    -0.247 OA
ATOM      5  N   UNL     1      32.467 -24.185 -13.766  0.00  0.00    -0.278 N 
ATOM      6  N   UNL     1      30.476 -23.549 -14.795  0.00  0.00    -0.274 N 
ATOM      7  C   UNL     1      33.451 -22.911 -17.089  0.00  0.00    -0.007 C 
ATOM      8  C   UNL     1      32.599 -23.285 -15.971  0.00  0.00    +0.104 A 
ATOM      9  C   UNL     1      34.777 -23.093 -16.995  0.00  0.00    +0.078 C 
ATOM     10  C   UNL     1      33.174 -23.801 -14.872  0.00  0.00    +0.219 A 
ATOM     11  C   UNL     1      31.106 -23.131 -15.962  0.00  0.00    +0.265 A 
ATOM     12  C   UNL     1      35.399 -23.660 -15.785  0.00  0.00    +0.347 C 
ATOM     13  C   UNL     1      31.092 -24.081 -13.665  0.00  0.00    +0.329 A 
ATOM     14  H   UNL     1      32.964 -24.555 -13.000  0.00  0.00    +0.173 HD
ATOM     15  H   UNL     1      29.496 -23.458 -14.764  0.00  0.00    +0.173 HD
ENDROOT
BRANCH   7  16
ATOM     16  C   UNL     1      32.867 -22.330 -18.345  0.00  0.00    +0.027 C 
BRANCH  16  17
ATOM     17  C   UNL     1      33.954 -21.929 -19.335  0.00  0.00    +0.005 C 
BRANCH  17  18
ATOM     18  C   UNL     1      33.548 -20.679 -20.118  0.00  0.00    +0.000 C 
BRANCH  18  19
ATOM     19  C   UNL     1      34.734 -19.996 -20.726  0.00  0.00    +0.000 C 
ATOM     20  C   UNL     1      34.611 -18.539 -21.063  0.00  0.00    +0.000 C 
ATOM     21  C   UNL     1      34.634 -19.563 -22.159  0.00  0.00    +0.000 C 
ATOM     22  C   UNL     1      36.051 -20.490 -20.238  0.00  0.00    +0.000 C 
ENDBRANCH  18  19
ENDBRANCH  17  18
ENDBRANCH  16  17
ENDBRANCH   7  16
TORSDOF 4
ENDMDL
MODEL 7
REMARK VINA RESULT:      -9.2      7.297     10.233
REMARK  Name = 56950369
REMARK  4 active torsions:
REMARK  status: ('A' for Active; 'I' for Inactive)
REMARK    1  A    between atoms: C_7  and  C_16
REMARK    2  A    between atoms: C_16  and  C_17
REMARK    3  A    between atoms: C_17  and  C_18
REMARK    4  A    between atoms: C_18  and  C_19
REMARK                            x       y       z     vdW  Elec       q    Type
REMARK                         _______ _______ _______ _____ _____    ______ ____
ROOT
ATOM      1  O   UNL     1      34.139 -14.352 -22.304  0.00  0.00    -0.405 OA
ATOM      2  O   UNL     1      34.302 -17.882 -25.563  0.00  0.00    -0.267 OA
ATOM      3  O   UNL     1      34.788 -14.596 -20.143  0.00  0.00    -0.244 OA
ATOM      4  O   UNL     1      32.776 -13.693 -26.674  0.00  0.00    -0.247 OA
ATOM      5  N   UNL     1      33.470 -14.092 -24.520  0.00  0.00    -0.278 N 
ATOM      6  N   UNL     1      33.542 -15.793 -26.111  0.00  0.00    -0.274 N 
ATOM      7  C   UNL     1      34.811 -17.037 -22.740  0.00  0.00    -0.007 C 
ATOM      8  C   UNL     1      34.282 -16.225 -23.825  0.00  0.00    +0.104 A 
ATOM      9  C   UNL     1      34.973 -16.487 -21.526  0.00  0.00    +0.078 C 
ATOM     10  C   UNL     1      33.973 -14.942 -23.573  0.00  0.00    +0.219 A 
ATOM     11  C   UNL     1      34.056 -16.729 -25.220  0.00  0.00    +0.265 A 
ATOM     12  C   UNL     1      34.631 -15.079 -21.259  0.00  0.00    +0.347 C 
ATOM     13  C   UNL     1      33.229 -14.466 -25.829  0.00  0.00    +0.329 A 
ATOM     14  H   UNL     1      33.270 -13.165 -24.255  0.00  0.00    +0.173 HD
ATOM     15  H   UNL     1      33.385 -16.099 -27.033  0.00  0.00    +0.173 HD
ENDROOT
BRANCH   7  16
ATOM     16  C   UNL     1      35.174 -18.478 -22.959  0.00  0.00    +0.027 C 
BRANCH  16  17
ATOM     17  C   UNL     1      34.401 -19.399 -22.022  0.00  0.00    +0.005 C 
BRANCH  17  18
ATOM     18  C   UNL     1      35.349 -20.138 -21.076  0.00  0.00    +0.000 C 
BRANCH  18  19
ATOM     19  C   UNL     1      34.601 -20.968 -20.079  0.00  0.00    +0.000 C 
ATOM     20  C   UNL     1      35.344 -21.457 -18.871  0.00  0.00    +0.000 C 
ATOM     21  C   UNL     1      34.967 -22.419 -19.959  0.00  0.00    +0.000 C 
ATOM     22  C   UNL     1      33.169 -20.596 -19.912  0.00  0.00    +0.000 C 
ENDBRANCH  18  19
ENDBRANCH  17  18
ENDBRANCH  16  17
ENDBRANCH   7  16
TORSDOF 4
ENDMDL
MODEL 8
REMARK VINA RESULT:      -9.1      4.246      6.083
REMARK  Name = 56950369
REMARK  4 active torsions:
REMARK  status: ('A' for Active; 'I' for Inactive)
REMARK    1  A    between atoms: C_7  and  C_16
REMARK    2  A    between atoms: C_16  and  C_17
REMARK    3  A    between atoms: C_17  and  C_18
REMARK    4  A    between atoms: C_18  and  C_19
REMARK                            x       y       z     vdW  Elec       q    Type
REMARK                         _______ _______ _______ _____ _____    ______ ____
ROOT
ATOM      1  O   UNL     1      38.240 -23.060 -16.048  0.00  0.00    -0.405 OA
ATOM      2  O   UNL     1      36.764 -26.040 -12.577  0.00  0.00    -0.267 OA
ATOM      3  O   UNL     1      36.977 -21.370 -16.884  0.00  0.00    -0.244 OA
ATOM      4  O   UNL     1      40.938 -26.462 -14.453  0.00  0.00    -0.247 OA
ATOM      5  N   UNL     1      39.544 -24.793 -15.196  0.00  0.00    -0.278 N 
ATOM      6  N   UNL     1      38.843 -26.246 -13.515  0.00  0.00    -0.274 N 
ATOM      7  C   UNL     1      36.124 -23.702 -14.328  0.00  0.00    -0.007 C 
ATOM      8  C   UNL     1      37.356 -24.475 -14.300  0.00  0.00    +0.104 A 
ATOM      9  C   UNL     1      36.010 -22.678 -15.187  0.00  0.00    +0.078 C 
ATOM     10  C   UNL     1      38.346 -24.133 -15.141  0.00  0.00    +0.219 A 
ATOM     11  C   UNL     1      37.598 -25.640 -13.385  0.00  0.00    +0.265 A 
ATOM     12  C   UNL     1      37.102 -22.310 -16.107  0.00  0.00    +0.347 C 
ATOM     13  C   UNL     1      39.857 -25.875 -14.395  0.00  0.00    +0.329 A 
ATOM     14  H   UNL     1      40.219 -24.479 -15.841  0.00  0.00    +0.173 HD
ATOM     15  H   UNL     1      39.026 -27.013 -12.926  0.00  0.00    +0.173 HD
ENDROOT
BRANCH   7  16
ATOM     16  C   UNL     1      34.981 -24.036 -13.412  0.00  0.00    +0.027 C 
BRANCH  16  17
ATOM     17  C   UNL     1      33.755 -24.497 -14.191  0.00  0.00    +0.005 C 
BRANCH  17  18
ATOM     18  C   UNL     1      32.561 -23.578 -13.927  0.00  0.00    +0.000 C 
BRANCH  18  19
ATOM     19  C   UNL     1      31.669 -23.469 -15.125  0.00  0.00    +0.000 C 
ATOM     20  C   UNL     1      30.357 -22.760 -14.964  0.00  0.00    +0.000 C 
ATOM     21  C   UNL     1      30.388 -24.251 -15.119  0.00  0.00    +0.000 C 
ATOM     22  C   UNL     1      32.388 -23.320 -16.420  0.00  0.00    +0.000 C 
ENDBRANCH  18  19
ENDBRANCH  17  18
ENDBRANCH  16  17
ENDBRANCH   7  16
TORSDOF 4
ENDMDL
MODEL 9
REMARK VINA RESULT:      -8.9      3.326      6.236
REMARK  Name = 56950369
REMARK  4 active torsions:
REMARK  status: ('A' for Active; 'I' for Inactive)
REMARK    1  A    between atoms: C_7  and  C_16
REMARK    2  A    between atoms: C_16  and  C_17
REMARK    3  A    between atoms: C_17  and  C_18
REMARK    4  A    between atoms: C_18  and  C_19
REMARK                            x       y       z     vdW  Elec       q    Type
REMARK                         _______ _______ _______ _____ _____    ______ ____
ROOT
ATOM      1  O   UNL     1      32.289 -22.788 -17.801  0.00  0.00    -0.405 OA
ATOM      2  O   UNL     1      31.142 -23.528 -13.192  0.00  0.00    -0.267 OA
ATOM      3  O   UNL     1      34.376 -23.068 -18.645  0.00  0.00    -0.244 OA
ATOM      4  O   UNL     1      27.980 -22.169 -16.236  0.00  0.00    -0.247 OA
ATOM      5  N   UNL     1      30.142 -22.497 -16.944  0.00  0.00    -0.278 N 
ATOM      6  N   UNL     1      29.571 -22.850 -14.713  0.00  0.00    -0.274 N 
ATOM      7  C   UNL     1      33.272 -23.549 -15.291  0.00  0.00    -0.007 C 
ATOM      8  C   UNL     1      31.869 -23.201 -15.457  0.00  0.00    +0.104 A 
ATOM      9  C   UNL     1      34.092 -23.500 -16.352  0.00  0.00    +0.078 C 
ATOM     10  C   UNL     1      31.439 -22.842 -16.678  0.00  0.00    +0.219 A 
ATOM     11  C   UNL     1      30.861 -23.217 -14.346  0.00  0.00    +0.265 A 
ATOM     12  C   UNL     1      33.611 -23.105 -17.688  0.00  0.00    +0.347 C 
ATOM     13  C   UNL     1      29.145 -22.482 -15.987  0.00  0.00    +0.329 A 
ATOM     14  H   UNL     1      29.906 -22.246 -17.867  0.00  0.00    +0.173 HD
ATOM     15  H   UNL     1      28.890 -22.852 -14.002  0.00  0.00    +0.173 HD
ENDROOT
BRANCH   7  16
ATOM     16  C   UNL     1      33.813 -23.957 -13.951  0.00  0.00    +0.027 C 
BRANCH  16  17
ATOM     17  C   UNL     1      35.283 -23.583 -13.802  0.00  0.00    +0.005 C 
BRANCH  17  18
ATOM     18  C   UNL     1      36.100 -24.768 -13.283  0.00  0.00    +0.000 C 
BRANCH  18  19
ATOM     19  C   UNL     1      36.987 -25.339 -14.346  0.00  0.00    +0.000 C 
ATOM     20  C   UNL     1      36.402 -26.358 -15.279  0.00  0.00    +0.000 C 
ATOM     21  C   UNL     1      37.385 -26.781 -14.228  0.00  0.00    +0.000 C 
ATOM     22  C   UNL     1      37.987 -24.383 -14.897  0.00  0.00    +0.000 C 
ENDBRANCH  18  19
ENDBRANCH  17  18
ENDBRANCH  16  17
ENDBRANCH   7  16
TORSDOF 4
ENDMDL
