MODEL 1
REMARK VINA RESULT:     -10.9      0.000      0.000
REMARK  Name = 446276
REMARK  7 active torsions:
REMARK  status: ('A' for Active; 'I' for Inactive)
REMARK    1  A    between atoms: N_2  and  C_17
REMARK    2  A    between atoms: C_3  and  C_5
REMARK    3  A    between atoms: C_8  and  S_11
REMARK    4  A    between atoms: S_11  and  N_14
REMARK    5  A    between atoms: C_17  and  C_18
REMARK    6  A    between atoms: C_18  and  C_20
REMARK    7  A    between atoms: C_20  and  N_21
REMARK                            x       y       z     vdW  Elec       q    Type
REMARK                         _______ _______ _______ _____ _____    ______ ____
ROOT
ATOM      1  O   UNL     1      34.192 -23.636 -19.746  0.00  0.00    -0.270 OA
ATOM      2  N   UNL     1      35.008 -21.630 -18.915  0.00  0.00    -0.301 N 
ATOM      3  C   UNL     1      34.288 -22.817 -18.837  0.00  0.00    +0.246 C 
ATOM      4  H   UNL     1      35.025 -21.036 -18.131  0.00  0.00    +0.150 HD
ENDROOT
BRANCH   3   5
ATOM      5  C   UNL     1      33.579 -23.067 -17.555  0.00  0.00    +0.053 C 
ATOM      6  C   UNL     1      32.213 -22.881 -17.504  0.00  0.00    +0.006 C 
ATOM      7  C   UNL     1      34.308 -23.477 -16.459  0.00  0.00    +0.006 C 
ATOM      8  C   UNL     1      32.261 -23.532 -15.177  0.00  0.00    +0.122 C 
ATOM      9  C   UNL     1      31.547 -23.116 -16.301  0.00  0.00    +0.020 C 
ATOM     10  C   UNL     1      33.642 -23.713 -15.257  0.00  0.00    +0.020 C 
BRANCH   8  11
ATOM     11  S   UNL     1      31.427 -23.826 -13.672  0.00  0.00    +0.057 S 
ATOM     12  O   UNL     1      31.935 -22.895 -12.675  0.00  0.00    -0.153 OA
ATOM     13  O   UNL     1      29.997 -23.888 -13.940  0.00  0.00    -0.153 OA
BRANCH  11  14
ATOM     14  N   UNL     1      31.982 -25.397 -13.294  0.00  0.00    -0.203 NA
ATOM     15  H   UNL     1      32.285 -25.865 -14.148  0.00  0.00    +0.144 HD
ATOM     16  H   UNL     1      31.225 -25.930 -12.864  0.00  0.00    +0.144 HD
ENDBRANCH  11  14
ENDBRANCH   8  11
ENDBRANCH   3   5
BRANCH   2  17
ATOM     17  C   UNL     1      35.727 -21.235 -20.096  0.00  0.00    +0.091 C 
BRANCH  17  18
ATOM     18  C   UNL     1      34.974 -20.212 -20.961  0.00  0.00    +0.040 C 
ATOM     19  C   UNL     1      33.537 -20.020 -20.467  0.00  0.00    +0.004 C 
BRANCH  18  20
ATOM     20  C   UNL     1      35.746 -18.880 -21.027  0.00  0.00    +0.097 C 
BRANCH  20  21
ATOM     21  N   UNL     1      35.368 -18.035 -22.155  0.00  0.00    -0.286 N 
ATOM     22  C   UNL     1      34.927 -16.742 -22.057  0.00  0.00    +0.052 C 
ATOM     23  C   UNL     1      34.679 -16.304 -23.360  0.00  0.00    +0.015 C 
ATOM     24  C   UNL     1      35.411 -18.440 -23.454  0.00  0.00    +0.065 C 
ATOM     25  C   UNL     1      34.988 -17.386 -24.230  0.00  0.00    +0.017 C 
ATOM     26  C   UNL     1      34.729 -15.928 -20.936  0.00  0.00    +0.015 C 
ATOM     27  C   UNL     1      34.208 -14.990 -23.555  0.00  0.00    +0.001 C 
ATOM     28  C   UNL     1      34.263 -14.629 -21.154  0.00  0.00    +0.001 C 
ATOM     29  C   UNL     1      34.006 -14.165 -22.444  0.00  0.00    +0.000 C 
ENDBRANCH  20  21
ENDBRANCH  18  20
ENDBRANCH  17  18
ENDBRANCH   2  17
TORSDOF 7
ENDMDL
MODEL 2
REMARK VINA RESULT:     -10.7      0.589      1.744
REMARK  Name = 446276
REMARK  7 active torsions:
REMARK  status: ('A' for Active; 'I' for Inactive)
REMARK    1  A    between atoms: N_2  and  C_17
REMARK    2  A    between atoms: C_3  and  C_5
REMARK    3  A    between atoms: C_8  and  S_11
REMARK    4  A    between atoms: S_11  and  N_14
REMARK    5  A    between atoms: C_17  and  C_18
REMARK    6  A    between atoms: C_18  and  C_20
REMARK    7  A    between atoms: C_20  and  N_21
REMARK                            x       y       z     vdW  Elec       q    Type
REMARK                         _______ _______ _______ _____ _____    ______ ____
ROOT
ATOM      1  O   UNL     1      34.207 -23.566 -19.862  0.00  0.00    -0.270 OA
ATOM      2  N   UNL     1      34.995 -21.529 -19.082  0.00  0.00    -0.301 N 
ATOM      3  C   UNL     1      34.307 -22.731 -18.967  0.00  0.00    +0.246 C 
ATOM      4  H   UNL     1      35.020 -20.923 -18.307  0.00  0.00    +0.150 HD
ENDROOT
BRANCH   3   5
ATOM      5  C   UNL     1      33.639 -22.980 -17.663  0.00  0.00    +0.053 C 
ATOM      6  C   UNL     1      32.268 -22.851 -17.583  0.00  0.00    +0.006 C 
ATOM      7  C   UNL     1      34.411 -23.330 -16.575  0.00  0.00    +0.006 C 
ATOM      8  C   UNL     1      32.398 -23.441 -15.243  0.00  0.00    +0.122 C 
ATOM      9  C   UNL     1      31.641 -23.085 -16.359  0.00  0.00    +0.020 C 
ATOM     10  C   UNL     1      33.784 -23.564 -15.352  0.00  0.00    +0.020 C 
BRANCH   8  11
ATOM     11  S   UNL     1      31.612 -23.734 -13.712  0.00  0.00    +0.057 S 
ATOM     12  O   UNL     1      32.237 -22.885 -12.707  0.00  0.00    -0.153 OA
ATOM     13  O   UNL     1      30.171 -23.675 -13.913  0.00  0.00    -0.153 OA
BRANCH  11  14
ATOM     14  N   UNL     1      32.060 -25.356 -13.420  0.00  0.00    -0.203 NA
ATOM     15  H   UNL     1      32.768 -25.641 -14.099  0.00  0.00    +0.144 HD
ATOM     16  H   UNL     1      31.240 -25.956 -13.512  0.00  0.00    +0.144 HD
ENDBRANCH  11  14
ENDBRANCH   8  11
ENDBRANCH   3   5
BRANCH   2  17
ATOM     17  C   UNL     1      35.672 -21.134 -20.287  0.00  0.00    +0.091 C 
BRANCH  17  18
ATOM     18  C   UNL     1      34.994 -19.965 -21.019  0.00  0.00    +0.040 C 
ATOM     19  C   UNL     1      33.565 -19.748 -20.510  0.00  0.00    +0.004 C 
BRANCH  18  20
ATOM     20  C   UNL     1      35.846 -18.686 -20.912  0.00  0.00    +0.097 C 
BRANCH  20  21
ATOM     21  N   UNL     1      35.202 -17.500 -21.469  0.00  0.00    -0.286 N 
ATOM     22  C   UNL     1      34.903 -17.316 -22.793  0.00  0.00    +0.052 C 
ATOM     23  C   UNL     1      34.299 -16.062 -22.896  0.00  0.00    +0.015 C 
ATOM     24  C   UNL     1      34.818 -16.427 -20.727  0.00  0.00    +0.065 C 
ATOM     25  C   UNL     1      34.252 -15.512 -21.584  0.00  0.00    +0.017 C 
ATOM     26  C   UNL     1      35.114 -18.146 -23.901  0.00  0.00    +0.015 C 
ATOM     27  C   UNL     1      33.884 -15.611 -24.165  0.00  0.00    +0.001 C 
ATOM     28  C   UNL     1      34.694 -17.678 -25.148  0.00  0.00    +0.001 C 
ATOM     29  C   UNL     1      34.088 -16.430 -25.281  0.00  0.00    +0.000 C 
ENDBRANCH  20  21
ENDBRANCH  18  20
ENDBRANCH  17  18
ENDBRANCH   2  17
TORSDOF 7
ENDMDL
MODEL 3
REMARK VINA RESULT:     -10.7      3.357      5.974
REMARK  Name = 446276
REMARK  7 active torsions:
REMARK  status: ('A' for Active; 'I' for Inactive)
REMARK    1  A    between atoms: N_2  and  C_17
REMARK    2  A    between atoms: C_3  and  C_5
REMARK    3  A    between atoms: C_8  and  S_11
REMARK    4  A    between atoms: S_11  and  N_14
REMARK    5  A    between atoms: C_17  and  C_18
REMARK    6  A    between atoms: C_18  and  C_20
REMARK    7  A    between atoms: C_20  and  N_21
REMARK                            x       y       z     vdW  Elec       q    Type
REMARK                         _______ _______ _______ _____ _____    ______ ____
ROOT
ATOM      1  O   UNL     1      36.327 -18.012 -22.520  0.00  0.00    -0.270 OA
ATOM      2  N   UNL     1      34.118 -17.310 -22.407  0.00  0.00    -0.301 N 
ATOM      3  C   UNL     1      35.182 -18.151 -22.099  0.00  0.00    +0.246 C 
ATOM      4  H   UNL     1      33.235 -17.505 -22.020  0.00  0.00    +0.150 HD
ENDROOT
BRANCH   3   5
ATOM      5  C   UNL     1      34.868 -19.304 -21.214  0.00  0.00    +0.053 C 
ATOM      6  C   UNL     1      33.547 -19.624 -20.984  0.00  0.00    +0.006 C 
ATOM      7  C   UNL     1      35.908 -20.014 -20.651  0.00  0.00    +0.006 C 
ATOM      8  C   UNL     1      34.285 -21.442 -19.572  0.00  0.00    +0.122 C 
ATOM      9  C   UNL     1      33.252 -20.706 -20.153  0.00  0.00    +0.020 C 
ATOM     10  C   UNL     1      35.613 -21.095 -19.822  0.00  0.00    +0.020 C 
BRANCH   8  11
ATOM     11  S   UNL     1      33.916 -22.795 -18.533  0.00  0.00    +0.057 S 
ATOM     12  O   UNL     1      33.883 -24.002 -19.347  0.00  0.00    -0.153 OA
ATOM     13  O   UNL     1      34.785 -22.734 -17.367  0.00  0.00    -0.153 OA
BRANCH  11  14
ATOM     14  N   UNL     1      32.323 -22.411 -18.051  0.00  0.00    -0.203 NA
ATOM     15  H   UNL     1      32.217 -22.590 -17.052  0.00  0.00    +0.144 HD
ATOM     16  H   UNL     1      31.661 -22.989 -18.571  0.00  0.00    +0.144 HD
ENDBRANCH  11  14
ENDBRANCH   8  11
ENDBRANCH   3   5
BRANCH   2  17
ATOM     17  C   UNL     1      34.257 -16.168 -23.269  0.00  0.00    +0.091 C 
BRANCH  17  18
ATOM     18  C   UNL     1      33.774 -14.855 -22.633  0.00  0.00    +0.040 C 
ATOM     19  C   UNL     1      34.596 -14.508 -21.388  0.00  0.00    +0.004 C 
BRANCH  18  20
ATOM     20  C   UNL     1      33.782 -13.713 -23.668  0.00  0.00    +0.097 C 
BRANCH  20  21
ATOM     21  N   UNL     1      33.108 -12.500 -23.212  0.00  0.00    -0.286 N 
ATOM     22  C   UNL     1      33.505 -11.223 -23.505  0.00  0.00    +0.052 C 
ATOM     23  C   UNL     1      32.594 -10.368 -22.881  0.00  0.00    +0.015 C 
ATOM     24  C   UNL     1      31.993 -12.500 -22.433  0.00  0.00    +0.065 C 
ATOM     25  C   UNL     1      31.646 -11.188 -22.208  0.00  0.00    +0.017 C 
ATOM     26  C   UNL     1      34.583 -10.753 -24.265  0.00  0.00    +0.015 C 
ATOM     27  C   UNL     1      32.766  -8.976 -23.018  0.00  0.00    +0.001 C 
ATOM     28  C   UNL     1      34.733  -9.370 -24.387  0.00  0.00    +0.001 C 
ATOM     29  C   UNL     1      33.839  -8.492 -23.774  0.00  0.00    +0.000 C 
ENDBRANCH  20  21
ENDBRANCH  18  20
ENDBRANCH  17  18
ENDBRANCH   2  17
TORSDOF 7
ENDMDL
MODEL 4
REMARK VINA RESULT:     -10.6      3.131      5.479
REMARK  Name = 446276
REMARK  7 active torsions:
REMARK  status: ('A' for Active; 'I' for Inactive)
REMARK    1  A    between atoms: N_2  and  C_17
REMARK    2  A    between atoms: C_3  and  C_5
REMARK    3  A    between atoms: C_8  and  S_11
REMARK    4  A    between atoms: S_11  and  N_14
REMARK    5  A    between atoms: C_17  and  C_18
REMARK    6  A    between atoms: C_18  and  C_20
REMARK    7  A    between atoms: C_20  and  N_21
REMARK                            x       y       z     vdW  Elec       q    Type
REMARK                         _______ _______ _______ _____ _____    ______ ____
ROOT
ATOM      1  O   UNL     1      36.909 -18.269 -22.424  0.00  0.00    -0.270 OA
ATOM      2  N   UNL     1      34.973 -17.061 -22.004  0.00  0.00    -0.301 N 
ATOM      3  C   UNL     1      35.804 -18.171 -21.898  0.00  0.00    +0.246 C 
ATOM      4  H   UNL     1      34.103 -17.077 -21.546  0.00  0.00    +0.150 HD
ENDROOT
BRANCH   3   5
ATOM      5  C   UNL     1      35.274 -19.311 -21.104  0.00  0.00    +0.053 C 
ATOM      6  C   UNL     1      33.908 -19.457 -20.983  0.00  0.00    +0.006 C 
ATOM      7  C   UNL     1      36.164 -20.182 -20.514  0.00  0.00    +0.006 C 
ATOM      8  C   UNL     1      34.288 -21.424 -19.631  0.00  0.00    +0.122 C 
ATOM      9  C   UNL     1      33.409 -20.527 -20.239  0.00  0.00    +0.020 C 
ATOM     10  C   UNL     1      35.666 -21.251 -19.769  0.00  0.00    +0.020 C 
BRANCH   8  11
ATOM     11  S   UNL     1      33.664 -22.762 -18.699  0.00  0.00    +0.057 S 
ATOM     12  O   UNL     1      32.332 -22.411 -18.228  0.00  0.00    -0.153 OA
ATOM     13  O   UNL     1      33.862 -23.988 -19.460  0.00  0.00    -0.153 OA
BRANCH  11  14
ATOM     14  N   UNL     1      34.738 -22.763 -17.371  0.00  0.00    -0.203 NA
ATOM     15  H   UNL     1      34.282 -23.194 -16.566  0.00  0.00    +0.144 HD
ATOM     16  H   UNL     1      34.995 -21.802 -17.141  0.00  0.00    +0.144 HD
ENDBRANCH  11  14
ENDBRANCH   8  11
ENDBRANCH   3   5
BRANCH   2  17
ATOM     17  C   UNL     1      35.335 -15.892 -22.757  0.00  0.00    +0.091 C 
BRANCH  17  18
ATOM     18  C   UNL     1      34.399 -15.610 -23.944  0.00  0.00    +0.040 C 
ATOM     19  C   UNL     1      34.080 -16.896 -24.713  0.00  0.00    +0.004 C 
BRANCH  18  20
ATOM     20  C   UNL     1      33.123 -14.887 -23.472  0.00  0.00    +0.097 C 
BRANCH  20  21
ATOM     21  N   UNL     1      33.176 -13.436 -23.629  0.00  0.00    -0.286 N 
ATOM     22  C   UNL     1      32.585 -12.531 -22.788  0.00  0.00    +0.052 C 
ATOM     23  C   UNL     1      32.879 -11.263 -23.294  0.00  0.00    +0.015 C 
ATOM     24  C   UNL     1      33.831 -12.807 -24.643  0.00  0.00    +0.065 C 
ATOM     25  C   UNL     1      33.665 -11.453 -24.464  0.00  0.00    +0.017 C 
ATOM     26  C   UNL     1      31.820 -12.724 -21.631  0.00  0.00    +0.015 C 
ATOM     27  C   UNL     1      32.386 -10.131 -22.614  0.00  0.00    +0.001 C 
ATOM     28  C   UNL     1      31.343 -11.587 -20.974  0.00  0.00    +0.001 C 
ATOM     29  C   UNL     1      31.621 -10.309 -21.456  0.00  0.00    +0.000 C 
ENDBRANCH  20  21
ENDBRANCH  18  20
ENDBRANCH  17  18
ENDBRANCH   2  17
TORSDOF 7
ENDMDL
MODEL 5
REMARK VINA RESULT:     -10.6      6.963     11.292
REMARK  Name = 446276
REMARK  7 active torsions:
REMARK  status: ('A' for Active; 'I' for Inactive)
REMARK    1  A    between atoms: N_2  and  C_17
REMARK    2  A    between atoms: C_3  and  C_5
REMARK    3  A    between atoms: C_8  and  S_11
REMARK    4  A    between atoms: S_11  and  N_14
REMARK    5  A    between atoms: C_17  and  C_18
REMARK    6  A    between atoms: C_18  and  C_20
REMARK    7  A    between atoms: C_20  and  N_21
REMARK                            x       y       z     vdW  Elec       q    Type
REMARK                         _______ _______ _______ _____ _____    ______ ____
ROOT
ATOM      1  O   UNL     1      32.967 -13.961 -24.931  0.00  0.00    -0.270 OA
ATOM      2  N   UNL     1      34.256 -14.222 -23.020  0.00  0.00    -0.301 N 
ATOM      3  C   UNL     1      33.445 -13.508 -23.895  0.00  0.00    +0.246 C 
ATOM      4  H   UNL     1      34.592 -13.771 -22.214  0.00  0.00    +0.150 HD
ENDROOT
BRANCH   3   5
ATOM      5  C   UNL     1      33.179 -12.092 -23.531  0.00  0.00    +0.053 C 
ATOM      6  C   UNL     1      32.215 -11.820 -22.583  0.00  0.00    +0.006 C 
ATOM      7  C   UNL     1      33.903 -11.097 -24.152  0.00  0.00    +0.006 C 
ATOM      8  C   UNL     1      32.684  -9.464 -22.853  0.00  0.00    +0.122 C 
ATOM      9  C   UNL     1      31.965 -10.491 -22.240  0.00  0.00    +0.020 C 
ATOM     10  C   UNL     1      33.654  -9.768 -23.809  0.00  0.00    +0.020 C 
BRANCH   8  11
ATOM     11  S   UNL     1      32.372  -7.801 -22.424  0.00  0.00    +0.057 S 
ATOM     12  O   UNL     1      33.515  -6.999 -22.835  0.00  0.00    -0.153 OA
ATOM     13  O   UNL     1      31.036  -7.447 -22.884  0.00  0.00    -0.153 OA
BRANCH  11  14
ATOM     14  N   UNL     1      32.354  -7.903 -20.719  0.00  0.00    -0.203 NA
ATOM     15  H   UNL     1      32.076  -7.003 -20.327  0.00  0.00    +0.144 HD
ATOM     16  H   UNL     1      33.287  -8.146 -20.383  0.00  0.00    +0.144 HD
ENDBRANCH  11  14
ENDBRANCH   8  11
ENDBRANCH   3   5
BRANCH   2  17
ATOM     17  C   UNL     1      34.623 -15.593 -23.248  0.00  0.00    +0.091 C 
BRANCH  17  18
ATOM     18  C   UNL     1      34.951 -16.365 -21.959  0.00  0.00    +0.040 C 
ATOM     19  C   UNL     1      34.521 -15.576 -20.718  0.00  0.00    +0.004 C 
BRANCH  18  20
ATOM     20  C   UNL     1      34.327 -17.773 -21.993  0.00  0.00    +0.097 C 
BRANCH  20  21
ATOM     21  N   UNL     1      35.115 -18.784 -21.294  0.00  0.00    -0.286 N 
ATOM     22  C   UNL     1      34.597 -19.849 -20.607  0.00  0.00    +0.052 C 
ATOM     23  C   UNL     1      35.684 -20.562 -20.096  0.00  0.00    +0.015 C 
ATOM     24  C   UNL     1      36.475 -18.784 -21.245  0.00  0.00    +0.065 C 
ATOM     25  C   UNL     1      36.862 -19.878 -20.506  0.00  0.00    +0.017 C 
ATOM     26  C   UNL     1      33.270 -20.241 -20.396  0.00  0.00    +0.015 C 
ATOM     27  C   UNL     1      35.436 -21.723 -19.336  0.00  0.00    +0.001 C 
ATOM     28  C   UNL     1      33.049 -21.395 -19.640  0.00  0.00    +0.001 C 
ATOM     29  C   UNL     1      34.115 -22.127 -19.117  0.00  0.00    +0.000 C 
ENDBRANCH  20  21
ENDBRANCH  18  20
ENDBRANCH  17  18
ENDBRANCH   2  17
TORSDOF 7
ENDMDL
MODEL 6
REMARK VINA RESULT:     -10.6      3.840      9.212
REMARK  Name = 446276
REMARK  7 active torsions:
REMARK  status: ('A' for Active; 'I' for Inactive)
REMARK    1  A    between atoms: N_2  and  C_17
REMARK    2  A    between atoms: C_3  and  C_5
REMARK    3  A    between atoms: C_8  and  S_11
REMARK    4  A    between atoms: S_11  and  N_14
REMARK    5  A    between atoms: C_17  and  C_18
REMARK    6  A    between atoms: C_18  and  C_20
REMARK    7  A    between atoms: C_20  and  N_21
REMARK                            x       y       z     vdW  Elec       q    Type
REMARK                         _______ _______ _______ _____ _____    ______ ____
ROOT
ATOM      1  O   UNL     1      33.835 -23.930 -18.920  0.00  0.00    -0.270 OA
ATOM      2  N   UNL     1      32.752 -22.432 -17.519  0.00  0.00    -0.301 N 
ATOM      3  C   UNL     1      33.519 -22.782 -18.625  0.00  0.00    +0.246 C 
ATOM      4  H   UNL     1      32.550 -21.482 -17.365  0.00  0.00    +0.150 HD
ENDROOT
BRANCH   3   5
ATOM      5  C   UNL     1      33.990 -21.657 -19.474  0.00  0.00    +0.053 C 
ATOM      6  C   UNL     1      35.347 -21.469 -19.634  0.00  0.00    +0.006 C 
ATOM      7  C   UNL     1      33.057 -20.837 -20.073  0.00  0.00    +0.006 C 
ATOM      8  C   UNL     1      34.867 -19.569 -21.049  0.00  0.00    +0.122 C 
ATOM      9  C   UNL     1      35.791 -20.413 -20.431  0.00  0.00    +0.020 C 
ATOM     10  C   UNL     1      33.500 -19.782 -20.870  0.00  0.00    +0.020 C 
BRANCH   8  11
ATOM     11  S   UNL     1      35.423 -18.249 -22.047  0.00  0.00    +0.057 S 
ATOM     12  O   UNL     1      36.870 -18.350 -22.177  0.00  0.00    -0.153 OA
ATOM     13  O   UNL     1      34.592 -18.191 -23.242  0.00  0.00    -0.153 OA
BRANCH  11  14
ATOM     14  N   UNL     1      35.050 -16.910 -21.054  0.00  0.00    -0.203 NA
ATOM     15  H   UNL     1      34.172 -16.492 -21.363  0.00  0.00    +0.144 HD
ATOM     16  H   UNL     1      35.797 -16.219 -21.120  0.00  0.00    +0.144 HD
ENDBRANCH  11  14
ENDBRANCH   8  11
ENDBRANCH   3   5
BRANCH   2  17
ATOM     17  C   UNL     1      32.243 -23.404 -16.590  0.00  0.00    +0.091 C 
BRANCH  17  18
ATOM     18  C   UNL     1      32.883 -23.317 -15.195  0.00  0.00    +0.040 C 
ATOM     19  C   UNL     1      31.817 -23.348 -14.095  0.00  0.00    +0.004 C 
BRANCH  18  20
ATOM     20  C   UNL     1      33.937 -24.425 -15.009  0.00  0.00    +0.097 C 
BRANCH  20  21
ATOM     21  N   UNL     1      35.314 -23.958 -15.149  0.00  0.00    -0.286 N 
ATOM     22  C   UNL     1      36.430 -24.727 -14.954  0.00  0.00    +0.052 C 
ATOM     23  C   UNL     1      37.531 -23.901 -15.189  0.00  0.00    +0.015 C 
ATOM     24  C   UNL     1      35.651 -22.686 -15.494  0.00  0.00    +0.065 C 
ATOM     25  C   UNL     1      37.024 -22.616 -15.528  0.00  0.00    +0.017 C 
ATOM     26  C   UNL     1      36.558 -26.074 -14.594  0.00  0.00    +0.015 C 
ATOM     27  C   UNL     1      38.825 -24.443 -15.057  0.00  0.00    +0.001 C 
ATOM     28  C   UNL     1      37.851 -26.589 -14.470  0.00  0.00    +0.001 C 
ATOM     29  C   UNL     1      38.969 -25.788 -14.698  0.00  0.00    +0.000 C 
ENDBRANCH  20  21
ENDBRANCH  18  20
ENDBRANCH  17  18
ENDBRANCH   2  17
TORSDOF 7
ENDMDL
MODEL 7
REMARK VINA RESULT:     -10.5      3.798      9.281
REMARK  Name = 446276
REMARK  7 active torsions:
REMARK  status: ('A' for Active; 'I' for Inactive)
REMARK    1  A    between atoms: N_2  and  C_17
REMARK    2  A    between atoms: C_3  and  C_5
REMARK    3  A    between atoms: C_8  and  S_11
REMARK    4  A    between atoms: S_11  and  N_14
REMARK    5  A    between atoms: C_17  and  C_18
REMARK    6  A    between atoms: C_18  and  C_20
REMARK    7  A    between atoms: C_20  and  N_21
REMARK                            x       y       z     vdW  Elec       q    Type
REMARK                         _______ _______ _______ _____ _____    ______ ____
ROOT
ATOM      1  O   UNL     1      33.793 -23.852 -18.816  0.00  0.00    -0.270 OA
ATOM      2  N   UNL     1      32.439 -22.343 -17.688  0.00  0.00    -0.301 N 
ATOM      3  C   UNL     1      33.388 -22.707 -18.637  0.00  0.00    +0.246 C 
ATOM      4  H   UNL     1      32.178 -21.398 -17.619  0.00  0.00    +0.150 HD
ENDROOT
BRANCH   3   5
ATOM      5  C   UNL     1      33.947 -21.602 -19.459  0.00  0.00    +0.053 C 
ATOM      6  C   UNL     1      33.077 -20.716 -20.059  0.00  0.00    +0.006 C 
ATOM      7  C   UNL     1      35.315 -21.500 -19.596  0.00  0.00    +0.006 C 
ATOM      8  C   UNL     1      34.982 -19.551 -20.985  0.00  0.00    +0.122 C 
ATOM      9  C   UNL     1      33.601 -19.678 -20.831  0.00  0.00    +0.020 C 
ATOM     10  C   UNL     1      35.839 -20.462 -20.366  0.00  0.00    +0.020 C 
BRANCH   8  11
ATOM     11  S   UNL     1      35.637 -18.252 -21.950  0.00  0.00    +0.057 S 
ATOM     12  O   UNL     1      35.163 -16.990 -21.402  0.00  0.00    -0.153 OA
ATOM     13  O   UNL     1      37.066 -18.476 -22.117  0.00  0.00    -0.153 OA
BRANCH  11  14
ATOM     14  N   UNL     1      34.860 -18.532 -23.445  0.00  0.00    -0.203 NA
ATOM     15  H   UNL     1      33.997 -17.990 -23.486  0.00  0.00    +0.144 HD
ATOM     16  H   UNL     1      34.641 -19.525 -23.533  0.00  0.00    +0.144 HD
ENDBRANCH  11  14
ENDBRANCH   8  11
ENDBRANCH   3   5
BRANCH   2  17
ATOM     17  C   UNL     1      31.825 -23.294 -16.801  0.00  0.00    +0.091 C 
BRANCH  17  18
ATOM     18  C   UNL     1      32.231 -23.115 -15.330  0.00  0.00    +0.040 C 
ATOM     19  C   UNL     1      30.999 -23.048 -14.421  0.00  0.00    +0.004 C 
BRANCH  18  20
ATOM     20  C   UNL     1      33.211 -24.222 -14.896  0.00  0.00    +0.097 C 
BRANCH  20  21
ATOM     21  N   UNL     1      34.578 -23.751 -14.690  0.00  0.00    -0.286 N 
ATOM     22  C   UNL     1      35.270 -23.835 -13.512  0.00  0.00    +0.052 C 
ATOM     23  C   UNL     1      36.528 -23.277 -13.746  0.00  0.00    +0.015 C 
ATOM     24  C   UNL     1      35.332 -23.168 -15.661  0.00  0.00    +0.065 C 
ATOM     25  C   UNL     1      36.553 -22.860 -15.106  0.00  0.00    +0.017 C 
ATOM     26  C   UNL     1      34.894 -24.354 -12.267  0.00  0.00    +0.015 C 
ATOM     27  C   UNL     1      37.458 -23.232 -12.688  0.00  0.00    +0.001 C 
ATOM     28  C   UNL     1      35.832 -24.299 -11.233  0.00  0.00    +0.001 C 
ATOM     29  C   UNL     1      37.096 -23.747 -11.438  0.00  0.00    +0.000 C 
ENDBRANCH  20  21
ENDBRANCH  18  20
ENDBRANCH  17  18
ENDBRANCH   2  17
TORSDOF 7
ENDMDL
MODEL 8
REMARK VINA RESULT:     -10.4      3.911      9.853
REMARK  Name = 446276
REMARK  7 active torsions:
REMARK  status: ('A' for Active; 'I' for Inactive)
REMARK    1  A    between atoms: N_2  and  C_17
REMARK    2  A    between atoms: C_3  and  C_5
REMARK    3  A    between atoms: C_8  and  S_11
REMARK    4  A    between atoms: S_11  and  N_14
REMARK    5  A    between atoms: C_17  and  C_18
REMARK    6  A    between atoms: C_18  and  C_20
REMARK    7  A    between atoms: C_20  and  N_21
REMARK                            x       y       z     vdW  Elec       q    Type
REMARK                         _______ _______ _______ _____ _____    ______ ____
ROOT
ATOM      1  O   UNL     1      33.667 -24.000 -19.022  0.00  0.00    -0.270 OA
ATOM      2  N   UNL     1      34.233 -22.828 -17.102  0.00  0.00    -0.301 N 
ATOM      3  C   UNL     1      34.052 -22.972 -18.473  0.00  0.00    +0.246 C 
ATOM      4  H   UNL     1      34.547 -21.963 -16.755  0.00  0.00    +0.150 HD
ENDROOT
BRANCH   3   5
ATOM      5  C   UNL     1      34.382 -21.784 -19.303  0.00  0.00    +0.053 C 
ATOM      6  C   UNL     1      35.706 -21.445 -19.483  0.00  0.00    +0.006 C 
ATOM      7  C   UNL     1      33.353 -21.058 -19.866  0.00  0.00    +0.006 C 
ATOM      8  C   UNL     1      34.994 -19.579 -20.843  0.00  0.00    +0.122 C 
ATOM      9  C   UNL     1      36.016 -20.331 -20.263  0.00  0.00    +0.020 C 
ATOM     10  C   UNL     1      33.662 -19.944 -20.645  0.00  0.00    +0.020 C 
BRANCH   8  11
ATOM     11  S   UNL     1      35.382 -18.184 -21.819  0.00  0.00    +0.057 S 
ATOM     12  O   UNL     1      36.775 -18.285 -22.230  0.00  0.00    -0.153 OA
ATOM     13  O   UNL     1      34.342 -18.020 -22.826  0.00  0.00    -0.153 OA
BRANCH  11  14
ATOM     14  N   UNL     1      35.234 -16.930 -20.669  0.00  0.00    -0.203 NA
ATOM     15  H   UNL     1      36.162 -16.585 -20.422  0.00  0.00    +0.144 HD
ATOM     16  H   UNL     1      34.771 -17.289 -19.833  0.00  0.00    +0.144 HD
ENDBRANCH  11  14
ENDBRANCH   8  11
ENDBRANCH   3   5
BRANCH   2  17
ATOM     17  C   UNL     1      33.981 -23.894 -16.171  0.00  0.00    +0.091 C 
BRANCH  17  18
ATOM     18  C   UNL     1      33.592 -23.405 -14.767  0.00  0.00    +0.040 C 
ATOM     19  C   UNL     1      32.134 -22.936 -14.729  0.00  0.00    +0.004 C 
BRANCH  18  20
ATOM     20  C   UNL     1      33.877 -24.492 -13.712  0.00  0.00    +0.097 C 
BRANCH  20  21
ATOM     21  N   UNL     1      35.184 -24.365 -13.074  0.00  0.00    -0.286 N 
ATOM     22  C   UNL     1      36.343 -24.930 -13.535  0.00  0.00    +0.052 C 
ATOM     23  C   UNL     1      37.350 -24.564 -12.639  0.00  0.00    +0.015 C 
ATOM     24  C   UNL     1      35.404 -23.660 -11.931  0.00  0.00    +0.065 C 
ATOM     25  C   UNL     1      36.743 -23.763 -11.633  0.00  0.00    +0.017 C 
ATOM     26  C   UNL     1      36.586 -25.728 -14.659  0.00  0.00    +0.015 C 
ATOM     27  C   UNL     1      38.664 -25.015 -12.875  0.00  0.00    +0.001 C 
ATOM     28  C   UNL     1      37.896 -26.163 -14.873  0.00  0.00    +0.001 C 
ATOM     29  C   UNL     1      38.922 -25.813 -13.995  0.00  0.00    +0.000 C 
ENDBRANCH  20  21
ENDBRANCH  18  20
ENDBRANCH  17  18
ENDBRANCH   2  17
TORSDOF 7
ENDMDL
MODEL 9
REMARK VINA RESULT:     -10.4      2.223      2.720
REMARK  Name = 446276
REMARK  7 active torsions:
REMARK  status: ('A' for Active; 'I' for Inactive)
REMARK    1  A    between atoms: N_2  and  C_17
REMARK    2  A    between atoms: C_3  and  C_5
REMARK    3  A    between atoms: C_8  and  S_11
REMARK    4  A    between atoms: S_11  and  N_14
REMARK    5  A    between atoms: C_17  and  C_18
REMARK    6  A    between atoms: C_18  and  C_20
REMARK    7  A    between atoms: C_20  and  N_21
REMARK                            x       y       z     vdW  Elec       q    Type
REMARK                         _______ _______ _______ _____ _____    ______ ____
ROOT
ATOM      1  O   UNL     1      37.182 -20.678 -18.001  0.00  0.00    -0.270 OA
ATOM      2  N   UNL     1      35.672 -22.119 -19.014  0.00  0.00    -0.301 N 
ATOM      3  C   UNL     1      36.386 -21.611 -17.935  0.00  0.00    +0.246 C 
ATOM      4  H   UNL     1      35.056 -22.870 -18.861  0.00  0.00    +0.150 HD
ENDROOT
BRANCH   3   5
ATOM      5  C   UNL     1      36.164 -22.284 -16.629  0.00  0.00    +0.053 C 
ATOM      6  C   UNL     1      37.221 -22.397 -15.750  0.00  0.00    +0.006 C 
ATOM      7  C   UNL     1      34.908 -22.775 -16.338  0.00  0.00    +0.006 C 
ATOM      8  C   UNL     1      35.751 -23.534 -14.205  0.00  0.00    +0.122 C 
ATOM      9  C   UNL     1      37.012 -23.029 -14.524  0.00  0.00    +0.020 C 
ATOM     10  C   UNL     1      34.699 -23.406 -15.112  0.00  0.00    +0.020 C 
BRANCH   8  11
ATOM     11  S   UNL     1      35.490 -24.324 -12.670  0.00  0.00    +0.057 S 
ATOM     12  O   UNL     1      36.192 -23.570 -11.641  0.00  0.00    -0.153 OA
ATOM     13  O   UNL     1      34.067 -24.594 -12.524  0.00  0.00    -0.153 OA
BRANCH  11  14
ATOM     14  N   UNL     1      36.305 -25.804 -12.922  0.00  0.00    -0.203 NA
ATOM     15  H   UNL     1      36.704 -25.817 -13.862  0.00  0.00    +0.144 HD
ATOM     16  H   UNL     1      35.646 -26.576 -12.823  0.00  0.00    +0.144 HD
ENDBRANCH  11  14
ENDBRANCH   8  11
ENDBRANCH   3   5
BRANCH   2  17
ATOM     17  C   UNL     1      35.798 -21.590 -20.345  0.00  0.00    +0.091 C 
BRANCH  17  18
ATOM     18  C   UNL     1      34.686 -20.597 -20.721  0.00  0.00    +0.040 C 
ATOM     19  C   UNL     1      33.435 -20.819 -19.865  0.00  0.00    +0.004 C 
BRANCH  18  20
ATOM     20  C   UNL     1      35.198 -19.147 -20.632  0.00  0.00    +0.097 C 
BRANCH  20  21
ATOM     21  N   UNL     1      35.023 -18.384 -21.865  0.00  0.00    -0.286 N 
ATOM     22  C   UNL     1      34.797 -17.035 -21.931  0.00  0.00    +0.052 C 
ATOM     23  C   UNL     1      34.692 -16.712 -23.285  0.00  0.00    +0.015 C 
ATOM     24  C   UNL     1      35.065 -18.934 -23.109  0.00  0.00    +0.065 C 
ATOM     25  C   UNL     1      34.863 -17.921 -24.017  0.00  0.00    +0.017 C 
ATOM     26  C   UNL     1      34.679 -16.079 -20.915  0.00  0.00    +0.015 C 
ATOM     27  C   UNL     1      34.456 -15.371 -23.646  0.00  0.00    +0.001 C 
ATOM     28  C   UNL     1      34.446 -14.755 -21.297  0.00  0.00    +0.001 C 
ATOM     29  C   UNL     1      34.336 -14.404 -22.642  0.00  0.00    +0.000 C 
ENDBRANCH  20  21
ENDBRANCH  18  20
ENDBRANCH  17  18
ENDBRANCH   2  17
TORSDOF 7
ENDMDL
