MODEL 1
REMARK VINA RESULT:      -5.7      0.000      0.000
REMARK  Name = 23087
REMARK  6 active torsions:
REMARK  status: ('A' for Active; 'I' for Inactive)
REMARK    1  A    between atoms: C_2  and  C_3
REMARK    2  A    between atoms: C_2  and  O_7
REMARK    3  A    between atoms: C_3  and  C_6
REMARK    4  A    between atoms: O_7  and  C_8
REMARK    5  A    between atoms: C_8  and  C_9
REMARK    6  A    between atoms: C_9  and  C_10
REMARK                            x       y       z     vdW  Elec       q    Type
REMARK                         _______ _______ _______ _____ _____    ______ ____
ROOT
ATOM      1  O   UNL     1      35.395 -16.065 -22.797  0.00  0.00    -0.244 OA
ATOM      2  C   UNL     1      35.362 -17.206 -23.236  0.00  0.00    +0.351 C 
ENDROOT
BRANCH   2   3
ATOM      3  C   UNL     1      34.642 -17.614 -24.474  0.00  0.00    +0.144 C 
ATOM      4  C   UNL     1      34.485 -18.926 -24.702  0.00  0.00    +0.018 C 
BRANCH   3   6
ATOM      5  N   UNL     1      33.709 -15.883 -26.152  0.00  0.00    -0.191 NA
ATOM      6  C   UNL     1      34.128 -16.662 -25.400  0.00  0.00    +0.107 C 
ENDBRANCH   3   6
ENDBRANCH   2   3
BRANCH   2   7
ATOM      7  O   UNL     1      35.975 -18.291 -22.674  0.00  0.00    -0.445 OA
BRANCH   7   8
ATOM      8  C   UNL     1      35.896 -18.388 -21.258  0.00  0.00    +0.209 C 
BRANCH   8   9
ATOM      9  C   UNL     1      35.264 -19.723 -20.892  0.00  0.00    +0.047 C 
BRANCH   9  10
ATOM     10  C   UNL     1      33.740 -19.648 -20.912  0.00  0.00    +0.004 C 
ATOM     11  C   UNL     1      33.117 -20.770 -20.098  0.00  0.00    +0.000 C 
ENDBRANCH   9  10
ENDBRANCH   8   9
ENDBRANCH   7   8
ENDBRANCH   2   7
TORSDOF 6
ENDMDL
MODEL 2
REMARK VINA RESULT:      -5.6      3.587      5.631
REMARK  Name = 23087
REMARK  6 active torsions:
REMARK  status: ('A' for Active; 'I' for Inactive)
REMARK    1  A    between atoms: C_2  and  C_3
REMARK    2  A    between atoms: C_2  and  O_7
REMARK    3  A    between atoms: C_3  and  C_6
REMARK    4  A    between atoms: O_7  and  C_8
REMARK    5  A    between atoms: C_8  and  C_9
REMARK    6  A    between atoms: C_9  and  C_10
REMARK                            x       y       z     vdW  Elec       q    Type
REMARK                         _______ _______ _______ _____ _____    ______ ____
ROOT
ATOM      1  O   UNL     1      36.450 -21.200 -20.227  0.00  0.00    -0.244 OA
ATOM      2  C   UNL     1      35.421 -20.540 -20.202  0.00  0.00    +0.351 C 
ENDROOT
BRANCH   2   3
ATOM      3  C   UNL     1      34.073 -21.091 -19.891  0.00  0.00    +0.144 C 
ATOM      4  C   UNL     1      33.005 -20.346 -20.209  0.00  0.00    +0.018 C 
BRANCH   3   6
ATOM      5  N   UNL     1      33.759 -23.400 -18.771  0.00  0.00    -0.191 NA
ATOM      6  C   UNL     1      33.899 -22.363 -19.275  0.00  0.00    +0.107 C 
ENDBRANCH   3   6
ENDBRANCH   2   3
BRANCH   2   7
ATOM      7  O   UNL     1      35.331 -19.200 -20.452  0.00  0.00    -0.445 OA
BRANCH   7   8
ATOM      8  C   UNL     1      35.975 -18.740 -21.633  0.00  0.00    +0.209 C 
BRANCH   8   9
ATOM      9  C   UNL     1      34.919 -18.233 -22.603  0.00  0.00    +0.047 C 
BRANCH   9  10
ATOM     10  C   UNL     1      34.919 -19.031 -23.904  0.00  0.00    +0.004 C 
ATOM     11  C   UNL     1      34.433 -18.192 -25.073  0.00  0.00    +0.000 C 
ENDBRANCH   9  10
ENDBRANCH   8   9
ENDBRANCH   7   8
ENDBRANCH   2   7
TORSDOF 6
ENDMDL
MODEL 3
REMARK VINA RESULT:      -5.5      3.634      5.599
REMARK  Name = 23087
REMARK  6 active torsions:
REMARK  status: ('A' for Active; 'I' for Inactive)
REMARK    1  A    between atoms: C_2  and  C_3
REMARK    2  A    between atoms: C_2  and  O_7
REMARK    3  A    between atoms: C_3  and  C_6
REMARK    4  A    between atoms: O_7  and  C_8
REMARK    5  A    between atoms: C_8  and  C_9
REMARK    6  A    between atoms: C_9  and  C_10
REMARK                            x       y       z     vdW  Elec       q    Type
REMARK                         _______ _______ _______ _____ _____    ______ ____
ROOT
ATOM      1  O   UNL     1      33.159 -20.187 -20.929  0.00  0.00    -0.244 OA
ATOM      2  C   UNL     1      34.309 -20.112 -20.520  0.00  0.00    +0.351 C 
ENDROOT
BRANCH   2   3
ATOM      3  C   UNL     1      35.029 -21.211 -19.819  0.00  0.00    +0.144 C 
ATOM      4  C   UNL     1      36.357 -21.098 -19.681  0.00  0.00    +0.018 C 
BRANCH   3   6
ATOM      5  N   UNL     1      33.797 -23.284 -18.888  0.00  0.00    -0.191 NA
ATOM      6  C   UNL     1      34.351 -22.353 -19.305  0.00  0.00    +0.107 C 
ENDBRANCH   3   6
ENDBRANCH   2   3
BRANCH   2   7
ATOM      7  O   UNL     1      35.121 -19.019 -20.633  0.00  0.00    -0.445 OA
BRANCH   7   8
ATOM      8  C   UNL     1      34.797 -18.104 -21.672  0.00  0.00    +0.209 C 
BRANCH   8   9
ATOM      9  C   UNL     1      35.684 -18.392 -22.874  0.00  0.00    +0.047 C 
BRANCH   9  10
ATOM     10  C   UNL     1      34.911 -19.086 -23.992  0.00  0.00    +0.004 C 
ATOM     11  C   UNL     1      34.422 -18.091 -25.032  0.00  0.00    +0.000 C 
ENDBRANCH   9  10
ENDBRANCH   8   9
ENDBRANCH   7   8
ENDBRANCH   2   7
TORSDOF 6
ENDMDL
MODEL 4
REMARK VINA RESULT:      -5.5      5.666      8.235
REMARK  Name = 23087
REMARK  6 active torsions:
REMARK  status: ('A' for Active; 'I' for Inactive)
REMARK    1  A    between atoms: C_2  and  C_3
REMARK    2  A    between atoms: C_2  and  O_7
REMARK    3  A    between atoms: C_3  and  C_6
REMARK    4  A    between atoms: O_7  and  C_8
REMARK    5  A    between atoms: C_8  and  C_9
REMARK    6  A    between atoms: C_9  and  C_10
REMARK                            x       y       z     vdW  Elec       q    Type
REMARK                         _______ _______ _______ _____ _____    ______ ____
ROOT
ATOM      1  O   UNL     1      34.071 -23.685 -17.219  0.00  0.00    -0.244 OA
ATOM      2  C   UNL     1      32.988 -23.133 -17.346  0.00  0.00    +0.351 C 
ENDROOT
BRANCH   2   3
ATOM      3  C   UNL     1      31.905 -23.151 -16.323  0.00  0.00    +0.144 C 
ATOM      4  C   UNL     1      32.233 -23.507 -15.074  0.00  0.00    +0.018 C 
BRANCH   3   6
ATOM      5  N   UNL     1      29.464 -22.525 -16.899  0.00  0.00    -0.191 NA
ATOM      6  C   UNL     1      30.560 -22.807 -16.639  0.00  0.00    +0.107 C 
ENDBRANCH   3   6
ENDBRANCH   2   3
BRANCH   2   7
ATOM      7  O   UNL     1      32.587 -22.413 -18.437  0.00  0.00    -0.445 OA
BRANCH   7   8
ATOM      8  C   UNL     1      33.622 -21.950 -19.294  0.00  0.00    +0.209 C 
BRANCH   8   9
ATOM      9  C   UNL     1      33.168 -20.659 -19.959  0.00  0.00    +0.047 C 
BRANCH   9  10
ATOM     10  C   UNL     1      34.305 -19.992 -20.729  0.00  0.00    +0.004 C 
ATOM     11  C   UNL     1      35.655 -20.571 -20.341  0.00  0.00    +0.000 C 
ENDBRANCH   9  10
ENDBRANCH   8   9
ENDBRANCH   7   8
ENDBRANCH   2   7
TORSDOF 6
ENDMDL
MODEL 5
REMARK VINA RESULT:      -5.4      2.248      2.639
REMARK  Name = 23087
REMARK  6 active torsions:
REMARK  status: ('A' for Active; 'I' for Inactive)
REMARK    1  A    between atoms: C_2  and  C_3
REMARK    2  A    between atoms: C_2  and  O_7
REMARK    3  A    between atoms: C_3  and  C_6
REMARK    4  A    between atoms: O_7  and  C_8
REMARK    5  A    between atoms: C_8  and  C_9
REMARK    6  A    between atoms: C_9  and  C_10
REMARK                            x       y       z     vdW  Elec       q    Type
REMARK                         _______ _______ _______ _____ _____    ______ ____
ROOT
ATOM      1  O   UNL     1      35.137 -16.291 -20.164  0.00  0.00    -0.244 OA
ATOM      2  C   UNL     1      34.760 -16.250 -21.326  0.00  0.00    +0.351 C 
ENDROOT
BRANCH   2   3
ATOM      3  C   UNL     1      33.576 -15.482 -21.803  0.00  0.00    +0.144 C 
ATOM      4  C   UNL     1      32.624 -15.182 -20.908  0.00  0.00    +0.018 C 
BRANCH   3   6
ATOM      5  N   UNL     1      33.324 -14.738 -24.266  0.00  0.00    -0.191 NA
ATOM      6  C   UNL     1      33.436 -15.071 -23.159  0.00  0.00    +0.107 C 
ENDBRANCH   3   6
ENDBRANCH   2   3
BRANCH   2   7
ATOM      7  O   UNL     1      35.352 -16.893 -22.377  0.00  0.00    -0.445 OA
BRANCH   7   8
ATOM      8  C   UNL     1      35.787 -18.223 -22.129  0.00  0.00    +0.209 C 
BRANCH   8   9
ATOM      9  C   UNL     1      34.582 -19.151 -22.182  0.00  0.00    +0.047 C 
BRANCH   9  10
ATOM     10  C   UNL     1      34.362 -19.864 -20.851  0.00  0.00    +0.004 C 
ATOM     11  C   UNL     1      32.883 -20.071 -20.567  0.00  0.00    +0.000 C 
ENDBRANCH   9  10
ENDBRANCH   8   9
ENDBRANCH   7   8
ENDBRANCH   2   7
TORSDOF 6
ENDMDL
MODEL 6
REMARK VINA RESULT:      -5.4      3.654      5.321
REMARK  Name = 23087
REMARK  6 active torsions:
REMARK  status: ('A' for Active; 'I' for Inactive)
REMARK    1  A    between atoms: C_2  and  C_3
REMARK    2  A    between atoms: C_2  and  O_7
REMARK    3  A    between atoms: C_3  and  C_6
REMARK    4  A    between atoms: O_7  and  C_8
REMARK    5  A    between atoms: C_8  and  C_9
REMARK    6  A    between atoms: C_9  and  C_10
REMARK                            x       y       z     vdW  Elec       q    Type
REMARK                         _______ _______ _______ _____ _____    ______ ____
ROOT
ATOM      1  O   UNL     1      36.148 -20.258 -19.876  0.00  0.00    -0.244 OA
ATOM      2  C   UNL     1      35.133 -20.090 -20.536  0.00  0.00    +0.351 C 
ENDROOT
BRANCH   2   3
ATOM      3  C   UNL     1      33.793 -20.634 -20.178  0.00  0.00    +0.144 C 
ATOM      4  C   UNL     1      32.713 -19.955 -20.588  0.00  0.00    +0.018 C 
BRANCH   3   6
ATOM      5  N   UNL     1      33.517 -22.810 -18.809  0.00  0.00    -0.191 NA
ATOM      6  C   UNL     1      33.641 -21.833 -19.425  0.00  0.00    +0.107 C 
ENDBRANCH   3   6
ENDBRANCH   2   3
BRANCH   2   7
ATOM      7  O   UNL     1      35.052 -19.381 -21.702  0.00  0.00    -0.445 OA
BRANCH   7   8
ATOM      8  C   UNL     1      35.985 -18.320 -21.853  0.00  0.00    +0.209 C 
BRANCH   8   9
ATOM      9  C   UNL     1      35.238 -17.068 -22.291  0.00  0.00    +0.047 C 
BRANCH   9  10
ATOM     10  C   UNL     1      34.222 -16.623 -21.242  0.00  0.00    +0.004 C 
ATOM     11  C   UNL     1      34.511 -15.215 -20.750  0.00  0.00    +0.000 C 
ENDBRANCH   9  10
ENDBRANCH   8   9
ENDBRANCH   7   8
ENDBRANCH   2   7
TORSDOF 6
ENDMDL
MODEL 7
REMARK VINA RESULT:      -5.4      3.296      4.762
REMARK  Name = 23087
REMARK  6 active torsions:
REMARK  status: ('A' for Active; 'I' for Inactive)
REMARK    1  A    between atoms: C_2  and  C_3
REMARK    2  A    between atoms: C_2  and  O_7
REMARK    3  A    between atoms: C_3  and  C_6
REMARK    4  A    between atoms: O_7  and  C_8
REMARK    5  A    between atoms: C_8  and  C_9
REMARK    6  A    between atoms: C_9  and  C_10
REMARK                            x       y       z     vdW  Elec       q    Type
REMARK                         _______ _______ _______ _____ _____    ______ ____
ROOT
ATOM      1  O   UNL     1      36.491 -18.573 -22.263  0.00  0.00    -0.244 OA
ATOM      2  C   UNL     1      35.742 -18.593 -21.296  0.00  0.00    +0.351 C 
ENDROOT
BRANCH   2   3
ATOM      3  C   UNL     1      35.174 -19.832 -20.694  0.00  0.00    +0.144 C 
ATOM      4  C   UNL     1      36.030 -20.721 -20.172  0.00  0.00    +0.018 C 
BRANCH   3   6
ATOM      5  N   UNL     1      32.630 -20.288 -20.640  0.00  0.00    -0.191 NA
ATOM      6  C   UNL     1      33.773 -20.084 -20.664  0.00  0.00    +0.107 C 
ENDBRANCH   3   6
ENDBRANCH   2   3
BRANCH   2   7
ATOM      7  O   UNL     1      35.303 -17.497 -20.609  0.00  0.00    -0.445 OA
BRANCH   7   8
ATOM      8  C   UNL     1      34.611 -16.517 -21.373  0.00  0.00    +0.209 C 
BRANCH   8   9
ATOM      9  C   UNL     1      34.341 -15.307 -20.490  0.00  0.00    +0.047 C 
BRANCH   9  10
ATOM     10  C   UNL     1      32.852 -14.984 -20.417  0.00  0.00    +0.004 C 
ATOM     11  C   UNL     1      32.515 -13.727 -21.201  0.00  0.00    +0.000 C 
ENDBRANCH   9  10
ENDBRANCH   8   9
ENDBRANCH   7   8
ENDBRANCH   2   7
TORSDOF 6
ENDMDL
MODEL 8
REMARK VINA RESULT:      -5.3     11.954     12.766
REMARK  Name = 23087
REMARK  6 active torsions:
REMARK  status: ('A' for Active; 'I' for Inactive)
REMARK    1  A    between atoms: C_2  and  C_3
REMARK    2  A    between atoms: C_2  and  O_7
REMARK    3  A    between atoms: C_3  and  C_6
REMARK    4  A    between atoms: O_7  and  C_8
REMARK    5  A    between atoms: C_8  and  C_9
REMARK    6  A    between atoms: C_9  and  C_10
REMARK                            x       y       z     vdW  Elec       q    Type
REMARK                         _______ _______ _______ _____ _____    ______ ____
ROOT
ATOM      1  O   UNL     1      38.054 -22.426 -11.712  0.00  0.00    -0.244 OA
ATOM      2  C   UNL     1      37.524 -23.264 -12.427  0.00  0.00    +0.351 C 
ENDROOT
BRANCH   2   3
ATOM      3  C   UNL     1      36.141 -23.782 -12.239  0.00  0.00    +0.144 C 
ATOM      4  C   UNL     1      35.299 -23.710 -13.279  0.00  0.00    +0.018 C 
BRANCH   3   6
ATOM      5  N   UNL     1      35.344 -24.792  -9.996  0.00  0.00    -0.191 NA
ATOM      6  C   UNL     1      35.703 -24.339 -11.003  0.00  0.00    +0.107 C 
ENDBRANCH   3   6
ENDBRANCH   2   3
BRANCH   2   7
ATOM      7  O   UNL     1      38.103 -23.863 -13.511  0.00  0.00    -0.445 OA
BRANCH   7   8
ATOM      8  C   UNL     1      38.935 -24.982 -13.235  0.00  0.00    +0.209 C 
BRANCH   8   9
ATOM      9  C   UNL     1      38.742 -26.020 -14.331  0.00  0.00    +0.047 C 
BRANCH   9  10
ATOM     10  C   UNL     1      37.425 -26.774 -14.167  0.00  0.00    +0.004 C 
ATOM     11  C   UNL     1      36.480 -26.504 -15.326  0.00  0.00    +0.000 C 
ENDBRANCH   9  10
ENDBRANCH   8   9
ENDBRANCH   7   8
ENDBRANCH   2   7
TORSDOF 6
ENDMDL
MODEL 9
REMARK VINA RESULT:      -5.3      1.488      2.142
REMARK  Name = 23087
REMARK  6 active torsions:
REMARK  status: ('A' for Active; 'I' for Inactive)
REMARK    1  A    between atoms: C_2  and  C_3
REMARK    2  A    between atoms: C_2  and  O_7
REMARK    3  A    between atoms: C_3  and  C_6
REMARK    4  A    between atoms: O_7  and  C_8
REMARK    5  A    between atoms: C_8  and  C_9
REMARK    6  A    between atoms: C_9  and  C_10
REMARK                            x       y       z     vdW  Elec       q    Type
REMARK                         _______ _______ _______ _____ _____    ______ ____
ROOT
ATOM      1  O   UNL     1      35.214 -17.040 -20.714  0.00  0.00    -0.244 OA
ATOM      2  C   UNL     1      34.899 -17.404 -21.838  0.00  0.00    +0.351 C 
ENDROOT
BRANCH   2   3
ATOM      3  C   UNL     1      34.721 -16.492 -23.002  0.00  0.00    +0.144 C 
ATOM      4  C   UNL     1      34.608 -15.179 -22.756  0.00  0.00    +0.018 C 
BRANCH   3   6
ATOM      5  N   UNL     1      34.623 -17.369 -25.432  0.00  0.00    -0.191 NA
ATOM      6  C   UNL     1      34.668 -16.975 -24.341  0.00  0.00    +0.107 C 
ENDBRANCH   3   6
ENDBRANCH   2   3
BRANCH   2   7
ATOM      7  O   UNL     1      34.660 -18.695 -22.216  0.00  0.00    -0.445 OA
BRANCH   7   8
ATOM      8  C   UNL     1      34.747 -19.673 -21.189  0.00  0.00    +0.209 C 
BRANCH   8   9
ATOM      9  C   UNL     1      33.347 -19.959 -20.663  0.00  0.00    +0.047 C 
BRANCH   9  10
ATOM     10  C   UNL     1      33.324 -21.192 -19.765  0.00  0.00    +0.004 C 
ATOM     11  C   UNL     1      34.728 -21.643 -19.401  0.00  0.00    +0.000 C 
ENDBRANCH   9  10
ENDBRANCH   8   9
ENDBRANCH   7   8
ENDBRANCH   2   7
TORSDOF 6
ENDMDL
