MODEL 1
REMARK VINA RESULT:      -9.5      0.000      0.000
REMARK  Name = 4553
REMARK  5 active torsions:
REMARK  status: ('A' for Active; 'I' for Inactive)
REMARK    1  A    between atoms: C_1  and  O_16
REMARK    2  A    between atoms: C_2  and  N_10
REMARK    3  A    between atoms: C_5  and  N_9
REMARK    4  A    between atoms: N_10  and  S_12
REMARK    5  A    between atoms: O_16  and  C_17
REMARK                            x       y       z     vdW  Elec       q    Type
REMARK                         _______ _______ _______ _____ _____    ______ ____
ROOT
ATOM      1  C   UNL     1      33.480 -23.167 -17.043  0.00  0.00    +0.154 C 
ATOM      2  C   UNL     1      34.065 -23.282 -15.786  0.00  0.00    +0.098 C 
ATOM      3  C   UNL     1      32.097 -23.091 -17.174  0.00  0.00    +0.062 C 
ATOM      4  C   UNL     1      33.259 -23.324 -14.648  0.00  0.00    +0.021 C 
ATOM      5  C   UNL     1      31.291 -23.131 -16.035  0.00  0.00    +0.146 C 
ATOM      6  C   UNL     1      31.872 -23.248 -14.773  0.00  0.00    +0.026 C 
ENDROOT
BRANCH   5   9
ATOM      7  O   UNL     1      29.159 -23.687 -15.351  0.00  0.00    -0.126 OA
ATOM      8  O   UNL     1      29.388 -22.357 -17.083  0.00  0.00    -0.126 OA
ATOM      9  N   UNL     1      29.879 -23.054 -16.163  0.00  0.00    +0.058 N 
ENDBRANCH   5   9
BRANCH   2  10
ATOM     10  N   UNL     1      35.486 -23.360 -15.642  0.00  0.00    -0.216 N 
ATOM     11  H   UNL     1      36.067 -22.637 -15.969  0.00  0.00    +0.173 HD
BRANCH  10  12
ATOM     12  S   UNL     1      36.149 -24.753 -14.880  0.00  0.00    +0.056 S 
ATOM     13  O   UNL     1      35.770 -24.732 -13.478  0.00  0.00    -0.154 OA
ATOM     14  O   UNL     1      35.929 -25.940 -15.684  0.00  0.00    -0.154 OA
ATOM     15  C   UNL     1      37.882 -24.358 -14.952  0.00  0.00    +0.200 C 
ENDBRANCH  10  12
ENDBRANCH   2  10
BRANCH   1  16
ATOM     16  O   UNL     1      34.255 -23.122 -18.171  0.00  0.00    -0.478 OA
BRANCH  16  17
ATOM     17  C   UNL     1      34.512 -21.835 -18.722  0.00  0.00    +0.166 C 
ATOM     18  C   UNL     1      35.922 -21.801 -19.310  0.00  0.00    +0.044 C 
ATOM     19  C   UNL     1      33.454 -21.508 -19.775  0.00  0.00    +0.044 C 
ATOM     20  C   UNL     1      36.210 -20.472 -20.000  0.00  0.00    +0.004 C 
ATOM     21  C   UNL     1      33.743 -20.178 -20.465  0.00  0.00    +0.004 C 
ATOM     22  C   UNL     1      35.153 -20.143 -21.051  0.00  0.00    +0.000 C 
ENDBRANCH  16  17
ENDBRANCH   1  16
TORSDOF 5
ENDMDL
MODEL 2
REMARK VINA RESULT:      -9.3      2.070      4.743
REMARK  Name = 4553
REMARK  5 active torsions:
REMARK  status: ('A' for Active; 'I' for Inactive)
REMARK    1  A    between atoms: C_1  and  O_16
REMARK    2  A    between atoms: C_2  and  N_10
REMARK    3  A    between atoms: C_5  and  N_9
REMARK    4  A    between atoms: N_10  and  S_12
REMARK    5  A    between atoms: O_16  and  C_17
REMARK                            x       y       z     vdW  Elec       q    Type
REMARK                         _______ _______ _______ _____ _____    ______ ____
ROOT
ATOM      1  C   UNL     1      32.789 -23.020 -17.281  0.00  0.00    +0.154 C 
ATOM      2  C   UNL     1      31.642 -22.914 -16.500  0.00  0.00    +0.098 C 
ATOM      3  C   UNL     1      33.986 -23.456 -16.722  0.00  0.00    +0.062 C 
ATOM      4  C   UNL     1      31.694 -23.246 -15.146  0.00  0.00    +0.021 C 
ATOM      5  C   UNL     1      34.037 -23.788 -15.368  0.00  0.00    +0.146 C 
ATOM      6  C   UNL     1      32.891 -23.683 -14.580  0.00  0.00    +0.026 C 
ENDROOT
BRANCH   5   9
ATOM      7  O   UNL     1      36.193 -24.587 -15.549  0.00  0.00    -0.126 OA
ATOM      8  O   UNL     1      35.365 -24.259 -13.543  0.00  0.00    -0.126 OA
ATOM      9  N   UNL     1      35.256 -24.232 -14.792  0.00  0.00    +0.058 N 
ENDBRANCH   5   9
BRANCH   2  10
ATOM     10  N   UNL     1      30.406 -22.469 -17.066  0.00  0.00    -0.216 N 
ATOM     11  H   UNL     1      30.372 -21.669 -17.638  0.00  0.00    +0.173 HD
BRANCH  10  12
ATOM     12  S   UNL     1      28.983 -23.372 -16.719  0.00  0.00    +0.056 S 
ATOM     13  O   UNL     1      28.117 -23.325 -17.883  0.00  0.00    -0.154 OA
ATOM     14  O   UNL     1      29.310 -24.639 -16.095  0.00  0.00    -0.154 OA
ATOM     15  C   UNL     1      28.242 -22.329 -15.482  0.00  0.00    +0.200 C 
ENDBRANCH  10  12
ENDBRANCH   2  10
BRANCH   1  16
ATOM     16  O   UNL     1      32.757 -22.701 -18.613  0.00  0.00    -0.478 OA
BRANCH  16  17
ATOM     17  C   UNL     1      33.552 -21.596 -19.026  0.00  0.00    +0.166 C 
ATOM     18  C   UNL     1      34.919 -22.093 -19.493  0.00  0.00    +0.044 C 
ATOM     19  C   UNL     1      32.825 -20.827 -20.129  0.00  0.00    +0.044 C 
ATOM     20  C   UNL     1      35.774 -20.954 -20.040  0.00  0.00    +0.004 C 
ATOM     21  C   UNL     1      33.681 -19.687 -20.675  0.00  0.00    +0.004 C 
ATOM     22  C   UNL     1      35.047 -20.184 -21.140  0.00  0.00    +0.000 C 
ENDBRANCH  16  17
ENDBRANCH   1  16
TORSDOF 5
ENDMDL
MODEL 3
REMARK VINA RESULT:      -8.8      1.630      2.131
REMARK  Name = 4553
REMARK  5 active torsions:
REMARK  status: ('A' for Active; 'I' for Inactive)
REMARK    1  A    between atoms: C_1  and  O_16
REMARK    2  A    between atoms: C_2  and  N_10
REMARK    3  A    between atoms: C_5  and  N_9
REMARK    4  A    between atoms: N_10  and  S_12
REMARK    5  A    between atoms: O_16  and  C_17
REMARK                            x       y       z     vdW  Elec       q    Type
REMARK                         _______ _______ _______ _____ _____    ______ ____
ROOT
ATOM      1  C   UNL     1      33.184 -23.794 -15.806  0.00  0.00    +0.154 C 
ATOM      2  C   UNL     1      33.226 -24.324 -14.521  0.00  0.00    +0.098 C 
ATOM      3  C   UNL     1      32.035 -23.163 -16.274  0.00  0.00    +0.062 C 
ATOM      4  C   UNL     1      32.107 -24.224 -13.694  0.00  0.00    +0.021 C 
ATOM      5  C   UNL     1      30.917 -23.063 -15.446  0.00  0.00    +0.146 C 
ATOM      6  C   UNL     1      30.953 -23.593 -14.157  0.00  0.00    +0.026 C 
ENDROOT
BRANCH   5   9
ATOM      7  O   UNL     1      29.537 -22.357 -17.154  0.00  0.00    -0.126 OA
ATOM      8  O   UNL     1      28.939 -21.932 -15.085  0.00  0.00    -0.126 OA
ATOM      9  N   UNL     1      29.741 -22.420 -15.917  0.00  0.00    +0.058 N 
ENDBRANCH   5   9
BRANCH   2  10
ATOM     10  N   UNL     1      34.403 -24.973 -14.032  0.00  0.00    -0.216 N 
ATOM     11  H   UNL     1      34.630 -25.888 -14.315  0.00  0.00    +0.173 HD
BRANCH  10  12
ATOM     12  S   UNL     1      35.409 -24.110 -12.935  0.00  0.00    +0.056 S 
ATOM     13  O   UNL     1      36.041 -23.019 -13.656  0.00  0.00    -0.154 OA
ATOM     14  O   UNL     1      34.722 -23.865 -11.683  0.00  0.00    -0.154 OA
ATOM     15  C   UNL     1      36.670 -25.330 -12.637  0.00  0.00    +0.200 C 
ENDBRANCH  10  12
ENDBRANCH   2  10
BRANCH   1  16
ATOM     16  O   UNL     1      34.274 -23.881 -16.632  0.00  0.00    -0.478 OA
BRANCH  16  17
ATOM     17  C   UNL     1      34.707 -22.675 -17.251  0.00  0.00    +0.166 C 
ATOM     18  C   UNL     1      36.213 -22.507 -17.051  0.00  0.00    +0.044 C 
ATOM     19  C   UNL     1      34.334 -22.697 -18.733  0.00  0.00    +0.044 C 
ATOM     20  C   UNL     1      36.742 -21.278 -17.782  0.00  0.00    +0.004 C 
ATOM     21  C   UNL     1      34.864 -21.466 -19.463  0.00  0.00    +0.004 C 
ATOM     22  C   UNL     1      36.368 -21.298 -19.262  0.00  0.00    +0.000 C 
ENDBRANCH  16  17
ENDBRANCH   1  16
TORSDOF 5
ENDMDL
MODEL 4
REMARK VINA RESULT:      -8.7      2.547      5.232
REMARK  Name = 4553
REMARK  5 active torsions:
REMARK  status: ('A' for Active; 'I' for Inactive)
REMARK    1  A    between atoms: C_1  and  O_16
REMARK    2  A    between atoms: C_2  and  N_10
REMARK    3  A    between atoms: C_5  and  N_9
REMARK    4  A    between atoms: N_10  and  S_12
REMARK    5  A    between atoms: O_16  and  C_17
REMARK                            x       y       z     vdW  Elec       q    Type
REMARK                         _______ _______ _______ _____ _____    ______ ____
ROOT
ATOM      1  C   UNL     1      34.968 -24.371 -15.098  0.00  0.00    +0.154 C 
ATOM      2  C   UNL     1      34.378 -23.953 -13.909  0.00  0.00    +0.098 C 
ATOM      3  C   UNL     1      36.139 -25.122 -15.080  0.00  0.00    +0.062 C 
ATOM      4  C   UNL     1      34.967 -24.288 -12.689  0.00  0.00    +0.021 C 
ATOM      5  C   UNL     1      36.727 -25.457 -13.859  0.00  0.00    +0.146 C 
ATOM      6  C   UNL     1      36.141 -25.041 -12.665  0.00  0.00    +0.026 C 
ENDROOT
BRANCH   5   9
ATOM      7  O   UNL     1      38.788 -25.972 -12.961  0.00  0.00    -0.126 OA
ATOM      8  O   UNL     1      38.083 -27.129 -14.688  0.00  0.00    -0.126 OA
ATOM      9  N   UNL     1      37.923 -26.223 -13.835  0.00  0.00    +0.058 N 
ENDBRANCH   5   9
BRANCH   2  10
ATOM     10  N   UNL     1      33.174 -23.182 -13.918  0.00  0.00    -0.216 N 
ATOM     11  H   UNL     1      33.204 -22.199 -13.966  0.00  0.00    +0.173 HD
BRANCH  10  12
ATOM     12  S   UNL     1      31.673 -24.021 -13.842  0.00  0.00    +0.056 S 
ATOM     13  O   UNL     1      31.928 -25.434 -14.055  0.00  0.00    -0.154 OA
ATOM     14  O   UNL     1      30.887 -23.577 -12.708  0.00  0.00    -0.154 OA
ATOM     15  C   UNL     1      30.895 -23.408 -15.320  0.00  0.00    +0.200 C 
ENDBRANCH  10  12
ENDBRANCH   2  10
BRANCH   1  16
ATOM     16  O   UNL     1      34.404 -24.054 -16.305  0.00  0.00    -0.478 OA
BRANCH  16  17
ATOM     17  C   UNL     1      34.824 -22.836 -16.908  0.00  0.00    +0.166 C 
ATOM     18  C   UNL     1      36.331 -22.663 -16.722  0.00  0.00    +0.044 C 
ATOM     19  C   UNL     1      34.435 -22.836 -18.386  0.00  0.00    +0.044 C 
ATOM     20  C   UNL     1      36.846 -21.419 -17.438  0.00  0.00    +0.004 C 
ATOM     21  C   UNL     1      34.951 -21.590 -19.102  0.00  0.00    +0.004 C 
ATOM     22  C   UNL     1      36.456 -21.417 -18.914  0.00  0.00    +0.000 C 
ENDBRANCH  16  17
ENDBRANCH   1  16
TORSDOF 5
ENDMDL
MODEL 5
REMARK VINA RESULT:      -8.7      3.000      5.246
REMARK  Name = 4553
REMARK  5 active torsions:
REMARK  status: ('A' for Active; 'I' for Inactive)
REMARK    1  A    between atoms: C_1  and  O_16
REMARK    2  A    between atoms: C_2  and  N_10
REMARK    3  A    between atoms: C_5  and  N_9
REMARK    4  A    between atoms: N_10  and  S_12
REMARK    5  A    between atoms: O_16  and  C_17
REMARK                            x       y       z     vdW  Elec       q    Type
REMARK                         _______ _______ _______ _____ _____    ______ ____
ROOT
ATOM      1  C   UNL     1      34.336 -23.328 -14.937  0.00  0.00    +0.154 C 
ATOM      2  C   UNL     1      35.584 -23.130 -14.354  0.00  0.00    +0.098 C 
ATOM      3  C   UNL     1      34.148 -23.103 -16.297  0.00  0.00    +0.062 C 
ATOM      4  C   UNL     1      36.654 -22.699 -15.139  0.00  0.00    +0.021 C 
ATOM      5  C   UNL     1      35.219 -22.673 -17.082  0.00  0.00    +0.146 C 
ATOM      6  C   UNL     1      36.471 -22.471 -16.503  0.00  0.00    +0.026 C 
ENDROOT
BRANCH   5   9
ATOM      7  O   UNL     1      34.237 -23.173 -19.108  0.00  0.00    -0.126 OA
ATOM      8  O   UNL     1      35.667 -21.510 -19.022  0.00  0.00    -0.126 OA
ATOM      9  N   UNL     1      35.032 -22.441 -18.470  0.00  0.00    +0.058 N 
ENDBRANCH   5   9
BRANCH   2  10
ATOM     10  N   UNL     1      35.787 -23.360 -12.958  0.00  0.00    -0.216 N 
ATOM     11  H   UNL     1      35.534 -22.681 -12.291  0.00  0.00    +0.173 HD
BRANCH  10  12
ATOM     12  S   UNL     1      36.486 -24.857 -12.476  0.00  0.00    +0.056 S 
ATOM     13  O   UNL     1      35.869 -25.268 -11.227  0.00  0.00    -0.154 OA
ATOM     14  O   UNL     1      36.569 -25.776 -13.594  0.00  0.00    -0.154 OA
ATOM     15  C   UNL     1      38.137 -24.322 -12.084  0.00  0.00    +0.200 C 
ENDBRANCH  10  12
ENDBRANCH   2  10
BRANCH   1  16
ATOM     16  O   UNL     1      33.274 -23.753 -14.184  0.00  0.00    -0.478 OA
BRANCH  16  17
ATOM     17  C   UNL     1      32.052 -23.988 -14.873  0.00  0.00    +0.166 C 
ATOM     18  C   UNL     1      31.358 -25.215 -14.284  0.00  0.00    +0.044 C 
ATOM     19  C   UNL     1      31.168 -22.745 -14.786  0.00  0.00    +0.044 C 
ATOM     20  C   UNL     1      29.994 -25.451 -14.925  0.00  0.00    +0.004 C 
ATOM     21  C   UNL     1      29.803 -22.981 -15.428  0.00  0.00    +0.004 C 
ATOM     22  C   UNL     1      29.111 -24.208 -14.841  0.00  0.00    +0.000 C 
ENDBRANCH  16  17
ENDBRANCH   1  16
TORSDOF 5
ENDMDL
MODEL 6
REMARK VINA RESULT:      -8.6      2.751      5.304
REMARK  Name = 4553
REMARK  5 active torsions:
REMARK  status: ('A' for Active; 'I' for Inactive)
REMARK    1  A    between atoms: C_1  and  O_16
REMARK    2  A    between atoms: C_2  and  N_10
REMARK    3  A    between atoms: C_5  and  N_9
REMARK    4  A    between atoms: N_10  and  S_12
REMARK    5  A    between atoms: O_16  and  C_17
REMARK                            x       y       z     vdW  Elec       q    Type
REMARK                         _______ _______ _______ _____ _____    ______ ____
ROOT
ATOM      1  C   UNL     1      35.039 -23.100 -16.584  0.00  0.00    +0.154 C 
ATOM      2  C   UNL     1      36.194 -22.864 -15.845  0.00  0.00    +0.098 C 
ATOM      3  C   UNL     1      34.865 -22.509 -17.832  0.00  0.00    +0.062 C 
ATOM      4  C   UNL     1      37.185 -22.027 -16.358  0.00  0.00    +0.021 C 
ATOM      5  C   UNL     1      35.857 -21.672 -18.344  0.00  0.00    +0.146 C 
ATOM      6  C   UNL     1      37.016 -21.431 -17.608  0.00  0.00    +0.026 C 
ENDROOT
BRANCH   5   9
ATOM      7  O   UNL     1      34.522 -20.907 -20.063  0.00  0.00    -0.126 OA
ATOM      8  O   UNL     1      36.699 -20.705 -20.261  0.00  0.00    -0.126 OA
ATOM      9  N   UNL     1      35.685 -21.065 -19.617  0.00  0.00    +0.058 N 
ENDBRANCH   5   9
BRANCH   2  10
ATOM     10  N   UNL     1      36.381 -23.469 -14.563  0.00  0.00    -0.216 N 
ATOM     11  H   UNL     1      35.956 -23.091 -13.759  0.00  0.00    +0.173 HD
BRANCH  10  12
ATOM     12  S   UNL     1      37.371 -24.873 -14.465  0.00  0.00    +0.056 S 
ATOM     13  O   UNL     1      36.885 -25.843 -15.430  0.00  0.00    -0.154 OA
ATOM     14  O   UNL     1      38.776 -24.517 -14.421  0.00  0.00    -0.154 OA
ATOM     15  C   UNL     1      36.909 -25.472 -12.855  0.00  0.00    +0.200 C 
ENDBRANCH  10  12
ENDBRANCH   2  10
BRANCH   1  16
ATOM     16  O   UNL     1      34.055 -23.921 -16.098  0.00  0.00    -0.478 OA
BRANCH  16  17
ATOM     17  C   UNL     1      32.922 -23.288 -15.516  0.00  0.00    +0.166 C 
ATOM     18  C   UNL     1      31.716 -23.443 -16.443  0.00  0.00    +0.044 C 
ATOM     19  C   UNL     1      32.652 -23.887 -14.136  0.00  0.00    +0.044 C 
ATOM     20  C   UNL     1      30.450 -22.866 -15.817  0.00  0.00    +0.004 C 
ATOM     21  C   UNL     1      31.386 -23.309 -13.511  0.00  0.00    +0.004 C 
ATOM     22  C   UNL     1      30.182 -23.462 -14.438  0.00  0.00    +0.000 C 
ENDBRANCH  16  17
ENDBRANCH   1  16
TORSDOF 5
ENDMDL
MODEL 7
REMARK VINA RESULT:      -8.5      2.274      5.559
REMARK  Name = 4553
REMARK  5 active torsions:
REMARK  status: ('A' for Active; 'I' for Inactive)
REMARK    1  A    between atoms: C_1  and  O_16
REMARK    2  A    between atoms: C_2  and  N_10
REMARK    3  A    between atoms: C_5  and  N_9
REMARK    4  A    between atoms: N_10  and  S_12
REMARK    5  A    between atoms: O_16  and  C_17
REMARK                            x       y       z     vdW  Elec       q    Type
REMARK                         _______ _______ _______ _____ _____    ______ ____
ROOT
ATOM      1  C   UNL     1      34.090 -23.425 -15.270  0.00  0.00    +0.154 C 
ATOM      2  C   UNL     1      33.701 -23.070 -16.558  0.00  0.00    +0.098 C 
ATOM      3  C   UNL     1      33.156 -23.903 -14.356  0.00  0.00    +0.062 C 
ATOM      4  C   UNL     1      32.363 -23.193 -16.935  0.00  0.00    +0.021 C 
ATOM      5  C   UNL     1      31.819 -24.026 -14.735  0.00  0.00    +0.146 C 
ATOM      6  C   UNL     1      31.423 -23.672 -16.023  0.00  0.00    +0.026 C 
ENDROOT
BRANCH   5   9
ATOM      7  O   UNL     1      30.099 -25.448 -14.152  0.00  0.00    -0.126 OA
ATOM      8  O   UNL     1      30.802 -23.995 -12.665  0.00  0.00    -0.126 OA
ATOM      9  N   UNL     1      30.861 -24.513 -13.806  0.00  0.00    +0.058 N 
ENDBRANCH   5   9
BRANCH   2  10
ATOM     10  N   UNL     1      34.654 -22.579 -17.504  0.00  0.00    -0.216 N 
ATOM     11  H   UNL     1      35.571 -22.354 -17.227  0.00  0.00    +0.173 HD
BRANCH  10  12
ATOM     12  S   UNL     1      34.151 -22.393 -19.140  0.00  0.00    +0.056 S 
ATOM     13  O   UNL     1      34.046 -23.711 -19.739  0.00  0.00    -0.154 OA
ATOM     14  O   UNL     1      33.057 -21.447 -19.242  0.00  0.00    -0.154 OA
ATOM     15  C   UNL     1      35.601 -21.627 -19.830  0.00  0.00    +0.200 C 
ENDBRANCH  10  12
ENDBRANCH   2  10
BRANCH   1  16
ATOM     16  O   UNL     1      35.399 -23.313 -14.882  0.00  0.00    -0.478 OA
BRANCH  16  17
ATOM     17  C   UNL     1      35.863 -24.251 -13.918  0.00  0.00    +0.166 C 
ATOM     18  C   UNL     1      36.615 -25.381 -14.622  0.00  0.00    +0.044 C 
ATOM     19  C   UNL     1      36.747 -23.539 -12.895  0.00  0.00    +0.044 C 
ATOM     20  C   UNL     1      37.218 -26.361 -13.622  0.00  0.00    +0.004 C 
ATOM     21  C   UNL     1      37.351 -24.521 -11.895  0.00  0.00    +0.004 C 
ATOM     22  C   UNL     1      38.099 -25.650 -12.598  0.00  0.00    +0.000 C 
ENDBRANCH  16  17
ENDBRANCH   1  16
TORSDOF 5
ENDMDL
MODEL 8
REMARK VINA RESULT:      -8.5      2.661      5.645
REMARK  Name = 4553
REMARK  5 active torsions:
REMARK  status: ('A' for Active; 'I' for Inactive)
REMARK    1  A    between atoms: C_1  and  O_16
REMARK    2  A    between atoms: C_2  and  N_10
REMARK    3  A    between atoms: C_5  and  N_9
REMARK    4  A    between atoms: N_10  and  S_12
REMARK    5  A    between atoms: O_16  and  C_17
REMARK                            x       y       z     vdW  Elec       q    Type
REMARK                         _______ _______ _______ _____ _____    ______ ____
ROOT
ATOM      1  C   UNL     1      36.355 -23.439 -14.645  0.00  0.00    +0.154 C 
ATOM      2  C   UNL     1      35.637 -23.983 -13.584  0.00  0.00    +0.098 C 
ATOM      3  C   UNL     1      37.618 -23.925 -14.966  0.00  0.00    +0.062 C 
ATOM      4  C   UNL     1      36.190 -25.022 -12.835  0.00  0.00    +0.021 C 
ATOM      5  C   UNL     1      38.170 -24.965 -14.216  0.00  0.00    +0.146 C 
ATOM      6  C   UNL     1      37.456 -25.513 -13.152  0.00  0.00    +0.026 C 
ENDROOT
BRANCH   5   9
ATOM      7  O   UNL     1      39.615 -26.702 -14.678  0.00  0.00    -0.126 OA
ATOM      8  O   UNL     1      40.409 -24.656 -14.676  0.00  0.00    -0.126 OA
ATOM      9  N   UNL     1      39.459 -25.465 -14.539  0.00  0.00    +0.058 N 
ENDBRANCH   5   9
BRANCH   2  10
ATOM     10  N   UNL     1      34.337 -23.491 -13.248  0.00  0.00    -0.216 N 
ATOM     11  H   UNL     1      34.228 -22.728 -12.635  0.00  0.00    +0.173 HD
BRANCH  10  12
ATOM     12  S   UNL     1      32.970 -24.270 -13.943  0.00  0.00    +0.056 S 
ATOM     13  O   UNL     1      33.390 -24.924 -15.170  0.00  0.00    -0.154 OA
ATOM     14  O   UNL     1      32.221 -25.000 -12.939  0.00  0.00    -0.154 OA
ATOM     15  C   UNL     1      32.007 -22.852 -14.419  0.00  0.00    +0.200 C 
ENDBRANCH  10  12
ENDBRANCH   2  10
BRANCH   1  16
ATOM     16  O   UNL     1      35.828 -22.420 -15.393  0.00  0.00    -0.478 OA
BRANCH  16  17
ATOM     17  C   UNL     1      35.835 -22.592 -16.806  0.00  0.00    +0.166 C 
ATOM     18  C   UNL     1      34.398 -22.608 -17.328  0.00  0.00    +0.044 C 
ATOM     19  C   UNL     1      36.657 -21.479 -17.453  0.00  0.00    +0.044 C 
ATOM     20  C   UNL     1      34.356 -22.692 -18.850  0.00  0.00    +0.004 C 
ATOM     21  C   UNL     1      36.614 -21.563 -18.976  0.00  0.00    +0.004 C 
ATOM     22  C   UNL     1      35.180 -21.581 -19.498  0.00  0.00    +0.000 C 
ENDBRANCH  16  17
ENDBRANCH   1  16
TORSDOF 5
ENDMDL
MODEL 9
REMARK VINA RESULT:      -8.4      2.102      4.645
REMARK  Name = 4553
REMARK  5 active torsions:
REMARK  status: ('A' for Active; 'I' for Inactive)
REMARK    1  A    between atoms: C_1  and  O_16
REMARK    2  A    between atoms: C_2  and  N_10
REMARK    3  A    between atoms: C_5  and  N_9
REMARK    4  A    between atoms: N_10  and  S_12
REMARK    5  A    between atoms: O_16  and  C_17
REMARK                            x       y       z     vdW  Elec       q    Type
REMARK                         _______ _______ _______ _____ _____    ______ ____
ROOT
ATOM      1  C   UNL     1      34.273 -23.332 -16.591  0.00  0.00    +0.154 C 
ATOM      2  C   UNL     1      33.256 -23.549 -15.667  0.00  0.00    +0.098 C 
ATOM      3  C   UNL     1      35.595 -23.220 -16.175  0.00  0.00    +0.062 C 
ATOM      4  C   UNL     1      33.566 -23.652 -14.310  0.00  0.00    +0.021 C 
ATOM      5  C   UNL     1      35.904 -23.324 -14.818  0.00  0.00    +0.146 C 
ATOM      6  C   UNL     1      34.890 -23.540 -13.886  0.00  0.00    +0.026 C 
ENDROOT
BRANCH   5   9
ATOM      7  O   UNL     1      38.173 -23.316 -15.232  0.00  0.00    -0.126 OA
ATOM      8  O   UNL     1      37.487 -23.004 -13.171  0.00  0.00    -0.126 OA
ATOM      9  N   UNL     1      37.252 -23.209 -14.386  0.00  0.00    +0.058 N 
ENDBRANCH   5   9
BRANCH   2  10
ATOM     10  N   UNL     1      31.894 -23.667 -16.086  0.00  0.00    -0.216 N 
ATOM     11  H   UNL     1      31.633 -23.473 -17.015  0.00  0.00    +0.173 HD
BRANCH  10  12
ATOM     12  S   UNL     1      30.727 -24.158 -14.921  0.00  0.00    +0.056 S 
ATOM     13  O   UNL     1      31.056 -25.502 -14.481  0.00  0.00    -0.154 OA
ATOM     14  O   UNL     1      30.483 -23.106 -13.954  0.00  0.00    -0.154 OA
ATOM     15  C   UNL     1      29.286 -24.293 -15.956  0.00  0.00    +0.200 C 
ENDBRANCH  10  12
ENDBRANCH   2  10
BRANCH   1  16
ATOM     16  O   UNL     1      33.989 -23.231 -17.928  0.00  0.00    -0.478 OA
BRANCH  16  17
ATOM     17  C   UNL     1      34.182 -21.955 -18.528  0.00  0.00    +0.166 C 
ATOM     18  C   UNL     1      35.445 -21.979 -19.389  0.00  0.00    +0.044 C 
ATOM     19  C   UNL     1      32.948 -21.584 -19.349  0.00  0.00    +0.044 C 
ATOM     20  C   UNL     1      35.641 -20.663 -20.134  0.00  0.00    +0.004 C 
ATOM     21  C   UNL     1      33.145 -20.267 -20.094  0.00  0.00    +0.004 C 
ATOM     22  C   UNL     1      34.408 -20.290 -20.952  0.00  0.00    +0.000 C 
ENDBRANCH  16  17
ENDBRANCH   1  16
TORSDOF 5
ENDMDL
