MODEL 1
REMARK VINA RESULT:      -9.9      0.000      0.000
REMARK  Name = 46937135
REMARK  8 active torsions:
REMARK  status: ('A' for Active; 'I' for Inactive)
REMARK    1  A    between atoms: C_2  and  N_6
REMARK    2  A    between atoms: C_3  and  O_18
REMARK    3  A    between atoms: C_5  and  C_20
REMARK    4  A    between atoms: C_14  and  N_17
REMARK    5  A    between atoms: C_20  and  O_21
REMARK    6  A    between atoms: O_21  and  P_22
REMARK    7  A    between atoms: P_22  and  O_24
REMARK    8  A    between atoms: P_22  and  O_26
REMARK                            x       y       z     vdW  Elec       q    Type
REMARK                         _______ _______ _______ _____ _____    ______ ____
ROOT
ATOM      1  O   UNL     1      36.157 -23.100 -13.774  0.00  0.00    -0.335 OA
ATOM      2  C   UNL     1      34.922 -23.840 -13.812  0.00  0.00    +0.199 C 
ATOM      3  C   UNL     1      36.535 -25.243 -12.816  0.00  0.00    +0.144 C 
ATOM      4  C   UNL     1      35.298 -25.312 -13.681  0.00  0.00    +0.083 C 
ATOM      5  C   UNL     1      37.206 -23.957 -13.279  0.00  0.00    +0.174 C 
ENDROOT
BRANCH   2   6
ATOM      6  N   UNL     1      34.123 -23.542 -15.056  0.00  0.00    -0.264 N 
ATOM      7  C   UNL     1      32.757 -23.370 -15.108  0.00  0.00    +0.054 C 
ATOM      8  C   UNL     1      34.664 -23.404 -16.306  0.00  0.00    +0.067 C 
ATOM      9  C   UNL     1      32.425 -23.114 -16.440  0.00  0.00    +0.017 C 
ATOM     10  C   UNL     1      33.638 -23.138 -17.184  0.00  0.00    +0.017 C 
ATOM     11  C   UNL     1      31.800 -23.422 -14.088  0.00  0.00    +0.017 C 
ATOM     12  C   UNL     1      31.074 -22.899 -16.772  0.00  0.00    +0.025 C 
ATOM     13  C   UNL     1      30.466 -23.205 -14.441  0.00  0.00    +0.025 C 
ATOM     14  C   UNL     1      30.106 -22.947 -15.762  0.00  0.00    +0.143 C 
BRANCH  14  17
ATOM     15  O   UNL     1      27.855 -23.331 -15.434  0.00  0.00    -0.126 OA
ATOM     16  O   UNL     1      28.459 -21.945 -17.027  0.00  0.00    -0.126 OA
ATOM     17  N   UNL     1      28.740 -22.731 -16.090  0.00  0.00    +0.058 N 
ENDBRANCH  14  17
ENDBRANCH   2   6
BRANCH   3  18
ATOM     18  O   UNL     1      36.129 -25.111 -11.456  0.00  0.00    -0.382 OA
ATOM     19  H   UNL     1      36.857 -25.379 -10.875  0.00  0.00    +0.210 HD
ENDBRANCH   3  18
BRANCH   5  20
ATOM     20  C   UNL     1      38.199 -24.184 -14.410  0.00  0.00    +0.186 C 
BRANCH  20  21
ATOM     21  O   UNL     1      39.394 -24.714 -13.864  0.00  0.00    -0.271 OA
BRANCH  21  22
ATOM     22  P   UNL     1      40.020 -26.051 -14.528  0.00  0.00    +0.473 P 
ATOM     23  O   UNL     1      41.184 -26.642 -13.786  0.00  0.00    -0.227 OA
BRANCH  22  24
ATOM     24  O   UNL     1      40.323 -25.617 -16.056  0.00  0.00    -0.303 OA
ATOM     25  H   UNL     1      41.052 -26.152 -16.406  0.00  0.00    +0.222 HD
ENDBRANCH  22  24
BRANCH  22  26
ATOM     26  O   UNL     1      38.734 -27.023 -14.665  0.00  0.00    -0.303 OA
ATOM     27  H   UNL     1      38.023 -26.554 -15.128  0.00  0.00    +0.222 HD
ENDBRANCH  22  26
ENDBRANCH  21  22
ENDBRANCH  20  21
ENDBRANCH   5  20
TORSDOF 8
ENDMDL
MODEL 2
REMARK VINA RESULT:      -9.8      1.337      2.388
REMARK  Name = 46937135
REMARK  8 active torsions:
REMARK  status: ('A' for Active; 'I' for Inactive)
REMARK    1  A    between atoms: C_2  and  N_6
REMARK    2  A    between atoms: C_3  and  O_18
REMARK    3  A    between atoms: C_5  and  C_20
REMARK    4  A    between atoms: C_14  and  N_17
REMARK    5  A    between atoms: C_20  and  O_21
REMARK    6  A    between atoms: O_21  and  P_22
REMARK    7  A    between atoms: P_22  and  O_24
REMARK    8  A    between atoms: P_22  and  O_26
REMARK                            x       y       z     vdW  Elec       q    Type
REMARK                         _______ _______ _______ _____ _____    ______ ____
ROOT
ATOM      1  O   UNL     1      35.981 -25.087 -15.558  0.00  0.00    -0.335 OA
ATOM      2  C   UNL     1      35.242 -23.852 -15.493  0.00  0.00    +0.199 C 
ATOM      3  C   UNL     1      37.518 -23.307 -15.202  0.00  0.00    +0.144 C 
ATOM      4  C   UNL     1      36.142 -22.849 -14.781  0.00  0.00    +0.083 C 
ATOM      5  C   UNL     1      37.369 -24.821 -15.270  0.00  0.00    +0.174 C 
ENDROOT
BRANCH   2   6
ATOM      6  N   UNL     1      33.904 -24.030 -14.820  0.00  0.00    -0.264 N 
ATOM      7  C   UNL     1      32.689 -23.644 -15.339  0.00  0.00    +0.054 C 
ATOM      8  C   UNL     1      33.730 -24.605 -13.590  0.00  0.00    +0.067 C 
ATOM      9  C   UNL     1      31.712 -23.988 -14.403  0.00  0.00    +0.017 C 
ATOM     10  C   UNL     1      32.384 -24.594 -13.304  0.00  0.00    +0.017 C 
ATOM     11  C   UNL     1      32.383 -23.021 -16.556  0.00  0.00    +0.017 C 
ATOM     12  C   UNL     1      30.365 -23.699 -14.692  0.00  0.00    +0.025 C 
ATOM     13  C   UNL     1      31.039 -22.744 -16.820  0.00  0.00    +0.025 C 
ATOM     14  C   UNL     1      30.044 -23.077 -15.904  0.00  0.00    +0.143 C 
BRANCH  14  17
ATOM     15  O   UNL     1      27.782 -23.362 -15.552  0.00  0.00    -0.126 OA
ATOM     16  O   UNL     1      28.429 -21.950 -17.104  0.00  0.00    -0.126 OA
ATOM     17  N   UNL     1      28.686 -22.782 -16.201  0.00  0.00    +0.058 N 
ENDBRANCH  14  17
ENDBRANCH   2   6
BRANCH   3  18
ATOM     18  O   UNL     1      37.788 -22.793 -16.504  0.00  0.00    -0.382 OA
ATOM     19  H   UNL     1      38.512 -22.152 -16.455  0.00  0.00    +0.210 HD
ENDBRANCH   3  18
BRANCH   5  20
ATOM     20  C   UNL     1      37.714 -25.507 -13.954  0.00  0.00    +0.186 C 
BRANCH  20  21
ATOM     21  O   UNL     1      38.780 -26.413 -14.181  0.00  0.00    -0.271 OA
BRANCH  21  22
ATOM     22  P   UNL     1      40.254 -25.813 -14.478  0.00  0.00    +0.473 P 
ATOM     23  O   UNL     1      40.547 -24.494 -13.823  0.00  0.00    -0.227 OA
BRANCH  22  24
ATOM     24  O   UNL     1      40.354 -25.821 -16.092  0.00  0.00    -0.303 OA
ATOM     25  H   UNL     1      40.716 -24.975 -16.398  0.00  0.00    +0.222 HD
ENDBRANCH  22  24
BRANCH  22  26
ATOM     26  O   UNL     1      41.232 -27.025 -14.040  0.00  0.00    -0.303 OA
ATOM     27  H   UNL     1      41.710 -26.779 -13.233  0.00  0.00    +0.222 HD
ENDBRANCH  22  26
ENDBRANCH  21  22
ENDBRANCH  20  21
ENDBRANCH   5  20
TORSDOF 8
ENDMDL
MODEL 3
REMARK VINA RESULT:      -9.5      3.263      4.265
REMARK  Name = 46937135
REMARK  8 active torsions:
REMARK  status: ('A' for Active; 'I' for Inactive)
REMARK    1  A    between atoms: C_2  and  N_6
REMARK    2  A    between atoms: C_3  and  O_18
REMARK    3  A    between atoms: C_5  and  C_20
REMARK    4  A    between atoms: C_14  and  N_17
REMARK    5  A    between atoms: C_20  and  O_21
REMARK    6  A    between atoms: O_21  and  P_22
REMARK    7  A    between atoms: P_22  and  O_24
REMARK    8  A    between atoms: P_22  and  O_26
REMARK                            x       y       z     vdW  Elec       q    Type
REMARK                         _______ _______ _______ _____ _____    ______ ____
ROOT
ATOM      1  O   UNL     1      37.585 -23.631 -13.678  0.00  0.00    -0.335 OA
ATOM      2  C   UNL     1      36.277 -23.078 -13.439  0.00  0.00    +0.199 C 
ATOM      3  C   UNL     1      36.950 -24.139 -11.444  0.00  0.00    +0.144 C 
ATOM      4  C   UNL     1      35.705 -23.827 -12.241  0.00  0.00    +0.083 C 
ATOM      5  C   UNL     1      37.994 -24.391 -12.523  0.00  0.00    +0.174 C 
ENDROOT
BRANCH   2   6
ATOM      6  N   UNL     1      35.397 -23.160 -14.662  0.00  0.00    -0.264 N 
ATOM      7  C   UNL     1      35.693 -22.627 -15.897  0.00  0.00    +0.054 C 
ATOM      8  C   UNL     1      34.179 -23.782 -14.696  0.00  0.00    +0.067 C 
ATOM      9  C   UNL     1      34.620 -22.925 -16.741  0.00  0.00    +0.017 C 
ATOM     10  C   UNL     1      33.673 -23.655 -15.969  0.00  0.00    +0.017 C 
ATOM     11  C   UNL     1      36.816 -21.911 -16.328  0.00  0.00    +0.017 C 
ATOM     12  C   UNL     1      34.670 -22.489 -18.079  0.00  0.00    +0.025 C 
ATOM     13  C   UNL     1      36.843 -21.489 -17.659  0.00  0.00    +0.025 C 
ATOM     14  C   UNL     1      35.787 -21.772 -18.523  0.00  0.00    +0.143 C 
BRANCH  14  17
ATOM     15  O   UNL     1      36.961 -21.218 -20.430  0.00  0.00    -0.126 OA
ATOM     16  O   UNL     1      34.771 -21.061 -20.468  0.00  0.00    -0.126 OA
ATOM     17  N   UNL     1      35.843 -21.329 -19.872  0.00  0.00    +0.058 N 
ENDBRANCH  14  17
ENDBRANCH   2   6
BRANCH   3  18
ATOM     18  O   UNL     1      37.308 -22.982 -10.692  0.00  0.00    -0.382 OA
ATOM     19  H   UNL     1      36.521 -22.433 -10.550  0.00  0.00    +0.210 HD
ENDBRANCH   3  18
BRANCH   5  20
ATOM     20  C   UNL     1      38.078 -25.856 -12.931  0.00  0.00    +0.186 C 
BRANCH  20  21
ATOM     21  O   UNL     1      39.441 -26.208 -13.081  0.00  0.00    -0.271 OA
BRANCH  21  22
ATOM     22  P   UNL     1      40.208 -25.771 -14.439  0.00  0.00    +0.473 P 
ATOM     23  O   UNL     1      40.964 -24.477 -14.353  0.00  0.00    -0.227 OA
BRANCH  22  24
ATOM     24  O   UNL     1      39.050 -25.823 -15.567  0.00  0.00    -0.303 OA
ATOM     25  H   UNL     1      38.182 -25.736 -15.143  0.00  0.00    +0.222 HD
ENDBRANCH  22  24
BRANCH  22  26
ATOM     26  O   UNL     1      41.113 -27.069 -14.776  0.00  0.00    -0.303 OA
ATOM     27  H   UNL     1      41.289 -27.102 -15.729  0.00  0.00    +0.222 HD
ENDBRANCH  22  26
ENDBRANCH  21  22
ENDBRANCH  20  21
ENDBRANCH   5  20
TORSDOF 8
ENDMDL
MODEL 4
REMARK VINA RESULT:      -9.4      3.261      8.235
REMARK  Name = 46937135
REMARK  8 active torsions:
REMARK  status: ('A' for Active; 'I' for Inactive)
REMARK    1  A    between atoms: C_2  and  N_6
REMARK    2  A    between atoms: C_3  and  O_18
REMARK    3  A    between atoms: C_5  and  C_20
REMARK    4  A    between atoms: C_14  and  N_17
REMARK    5  A    between atoms: C_20  and  O_21
REMARK    6  A    between atoms: O_21  and  P_22
REMARK    7  A    between atoms: P_22  and  O_24
REMARK    8  A    between atoms: P_22  and  O_26
REMARK                            x       y       z     vdW  Elec       q    Type
REMARK                         _______ _______ _______ _____ _____    ______ ____
ROOT
ATOM      1  O   UNL     1      31.948 -25.409 -14.499  0.00  0.00    -0.335 OA
ATOM      2  C   UNL     1      32.702 -24.374 -13.839  0.00  0.00    +0.199 C 
ATOM      3  C   UNL     1      30.420 -23.892 -13.489  0.00  0.00    +0.144 C 
ATOM      4  C   UNL     1      31.751 -23.197 -13.659  0.00  0.00    +0.083 C 
ATOM      5  C   UNL     1      30.543 -25.097 -14.412  0.00  0.00    +0.174 C 
ENDROOT
BRANCH   2   6
ATOM      6  N   UNL     1      33.952 -24.013 -14.602  0.00  0.00    -0.264 N 
ATOM      7  C   UNL     1      35.219 -24.481 -14.331  0.00  0.00    +0.054 C 
ATOM      8  C   UNL     1      33.983 -23.162 -15.674  0.00  0.00    +0.067 C 
ATOM      9  C   UNL     1      36.080 -23.904 -15.266  0.00  0.00    +0.017 C 
ATOM     10  C   UNL     1      35.286 -23.075 -16.108  0.00  0.00    +0.017 C 
ATOM     11  C   UNL     1      35.663 -25.362 -13.338  0.00  0.00    +0.017 C 
ATOM     12  C   UNL     1      37.451 -24.221 -15.210  0.00  0.00    +0.025 C 
ATOM     13  C   UNL     1      37.027 -25.661 -13.302  0.00  0.00    +0.025 C 
ATOM     14  C   UNL     1      37.910 -25.100 -14.223  0.00  0.00    +0.143 C 
BRANCH  14  17
ATOM     15  O   UNL     1      39.686 -26.505 -14.662  0.00  0.00    -0.126 OA
ATOM     16  O   UNL     1      40.080 -24.619 -13.609  0.00  0.00    -0.126 OA
ATOM     17  N   UNL     1      39.292 -25.424 -14.161  0.00  0.00    +0.058 N 
ENDBRANCH  14  17
ENDBRANCH   2   6
BRANCH   3  18
ATOM     18  O   UNL     1      30.309 -24.333 -12.138  0.00  0.00    -0.382 OA
ATOM     19  H   UNL     1      30.095 -25.278 -12.123  0.00  0.00    +0.210 HD
ENDBRANCH   3  18
BRANCH   5  20
ATOM     20  C   UNL     1      30.038 -24.813 -15.821  0.00  0.00    +0.186 C 
BRANCH  20  21
ATOM     21  O   UNL     1      28.734 -24.267 -15.734  0.00  0.00    -0.271 OA
BRANCH  21  22
ATOM     22  P   UNL     1      28.350 -23.026 -16.700  0.00  0.00    +0.473 P 
ATOM     23  O   UNL     1      27.470 -23.377 -17.864  0.00  0.00    -0.227 OA
BRANCH  22  24
ATOM     24  O   UNL     1      29.782 -22.382 -17.086  0.00  0.00    -0.303 OA
ATOM     25  H   UNL     1      30.041 -22.677 -17.972  0.00  0.00    +0.222 HD
ENDBRANCH  22  24
BRANCH  22  26
ATOM     26  O   UNL     1      27.722 -21.947 -15.671  0.00  0.00    -0.303 OA
ATOM     27  H   UNL     1      27.499 -22.388 -14.837  0.00  0.00    +0.222 HD
ENDBRANCH  22  26
ENDBRANCH  21  22
ENDBRANCH  20  21
ENDBRANCH   5  20
TORSDOF 8
ENDMDL
MODEL 5
REMARK VINA RESULT:      -9.4      2.252      3.470
REMARK  Name = 46937135
REMARK  8 active torsions:
REMARK  status: ('A' for Active; 'I' for Inactive)
REMARK    1  A    between atoms: C_2  and  N_6
REMARK    2  A    between atoms: C_3  and  O_18
REMARK    3  A    between atoms: C_5  and  C_20
REMARK    4  A    between atoms: C_14  and  N_17
REMARK    5  A    between atoms: C_20  and  O_21
REMARK    6  A    between atoms: O_21  and  P_22
REMARK    7  A    between atoms: P_22  and  O_24
REMARK    8  A    between atoms: P_22  and  O_26
REMARK                            x       y       z     vdW  Elec       q    Type
REMARK                         _______ _______ _______ _____ _____    ______ ____
ROOT
ATOM      1  O   UNL     1      35.153 -25.116 -15.551  0.00  0.00    -0.335 OA
ATOM      2  C   UNL     1      34.317 -23.954 -15.713  0.00  0.00    +0.199 C 
ATOM      3  C   UNL     1      36.526 -23.178 -15.433  0.00  0.00    +0.144 C 
ATOM      4  C   UNL     1      35.099 -22.778 -15.141  0.00  0.00    +0.083 C 
ATOM      5  C   UNL     1      36.500 -24.691 -15.261  0.00  0.00    +0.174 C 
ENDROOT
BRANCH   2   6
ATOM      6  N   UNL     1      32.966 -24.136 -15.069  0.00  0.00    -0.264 N 
ATOM      7  C   UNL     1      31.779 -23.617 -15.536  0.00  0.00    +0.054 C 
ATOM      8  C   UNL     1      32.748 -24.851 -13.922  0.00  0.00    +0.067 C 
ATOM      9  C   UNL     1      30.777 -24.019 -14.651  0.00  0.00    +0.017 C 
ATOM     10  C   UNL     1      31.403 -24.798 -13.638  0.00  0.00    +0.017 C 
ATOM     11  C   UNL     1      31.520 -22.829 -16.664  0.00  0.00    +0.017 C 
ATOM     12  C   UNL     1      29.451 -23.617 -14.902  0.00  0.00    +0.025 C 
ATOM     13  C   UNL     1      30.197 -22.442 -16.892  0.00  0.00    +0.025 C 
ATOM     14  C   UNL     1      29.176 -22.829 -16.026  0.00  0.00    +0.143 C 
BRANCH  14  17
ATOM     15  O   UNL     1      26.926 -22.809 -15.517  0.00  0.00    -0.126 OA
ATOM     16  O   UNL     1      27.612 -21.680 -17.272  0.00  0.00    -0.126 OA
ATOM     17  N   UNL     1      27.840 -22.420 -16.284  0.00  0.00    +0.058 N 
ENDBRANCH  14  17
ENDBRANCH   2   6
BRANCH   3  18
ATOM     18  O   UNL     1      36.818 -22.855 -16.790  0.00  0.00    -0.382 OA
ATOM     19  H   UNL     1      36.758 -23.656 -17.333  0.00  0.00    +0.210 HD
ENDBRANCH   3  18
BRANCH   5  20
ATOM     20  C   UNL     1      36.833 -25.128 -13.840  0.00  0.00    +0.186 C 
BRANCH  20  21
ATOM     21  O   UNL     1      37.038 -23.973 -13.047  0.00  0.00    -0.271 OA
BRANCH  21  22
ATOM     22  P   UNL     1      36.375 -23.921 -11.570  0.00  0.00    +0.473 P 
ATOM     23  O   UNL     1      37.110 -23.073 -10.574  0.00  0.00    -0.227 OA
BRANCH  22  24
ATOM     24  O   UNL     1      36.214 -25.479 -11.167  0.00  0.00    -0.303 OA
ATOM     25  H   UNL     1      35.794 -25.960 -11.897  0.00  0.00    +0.222 HD
ENDBRANCH  22  24
BRANCH  22  26
ATOM     26  O   UNL     1      34.855 -23.457 -11.873  0.00  0.00    -0.303 OA
ATOM     27  H   UNL     1      34.821 -22.998 -12.727  0.00  0.00    +0.222 HD
ENDBRANCH  22  26
ENDBRANCH  21  22
ENDBRANCH  20  21
ENDBRANCH   5  20
TORSDOF 8
ENDMDL
MODEL 6
REMARK VINA RESULT:      -9.2      4.618      7.301
REMARK  Name = 46937135
REMARK  8 active torsions:
REMARK  status: ('A' for Active; 'I' for Inactive)
REMARK    1  A    between atoms: C_2  and  N_6
REMARK    2  A    between atoms: C_3  and  O_18
REMARK    3  A    between atoms: C_5  and  C_20
REMARK    4  A    between atoms: C_14  and  N_17
REMARK    5  A    between atoms: C_20  and  O_21
REMARK    6  A    between atoms: O_21  and  P_22
REMARK    7  A    between atoms: P_22  and  O_24
REMARK    8  A    between atoms: P_22  and  O_26
REMARK                            x       y       z     vdW  Elec       q    Type
REMARK                         _______ _______ _______ _____ _____    ______ ____
ROOT
ATOM      1  O   UNL     1      31.908 -25.493 -14.588  0.00  0.00    -0.335 OA
ATOM      2  C   UNL     1      32.616 -24.502 -13.820  0.00  0.00    +0.199 C 
ATOM      3  C   UNL     1      30.317 -24.178 -13.406  0.00  0.00    +0.144 C 
ATOM      4  C   UNL     1      31.609 -23.402 -13.503  0.00  0.00    +0.083 C 
ATOM      5  C   UNL     1      30.489 -25.265 -14.459  0.00  0.00    +0.174 C 
ENDROOT
BRANCH   2   6
ATOM      6  N   UNL     1      33.838 -23.994 -14.543  0.00  0.00    -0.264 N 
ATOM      7  C   UNL     1      33.852 -23.459 -15.812  0.00  0.00    +0.054 C 
ATOM      8  C   UNL     1      35.103 -24.004 -14.021  0.00  0.00    +0.067 C 
ATOM      9  C   UNL     1      35.176 -23.118 -16.100  0.00  0.00    +0.017 C 
ATOM     10  C   UNL     1      35.954 -23.467 -14.961  0.00  0.00    +0.017 C 
ATOM     11  C   UNL     1      32.805 -23.252 -16.717  0.00  0.00    +0.017 C 
ATOM     12  C   UNL     1      35.470 -22.543 -17.352  0.00  0.00    +0.025 C 
ATOM     13  C   UNL     1      33.121 -22.680 -17.952  0.00  0.00    +0.025 C 
ATOM     14  C   UNL     1      34.433 -22.330 -18.267  0.00  0.00    +0.143 C 
BRANCH  14  17
ATOM     15  O   UNL     1      33.782 -21.280 -20.215  0.00  0.00    -0.126 OA
ATOM     16  O   UNL     1      35.913 -21.725 -19.929  0.00  0.00    -0.126 OA
ATOM     17  N   UNL     1      34.723 -21.751 -19.532  0.00  0.00    +0.058 N 
ENDBRANCH  14  17
ENDBRANCH   2   6
BRANCH   3  18
ATOM     18  O   UNL     1      30.242 -24.773 -12.112  0.00  0.00    -0.382 OA
ATOM     19  H   UNL     1      29.342 -25.094 -11.956  0.00  0.00    +0.210 HD
ENDBRANCH   3  18
BRANCH   5  20
ATOM     20  C   UNL     1      29.956 -24.851 -15.825  0.00  0.00    +0.186 C 
BRANCH  20  21
ATOM     21  O   UNL     1      28.684 -24.251 -15.652  0.00  0.00    -0.271 OA
BRANCH  21  22
ATOM     22  P   UNL     1      28.239 -23.076 -16.673  0.00  0.00    +0.473 P 
ATOM     23  O   UNL     1      27.383 -23.523 -17.822  0.00  0.00    -0.227 OA
BRANCH  22  24
ATOM     24  O   UNL     1      29.637 -22.375 -17.084  0.00  0.00    -0.303 OA
ATOM     25  H   UNL     1      29.600 -22.100 -18.013  0.00  0.00    +0.222 HD
ENDBRANCH  22  24
BRANCH  22  26
ATOM     26  O   UNL     1      27.552 -21.987 -15.693  0.00  0.00    -0.303 OA
ATOM     27  H   UNL     1      26.917 -22.432 -15.110  0.00  0.00    +0.222 HD
ENDBRANCH  22  26
ENDBRANCH  21  22
ENDBRANCH  20  21
ENDBRANCH   5  20
TORSDOF 8
ENDMDL
MODEL 7
REMARK VINA RESULT:      -9.2      5.208      6.958
REMARK  Name = 46937135
REMARK  8 active torsions:
REMARK  status: ('A' for Active; 'I' for Inactive)
REMARK    1  A    between atoms: C_2  and  N_6
REMARK    2  A    between atoms: C_3  and  O_18
REMARK    3  A    between atoms: C_5  and  C_20
REMARK    4  A    between atoms: C_14  and  N_17
REMARK    5  A    between atoms: C_20  and  O_21
REMARK    6  A    between atoms: O_21  and  P_22
REMARK    7  A    between atoms: P_22  and  O_24
REMARK    8  A    between atoms: P_22  and  O_26
REMARK                            x       y       z     vdW  Elec       q    Type
REMARK                         _______ _______ _______ _____ _____    ______ ____
ROOT
ATOM      1  O   UNL     1      35.401 -23.430 -16.931  0.00  0.00    -0.335 OA
ATOM      2  C   UNL     1      36.036 -22.480 -17.808  0.00  0.00    +0.199 C 
ATOM      3  C   UNL     1      37.151 -22.352 -15.734  0.00  0.00    +0.144 C 
ATOM      4  C   UNL     1      36.767 -21.488 -16.912  0.00  0.00    +0.083 C 
ATOM      5  C   UNL     1      35.972 -23.308 -15.612  0.00  0.00    +0.174 C 
ENDROOT
BRANCH   2   6
ATOM      6  N   UNL     1      35.047 -21.822 -18.738  0.00  0.00    -0.264 N 
ATOM      7  C   UNL     1      35.350 -20.864 -19.679  0.00  0.00    +0.054 C 
ATOM      8  C   UNL     1      33.707 -22.099 -18.761  0.00  0.00    +0.067 C 
ATOM      9  C   UNL     1      34.156 -20.524 -20.320  0.00  0.00    +0.017 C 
ATOM     10  C   UNL     1      33.128 -21.312 -19.729  0.00  0.00    +0.017 C 
ATOM     11  C   UNL     1      36.577 -20.277 -20.010  0.00  0.00    +0.017 C 
ATOM     12  C   UNL     1      34.187 -19.553 -21.338  0.00  0.00    +0.025 C 
ATOM     13  C   UNL     1      36.583 -19.316 -21.024  0.00  0.00    +0.025 C 
ATOM     14  C   UNL     1      35.407 -18.958 -21.680  0.00  0.00    +0.143 C 
BRANCH  14  17
ATOM     15  O   UNL     1      35.380 -16.764 -22.392  0.00  0.00    -0.126 OA
ATOM     16  O   UNL     1      35.540 -18.352 -23.901  0.00  0.00    -0.126 OA
ATOM     17  N   UNL     1      35.444 -17.977 -22.707  0.00  0.00    +0.058 N 
ENDBRANCH  14  17
ENDBRANCH   2   6
BRANCH   3  18
ATOM     18  O   UNL     1      38.327 -23.083 -16.073  0.00  0.00    -0.382 OA
ATOM     19  H   UNL     1      38.448 -23.072 -17.035  0.00  0.00    +0.210 HD
ENDBRANCH   3  18
BRANCH   5  20
ATOM     20  C   UNL     1      34.887 -22.789 -14.677  0.00  0.00    +0.186 C 
BRANCH  20  21
ATOM     21  O   UNL     1      33.681 -23.477 -14.956  0.00  0.00    -0.271 OA
BRANCH  21  22
ATOM     22  P   UNL     1      32.922 -24.231 -13.741  0.00  0.00    +0.473 P 
ATOM     23  O   UNL     1      31.982 -25.324 -14.160  0.00  0.00    -0.227 OA
BRANCH  22  24
ATOM     24  O   UNL     1      32.249 -23.024 -12.901  0.00  0.00    -0.303 OA
ATOM     25  H   UNL     1      32.622 -23.006 -12.006  0.00  0.00    +0.222 HD
ENDBRANCH  22  24
BRANCH  22  26
ATOM     26  O   UNL     1      34.143 -24.708 -12.793  0.00  0.00    -0.303 OA
ATOM     27  H   UNL     1      34.425 -25.599 -13.052  0.00  0.00    +0.222 HD
ENDBRANCH  22  26
ENDBRANCH  21  22
ENDBRANCH  20  21
ENDBRANCH   5  20
TORSDOF 8
ENDMDL
MODEL 8
REMARK VINA RESULT:      -9.1      4.151      5.760
REMARK  Name = 46937135
REMARK  8 active torsions:
REMARK  status: ('A' for Active; 'I' for Inactive)
REMARK    1  A    between atoms: C_2  and  N_6
REMARK    2  A    between atoms: C_3  and  O_18
REMARK    3  A    between atoms: C_5  and  C_20
REMARK    4  A    between atoms: C_14  and  N_17
REMARK    5  A    between atoms: C_20  and  O_21
REMARK    6  A    between atoms: O_21  and  P_22
REMARK    7  A    between atoms: P_22  and  O_24
REMARK    8  A    between atoms: P_22  and  O_26
REMARK                            x       y       z     vdW  Elec       q    Type
REMARK                         _______ _______ _______ _____ _____    ______ ____
ROOT
ATOM      1  O   UNL     1      35.586 -24.097 -16.183  0.00  0.00    -0.335 OA
ATOM      2  C   UNL     1      36.038 -23.083 -17.101  0.00  0.00    +0.199 C 
ATOM      3  C   UNL     1      37.346 -22.876 -15.149  0.00  0.00    +0.144 C 
ATOM      4  C   UNL     1      36.765 -22.038 -16.264  0.00  0.00    +0.083 C 
ATOM      5  C   UNL     1      36.278 -23.939 -14.927  0.00  0.00    +0.174 C 
ENDROOT
BRANCH   2   6
ATOM      6  N   UNL     1      34.903 -22.509 -17.911  0.00  0.00    -0.264 N 
ATOM      7  C   UNL     1      35.034 -21.616 -18.952  0.00  0.00    +0.054 C 
ATOM      8  C   UNL     1      33.583 -22.807 -17.709  0.00  0.00    +0.067 C 
ATOM      9  C   UNL     1      33.748 -21.342 -19.423  0.00  0.00    +0.017 C 
ATOM     10  C   UNL     1      32.843 -22.100 -18.629  0.00  0.00    +0.017 C 
ATOM     11  C   UNL     1      36.181 -21.037 -19.506  0.00  0.00    +0.017 C 
ATOM     12  C   UNL     1      33.599 -20.446 -20.499  0.00  0.00    +0.025 C 
ATOM     13  C   UNL     1      36.007 -20.152 -20.573  0.00  0.00    +0.025 C 
ATOM     14  C   UNL     1      34.736 -19.859 -21.064  0.00  0.00    +0.143 C 
BRANCH  14  17
ATOM     15  O   UNL     1      34.319 -17.754 -21.909  0.00  0.00    -0.126 OA
ATOM     16  O   UNL     1      34.740 -19.382 -23.320  0.00  0.00    -0.126 OA
ATOM     17  N   UNL     1      34.592 -18.954 -22.150  0.00  0.00    +0.058 N 
ENDBRANCH  14  17
ENDBRANCH   2   6
BRANCH   3  18
ATOM     18  O   UNL     1      38.542 -23.491 -15.622  0.00  0.00    -0.382 OA
ATOM     19  H   UNL     1      38.331 -24.354 -16.010  0.00  0.00    +0.210 HD
ENDBRANCH   3  18
BRANCH   5  20
ATOM     20  C   UNL     1      35.253 -23.533 -13.877  0.00  0.00    +0.186 C 
BRANCH  20  21
ATOM     21  O   UNL     1      35.131 -24.582 -12.933  0.00  0.00    -0.271 OA
BRANCH  21  22
ATOM     22  P   UNL     1      36.204 -24.661 -11.722  0.00  0.00    +0.473 P 
ATOM     23  O   UNL     1      37.343 -25.613 -11.945  0.00  0.00    -0.227 OA
BRANCH  22  24
ATOM     24  O   UNL     1      35.292 -24.966 -10.422  0.00  0.00    -0.303 OA
ATOM     25  H   UNL     1      35.430 -25.883 -10.138  0.00  0.00    +0.222 HD
ENDBRANCH  22  24
BRANCH  22  26
ATOM     26  O   UNL     1      36.635 -23.116 -11.520  0.00  0.00    -0.303 OA
ATOM     27  H   UNL     1      36.147 -22.559 -12.146  0.00  0.00    +0.222 HD
ENDBRANCH  22  26
ENDBRANCH  21  22
ENDBRANCH  20  21
ENDBRANCH   5  20
TORSDOF 8
ENDMDL
MODEL 9
REMARK VINA RESULT:      -8.8      2.323      3.287
REMARK  Name = 46937135
REMARK  8 active torsions:
REMARK  status: ('A' for Active; 'I' for Inactive)
REMARK    1  A    between atoms: C_2  and  N_6
REMARK    2  A    between atoms: C_3  and  O_18
REMARK    3  A    between atoms: C_5  and  C_20
REMARK    4  A    between atoms: C_14  and  N_17
REMARK    5  A    between atoms: C_20  and  O_21
REMARK    6  A    between atoms: O_21  and  P_22
REMARK    7  A    between atoms: P_22  and  O_24
REMARK    8  A    between atoms: P_22  and  O_26
REMARK                            x       y       z     vdW  Elec       q    Type
REMARK                         _______ _______ _______ _____ _____    ______ ____
ROOT
ATOM      1  O   UNL     1      36.400 -22.943 -13.394  0.00  0.00    -0.335 OA
ATOM      2  C   UNL     1      35.254 -23.715 -12.988  0.00  0.00    +0.199 C 
ATOM      3  C   UNL     1      37.165 -24.856 -12.207  0.00  0.00    +0.144 C 
ATOM      4  C   UNL     1      35.764 -25.124 -12.704  0.00  0.00    +0.083 C 
ATOM      5  C   UNL     1      37.601 -23.658 -13.040  0.00  0.00    +0.174 C 
ENDROOT
BRANCH   2   6
ATOM      6  N   UNL     1      34.155 -23.681 -14.020  0.00  0.00    -0.264 N 
ATOM      7  C   UNL     1      34.301 -23.290 -15.332  0.00  0.00    +0.054 C 
ATOM      8  C   UNL     1      32.856 -24.039 -13.777  0.00  0.00    +0.067 C 
ATOM      9  C   UNL     1      33.049 -23.405 -15.939  0.00  0.00    +0.017 C 
ATOM     10  C   UNL     1      32.147 -23.880 -14.946  0.00  0.00    +0.017 C 
ATOM     11  C   UNL     1      35.436 -22.846 -16.022  0.00  0.00    +0.017 C 
ATOM     12  C   UNL     1      32.921 -23.063 -17.299  0.00  0.00    +0.025 C 
ATOM     13  C   UNL     1      35.284 -22.512 -17.370  0.00  0.00    +0.025 C 
ATOM     14  C   UNL     1      34.047 -22.618 -18.001  0.00  0.00    +0.143 C 
BRANCH  14  17
ATOM     15  O   UNL     1      34.962 -22.172 -20.070  0.00  0.00    -0.126 OA
ATOM     16  O   UNL     1      32.779 -22.073 -19.849  0.00  0.00    -0.126 OA
ATOM     17  N   UNL     1      33.923 -22.270 -19.373  0.00  0.00    +0.058 N 
ENDBRANCH  14  17
ENDBRANCH   2   6
BRANCH   3  18
ATOM     18  O   UNL     1      37.095 -24.484 -10.833  0.00  0.00    -0.382 OA
ATOM     19  H   UNL     1      36.220 -24.710 -10.482  0.00  0.00    +0.210 HD
ENDBRANCH   3  18
BRANCH   5  20
ATOM     20  C   UNL     1      38.303 -24.062 -14.330  0.00  0.00    +0.186 C 
BRANCH  20  21
ATOM     21  O   UNL     1      39.539 -24.671 -14.002  0.00  0.00    -0.271 OA
BRANCH  21  22
ATOM     22  P   UNL     1      39.866 -26.134 -14.613  0.00  0.00    +0.473 P 
ATOM     23  O   UNL     1      38.720 -27.103 -14.587  0.00  0.00    -0.227 OA
BRANCH  22  24
ATOM     24  O   UNL     1      41.186 -26.602 -13.804  0.00  0.00    -0.303 OA
ATOM     25  H   UNL     1      41.978 -26.306 -14.279  0.00  0.00    +0.222 HD
ENDBRANCH  22  24
BRANCH  22  26
ATOM     26  O   UNL     1      40.436 -25.791 -16.087  0.00  0.00    -0.303 OA
ATOM     27  H   UNL     1      41.315 -25.388 -16.009  0.00  0.00    +0.222 HD
ENDBRANCH  22  26
ENDBRANCH  21  22
ENDBRANCH  20  21
ENDBRANCH   5  20
TORSDOF 8
ENDMDL
