MODEL 1
REMARK VINA RESULT:     -11.9      0.000      0.000
REMARK  Name = 16048422
REMARK  11 active torsions:
REMARK  status: ('A' for Active; 'I' for Inactive)
REMARK    1  A    between atoms: C_1  and  C_4
REMARK    2  A    between atoms: C_1  and  N_18
REMARK    3  A    between atoms: C_1  and  C_33
REMARK    4  A    between atoms: N_3  and  C_6
REMARK    5  A    between atoms: C_6  and  C_9
REMARK    6  A    between atoms: C_9  and  C_11
REMARK    7  A    between atoms: C_19  and  C_21
REMARK    8  A    between atoms: C_24  and  C_27
REMARK    9  A    between atoms: C_33  and  C_34
REMARK   10  A    between atoms: C_34  and  C_36
REMARK   11  A    between atoms: C_36  and  O_37
REMARK                            x       y       z     vdW  Elec       q    Type
REMARK                         _______ _______ _______ _____ _____    ______ ____
ROOT
ATOM      1  C   UNL     1      34.742 -23.867 -16.139  0.00  0.00    +0.149 C 
ENDROOT
BRANCH   1   4
ATOM      2  O   UNL     1      33.685 -22.866 -14.208  0.00  0.00    -0.273 OA
ATOM      3  N   UNL     1      32.387 -24.138 -15.654  0.00  0.00    -0.306 N 
ATOM      4  C   UNL     1      33.567 -23.548 -15.224  0.00  0.00    +0.240 C 
ATOM      5  H   UNL     1      32.404 -24.666 -16.484  0.00  0.00    +0.149 HD
BRANCH   3   6
ATOM      6  C   UNL     1      31.136 -24.015 -14.941  0.00  0.00    +0.061 C 
ATOM      7  C   UNL     1      31.269 -24.689 -13.567  0.00  0.00    +0.020 C 
ATOM      8  C   UNL     1      30.854 -22.518 -14.728  0.00  0.00    +0.020 C 
BRANCH   6   9
ATOM      9  C   UNL     1      29.974 -24.622 -15.769  0.00  0.00    +0.044 C 
BRANCH   9  11
ATOM     10  F   UNL     1      25.688 -21.142 -16.926  0.00  0.00    -0.204 F 
ATOM     11  C   UNL     1      28.825 -23.689 -16.079  0.00  0.00    -0.020 C 
ATOM     12  C   UNL     1      28.137 -23.061 -15.041  0.00  0.00    -0.002 C 
ATOM     13  C   UNL     1      28.453 -23.457 -17.403  0.00  0.00    -0.002 C 
ATOM     14  C   UNL     1      27.078 -22.200 -15.327  0.00  0.00    +0.029 C 
ATOM     15  C   UNL     1      27.394 -22.596 -17.689  0.00  0.00    +0.029 C 
ATOM     16  C   UNL     1      26.706 -21.968 -16.651  0.00  0.00    +0.140 C 
ENDBRANCH   9  11
ENDBRANCH   6   9
ENDBRANCH   3   6
ENDBRANCH   1   4
BRANCH   1  18
ATOM     17  O   UNL     1      33.482 -23.906 -18.719  0.00  0.00    -0.270 OA
ATOM     18  N   UNL     1      34.764 -22.813 -17.124  0.00  0.00    -0.295 N 
ATOM     19  C   UNL     1      34.121 -22.924 -18.349  0.00  0.00    +0.246 C 
ATOM     20  H   UNL     1      35.253 -21.984 -16.920  0.00  0.00    +0.150 HD
BRANCH  19  21
ATOM     21  C   UNL     1      34.261 -21.763 -19.264  0.00  0.00    +0.053 C 
ATOM     22  C   UNL     1      35.529 -21.319 -19.639  0.00  0.00    +0.005 C 
ATOM     23  C   UNL     1      33.124 -21.116 -19.748  0.00  0.00    +0.005 C 
ATOM     24  C   UNL     1      34.523 -19.581 -20.983  0.00  0.00    +0.000 C 
ATOM     25  C   UNL     1      35.660 -20.228 -20.499  0.00  0.00    +0.000 C 
ATOM     26  C   UNL     1      33.255 -20.025 -20.608  0.00  0.00    +0.000 C 
BRANCH  24  27
ATOM     27  C   UNL     1      34.659 -18.450 -21.874  0.00  0.00    +0.000 C 
ATOM     28  C   UNL     1      34.817 -18.656 -23.244  0.00  0.00    +0.000 C 
ATOM     29  C   UNL     1      34.629 -17.152 -21.364  0.00  0.00    +0.000 C 
ATOM     30  C   UNL     1      34.946 -17.565 -24.104  0.00  0.00    +0.000 C 
ATOM     31  C   UNL     1      34.759 -16.061 -22.224  0.00  0.00    +0.000 C 
ATOM     32  C   UNL     1      34.918 -16.268 -23.593  0.00  0.00    +0.000 C 
ENDBRANCH  24  27
ENDBRANCH  19  21
ENDBRANCH   1  18
BRANCH   1  33
ATOM     33  C   UNL     1      36.067 -23.915 -15.368  0.00  0.00    +0.041 C 
BRANCH  33  34
ATOM     34  C   UNL     1      36.263 -25.182 -14.532  0.00  0.00    +0.112 C 
BRANCH  34  36
ATOM     35  O   UNL     1      36.376 -27.193 -15.902  0.00  0.00    -0.250 OA
ATOM     36  C   UNL     1      36.945 -26.300 -15.290  0.00  0.00    +0.314 C 
BRANCH  36  37
ATOM     37  O   UNL     1      38.297 -26.182 -15.239  0.00  0.00    -0.480 OA
ATOM     38  H   UNL     1      38.835 -26.709 -15.796  0.00  0.00    +0.295 HD
ENDBRANCH  36  37
ENDBRANCH  34  36
ENDBRANCH  33  34
ENDBRANCH   1  33
TORSDOF 11
ENDMDL
MODEL 2
REMARK VINA RESULT:     -11.5      4.673     10.596
REMARK  Name = 16048422
REMARK  11 active torsions:
REMARK  status: ('A' for Active; 'I' for Inactive)
REMARK    1  A    between atoms: C_1  and  C_4
REMARK    2  A    between atoms: C_1  and  N_18
REMARK    3  A    between atoms: C_1  and  C_33
REMARK    4  A    between atoms: N_3  and  C_6
REMARK    5  A    between atoms: C_6  and  C_9
REMARK    6  A    between atoms: C_9  and  C_11
REMARK    7  A    between atoms: C_19  and  C_21
REMARK    8  A    between atoms: C_24  and  C_27
REMARK    9  A    between atoms: C_33  and  C_34
REMARK   10  A    between atoms: C_34  and  C_36
REMARK   11  A    between atoms: C_36  and  O_37
REMARK                            x       y       z     vdW  Elec       q    Type
REMARK                         _______ _______ _______ _____ _____    ______ ____
ROOT
ATOM      1  C   UNL     1      35.112 -18.786 -21.623  0.00  0.00    +0.149 C 
ENDROOT
BRANCH   1   4
ATOM      2  O   UNL     1      35.470 -16.856 -20.210  0.00  0.00    -0.273 OA
ATOM      3  N   UNL     1      33.952 -16.689 -21.959  0.00  0.00    -0.306 N 
ATOM      4  C   UNL     1      34.890 -17.346 -21.177  0.00  0.00    +0.240 C 
ATOM      5  H   UNL     1      33.547 -17.177 -22.713  0.00  0.00    +0.149 HD
BRANCH   3   6
ATOM      6  C   UNL     1      33.540 -15.325 -21.722  0.00  0.00    +0.061 C 
ATOM      7  C   UNL     1      32.661 -15.274 -20.463  0.00  0.00    +0.020 C 
ATOM      8  C   UNL     1      34.803 -14.483 -21.471  0.00  0.00    +0.020 C 
BRANCH   6   9
ATOM      9  C   UNL     1      32.805 -14.752 -22.962  0.00  0.00    +0.044 C 
BRANCH   9  11
ATOM     10  F   UNL     1      33.037  -9.152 -23.599  0.00  0.00    -0.204 F 
ATOM     11  C   UNL     1      32.867 -13.250 -23.133  0.00  0.00    -0.020 C 
ATOM     12  C   UNL     1      32.054 -12.426 -22.355  0.00  0.00    -0.002 C 
ATOM     13  C   UNL     1      33.737 -12.691 -24.068  0.00  0.00    -0.002 C 
ATOM     14  C   UNL     1      32.112 -11.041 -22.512  0.00  0.00    +0.029 C 
ATOM     15  C   UNL     1      33.795 -11.306 -24.225  0.00  0.00    +0.029 C 
ATOM     16  C   UNL     1      32.982 -10.482 -23.447  0.00  0.00    +0.140 C 
ENDBRANCH   9  11
ENDBRANCH   6   9
ENDBRANCH   3   6
ENDBRANCH   1   4
BRANCH   1  18
ATOM     17  O   UNL     1      36.232 -21.272 -20.724  0.00  0.00    -0.270 OA
ATOM     18  N   UNL     1      34.628 -19.607 -20.540  0.00  0.00    -0.295 N 
ATOM     19  C   UNL     1      35.240 -20.798 -20.177  0.00  0.00    +0.246 C 
ATOM     20  H   UNL     1      33.835 -19.310 -20.039  0.00  0.00    +0.150 HD
BRANCH  19  21
ATOM     21  C   UNL     1      34.604 -21.540 -19.058  0.00  0.00    +0.053 C 
ATOM     22  C   UNL     1      33.219 -21.708 -19.030  0.00  0.00    +0.005 C 
ATOM     23  C   UNL     1      35.392 -22.070 -18.037  0.00  0.00    +0.005 C 
ATOM     24  C   UNL     1      33.410 -22.934 -16.957  0.00  0.00    +0.000 C 
ATOM     25  C   UNL     1      32.622 -22.404 -17.979  0.00  0.00    +0.000 C 
ATOM     26  C   UNL     1      34.795 -22.768 -16.986  0.00  0.00    +0.000 C 
BRANCH  24  27
ATOM     27  C   UNL     1      32.792 -23.657 -15.867  0.00  0.00    +0.000 C 
ATOM     28  C   UNL     1      33.563 -24.084 -14.787  0.00  0.00    +0.000 C 
ATOM     29  C   UNL     1      31.423 -23.926 -15.896  0.00  0.00    +0.000 C 
ATOM     30  C   UNL     1      32.967 -24.780 -13.735  0.00  0.00    +0.000 C 
ATOM     31  C   UNL     1      30.827 -24.623 -14.844  0.00  0.00    +0.000 C 
ATOM     32  C   UNL     1      31.599 -25.049 -13.764  0.00  0.00    +0.000 C 
ENDBRANCH  24  27
ENDBRANCH  19  21
ENDBRANCH   1  18
BRANCH   1  33
ATOM     33  C   UNL     1      34.358 -19.102 -22.921  0.00  0.00    +0.041 C 
BRANCH  33  34
ATOM     34  C   UNL     1      35.167 -18.854 -24.196  0.00  0.00    +0.112 C 
BRANCH  34  36
ATOM     35  O   UNL     1      33.871 -17.524 -25.773  0.00  0.00    -0.250 OA
ATOM     36  C   UNL     1      34.755 -17.598 -24.931  0.00  0.00    +0.314 C 
BRANCH  36  37
ATOM     37  O   UNL     1      35.476 -16.522 -24.519  0.00  0.00    -0.480 OA
ATOM     38  H   UNL     1      35.055 -15.694 -24.396  0.00  0.00    +0.295 HD
ENDBRANCH  36  37
ENDBRANCH  34  36
ENDBRANCH  33  34
ENDBRANCH   1  33
TORSDOF 11
ENDMDL
MODEL 3
REMARK VINA RESULT:     -11.4      0.859      1.829
REMARK  Name = 16048422
REMARK  11 active torsions:
REMARK  status: ('A' for Active; 'I' for Inactive)
REMARK    1  A    between atoms: C_1  and  C_4
REMARK    2  A    between atoms: C_1  and  N_18
REMARK    3  A    between atoms: C_1  and  C_33
REMARK    4  A    between atoms: N_3  and  C_6
REMARK    5  A    between atoms: C_6  and  C_9
REMARK    6  A    between atoms: C_9  and  C_11
REMARK    7  A    between atoms: C_19  and  C_21
REMARK    8  A    between atoms: C_24  and  C_27
REMARK    9  A    between atoms: C_33  and  C_34
REMARK   10  A    between atoms: C_34  and  C_36
REMARK   11  A    between atoms: C_36  and  O_37
REMARK                            x       y       z     vdW  Elec       q    Type
REMARK                         _______ _______ _______ _____ _____    ______ ____
ROOT
ATOM      1  C   UNL     1      34.562 -23.828 -15.817  0.00  0.00    +0.149 C 
ENDROOT
BRANCH   1   4
ATOM      2  O   UNL     1      33.193 -22.600 -14.246  0.00  0.00    -0.273 OA
ATOM      3  N   UNL     1      32.284 -24.458 -15.301  0.00  0.00    -0.306 N 
ATOM      4  C   UNL     1      33.287 -23.537 -15.037  0.00  0.00    +0.240 C 
ATOM      5  H   UNL     1      32.464 -25.173 -15.954  0.00  0.00    +0.149 HD
BRANCH   3   6
ATOM      6  C   UNL     1      30.988 -24.422 -14.662  0.00  0.00    +0.061 C 
ATOM      7  C   UNL     1      30.025 -25.347 -15.420  0.00  0.00    +0.020 C 
ATOM      8  C   UNL     1      31.150 -24.951 -13.227  0.00  0.00    +0.020 C 
BRANCH   6   9
ATOM      9  C   UNL     1      30.454 -22.967 -14.592  0.00  0.00    +0.044 C 
BRANCH   9  11
ATOM     10  F   UNL     1      25.849 -21.878 -17.661  0.00  0.00    -0.204 F 
ATOM     11  C   UNL     1      29.220 -22.675 -15.415  0.00  0.00    -0.020 C 
ATOM     12  C   UNL     1      29.239 -22.872 -16.796  0.00  0.00    -0.002 C 
ATOM     13  C   UNL     1      28.062 -22.209 -14.793  0.00  0.00    -0.002 C 
ATOM     14  C   UNL     1      28.100 -22.603 -17.555  0.00  0.00    +0.029 C 
ATOM     15  C   UNL     1      26.923 -21.940 -15.552  0.00  0.00    +0.029 C 
ATOM     16  C   UNL     1      26.942 -22.137 -16.933  0.00  0.00    +0.140 C 
ENDBRANCH   9  11
ENDBRANCH   6   9
ENDBRANCH   3   6
ENDBRANCH   1   4
BRANCH   1  18
ATOM     17  O   UNL     1      33.457 -24.039 -18.459  0.00  0.00    -0.270 OA
ATOM     18  N   UNL     1      34.618 -22.829 -16.856  0.00  0.00    -0.295 N 
ATOM     19  C   UNL     1      34.051 -23.023 -18.108  0.00  0.00    +0.246 C 
ATOM     20  H   UNL     1      35.075 -21.978 -16.671  0.00  0.00    +0.150 HD
BRANCH  19  21
ATOM     21  C   UNL     1      34.219 -21.910 -19.077  0.00  0.00    +0.053 C 
ATOM     22  C   UNL     1      33.099 -21.242 -19.573  0.00  0.00    +0.005 C 
ATOM     23  C   UNL     1      35.496 -21.531 -19.489  0.00  0.00    +0.005 C 
ATOM     24  C   UNL     1      34.534 -19.818 -20.896  0.00  0.00    +0.000 C 
ATOM     25  C   UNL     1      33.256 -20.197 -20.483  0.00  0.00    +0.000 C 
ATOM     26  C   UNL     1      35.654 -20.485 -20.399  0.00  0.00    +0.000 C 
BRANCH  24  27
ATOM     27  C   UNL     1      34.698 -18.734 -21.839  0.00  0.00    +0.000 C 
ATOM     28  C   UNL     1      34.793 -17.420 -21.382  0.00  0.00    +0.000 C 
ATOM     29  C   UNL     1      34.762 -19.002 -23.207  0.00  0.00    +0.000 C 
ATOM     30  C   UNL     1      34.952 -16.374 -22.291  0.00  0.00    +0.000 C 
ATOM     31  C   UNL     1      34.921 -17.956 -24.116  0.00  0.00    +0.000 C 
ATOM     32  C   UNL     1      35.016 -16.642 -23.658  0.00  0.00    +0.000 C 
ENDBRANCH  24  27
ENDBRANCH  19  21
ENDBRANCH   1  18
BRANCH   1  33
ATOM     33  C   UNL     1      35.806 -23.751 -14.924  0.00  0.00    +0.041 C 
BRANCH  33  34
ATOM     34  C   UNL     1      36.534 -25.084 -14.740  0.00  0.00    +0.112 C 
BRANCH  34  36
ATOM     35  O   UNL     1      38.746 -24.112 -15.051  0.00  0.00    -0.250 OA
ATOM     36  C   UNL     1      38.019 -24.927 -14.499  0.00  0.00    +0.314 C 
BRANCH  36  37
ATOM     37  O   UNL     1      38.464 -25.795 -13.554  0.00  0.00    -0.480 OA
ATOM     38  H   UNL     1      38.082 -25.795 -12.699  0.00  0.00    +0.295 HD
ENDBRANCH  36  37
ENDBRANCH  34  36
ENDBRANCH  33  34
ENDBRANCH   1  33
TORSDOF 11
ENDMDL
MODEL 4
REMARK VINA RESULT:     -11.1      5.232     10.607
REMARK  Name = 16048422
REMARK  11 active torsions:
REMARK  status: ('A' for Active; 'I' for Inactive)
REMARK    1  A    between atoms: C_1  and  C_4
REMARK    2  A    between atoms: C_1  and  N_18
REMARK    3  A    between atoms: C_1  and  C_33
REMARK    4  A    between atoms: N_3  and  C_6
REMARK    5  A    between atoms: C_6  and  C_9
REMARK    6  A    between atoms: C_9  and  C_11
REMARK    7  A    between atoms: C_19  and  C_21
REMARK    8  A    between atoms: C_24  and  C_27
REMARK    9  A    between atoms: C_33  and  C_34
REMARK   10  A    between atoms: C_34  and  C_36
REMARK   11  A    between atoms: C_36  and  O_37
REMARK                            x       y       z     vdW  Elec       q    Type
REMARK                         _______ _______ _______ _____ _____    ______ ____
ROOT
ATOM      1  C   UNL     1      35.532 -18.478 -21.977  0.00  0.00    +0.149 C 
ENDROOT
BRANCH   1   4
ATOM      2  O   UNL     1      35.319 -16.809 -20.239  0.00  0.00    -0.273 OA
ATOM      3  N   UNL     1      34.147 -16.510 -22.221  0.00  0.00    -0.306 N 
ATOM      4  C   UNL     1      35.012 -17.181 -21.371  0.00  0.00    +0.240 C 
ATOM      5  H   UNL     1      33.969 -16.897 -23.109  0.00  0.00    +0.149 HD
BRANCH   3   6
ATOM      6  C   UNL     1      33.493 -15.270 -21.868  0.00  0.00    +0.061 C 
ATOM      7  C   UNL     1      32.469 -15.539 -20.754  0.00  0.00    +0.020 C 
ATOM      8  C   UNL     1      34.562 -14.305 -21.329  0.00  0.00    +0.020 C 
BRANCH   6   9
ATOM      9  C   UNL     1      32.832 -14.626 -23.114  0.00  0.00    +0.044 C 
BRANCH   9  11
ATOM     10  F   UNL     1      32.810  -8.987 -23.259  0.00  0.00    -0.204 F 
ATOM     11  C   UNL     1      32.826 -13.114 -23.153  0.00  0.00    -0.020 C 
ATOM     12  C   UNL     1      31.955 -12.399 -22.331  0.00  0.00    -0.002 C 
ATOM     13  C   UNL     1      33.691 -12.436 -24.011  0.00  0.00    -0.002 C 
ATOM     14  C   UNL     1      31.950 -11.005 -22.366  0.00  0.00    +0.029 C 
ATOM     15  C   UNL     1      33.686 -11.041 -24.047  0.00  0.00    +0.029 C 
ATOM     16  C   UNL     1      32.815 -10.326 -23.224  0.00  0.00    +0.140 C 
ENDBRANCH   9  11
ENDBRANCH   6   9
ENDBRANCH   3   6
ENDBRANCH   1   4
BRANCH   1  18
ATOM     17  O   UNL     1      33.677 -20.435 -20.989  0.00  0.00    -0.270 OA
ATOM     18  N   UNL     1      35.735 -19.372 -20.864  0.00  0.00    -0.295 N 
ATOM     19  C   UNL     1      34.776 -20.289 -20.459  0.00  0.00    +0.246 C 
ATOM     20  H   UNL     1      36.587 -19.331 -20.372  0.00  0.00    +0.150 HD
BRANCH  19  21
ATOM     21  C   UNL     1      35.127 -21.119 -19.278  0.00  0.00    +0.053 C 
ATOM     22  C   UNL     1      34.167 -21.946 -18.696  0.00  0.00    +0.005 C 
ATOM     23  C   UNL     1      36.418 -21.071 -18.752  0.00  0.00    +0.005 C 
ATOM     24  C   UNL     1      35.787 -22.677 -17.060  0.00  0.00    +0.000 C 
ATOM     25  C   UNL     1      34.497 -22.725 -17.586  0.00  0.00    +0.000 C 
ATOM     26  C   UNL     1      36.748 -21.850 -17.642  0.00  0.00    +0.000 C 
BRANCH  24  27
ATOM     27  C   UNL     1      36.130 -23.485 -15.910  0.00  0.00    +0.000 C 
ATOM     28  C   UNL     1      37.451 -23.537 -15.463  0.00  0.00    +0.000 C 
ATOM     29  C   UNL     1      35.141 -24.210 -15.246  0.00  0.00    +0.000 C 
ATOM     30  C   UNL     1      37.781 -24.315 -14.353  0.00  0.00    +0.000 C 
ATOM     31  C   UNL     1      35.472 -24.988 -14.137  0.00  0.00    +0.000 C 
ATOM     32  C   UNL     1      36.792 -25.041 -13.691  0.00  0.00    +0.000 C 
ENDBRANCH  24  27
ENDBRANCH  19  21
ENDBRANCH   1  18
BRANCH   1  33
ATOM     33  C   UNL     1      34.537 -19.077 -22.978  0.00  0.00    +0.041 C 
BRANCH  33  34
ATOM     34  C   UNL     1      34.985 -18.993 -24.439  0.00  0.00    +0.112 C 
BRANCH  34  36
ATOM     35  O   UNL     1      33.552 -17.591 -25.823  0.00  0.00    -0.250 OA
ATOM     36  C   UNL     1      34.550 -17.718 -25.126  0.00  0.00    +0.314 C 
BRANCH  36  37
ATOM     37  O   UNL     1      35.397 -16.691 -24.852  0.00  0.00    -0.480 OA
ATOM     38  H   UNL     1      36.059 -16.792 -24.198  0.00  0.00    +0.295 HD
ENDBRANCH  36  37
ENDBRANCH  34  36
ENDBRANCH  33  34
ENDBRANCH   1  33
TORSDOF 11
ENDMDL
MODEL 5
REMARK VINA RESULT:     -11.1      7.091     11.574
REMARK  Name = 16048422
REMARK  11 active torsions:
REMARK  status: ('A' for Active; 'I' for Inactive)
REMARK    1  A    between atoms: C_1  and  C_4
REMARK    2  A    between atoms: C_1  and  N_18
REMARK    3  A    between atoms: C_1  and  C_33
REMARK    4  A    between atoms: N_3  and  C_6
REMARK    5  A    between atoms: C_6  and  C_9
REMARK    6  A    between atoms: C_9  and  C_11
REMARK    7  A    between atoms: C_19  and  C_21
REMARK    8  A    between atoms: C_24  and  C_27
REMARK    9  A    between atoms: C_33  and  C_34
REMARK   10  A    between atoms: C_34  and  C_36
REMARK   11  A    between atoms: C_36  and  O_37
REMARK                            x       y       z     vdW  Elec       q    Type
REMARK                         _______ _______ _______ _____ _____    ______ ____
ROOT
ATOM      1  C   UNL     1      33.290 -15.484 -24.405  0.00  0.00    +0.149 C 
ENDROOT
BRANCH   1   4
ATOM      2  O   UNL     1      35.328 -15.423 -23.105  0.00  0.00    -0.273 OA
ATOM      3  N   UNL     1      34.038 -17.353 -23.063  0.00  0.00    -0.306 N 
ATOM      4  C   UNL     1      34.332 -16.054 -23.452  0.00  0.00    +0.240 C 
ATOM      5  H   UNL     1      33.211 -17.767 -23.400  0.00  0.00    +0.149 HD
BRANCH   3   6
ATOM      6  C   UNL     1      34.888 -18.128 -22.187  0.00  0.00    +0.061 C 
ATOM      7  C   UNL     1      36.270 -18.289 -22.837  0.00  0.00    +0.020 C 
ATOM      8  C   UNL     1      35.052 -17.349 -20.871  0.00  0.00    +0.020 C 
BRANCH   6   9
ATOM      9  C   UNL     1      34.238 -19.500 -21.869  0.00  0.00    +0.044 C 
BRANCH   9  11
ATOM     10  F   UNL     1      36.520 -22.380 -17.590  0.00  0.00    -0.204 F 
ATOM     11  C   UNL     1      34.850 -20.272 -20.722  0.00  0.00    -0.020 C 
ATOM     12  C   UNL     1      34.042 -21.060 -19.903  0.00  0.00    -0.002 C 
ATOM     13  C   UNL     1      36.221 -20.195 -20.483  0.00  0.00    -0.002 C 
ATOM     14  C   UNL     1      34.606 -21.773 -18.845  0.00  0.00    +0.029 C 
ATOM     15  C   UNL     1      36.786 -20.907 -19.425  0.00  0.00    +0.029 C 
ATOM     16  C   UNL     1      35.978 -21.696 -18.606  0.00  0.00    +0.140 C 
ENDBRANCH   9  11
ENDBRANCH   6   9
ENDBRANCH   3   6
ENDBRANCH   1   4
BRANCH   1  18
ATOM     17  O   UNL     1      32.054 -14.595 -21.971  0.00  0.00    -0.270 OA
ATOM     18  N   UNL     1      33.091 -14.117 -23.990  0.00  0.00    -0.295 N 
ATOM     19  C   UNL     1      32.481 -13.784 -22.790  0.00  0.00    +0.246 C 
ATOM     20  H   UNL     1      33.399 -13.393 -24.581  0.00  0.00    +0.150 HD
BRANCH  19  21
ATOM     21  C   UNL     1      32.325 -12.331 -22.521  0.00  0.00    +0.053 C 
ATOM     22  C   UNL     1      31.583 -11.901 -21.421  0.00  0.00    +0.005 C 
ATOM     23  C   UNL     1      32.923 -11.398 -23.367  0.00  0.00    +0.005 C 
ATOM     24  C   UNL     1      32.034  -9.603 -22.016  0.00  0.00    +0.000 C 
ATOM     25  C   UNL     1      31.437 -10.536 -21.169  0.00  0.00    +0.000 C 
ATOM     26  C   UNL     1      32.778 -10.033 -23.115  0.00  0.00    +0.000 C 
BRANCH  24  27
ATOM     27  C   UNL     1      31.884  -8.189 -21.755  0.00  0.00    +0.000 C 
ATOM     28  C   UNL     1      31.290  -7.362 -22.709  0.00  0.00    +0.000 C 
ATOM     29  C   UNL     1      32.330  -7.650 -20.548  0.00  0.00    +0.000 C 
ATOM     30  C   UNL     1      31.144  -5.998 -22.457  0.00  0.00    +0.000 C 
ATOM     31  C   UNL     1      32.184  -6.285 -20.296  0.00  0.00    +0.000 C 
ATOM     32  C   UNL     1      31.591  -5.460 -21.251  0.00  0.00    +0.000 C 
ENDBRANCH  24  27
ENDBRANCH  19  21
ENDBRANCH   1  18
BRANCH   1  33
ATOM     33  C   UNL     1      33.760 -15.545 -25.864  0.00  0.00    +0.041 C 
BRANCH  33  34
ATOM     34  C   UNL     1      32.926 -14.701 -26.830  0.00  0.00    +0.112 C 
BRANCH  34  36
ATOM     35  O   UNL     1      33.362 -12.319 -26.563  0.00  0.00    -0.250 OA
ATOM     36  C   UNL     1      33.560 -13.368 -27.161  0.00  0.00    +0.314 C 
BRANCH  36  37
ATOM     37  O   UNL     1      34.422 -13.472 -28.206  0.00  0.00    -0.480 OA
ATOM     38  H   UNL     1      35.343 -13.539 -28.050  0.00  0.00    +0.295 HD
ENDBRANCH  36  37
ENDBRANCH  34  36
ENDBRANCH  33  34
ENDBRANCH   1  33
TORSDOF 11
ENDMDL
MODEL 6
REMARK VINA RESULT:     -10.8      8.663     14.432
REMARK  Name = 16048422
REMARK  11 active torsions:
REMARK  status: ('A' for Active; 'I' for Inactive)
REMARK    1  A    between atoms: C_1  and  C_4
REMARK    2  A    between atoms: C_1  and  N_18
REMARK    3  A    between atoms: C_1  and  C_33
REMARK    4  A    between atoms: N_3  and  C_6
REMARK    5  A    between atoms: C_6  and  C_9
REMARK    6  A    between atoms: C_9  and  C_11
REMARK    7  A    between atoms: C_19  and  C_21
REMARK    8  A    between atoms: C_24  and  C_27
REMARK    9  A    between atoms: C_33  and  C_34
REMARK   10  A    between atoms: C_34  and  C_36
REMARK   11  A    between atoms: C_36  and  O_37
REMARK                            x       y       z     vdW  Elec       q    Type
REMARK                         _______ _______ _______ _____ _____    ______ ____
ROOT
ATOM      1  C   UNL     1      33.966 -11.479 -24.234  0.00  0.00    +0.149 C 
ENDROOT
BRANCH   1   4
ATOM      2  O   UNL     1      32.412 -11.344 -22.386  0.00  0.00    -0.273 OA
ATOM      3  N   UNL     1      33.092  -9.377 -23.415  0.00  0.00    -0.306 N 
ATOM      4  C   UNL     1      33.079 -10.752 -23.232  0.00  0.00    +0.240 C 
ATOM      5  H   UNL     1      33.664  -9.004 -24.125  0.00  0.00    +0.149 HD
BRANCH   3   6
ATOM      6  C   UNL     1      32.308  -8.465 -22.614  0.00  0.00    +0.061 C 
ATOM      7  C   UNL     1      30.878  -8.404 -23.171  0.00  0.00    +0.020 C 
ATOM      8  C   UNL     1      32.253  -9.017 -21.180  0.00  0.00    +0.020 C 
BRANCH   6   9
ATOM      9  C   UNL     1      32.971  -7.062 -22.576  0.00  0.00    +0.044 C 
BRANCH   9  11
ATOM     10  F   UNL     1      33.797  -4.587 -27.576  0.00  0.00    -0.204 F 
ATOM     11  C   UNL     1      33.192  -6.399 -23.917  0.00  0.00    -0.020 C 
ATOM     12  C   UNL     1      34.363  -6.647 -24.633  0.00  0.00    -0.002 C 
ATOM     13  C   UNL     1      32.226  -5.538 -24.437  0.00  0.00    -0.002 C 
ATOM     14  C   UNL     1      34.567  -6.035 -25.869  0.00  0.00    +0.029 C 
ATOM     15  C   UNL     1      32.429  -4.927 -25.673  0.00  0.00    +0.029 C 
ATOM     16  C   UNL     1      33.600  -5.175 -26.389  0.00  0.00    +0.140 C 
ENDBRANCH   9  11
ENDBRANCH   6   9
ENDBRANCH   3   6
ENDBRANCH   1   4
BRANCH   1  18
ATOM     17  O   UNL     1      32.216 -13.754 -24.280  0.00  0.00    -0.270 OA
ATOM     18  N   UNL     1      34.223 -12.775 -23.655  0.00  0.00    -0.295 N 
ATOM     19  C   UNL     1      33.312 -13.818 -23.729  0.00  0.00    +0.246 C 
ATOM     20  H   UNL     1      35.077 -12.925 -23.190  0.00  0.00    +0.150 HD
BRANCH  19  21
ATOM     21  C   UNL     1      33.714 -15.082 -23.059  0.00  0.00    +0.053 C 
ATOM     22  C   UNL     1      34.488 -16.018 -23.743  0.00  0.00    +0.005 C 
ATOM     23  C   UNL     1      33.318 -15.330 -21.745  0.00  0.00    +0.005 C 
ATOM     24  C   UNL     1      34.470 -17.453 -21.800  0.00  0.00    +0.000 C 
ATOM     25  C   UNL     1      34.866 -17.205 -23.114  0.00  0.00    +0.000 C 
ATOM     26  C   UNL     1      33.696 -16.516 -21.115  0.00  0.00    +0.000 C 
BRANCH  24  27
ATOM     27  C   UNL     1      34.861 -18.683 -21.146  0.00  0.00    +0.000 C 
ATOM     28  C   UNL     1      36.210 -18.948 -20.907  0.00  0.00    +0.000 C 
ATOM     29  C   UNL     1      33.890 -19.604 -20.753  0.00  0.00    +0.000 C 
ATOM     30  C   UNL     1      36.587 -20.133 -20.276  0.00  0.00    +0.000 C 
ATOM     31  C   UNL     1      34.268 -20.790 -20.122  0.00  0.00    +0.000 C 
ATOM     32  C   UNL     1      35.616 -21.054 -19.884  0.00  0.00    +0.000 C 
ENDBRANCH  24  27
ENDBRANCH  19  21
ENDBRANCH   1  18
BRANCH   1  33
ATOM     33  C   UNL     1      33.284 -11.621 -25.601  0.00  0.00    +0.041 C 
BRANCH  33  34
ATOM     34  C   UNL     1      34.130 -12.337 -26.656  0.00  0.00    +0.112 C 
BRANCH  34  36
ATOM     35  O   UNL     1      33.718 -14.648 -27.305  0.00  0.00    -0.250 OA
ATOM     36  C   UNL     1      33.398 -13.468 -27.343  0.00  0.00    +0.314 C 
BRANCH  36  37
ATOM     37  O   UNL     1      32.298 -13.021 -28.001  0.00  0.00    -0.480 OA
ATOM     38  H   UNL     1      31.977 -12.154 -27.845  0.00  0.00    +0.295 HD
ENDBRANCH  36  37
ENDBRANCH  34  36
ENDBRANCH  33  34
ENDBRANCH   1  33
TORSDOF 11
ENDMDL
MODEL 7
REMARK VINA RESULT:     -10.8      8.249     13.844
REMARK  Name = 16048422
REMARK  11 active torsions:
REMARK  status: ('A' for Active; 'I' for Inactive)
REMARK    1  A    between atoms: C_1  and  C_4
REMARK    2  A    between atoms: C_1  and  N_18
REMARK    3  A    between atoms: C_1  and  C_33
REMARK    4  A    between atoms: N_3  and  C_6
REMARK    5  A    between atoms: C_6  and  C_9
REMARK    6  A    between atoms: C_9  and  C_11
REMARK    7  A    between atoms: C_19  and  C_21
REMARK    8  A    between atoms: C_24  and  C_27
REMARK    9  A    between atoms: C_33  and  C_34
REMARK   10  A    between atoms: C_34  and  C_36
REMARK   11  A    between atoms: C_36  and  O_37
REMARK                            x       y       z     vdW  Elec       q    Type
REMARK                         _______ _______ _______ _____ _____    ______ ____
ROOT
ATOM      1  C   UNL     1      33.916 -12.520 -23.622  0.00  0.00    +0.149 C 
ENDROOT
BRANCH   1   4
ATOM      2  O   UNL     1      31.783 -12.409 -22.488  0.00  0.00    -0.273 OA
ATOM      3  N   UNL     1      33.029 -10.463 -22.709  0.00  0.00    -0.306 N 
ATOM      4  C   UNL     1      32.791 -11.819 -22.871  0.00  0.00    +0.240 C 
ATOM      5  H   UNL     1      33.873 -10.091 -23.055  0.00  0.00    +0.149 HD
BRANCH   3   6
ATOM      6  C   UNL     1      32.099  -9.569 -22.058  0.00  0.00    +0.061 C 
ATOM      7  C   UNL     1      30.823  -9.461 -22.906  0.00  0.00    +0.020 C 
ATOM      8  C   UNL     1      31.731 -10.176 -20.694  0.00  0.00    +0.020 C 
BRANCH   6   9
ATOM      9  C   UNL     1      32.751  -8.181 -21.820  0.00  0.00    +0.044 C 
BRANCH   9  11
ATOM     10  F   UNL     1      33.913  -5.171 -26.446  0.00  0.00    -0.204 F 
ATOM     11  C   UNL     1      33.062  -7.374 -23.060  0.00  0.00    -0.020 C 
ATOM     12  C   UNL     1      32.080  -6.564 -23.630  0.00  0.00    -0.002 C 
ATOM     13  C   UNL     1      34.332  -7.440 -23.633  0.00  0.00    -0.002 C 
ATOM     14  C   UNL     1      32.368  -5.820 -24.773  0.00  0.00    +0.029 C 
ATOM     15  C   UNL     1      34.620  -6.695 -24.777  0.00  0.00    +0.029 C 
ATOM     16  C   UNL     1      33.637  -5.885 -25.347  0.00  0.00    +0.140 C 
ENDBRANCH   9  11
ENDBRANCH   6   9
ENDBRANCH   3   6
ENDBRANCH   1   4
BRANCH   1  18
ATOM     17  O   UNL     1      34.092 -15.051 -24.967  0.00  0.00    -0.270 OA
ATOM     18  N   UNL     1      34.047 -13.817 -23.004  0.00  0.00    -0.295 N 
ATOM     19  C   UNL     1      34.125 -14.990 -23.741  0.00  0.00    +0.246 C 
ATOM     20  H   UNL     1      34.081 -13.872 -22.022  0.00  0.00    +0.150 HD
BRANCH  19  21
ATOM     21  C   UNL     1      34.229 -16.246 -22.954  0.00  0.00    +0.053 C 
ATOM     22  C   UNL     1      34.688 -17.414 -23.563  0.00  0.00    +0.005 C 
ATOM     23  C   UNL     1      33.868 -16.256 -21.607  0.00  0.00    +0.005 C 
ATOM     24  C   UNL     1      34.425 -18.604 -21.477  0.00  0.00    +0.000 C 
ATOM     25  C   UNL     1      34.786 -18.593 -22.824  0.00  0.00    +0.000 C 
ATOM     26  C   UNL     1      33.966 -17.435 -20.868  0.00  0.00    +0.000 C 
BRANCH  24  27
ATOM     27  C   UNL     1      34.526 -19.826 -20.710  0.00  0.00    +0.000 C 
ATOM     28  C   UNL     1      33.371 -20.453 -20.241  0.00  0.00    +0.000 C 
ATOM     29  C   UNL     1      35.778 -20.380 -20.441  0.00  0.00    +0.000 C 
ATOM     30  C   UNL     1      33.468 -21.633 -19.503  0.00  0.00    +0.000 C 
ATOM     31  C   UNL     1      35.874 -21.559 -19.702  0.00  0.00    +0.000 C 
ATOM     32  C   UNL     1      34.720 -22.185 -19.233  0.00  0.00    +0.000 C 
ENDBRANCH  24  27
ENDBRANCH  19  21
ENDBRANCH   1  18
BRANCH   1  33
ATOM     33  C   UNL     1      33.600 -12.662 -25.117  0.00  0.00    +0.041 C 
BRANCH  33  34
ATOM     34  C   UNL     1      33.706 -11.357 -25.909  0.00  0.00    +0.112 C 
BRANCH  34  36
ATOM     35  O   UNL     1      35.837 -10.686 -26.882  0.00  0.00    -0.250 OA
ATOM     36  C   UNL     1      35.100 -10.769 -25.909  0.00  0.00    +0.314 C 
BRANCH  36  37
ATOM     37  O   UNL     1      35.442 -10.301 -24.680  0.00  0.00    -0.480 OA
ATOM     38  H   UNL     1      34.800  -9.883 -24.141  0.00  0.00    +0.295 HD
ENDBRANCH  36  37
ENDBRANCH  34  36
ENDBRANCH  33  34
ENDBRANCH   1  33
TORSDOF 11
ENDMDL
MODEL 8
REMARK VINA RESULT:     -10.7      3.434      6.807
REMARK  Name = 16048422
REMARK  11 active torsions:
REMARK  status: ('A' for Active; 'I' for Inactive)
REMARK    1  A    between atoms: C_1  and  C_4
REMARK    2  A    between atoms: C_1  and  N_18
REMARK    3  A    between atoms: C_1  and  C_33
REMARK    4  A    between atoms: N_3  and  C_6
REMARK    5  A    between atoms: C_6  and  C_9
REMARK    6  A    between atoms: C_9  and  C_11
REMARK    7  A    between atoms: C_19  and  C_21
REMARK    8  A    between atoms: C_24  and  C_27
REMARK    9  A    between atoms: C_33  and  C_34
REMARK   10  A    between atoms: C_34  and  C_36
REMARK   11  A    between atoms: C_36  and  O_37
REMARK                            x       y       z     vdW  Elec       q    Type
REMARK                         _______ _______ _______ _____ _____    ______ ____
ROOT
ATOM      1  C   UNL     1      31.813 -23.255 -15.644  0.00  0.00    +0.149 C 
ENDROOT
BRANCH   1   4
ATOM      2  O   UNL     1      33.105 -24.976 -14.540  0.00  0.00    -0.273 OA
ATOM      3  N   UNL     1      34.157 -22.986 -15.110  0.00  0.00    -0.306 N 
ATOM      4  C   UNL     1      33.078 -23.855 -15.045  0.00  0.00    +0.240 C 
ATOM      5  H   UNL     1      34.027 -22.108 -15.538  0.00  0.00    +0.149 HD
BRANCH   3   6
ATOM      6  C   UNL     1      35.463 -23.305 -14.580  0.00  0.00    +0.061 C 
ATOM      7  C   UNL     1      36.443 -22.177 -14.935  0.00  0.00    +0.020 C 
ATOM      8  C   UNL     1      35.348 -23.391 -13.049  0.00  0.00    +0.020 C 
BRANCH   6   9
ATOM      9  C   UNL     1      35.949 -24.678 -15.114  0.00  0.00    +0.044 C 
BRANCH   9  11
ATOM     10  F   UNL     1      41.172 -26.200 -13.622  0.00  0.00    -0.204 F 
ATOM     11  C   UNL     1      37.349 -25.086 -14.714  0.00  0.00    -0.020 C 
ATOM     12  C   UNL     1      38.443 -24.651 -15.463  0.00  0.00    -0.002 C 
ATOM     13  C   UNL     1      37.546 -25.898 -13.598  0.00  0.00    -0.002 C 
ATOM     14  C   UNL     1      39.734 -25.026 -15.093  0.00  0.00    +0.029 C 
ATOM     15  C   UNL     1      38.838 -26.273 -13.228  0.00  0.00    +0.029 C 
ATOM     16  C   UNL     1      39.931 -25.838 -13.977  0.00  0.00    +0.140 C 
ENDBRANCH   9  11
ENDBRANCH   6   9
ENDBRANCH   3   6
ENDBRANCH   1   4
BRANCH   1  18
ATOM     17  O   UNL     1      33.545 -24.029 -17.799  0.00  0.00    -0.270 OA
ATOM     18  N   UNL     1      32.257 -22.421 -16.734  0.00  0.00    -0.295 N 
ATOM     19  C   UNL     1      33.098 -22.886 -17.734  0.00  0.00    +0.246 C 
ATOM     20  H   UNL     1      31.952 -21.486 -16.769  0.00  0.00    +0.150 HD
BRANCH  19  21
ATOM     21  C   UNL     1      33.487 -21.895 -18.770  0.00  0.00    +0.053 C 
ATOM     22  C   UNL     1      34.829 -21.736 -19.115  0.00  0.00    +0.005 C 
ATOM     23  C   UNL     1      32.509 -21.125 -19.398  0.00  0.00    +0.005 C 
ATOM     24  C   UNL     1      34.215 -20.034 -20.716  0.00  0.00    +0.000 C 
ATOM     25  C   UNL     1      35.193 -20.804 -20.088  0.00  0.00    +0.000 C 
ATOM     26  C   UNL     1      32.872 -20.193 -20.372  0.00  0.00    +0.000 C 
BRANCH  24  27
ATOM     27  C   UNL     1      34.592 -19.068 -21.725  0.00  0.00    +0.000 C 
ATOM     28  C   UNL     1      34.852 -17.746 -21.363  0.00  0.00    +0.000 C 
ATOM     29  C   UNL     1      34.698 -19.459 -23.060  0.00  0.00    +0.000 C 
ATOM     30  C   UNL     1      35.217 -16.815 -22.336  0.00  0.00    +0.000 C 
ATOM     31  C   UNL     1      35.062 -18.527 -24.033  0.00  0.00    +0.000 C 
ATOM     32  C   UNL     1      35.322 -17.206 -23.670  0.00  0.00    +0.000 C 
ENDBRANCH  24  27
ENDBRANCH  19  21
ENDBRANCH   1  18
BRANCH   1  33
ATOM     33  C   UNL     1      30.852 -24.339 -16.148  0.00  0.00    +0.041 C 
BRANCH  33  34
ATOM     34  C   UNL     1      29.388 -24.111 -15.767  0.00  0.00    +0.112 C 
BRANCH  34  36
ATOM     35  O   UNL     1      27.728 -23.950 -17.542  0.00  0.00    -0.250 OA
ATOM     36  C   UNL     1      28.588 -23.423 -16.850  0.00  0.00    +0.314 C 
BRANCH  36  37
ATOM     37  O   UNL     1      28.917 -22.108 -16.952  0.00  0.00    -0.480 OA
ATOM     38  H   UNL     1      29.061 -21.725 -17.794  0.00  0.00    +0.295 HD
ENDBRANCH  36  37
ENDBRANCH  34  36
ENDBRANCH  33  34
ENDBRANCH   1  33
TORSDOF 11
ENDMDL
MODEL 9
REMARK VINA RESULT:     -10.6      8.892     14.253
REMARK  Name = 16048422
REMARK  11 active torsions:
REMARK  status: ('A' for Active; 'I' for Inactive)
REMARK    1  A    between atoms: C_1  and  C_4
REMARK    2  A    between atoms: C_1  and  N_18
REMARK    3  A    between atoms: C_1  and  C_33
REMARK    4  A    between atoms: N_3  and  C_6
REMARK    5  A    between atoms: C_6  and  C_9
REMARK    6  A    between atoms: C_9  and  C_11
REMARK    7  A    between atoms: C_19  and  C_21
REMARK    8  A    between atoms: C_24  and  C_27
REMARK    9  A    between atoms: C_33  and  C_34
REMARK   10  A    between atoms: C_34  and  C_36
REMARK   11  A    between atoms: C_36  and  O_37
REMARK                            x       y       z     vdW  Elec       q    Type
REMARK                         _______ _______ _______ _____ _____    ______ ____
ROOT
ATOM      1  C   UNL     1      31.822 -11.579 -22.964  0.00  0.00    +0.149 C 
ENDROOT
BRANCH   1   4
ATOM      2  O   UNL     1      34.103 -11.109 -23.619  0.00  0.00    -0.273 OA
ATOM      3  N   UNL     1      32.639  -9.330 -23.329  0.00  0.00    -0.306 N 
ATOM      4  C   UNL     1      32.985 -10.673 -23.351  0.00  0.00    +0.240 C 
ATOM      5  H   UNL     1      31.713  -9.089 -23.100  0.00  0.00    +0.149 HD
BRANCH   3   6
ATOM      6  C   UNL     1      33.573  -8.268 -23.625  0.00  0.00    +0.061 C 
ATOM      7  C   UNL     1      34.062  -7.643 -22.310  0.00  0.00    +0.020 C 
ATOM      8  C   UNL     1      34.779  -8.884 -24.354  0.00  0.00    +0.020 C 
BRANCH   6   9
ATOM      9  C   UNL     1      32.922  -7.213 -24.557  0.00  0.00    +0.044 C 
BRANCH   9  11
ATOM     10  F   UNL     1      30.033  -3.102 -21.994  0.00  0.00    -0.204 F 
ATOM     11  C   UNL     1      32.148  -6.110 -23.870  0.00  0.00    -0.020 C 
ATOM     12  C   UNL     1      32.187  -4.811 -24.376  0.00  0.00    -0.002 C 
ATOM     13  C   UNL     1      31.395  -6.394 -22.731  0.00  0.00    -0.002 C 
ATOM     14  C   UNL     1      31.472  -3.795 -23.742  0.00  0.00    +0.029 C 
ATOM     15  C   UNL     1      30.679  -5.378 -22.098  0.00  0.00    +0.029 C 
ATOM     16  C   UNL     1      30.719  -4.078 -22.603  0.00  0.00    +0.140 C 
ENDBRANCH   9  11
ENDBRANCH   6   9
ENDBRANCH   3   6
ENDBRANCH   1   4
BRANCH   1  18
ATOM     17  O   UNL     1      32.524 -13.790 -24.655  0.00  0.00    -0.270 OA
ATOM     18  N   UNL     1      32.421 -12.823 -22.549  0.00  0.00    -0.295 N 
ATOM     19  C   UNL     1      32.726 -13.838 -23.444  0.00  0.00    +0.246 C 
ATOM     20  H   UNL     1      32.622 -12.958 -21.595  0.00  0.00    +0.150 HD
BRANCH  19  21
ATOM     21  C   UNL     1      33.314 -15.069 -22.855  0.00  0.00    +0.053 C 
ATOM     22  C   UNL     1      33.001 -15.435 -21.546  0.00  0.00    +0.005 C 
ATOM     23  C   UNL     1      34.179 -15.859 -23.612  0.00  0.00    +0.005 C 
ATOM     24  C   UNL     1      34.418 -17.380 -21.750  0.00  0.00    +0.000 C 
ATOM     25  C   UNL     1      33.554 -16.590 -20.993  0.00  0.00    +0.000 C 
ATOM     26  C   UNL     1      34.732 -17.015 -23.060  0.00  0.00    +0.000 C 
BRANCH  24  27
ATOM     27  C   UNL     1      34.991 -18.579 -21.178  0.00  0.00    +0.000 C 
ATOM     28  C   UNL     1      36.376 -18.700 -21.053  0.00  0.00    +0.000 C 
ATOM     29  C   UNL     1      34.160 -19.614 -20.749  0.00  0.00    +0.000 C 
ATOM     30  C   UNL     1      36.928 -19.855 -20.500  0.00  0.00    +0.000 C 
ATOM     31  C   UNL     1      34.713 -20.769 -20.196  0.00  0.00    +0.000 C 
ATOM     32  C   UNL     1      36.097 -20.890 -20.072  0.00  0.00    +0.000 C 
ENDBRANCH  24  27
ENDBRANCH  19  21
ENDBRANCH   1  18
BRANCH   1  33
ATOM     33  C   UNL     1      30.985 -10.975 -21.829  0.00  0.00    +0.041 C 
BRANCH  33  34
ATOM     34  C   UNL     1      31.466 -11.346 -20.425  0.00  0.00    +0.112 C 
BRANCH  34  36
ATOM     35  O   UNL     1      31.935 -10.166 -18.346  0.00  0.00    -0.250 OA
ATOM     36  C   UNL     1      31.763 -10.143 -19.557  0.00  0.00    +0.314 C 
BRANCH  36  37
ATOM     37  O   UNL     1      31.848  -9.006 -20.296  0.00  0.00    -0.480 OA
ATOM     38  H   UNL     1      31.827  -8.170 -19.874  0.00  0.00    +0.295 HD
ENDBRANCH  36  37
ENDBRANCH  34  36
ENDBRANCH  33  34
ENDBRANCH   1  33
TORSDOF 11
ENDMDL
