MODEL 1
REMARK VINA RESULT:      -8.7      0.000      0.000
REMARK  Name = 50599
REMARK  3 active torsions:
REMARK  status: ('A' for Active; 'I' for Inactive)
REMARK    1  A    between atoms: N_2  and  C_13
REMARK    2  A    between atoms: C_16  and  C_17
REMARK    3  A    between atoms: C_17  and  O_18
REMARK                            x       y       z     vdW  Elec       q    Type
REMARK                         _______ _______ _______ _____ _____    ______ ____
ROOT
ATOM      1  O   UNL     1      32.791 -22.613 -18.605  0.00  0.00    -0.221 OA
ATOM      2  N   UNL     1      34.684 -19.354 -21.109  0.00  0.00    -0.212 NA
ATOM      3  N   UNL     1      36.187 -20.679 -19.726  0.00  0.00    -0.259 NA
ATOM      4  N   UNL     1      32.772 -20.379 -20.533  0.00  0.00    -0.242 NA
ATOM      5  N   UNL     1      35.093 -22.388 -18.428  0.00  0.00    -0.183 NA
ATOM      6  C   UNL     1      34.997 -20.326 -20.222  0.00  0.00    +0.172 C 
ATOM      7  C   UNL     1      33.318 -19.424 -21.269  0.00  0.00    +0.205 C 
ATOM      8  C   UNL     1      33.828 -20.944 -19.876  0.00  0.00    +0.167 C 
ATOM      9  C   UNL     1      33.828 -22.046 -18.927  0.00  0.00    +0.168 C 
ATOM     10  C   UNL     1      36.147 -21.728 -18.828  0.00  0.00    +0.211 C 
ATOM     11  H   UNL     1      37.023 -20.228 -19.980  0.00  0.00    +0.127 HD
ENDROOT
BRANCH   2  13
ATOM     12  O   UNL     1      35.160 -17.067 -21.505  0.00  0.00    -0.341 OA
ATOM     13  C   UNL     1      35.587 -18.415 -21.775  0.00  0.00    +0.179 C 
ATOM     14  C   UNL     1      35.645 -18.587 -23.290  0.00  0.00    +0.049 C 
ATOM     15  C   UNL     1      34.808 -17.438 -23.803  0.00  0.00    +0.036 C 
ATOM     16  C   UNL     1      35.069 -16.370 -22.757  0.00  0.00    +0.146 C 
BRANCH  16  17
ATOM     17  C   UNL     1      33.981 -15.316 -22.682  0.00  0.00    +0.167 C 
BRANCH  17  18
ATOM     18  O   UNL     1      34.580 -14.032 -22.748  0.00  0.00    -0.379 OA
ATOM     19  H   UNL     1      34.742 -13.704 -21.849  0.00  0.00    +0.211 HD
ENDBRANCH  17  18
ENDBRANCH  16  17
ENDBRANCH   2  13
TORSDOF 3
ENDMDL
MODEL 2
REMARK VINA RESULT:      -8.1      6.112      8.698
REMARK  Name = 50599
REMARK  3 active torsions:
REMARK  status: ('A' for Active; 'I' for Inactive)
REMARK    1  A    between atoms: N_2  and  C_13
REMARK    2  A    between atoms: C_16  and  C_17
REMARK    3  A    between atoms: C_17  and  O_18
REMARK                            x       y       z     vdW  Elec       q    Type
REMARK                         _______ _______ _______ _____ _____    ______ ____
ROOT
ATOM      1  O   UNL     1      38.636 -22.794 -11.574  0.00  0.00    -0.221 OA
ATOM      2  N   UNL     1      35.478 -23.945 -14.604  0.00  0.00    -0.212 NA
ATOM      3  N   UNL     1      35.068 -24.604 -12.297  0.00  0.00    -0.259 NA
ATOM      4  N   UNL     1      37.452 -22.930 -14.274  0.00  0.00    -0.242 NA
ATOM      5  N   UNL     1      36.799 -23.952 -10.755  0.00  0.00    -0.183 NA
ATOM      6  C   UNL     1      35.765 -24.036 -13.286  0.00  0.00    +0.172 C 
ATOM      7  C   UNL     1      36.533 -23.262 -15.166  0.00  0.00    +0.205 C 
ATOM      8  C   UNL     1      36.968 -23.417 -13.093  0.00  0.00    +0.167 C 
ATOM      9  C   UNL     1      37.559 -23.346 -11.766  0.00  0.00    +0.168 C 
ATOM     10  C   UNL     1      35.659 -24.517 -11.052  0.00  0.00    +0.211 C 
ATOM     11  H   UNL     1      34.202 -25.049 -12.444  0.00  0.00    +0.127 HD
ENDROOT
BRANCH   2  13
ATOM     12  O   UNL     1      34.444 -24.207 -16.719  0.00  0.00    -0.341 OA
ATOM     13  C   UNL     1      34.300 -24.452 -15.308  0.00  0.00    +0.179 C 
ATOM     14  C   UNL     1      32.990 -23.811 -14.858  0.00  0.00    +0.049 C 
ATOM     15  C   UNL     1      32.677 -22.841 -15.975  0.00  0.00    +0.036 C 
ATOM     16  C   UNL     1      33.249 -23.560 -17.183  0.00  0.00    +0.146 C 
BRANCH  16  17
ATOM     17  C   UNL     1      33.578 -22.635 -18.338  0.00  0.00    +0.167 C 
BRANCH  17  18
ATOM     18  O   UNL     1      33.955 -23.417 -19.460  0.00  0.00    -0.379 OA
ATOM     19  H   UNL     1      34.066 -24.341 -19.187  0.00  0.00    +0.211 HD
ENDBRANCH  17  18
ENDBRANCH  16  17
ENDBRANCH   2  13
TORSDOF 3
ENDMDL
MODEL 3
REMARK VINA RESULT:      -8.0      4.204      8.183
REMARK  Name = 50599
REMARK  3 active torsions:
REMARK  status: ('A' for Active; 'I' for Inactive)
REMARK    1  A    between atoms: N_2  and  C_13
REMARK    2  A    between atoms: C_16  and  C_17
REMARK    3  A    between atoms: C_17  and  O_18
REMARK                            x       y       z     vdW  Elec       q    Type
REMARK                         _______ _______ _______ _____ _____    ______ ____
ROOT
ATOM      1  O   UNL     1      32.836 -21.928 -19.908  0.00  0.00    -0.221 OA
ATOM      2  N   UNL     1      35.344 -23.120 -16.336  0.00  0.00    -0.212 NA
ATOM      3  N   UNL     1      36.460 -21.824 -18.068  0.00  0.00    -0.259 NA
ATOM      4  N   UNL     1      33.318 -23.215 -17.297  0.00  0.00    -0.242 NA
ATOM      5  N   UNL     1      35.051 -21.235 -19.930  0.00  0.00    -0.183 NA
ATOM      6  C   UNL     1      35.421 -22.451 -17.508  0.00  0.00    +0.172 C 
ATOM      7  C   UNL     1      34.044 -23.566 -16.248  0.00  0.00    +0.205 C 
ATOM      8  C   UNL     1      34.184 -22.514 -18.087  0.00  0.00    +0.167 C 
ATOM      9  C   UNL     1      33.938 -21.883 -19.374  0.00  0.00    +0.168 C 
ATOM     10  C   UNL     1      36.189 -21.237 -19.289  0.00  0.00    +0.211 C 
ATOM     11  H   UNL     1      37.347 -21.784 -17.644  0.00  0.00    +0.127 HD
ENDROOT
BRANCH   2  13
ATOM     12  O   UNL     1      37.052 -24.592 -15.609  0.00  0.00    -0.341 OA
ATOM     13  C   UNL     1      36.402 -23.334 -15.348  0.00  0.00    +0.179 C 
ATOM     14  C   UNL     1      35.902 -23.363 -13.907  0.00  0.00    +0.049 C 
ATOM     15  C   UNL     1      35.912 -24.835 -13.564  0.00  0.00    +0.036 C 
ATOM     16  C   UNL     1      37.085 -25.339 -14.384  0.00  0.00    +0.146 C 
BRANCH  16  17
ATOM     17  C   UNL     1      37.022 -26.824 -14.683  0.00  0.00    +0.167 C 
BRANCH  17  18
ATOM     18  O   UNL     1      36.830 -27.004 -16.077  0.00  0.00    -0.379 OA
ATOM     19  H   UNL     1      36.717 -26.140 -16.502  0.00  0.00    +0.211 HD
ENDBRANCH  17  18
ENDBRANCH  16  17
ENDBRANCH   2  13
TORSDOF 3
ENDMDL
MODEL 4
REMARK VINA RESULT:      -8.0      3.745      6.355
REMARK  Name = 50599
REMARK  3 active torsions:
REMARK  status: ('A' for Active; 'I' for Inactive)
REMARK    1  A    between atoms: N_2  and  C_13
REMARK    2  A    between atoms: C_16  and  C_17
REMARK    3  A    between atoms: C_17  and  O_18
REMARK                            x       y       z     vdW  Elec       q    Type
REMARK                         _______ _______ _______ _____ _____    ______ ____
ROOT
ATOM      1  O   UNL     1      31.939 -12.406 -22.236  0.00  0.00    -0.221 OA
ATOM      2  N   UNL     1      34.562 -16.053 -21.697  0.00  0.00    -0.212 NA
ATOM      3  N   UNL     1      34.054 -15.405 -23.987  0.00  0.00    -0.259 NA
ATOM      4  N   UNL     1      33.414 -14.423 -20.666  0.00  0.00    -0.242 NA
ATOM      5  N   UNL     1      32.652 -13.455 -24.179  0.00  0.00    -0.183 NA
ATOM      6  C   UNL     1      33.996 -15.288 -22.657  0.00  0.00    +0.172 C 
ATOM      7  C   UNL     1      34.181 -15.488 -20.500  0.00  0.00    +0.205 C 
ATOM      8  C   UNL     1      33.299 -14.299 -22.022  0.00  0.00    +0.167 C 
ATOM      9  C   UNL     1      32.569 -13.301 -22.788  0.00  0.00    +0.168 C 
ATOM     10  C   UNL     1      33.349 -14.440 -24.681  0.00  0.00    +0.211 C 
ATOM     11  H   UNL     1      34.558 -16.120 -24.437  0.00  0.00    +0.127 HD
ENDROOT
BRANCH   2  13
ATOM     12  O   UNL     1      35.512 -17.551 -23.267  0.00  0.00    -0.341 OA
ATOM     13  C   UNL     1      35.408 -17.235 -21.867  0.00  0.00    +0.179 C 
ATOM     14  C   UNL     1      34.882 -18.476 -21.151  0.00  0.00    +0.049 C 
ATOM     15  C   UNL     1      34.290 -19.300 -22.272  0.00  0.00    +0.036 C 
ATOM     16  C   UNL     1      35.197 -18.942 -23.435  0.00  0.00    +0.146 C 
BRANCH  16  17
ATOM     17  C   UNL     1      34.559 -19.166 -24.792  0.00  0.00    +0.167 C 
BRANCH  17  18
ATOM     18  O   UNL     1      34.521 -17.932 -25.492  0.00  0.00    -0.379 OA
ATOM     19  H   UNL     1      34.784 -17.214 -24.895  0.00  0.00    +0.211 HD
ENDBRANCH  17  18
ENDBRANCH  16  17
ENDBRANCH   2  13
TORSDOF 3
ENDMDL
MODEL 5
REMARK VINA RESULT:      -7.9      5.642      9.262
REMARK  Name = 50599
REMARK  3 active torsions:
REMARK  status: ('A' for Active; 'I' for Inactive)
REMARK    1  A    between atoms: N_2  and  C_13
REMARK    2  A    between atoms: C_16  and  C_17
REMARK    3  A    between atoms: C_17  and  O_18
REMARK                            x       y       z     vdW  Elec       q    Type
REMARK                         _______ _______ _______ _____ _____    ______ ____
ROOT
ATOM      1  O   UNL     1      33.483 -22.928 -17.978  0.00  0.00    -0.221 OA
ATOM      2  N   UNL     1      36.017 -23.628 -14.295  0.00  0.00    -0.212 NA
ATOM      3  N   UNL     1      37.078 -22.447 -16.141  0.00  0.00    -0.259 NA
ATOM      4  N   UNL     1      34.009 -23.927 -15.251  0.00  0.00    -0.242 NA
ATOM      5  N   UNL     1      35.656 -22.120 -18.058  0.00  0.00    -0.183 NA
ATOM      6  C   UNL     1      36.069 -23.072 -15.527  0.00  0.00    +0.172 C 
ATOM      7  C   UNL     1      34.743 -24.135 -14.171  0.00  0.00    +0.205 C 
ATOM      8  C   UNL     1      34.843 -23.259 -16.103  0.00  0.00    +0.167 C 
ATOM      9  C   UNL     1      34.575 -22.771 -17.446  0.00  0.00    +0.168 C 
ATOM     10  C   UNL     1      36.787 -21.997 -17.414  0.00  0.00    +0.211 C 
ATOM     11  H   UNL     1      37.957 -22.317 -15.720  0.00  0.00    +0.127 HD
ENDROOT
BRANCH   2  13
ATOM     12  O   UNL     1      38.344 -23.891 -13.937  0.00  0.00    -0.341 OA
ATOM     13  C   UNL     1      37.076 -23.687 -13.287  0.00  0.00    +0.179 C 
ATOM     14  C   UNL     1      36.893 -24.807 -12.268  0.00  0.00    +0.049 C 
ATOM     15  C   UNL     1      37.889 -25.852 -12.717  0.00  0.00    +0.036 C 
ATOM     16  C   UNL     1      39.000 -24.996 -13.297  0.00  0.00    +0.146 C 
BRANCH  16  17
ATOM     17  C   UNL     1      39.871 -25.730 -14.298  0.00  0.00    +0.167 C 
BRANCH  17  18
ATOM     18  O   UNL     1      40.996 -24.922 -14.606  0.00  0.00    -0.379 OA
ATOM     19  H   UNL     1      40.823 -24.008 -14.332  0.00  0.00    +0.211 HD
ENDBRANCH  17  18
ENDBRANCH  16  17
ENDBRANCH   2  13
TORSDOF 3
ENDMDL
MODEL 6
REMARK VINA RESULT:      -7.9      7.078      9.476
REMARK  Name = 50599
REMARK  3 active torsions:
REMARK  status: ('A' for Active; 'I' for Inactive)
REMARK    1  A    between atoms: N_2  and  C_13
REMARK    2  A    between atoms: C_16  and  C_17
REMARK    3  A    between atoms: C_17  and  O_18
REMARK                            x       y       z     vdW  Elec       q    Type
REMARK                         _______ _______ _______ _____ _____    ______ ____
ROOT
ATOM      1  O   UNL     1      32.475 -22.877 -16.957  0.00  0.00    -0.221 OA
ATOM      2  N   UNL     1      36.115 -24.121 -14.575  0.00  0.00    -0.212 NA
ATOM      3  N   UNL     1      33.946 -24.724 -13.648  0.00  0.00    -0.259 NA
ATOM      4  N   UNL     1      35.369 -23.088 -16.423  0.00  0.00    -0.242 NA
ATOM      5  N   UNL     1      32.067 -24.022 -14.981  0.00  0.00    -0.183 NA
ATOM      6  C   UNL     1      34.764 -24.179 -14.554  0.00  0.00    +0.172 C 
ATOM      7  C   UNL     1      36.439 -23.449 -15.732  0.00  0.00    +0.205 C 
ATOM      8  C   UNL     1      34.318 -23.547 -15.681  0.00  0.00    +0.167 C 
ATOM      9  C   UNL     1      32.894 -23.439 -15.952  0.00  0.00    +0.168 C 
ATOM     10  C   UNL     1      32.602 -24.602 -13.939  0.00  0.00    +0.211 C 
ATOM     11  H   UNL     1      34.276 -25.177 -12.839  0.00  0.00    +0.127 HD
ENDROOT
BRANCH   2  13
ATOM     12  O   UNL     1      38.379 -24.168 -13.880  0.00  0.00    -0.341 OA
ATOM     13  C   UNL     1      37.056 -24.656 -13.591  0.00  0.00    +0.179 C 
ATOM     14  C   UNL     1      37.122 -26.181 -13.567  0.00  0.00    +0.049 C 
ATOM     15  C   UNL     1      38.412 -26.485 -14.293  0.00  0.00    +0.036 C 
ATOM     16  C   UNL     1      39.271 -25.292 -13.916  0.00  0.00    +0.146 C 
BRANCH  16  17
ATOM     17  C   UNL     1      40.399 -25.024 -14.894  0.00  0.00    +0.167 C 
BRANCH  17  18
ATOM     18  O   UNL     1      40.297 -25.938 -15.974  0.00  0.00    -0.379 OA
ATOM     19  H   UNL     1      39.366 -26.162 -16.121  0.00  0.00    +0.211 HD
ENDBRANCH  17  18
ENDBRANCH  16  17
ENDBRANCH   2  13
TORSDOF 3
ENDMDL
MODEL 7
REMARK VINA RESULT:      -7.9      7.690      9.490
REMARK  Name = 50599
REMARK  3 active torsions:
REMARK  status: ('A' for Active; 'I' for Inactive)
REMARK    1  A    between atoms: N_2  and  C_13
REMARK    2  A    between atoms: C_16  and  C_17
REMARK    3  A    between atoms: C_17  and  O_18
REMARK                            x       y       z     vdW  Elec       q    Type
REMARK                         _______ _______ _______ _____ _____    ______ ____
ROOT
ATOM      1  O   UNL     1      37.852 -26.345 -13.234  0.00  0.00    -0.221 OA
ATOM      2  N   UNL     1      34.381 -23.856 -14.728  0.00  0.00    -0.212 NA
ATOM      3  N   UNL     1      34.702 -23.943 -12.317  0.00  0.00    -0.259 NA
ATOM      4  N   UNL     1      36.104 -25.174 -15.304  0.00  0.00    -0.242 NA
ATOM      5  N   UNL     1      36.571 -25.291 -11.612  0.00  0.00    -0.183 NA
ATOM      6  C   UNL     1      34.996 -24.240 -13.587  0.00  0.00    +0.172 C 
ATOM      7  C   UNL     1      35.092 -24.448 -15.749  0.00  0.00    +0.205 C 
ATOM      8  C   UNL     1      36.042 -25.043 -13.945  0.00  0.00    +0.167 C 
ATOM      9  C   UNL     1      36.908 -25.624 -12.932  0.00  0.00    +0.168 C 
ATOM     10  C   UNL     1      35.546 -24.513 -11.383  0.00  0.00    +0.211 C 
ATOM     11  H   UNL     1      33.946 -23.365 -12.067  0.00  0.00    +0.127 HD
ENDROOT
BRANCH   2  13
ATOM     12  O   UNL     1      32.200 -23.389 -13.932  0.00  0.00    -0.341 OA
ATOM     13  C   UNL     1      33.210 -22.991 -14.876  0.00  0.00    +0.179 C 
ATOM     14  C   UNL     1      32.585 -23.033 -16.267  0.00  0.00    +0.049 C 
ATOM     15  C   UNL     1      31.358 -23.894 -16.071  0.00  0.00    +0.036 C 
ATOM     16  C   UNL     1      30.965 -23.557 -14.645  0.00  0.00    +0.146 C 
BRANCH  16  17
ATOM     17  C   UNL     1      30.126 -24.630 -13.979  0.00  0.00    +0.167 C 
BRANCH  17  18
ATOM     18  O   UNL     1      30.724 -24.978 -12.740  0.00  0.00    -0.379 OA
ATOM     19  H   UNL     1      31.682 -25.070 -12.858  0.00  0.00    +0.211 HD
ENDBRANCH  17  18
ENDBRANCH  16  17
ENDBRANCH   2  13
TORSDOF 3
ENDMDL
MODEL 8
REMARK VINA RESULT:      -7.9      6.044      9.010
REMARK  Name = 50599
REMARK  3 active torsions:
REMARK  status: ('A' for Active; 'I' for Inactive)
REMARK    1  A    between atoms: N_2  and  C_13
REMARK    2  A    between atoms: C_16  and  C_17
REMARK    3  A    between atoms: C_17  and  O_18
REMARK                            x       y       z     vdW  Elec       q    Type
REMARK                         _______ _______ _______ _____ _____    ______ ____
ROOT
ATOM      1  O   UNL     1      30.557 -23.059 -16.495  0.00  0.00    -0.221 OA
ATOM      2  N   UNL     1      34.711 -23.660 -14.804  0.00  0.00    -0.212 NA
ATOM      3  N   UNL     1      34.569 -23.041 -17.155  0.00  0.00    -0.259 NA
ATOM      4  N   UNL     1      32.508 -23.688 -14.372  0.00  0.00    -0.242 NA
ATOM      5  N   UNL     1      32.321 -22.744 -17.968  0.00  0.00    -0.183 NA
ATOM      6  C   UNL     1      34.070 -23.335 -15.950  0.00  0.00    +0.172 C 
ATOM      7  C   UNL     1      33.720 -23.864 -13.870  0.00  0.00    +0.205 C 
ATOM      8  C   UNL     1      32.730 -23.355 -15.679  0.00  0.00    +0.167 C 
ATOM      9  C   UNL     1      31.761 -23.047 -16.719  0.00  0.00    +0.168 C 
ATOM     10  C   UNL     1      33.619 -22.754 -18.116  0.00  0.00    +0.211 C 
ATOM     11  H   UNL     1      35.535 -23.030 -17.341  0.00  0.00    +0.127 HD
ENDROOT
BRANCH   2  13
ATOM     12  O   UNL     1      36.670 -24.880 -15.337  0.00  0.00    -0.341 OA
ATOM     13  C   UNL     1      36.152 -23.772 -14.578  0.00  0.00    +0.179 C 
ATOM     14  C   UNL     1      36.529 -23.996 -13.116  0.00  0.00    +0.049 C 
ATOM     15  C   UNL     1      36.867 -25.469 -13.066  0.00  0.00    +0.036 C 
ATOM     16  C   UNL     1      37.442 -25.705 -14.451  0.00  0.00    +0.146 C 
BRANCH  16  17
ATOM     17  C   UNL     1      37.369 -27.151 -14.898  0.00  0.00    +0.167 C 
BRANCH  17  18
ATOM     18  O   UNL     1      36.855 -27.198 -16.220  0.00  0.00    -0.379 OA
ATOM     19  H   UNL     1      37.002 -26.344 -16.654  0.00  0.00    +0.211 HD
ENDBRANCH  17  18
ENDBRANCH  16  17
ENDBRANCH   2  13
TORSDOF 3
ENDMDL
MODEL 9
REMARK VINA RESULT:      -7.8      3.014      6.648
REMARK  Name = 50599
REMARK  3 active torsions:
REMARK  status: ('A' for Active; 'I' for Inactive)
REMARK    1  A    between atoms: N_2  and  C_13
REMARK    2  A    between atoms: C_16  and  C_17
REMARK    3  A    between atoms: C_17  and  O_18
REMARK                            x       y       z     vdW  Elec       q    Type
REMARK                         _______ _______ _______ _____ _____    ______ ____
ROOT
ATOM      1  O   UNL     1      33.154 -12.613 -23.617  0.00  0.00    -0.221 OA
ATOM      2  N   UNL     1      34.723 -16.790 -22.870  0.00  0.00    -0.212 NA
ATOM      3  N   UNL     1      33.942 -16.306 -25.124  0.00  0.00    -0.259 NA
ATOM      4  N   UNL     1      34.313 -14.773 -21.975  0.00  0.00    -0.242 NA
ATOM      5  N   UNL     1      33.124 -14.061 -25.430  0.00  0.00    -0.183 NA
ATOM      6  C   UNL     1      34.201 -16.014 -23.845  0.00  0.00    +0.172 C 
ATOM      7  C   UNL     1      34.774 -15.993 -21.749  0.00  0.00    +0.205 C 
ATOM      8  C   UNL     1      33.953 -14.788 -23.293  0.00  0.00    +0.167 C 
ATOM      9  C   UNL     1      33.382 -13.718 -24.094  0.00  0.00    +0.168 C 
ATOM     10  C   UNL     1      33.401 -15.265 -25.854  0.00  0.00    +0.211 C 
ATOM     11  H   UNL     1      34.123 -17.191 -25.514  0.00  0.00    +0.127 HD
ENDROOT
BRANCH   2  13
ATOM     12  O   UNL     1      34.148 -19.037 -22.385  0.00  0.00    -0.341 OA
ATOM     13  C   UNL     1      35.155 -18.185 -22.962  0.00  0.00    +0.179 C 
ATOM     14  C   UNL     1      36.470 -18.471 -22.240  0.00  0.00    +0.049 C 
ATOM     15  C   UNL     1      36.027 -19.167 -20.974  0.00  0.00    +0.036 C 
ATOM     16  C   UNL     1      34.788 -19.908 -21.441  0.00  0.00    +0.146 C 
BRANCH  16  17
ATOM     17  C   UNL     1      33.827 -20.249 -20.319  0.00  0.00    +0.167 C 
BRANCH  17  18
ATOM     18  O   UNL     1      32.520 -20.375 -20.857  0.00  0.00    -0.379 OA
ATOM     19  H   UNL     1      32.240 -19.525 -21.231  0.00  0.00    +0.211 HD
ENDBRANCH  17  18
ENDBRANCH  16  17
ENDBRANCH   2  13
TORSDOF 3
ENDMDL
