MODEL 1
REMARK VINA RESULT:      -9.7      0.000      0.000
REMARK  Name = 9417
REMARK  7 active torsions:
REMARK  status: ('A' for Active; 'I' for Inactive)
REMARK    1  A    between atoms: N_1  and  C_16
REMARK    2  A    between atoms: C_16  and  C_17
REMARK    3  A    between atoms: C_17  and  C_18
REMARK    4  A    between atoms: C_18  and  N_19
REMARK    5  A    between atoms: N_20  and  C_27
REMARK    6  A    between atoms: C_27  and  C_28
REMARK    7  A    between atoms: C_28  and  O_29
REMARK                            x       y       z     vdW  Elec       q    Type
REMARK                         _______ _______ _______ _____ _____    ______ ____
ROOT
ATOM      1  N   UNL     1      32.048  -8.794 -22.930  0.00  0.00    -0.287 N 
ATOM      2  C   UNL     1      31.776  -9.533 -21.750  0.00  0.00    +0.052 C 
ATOM      3  C   UNL     1      31.758  -7.420 -23.131  0.00  0.00    +0.052 C 
ATOM      4  C   UNL     1      32.085  -9.049 -20.463  0.00  0.00    +0.014 C 
ATOM      5  C   UNL     1      32.064  -6.432 -22.172  0.00  0.00    +0.014 C 
ATOM      6  C   UNL     1      31.145 -10.797 -21.835  0.00  0.00    +0.015 C 
ATOM      7  C   UNL     1      31.114  -6.997 -24.318  0.00  0.00    +0.015 C 
ATOM      8  C   UNL     1      32.828  -7.809 -20.210  0.00  0.00    +0.001 C 
ATOM      9  C   UNL     1      32.819  -6.690 -20.942  0.00  0.00    +0.001 C 
ATOM     10  C   UNL     1      31.777  -9.826 -19.327  0.00  0.00    +0.001 C 
ATOM     11  C   UNL     1      31.738  -5.083 -22.427  0.00  0.00    +0.001 C 
ATOM     12  C   UNL     1      30.836 -11.551 -20.702  0.00  0.00    +0.001 C 
ATOM     13  C   UNL     1      30.787  -5.660 -24.551  0.00  0.00    +0.001 C 
ATOM     14  C   UNL     1      31.152 -11.064 -19.443  0.00  0.00    +0.000 C 
ATOM     15  C   UNL     1      31.100  -4.701 -23.603  0.00  0.00    +0.000 C 
ENDROOT
BRANCH   1  16
ATOM     16  C   UNL     1      32.380  -9.575 -24.129  0.00  0.00    +0.093 C 
BRANCH  16  17
ATOM     17  C   UNL     1      33.571 -10.494 -23.863  0.00  0.00    -0.001 C 
BRANCH  17  18
ATOM     18  C   UNL     1      33.764 -11.604 -24.902  0.00  0.00    -0.076 C 
BRANCH  18  19
ATOM     19  N   UNL     1      34.144 -12.872 -24.282  0.00  0.00    +0.384 N 
ATOM     20  N   UNL     1      33.559 -15.318 -22.857  0.00  0.00    +0.386 N 
ATOM     21  C   UNL     1      33.470 -13.998 -24.942  0.00  0.00    -0.101 C 
ATOM     22  C   UNL     1      33.839 -12.863 -22.847  0.00  0.00    -0.101 C 
ATOM     23  C   UNL     1      33.866 -15.327 -24.292  0.00  0.00    -0.101 C 
ATOM     24  C   UNL     1      34.232 -14.194 -22.196  0.00  0.00    -0.101 C 
ATOM     25  H   UNL     1      35.151 -12.989 -24.396  0.00  0.00    -0.080 HD
ATOM     26  H   UNL     1      32.552 -15.201 -22.744  0.00  0.00    -0.080 HD
BRANCH  20  27
ATOM     27  C   UNL     1      33.936 -16.587 -22.236  0.00  0.00    -0.045 C 
BRANCH  27  28
ATOM     28  C   UNL     1      34.738 -16.346 -20.966  0.00  0.00    +0.115 C 
BRANCH  28  29
ATOM     29  O   UNL     1      35.425 -17.543 -20.627  0.00  0.00    -0.384 OA
ATOM     30  H   UNL     1      36.367 -17.349 -20.500  0.00  0.00    +0.210 HD
ENDBRANCH  28  29
ENDBRANCH  27  28
ENDBRANCH  20  27
ENDBRANCH  18  19
ENDBRANCH  17  18
ENDBRANCH  16  17
ENDBRANCH   1  16
TORSDOF 7
ENDMDL
MODEL 2
REMARK VINA RESULT:      -9.6      1.731      1.994
REMARK  Name = 9417
REMARK  7 active torsions:
REMARK  status: ('A' for Active; 'I' for Inactive)
REMARK    1  A    between atoms: N_1  and  C_16
REMARK    2  A    between atoms: C_16  and  C_17
REMARK    3  A    between atoms: C_17  and  C_18
REMARK    4  A    between atoms: C_18  and  N_19
REMARK    5  A    between atoms: N_20  and  C_27
REMARK    6  A    between atoms: C_27  and  C_28
REMARK    7  A    between atoms: C_28  and  O_29
REMARK                            x       y       z     vdW  Elec       q    Type
REMARK                         _______ _______ _______ _____ _____    ______ ____
ROOT
ATOM      1  N   UNL     1      32.157  -8.581 -22.822  0.00  0.00    -0.287 N 
ATOM      2  C   UNL     1      31.835  -9.356 -21.679  0.00  0.00    +0.052 C 
ATOM      3  C   UNL     1      31.788  -7.229 -23.037  0.00  0.00    +0.052 C 
ATOM      4  C   UNL     1      31.992  -8.870 -20.364  0.00  0.00    +0.014 C 
ATOM      5  C   UNL     1      31.935  -6.237 -22.046  0.00  0.00    +0.014 C 
ATOM      6  C   UNL     1      31.307 -10.660 -21.831  0.00  0.00    +0.015 C 
ATOM      7  C   UNL     1      31.224  -6.835 -24.274  0.00  0.00    +0.015 C 
ATOM      8  C   UNL     1      32.617  -7.585 -20.035  0.00  0.00    +0.001 C 
ATOM      9  C   UNL     1      32.593  -6.458 -20.755  0.00  0.00    +0.001 C 
ATOM     10  C   UNL     1      31.640  -9.685 -19.268  0.00  0.00    +0.001 C 
ATOM     11  C   UNL     1      31.536  -4.910 -22.317  0.00  0.00    +0.001 C 
ATOM     12  C   UNL     1      30.953 -11.452 -20.737  0.00  0.00    +0.001 C 
ATOM     13  C   UNL     1      30.823  -5.521 -24.524  0.00  0.00    +0.001 C 
ATOM     14  C   UNL     1      31.119 -10.962 -19.451  0.00  0.00    +0.000 C 
ATOM     15  C   UNL     1      30.980  -4.557 -23.543  0.00  0.00    +0.000 C 
ENDROOT
BRANCH   1  16
ATOM     16  C   UNL     1      32.651  -9.319 -23.993  0.00  0.00    +0.093 C 
BRANCH  16  17
ATOM     17  C   UNL     1      34.115  -9.713 -23.806  0.00  0.00    -0.001 C 
BRANCH  17  18
ATOM     18  C   UNL     1      34.823 -10.166 -25.088  0.00  0.00    -0.076 C 
BRANCH  18  19
ATOM     19  N   UNL     1      34.661 -11.599 -25.324  0.00  0.00    +0.384 N 
ATOM     20  N   UNL     1      33.067 -13.979 -25.720  0.00  0.00    +0.386 N 
ATOM     21  C   UNL     1      33.954 -11.843 -26.588  0.00  0.00    -0.101 C 
ATOM     22  C   UNL     1      33.949 -12.234 -24.209  0.00  0.00    -0.101 C 
ATOM     23  C   UNL     1      33.781 -13.345 -26.835  0.00  0.00    -0.101 C 
ATOM     24  C   UNL     1      33.774 -13.736 -24.456  0.00  0.00    -0.101 C 
ATOM     25  H   UNL     1      35.590 -12.014 -25.390  0.00  0.00    -0.080 HD
ATOM     26  H   UNL     1      32.139 -13.562 -25.654  0.00  0.00    -0.080 HD
BRANCH  20  27
ATOM     27  C   UNL     1      32.902 -15.412 -25.955  0.00  0.00    -0.045 C 
BRANCH  27  28
ATOM     28  C   UNL     1      33.869 -16.212 -25.096  0.00  0.00    +0.115 C 
BRANCH  28  29
ATOM     29  O   UNL     1      34.808 -16.858 -25.946  0.00  0.00    -0.384 OA
ATOM     30  H   UNL     1      34.731 -16.499 -26.844  0.00  0.00    +0.210 HD
ENDBRANCH  28  29
ENDBRANCH  27  28
ENDBRANCH  20  27
ENDBRANCH  18  19
ENDBRANCH  17  18
ENDBRANCH  16  17
ENDBRANCH   1  16
TORSDOF 7
ENDMDL
MODEL 3
REMARK VINA RESULT:      -9.6     13.157     16.193
REMARK  Name = 9417
REMARK  7 active torsions:
REMARK  status: ('A' for Active; 'I' for Inactive)
REMARK    1  A    between atoms: N_1  and  C_16
REMARK    2  A    between atoms: C_16  and  C_17
REMARK    3  A    between atoms: C_17  and  C_18
REMARK    4  A    between atoms: C_18  and  N_19
REMARK    5  A    between atoms: N_20  and  C_27
REMARK    6  A    between atoms: C_27  and  C_28
REMARK    7  A    between atoms: C_28  and  O_29
REMARK                            x       y       z     vdW  Elec       q    Type
REMARK                         _______ _______ _______ _____ _____    ______ ____
ROOT
ATOM      1  N   UNL     1      35.105 -23.554 -15.182  0.00  0.00    -0.287 N 
ATOM      2  C   UNL     1      34.797 -23.037 -16.466  0.00  0.00    +0.052 C 
ATOM      3  C   UNL     1      36.264 -24.298 -14.846  0.00  0.00    +0.052 C 
ATOM      4  C   UNL     1      35.741 -22.346 -17.252  0.00  0.00    +0.014 C 
ATOM      5  C   UNL     1      37.558 -23.907 -15.245  0.00  0.00    +0.014 C 
ATOM      6  C   UNL     1      33.508 -23.229 -17.018  0.00  0.00    +0.015 C 
ATOM      7  C   UNL     1      36.147 -25.498 -14.103  0.00  0.00    +0.015 C 
ATOM      8  C   UNL     1      37.082 -21.977 -16.786  0.00  0.00    +0.001 C 
ATOM      9  C   UNL     1      37.860 -22.645 -15.928  0.00  0.00    +0.001 C 
ATOM     10  C   UNL     1      35.378 -21.867 -18.528  0.00  0.00    +0.001 C 
ATOM     11  C   UNL     1      38.671 -24.698 -14.890  0.00  0.00    +0.001 C 
ATOM     12  C   UNL     1      33.165 -22.760 -18.287  0.00  0.00    +0.001 C 
ATOM     13  C   UNL     1      37.256 -26.276 -13.768  0.00  0.00    +0.001 C 
ATOM     14  C   UNL     1      34.103 -22.077 -19.045  0.00  0.00    +0.000 C 
ATOM     15  C   UNL     1      38.521 -25.876 -14.163  0.00  0.00    +0.000 C 
ENDROOT
BRANCH   1  16
ATOM     16  C   UNL     1      34.007 -23.576 -14.206  0.00  0.00    +0.093 C 
BRANCH  16  17
ATOM     17  C   UNL     1      32.980 -24.648 -14.569  0.00  0.00    -0.001 C 
BRANCH  17  18
ATOM     18  C   UNL     1      31.792 -24.746 -13.607  0.00  0.00    -0.076 C 
BRANCH  18  19
ATOM     19  N   UNL     1      30.543 -24.323 -14.236  0.00  0.00    +0.384 N 
ATOM     20  N   UNL     1      29.005 -23.234 -16.429  0.00  0.00    +0.386 N 
ATOM     21  C   UNL     1      30.277 -25.110 -15.447  0.00  0.00    -0.101 C 
ATOM     22  C   UNL     1      30.578 -22.891 -14.554  0.00  0.00    -0.101 C 
ATOM     23  C   UNL     1      28.968 -24.666 -16.109  0.00  0.00    -0.101 C 
ATOM     24  C   UNL     1      29.271 -22.446 -15.219  0.00  0.00    -0.101 C 
ATOM     25  H   UNL     1      29.785 -24.487 -13.573  0.00  0.00    -0.080 HD
ATOM     26  H   UNL     1      29.764 -23.071 -17.090  0.00  0.00    -0.080 HD
BRANCH  20  27
ATOM     27  C   UNL     1      27.757 -22.810 -17.061  0.00  0.00    -0.045 C 
BRANCH  27  28
ATOM     28  C   UNL     1      26.852 -22.120 -16.052  0.00  0.00    +0.115 C 
BRANCH  28  29
ATOM     29  O   UNL     1      25.657 -21.721 -16.711  0.00  0.00    -0.384 OA
ATOM     30  H   UNL     1      24.906 -22.212 -16.342  0.00  0.00    +0.210 HD
ENDBRANCH  28  29
ENDBRANCH  27  28
ENDBRANCH  20  27
ENDBRANCH  18  19
ENDBRANCH  17  18
ENDBRANCH  16  17
ENDBRANCH   1  16
TORSDOF 7
ENDMDL
MODEL 4
REMARK VINA RESULT:      -9.5      2.797      5.689
REMARK  Name = 9417
REMARK  7 active torsions:
REMARK  status: ('A' for Active; 'I' for Inactive)
REMARK    1  A    between atoms: N_1  and  C_16
REMARK    2  A    between atoms: C_16  and  C_17
REMARK    3  A    between atoms: C_17  and  C_18
REMARK    4  A    between atoms: C_18  and  N_19
REMARK    5  A    between atoms: N_20  and  C_27
REMARK    6  A    between atoms: C_27  and  C_28
REMARK    7  A    between atoms: C_28  and  O_29
REMARK                            x       y       z     vdW  Elec       q    Type
REMARK                         _______ _______ _______ _____ _____    ______ ____
ROOT
ATOM      1  N   UNL     1      33.056 -13.234 -23.243  0.00  0.00    -0.287 N 
ATOM      2  C   UNL     1      32.515 -12.120 -22.550  0.00  0.00    +0.052 C 
ATOM      3  C   UNL     1      33.184 -13.351 -24.650  0.00  0.00    +0.052 C 
ATOM      4  C   UNL     1      32.875 -10.791 -22.853  0.00  0.00    +0.014 C 
ATOM      5  C   UNL     1      33.704 -12.315 -25.452  0.00  0.00    +0.014 C 
ATOM      6  C   UNL     1      31.554 -12.318 -21.530  0.00  0.00    +0.015 C 
ATOM      7  C   UNL     1      32.759 -14.530 -25.306  0.00  0.00    +0.015 C 
ATOM      8  C   UNL     1      33.926 -10.424 -23.809  0.00  0.00    +0.001 C 
ATOM      9  C   UNL     1      34.280 -11.076 -24.921  0.00  0.00    +0.001 C 
ATOM     10  C   UNL     1      32.291  -9.726 -22.137  0.00  0.00    +0.001 C 
ATOM     11  C   UNL     1      33.794 -12.488 -26.850  0.00  0.00    +0.001 C 
ATOM     12  C   UNL     1      30.977 -11.252 -20.837  0.00  0.00    +0.001 C 
ATOM     13  C   UNL     1      32.843 -14.683 -26.691  0.00  0.00    +0.001 C 
ATOM     14  C   UNL     1      31.345  -9.952 -21.142  0.00  0.00    +0.000 C 
ATOM     15  C   UNL     1      33.362 -13.659 -27.465  0.00  0.00    +0.000 C 
ENDROOT
BRANCH   1  16
ATOM     16  C   UNL     1      33.219 -14.470 -22.466  0.00  0.00    +0.093 C 
BRANCH  16  17
ATOM     17  C   UNL     1      34.674 -14.935 -22.489  0.00  0.00    -0.001 C 
BRANCH  17  18
ATOM     18  C   UNL     1      34.884 -16.349 -23.043  0.00  0.00    -0.076 C 
BRANCH  18  19
ATOM     19  N   UNL     1      35.063 -17.332 -21.977  0.00  0.00    +0.384 N 
ATOM     20  N   UNL     1      35.402 -20.030 -20.993  0.00  0.00    +0.386 N 
ATOM     21  C   UNL     1      36.335 -18.049 -22.138  0.00  0.00    -0.101 C 
ATOM     22  C   UNL     1      33.942 -18.278 -21.946  0.00  0.00    -0.101 C 
ATOM     23  C   UNL     1      36.523 -19.083 -21.022  0.00  0.00    -0.101 C 
ATOM     24  C   UNL     1      34.131 -19.314 -20.831  0.00  0.00    -0.101 C 
ATOM     25  H   UNL     1      35.087 -16.832 -21.088  0.00  0.00    -0.080 HD
ATOM     26  H   UNL     1      35.379 -20.528 -21.883  0.00  0.00    -0.080 HD
BRANCH  20  27
ATOM     27  C   UNL     1      35.581 -21.016 -19.929  0.00  0.00    -0.045 C 
BRANCH  27  28
ATOM     28  C   UNL     1      34.244 -21.607 -19.514  0.00  0.00    +0.115 C 
BRANCH  28  29
ATOM     29  O   UNL     1      34.389 -23.015 -19.382  0.00  0.00    -0.384 OA
ATOM     30  H   UNL     1      33.917 -23.315 -18.589  0.00  0.00    +0.210 HD
ENDBRANCH  28  29
ENDBRANCH  27  28
ENDBRANCH  20  27
ENDBRANCH  18  19
ENDBRANCH  17  18
ENDBRANCH  16  17
ENDBRANCH   1  16
TORSDOF 7
ENDMDL
MODEL 5
REMARK VINA RESULT:      -9.4      2.980      7.748
REMARK  Name = 9417
REMARK  7 active torsions:
REMARK  status: ('A' for Active; 'I' for Inactive)
REMARK    1  A    between atoms: N_1  and  C_16
REMARK    2  A    between atoms: C_16  and  C_17
REMARK    3  A    between atoms: C_17  and  C_18
REMARK    4  A    between atoms: C_18  and  N_19
REMARK    5  A    between atoms: N_20  and  C_27
REMARK    6  A    between atoms: C_27  and  C_28
REMARK    7  A    between atoms: C_28  and  O_29
REMARK                            x       y       z     vdW  Elec       q    Type
REMARK                         _______ _______ _______ _____ _____    ______ ____
ROOT
ATOM      1  N   UNL     1      33.578 -14.136 -23.295  0.00  0.00    -0.287 N 
ATOM      2  C   UNL     1      34.096 -15.449 -23.444  0.00  0.00    +0.052 C 
ATOM      3  C   UNL     1      33.768 -13.064 -24.204  0.00  0.00    +0.052 C 
ATOM      4  C   UNL     1      34.012 -16.165 -24.655  0.00  0.00    +0.014 C 
ATOM      5  C   UNL     1      33.606 -13.212 -25.596  0.00  0.00    +0.014 C 
ATOM      6  C   UNL     1      34.751 -16.079 -22.359  0.00  0.00    +0.015 C 
ATOM      7  C   UNL     1      34.161 -11.791 -23.727  0.00  0.00    +0.015 C 
ATOM      8  C   UNL     1      33.279 -15.695 -25.836  0.00  0.00    +0.001 C 
ATOM      9  C   UNL     1      33.106 -14.432 -26.239  0.00  0.00    +0.001 C 
ATOM     10  C   UNL     1      34.558 -17.462 -24.743  0.00  0.00    +0.001 C 
ATOM     11  C   UNL     1      33.823 -12.109 -26.449  0.00  0.00    +0.001 C 
ATOM     12  C   UNL     1      35.297 -17.360 -22.464  0.00  0.00    +0.001 C 
ATOM     13  C   UNL     1      34.384 -10.711 -24.583  0.00  0.00    +0.001 C 
ATOM     14  C   UNL     1      35.202 -18.053 -23.660  0.00  0.00    +0.000 C 
ATOM     15  C   UNL     1      34.214 -10.871 -25.948  0.00  0.00    +0.000 C 
ENDROOT
BRANCH   1  16
ATOM     16  C   UNL     1      33.061 -13.784 -21.966  0.00  0.00    +0.093 C 
BRANCH  16  17
ATOM     17  C   UNL     1      31.802 -12.927 -22.086  0.00  0.00    -0.001 C 
BRANCH  17  18
ATOM     18  C   UNL     1      31.584 -11.947 -20.927  0.00  0.00    -0.076 C 
BRANCH  18  19
ATOM     19  N   UNL     1      32.053 -10.602 -21.254  0.00  0.00    +0.384 N 
ATOM     20  N   UNL     1      31.674  -7.757 -21.596  0.00  0.00    +0.386 N 
ATOM     21  C   UNL     1      31.913  -9.707 -20.098  0.00  0.00    -0.101 C 
ATOM     22  C   UNL     1      31.328 -10.064 -22.410  0.00  0.00    -0.101 C 
ATOM     23  C   UNL     1      32.402  -8.295 -20.440  0.00  0.00    -0.101 C 
ATOM     24  C   UNL     1      31.814  -8.651 -22.751  0.00  0.00    -0.101 C 
ATOM     25  H   UNL     1      33.043 -10.664 -21.494  0.00  0.00    -0.080 HD
ATOM     26  H   UNL     1      30.685  -7.697 -21.354  0.00  0.00    -0.080 HD
BRANCH  20  27
ATOM     27  C   UNL     1      32.140  -6.410 -21.922  0.00  0.00    -0.045 C 
BRANCH  27  28
ATOM     28  C   UNL     1      30.986  -5.544 -22.402  0.00  0.00    +0.115 C 
BRANCH  28  29
ATOM     29  O   UNL     1      30.454  -4.835 -21.290  0.00  0.00    -0.384 OA
ATOM     30  H   UNL     1      31.157  -4.309 -20.877  0.00  0.00    +0.210 HD
ENDBRANCH  28  29
ENDBRANCH  27  28
ENDBRANCH  20  27
ENDBRANCH  18  19
ENDBRANCH  17  18
ENDBRANCH  16  17
ENDBRANCH   1  16
TORSDOF 7
ENDMDL
MODEL 6
REMARK VINA RESULT:      -8.9      7.798     13.885
REMARK  Name = 9417
REMARK  7 active torsions:
REMARK  status: ('A' for Active; 'I' for Inactive)
REMARK    1  A    between atoms: N_1  and  C_16
REMARK    2  A    between atoms: C_16  and  C_17
REMARK    3  A    between atoms: C_17  and  C_18
REMARK    4  A    between atoms: C_18  and  N_19
REMARK    5  A    between atoms: N_20  and  C_27
REMARK    6  A    between atoms: C_27  and  C_28
REMARK    7  A    between atoms: C_28  and  O_29
REMARK                            x       y       z     vdW  Elec       q    Type
REMARK                         _______ _______ _______ _____ _____    ______ ____
ROOT
ATOM      1  N   UNL     1      33.498 -23.541 -16.543  0.00  0.00    -0.287 N 
ATOM      2  C   UNL     1      32.189 -23.358 -16.029  0.00  0.00    +0.052 C 
ATOM      3  C   UNL     1      34.705 -23.308 -15.837  0.00  0.00    +0.052 C 
ATOM      4  C   UNL     1      31.800 -23.831 -14.759  0.00  0.00    +0.014 C 
ATOM      5  C   UNL     1      34.916 -23.771 -14.522  0.00  0.00    +0.014 C 
ATOM      6  C   UNL     1      31.222 -22.652 -16.784  0.00  0.00    +0.015 C 
ATOM      7  C   UNL     1      35.748 -22.564 -16.439  0.00  0.00    +0.015 C 
ATOM      8  C   UNL     1      32.648 -24.664 -13.900  0.00  0.00    +0.001 C 
ATOM      9  C   UNL     1      33.981 -24.638 -13.798  0.00  0.00    +0.001 C 
ATOM     10  C   UNL     1      30.487 -23.605 -14.297  0.00  0.00    +0.001 C 
ATOM     11  C   UNL     1      36.135 -23.495 -13.868  0.00  0.00    +0.001 C 
ATOM     12  C   UNL     1      29.929 -22.426 -16.310  0.00  0.00    +0.001 C 
ATOM     13  C   UNL     1      36.945 -22.289 -15.776  0.00  0.00    +0.001 C 
ATOM     14  C   UNL     1      29.560 -22.903 -15.062  0.00  0.00    +0.000 C 
ATOM     15  C   UNL     1      37.139 -22.756 -14.487  0.00  0.00    +0.000 C 
ENDROOT
BRANCH   1  16
ATOM     16  C   UNL     1      33.611 -23.698 -18.000  0.00  0.00    +0.093 C 
BRANCH  16  17
ATOM     17  C   UNL     1      33.559 -22.338 -18.696  0.00  0.00    -0.001 C 
BRANCH  17  18
ATOM     18  C   UNL     1      34.804 -21.996 -19.521  0.00  0.00    -0.076 C 
BRANCH  18  19
ATOM     19  N   UNL     1      34.853 -20.578 -19.873  0.00  0.00    +0.384 N 
ATOM     20  N   UNL     1      34.967 -18.399 -21.770  0.00  0.00    +0.386 N 
ATOM     21  C   UNL     1      33.680 -20.199 -20.671  0.00  0.00    -0.101 C 
ATOM     22  C   UNL     1      36.089 -20.263 -20.598  0.00  0.00    -0.101 C 
ATOM     23  C   UNL     1      33.731 -18.713 -21.042  0.00  0.00    -0.101 C 
ATOM     24  C   UNL     1      36.140 -18.778 -20.972  0.00  0.00    -0.101 C 
ATOM     25  H   UNL     1      34.841 -20.038 -19.007  0.00  0.00    -0.080 HD
ATOM     26  H   UNL     1      34.978 -18.940 -22.634  0.00  0.00    -0.080 HD
BRANCH  20  27
ATOM     27  C   UNL     1      35.016 -16.982 -22.124  0.00  0.00    -0.045 C 
BRANCH  27  28
ATOM     28  C   UNL     1      34.121 -16.167 -21.204  0.00  0.00    +0.115 C 
BRANCH  28  29
ATOM     29  O   UNL     1      34.938 -15.462 -20.279  0.00  0.00    -0.384 OA
ATOM     30  H   UNL     1      34.708 -14.520 -20.297  0.00  0.00    +0.210 HD
ENDBRANCH  28  29
ENDBRANCH  27  28
ENDBRANCH  20  27
ENDBRANCH  18  19
ENDBRANCH  17  18
ENDBRANCH  16  17
ENDBRANCH   1  16
TORSDOF 7
ENDMDL
MODEL 7
REMARK VINA RESULT:      -8.8      3.347      7.591
REMARK  Name = 9417
REMARK  7 active torsions:
REMARK  status: ('A' for Active; 'I' for Inactive)
REMARK    1  A    between atoms: N_1  and  C_16
REMARK    2  A    between atoms: C_16  and  C_17
REMARK    3  A    between atoms: C_17  and  C_18
REMARK    4  A    between atoms: C_18  and  N_19
REMARK    5  A    between atoms: N_20  and  C_27
REMARK    6  A    between atoms: C_27  and  C_28
REMARK    7  A    between atoms: C_28  and  O_29
REMARK                            x       y       z     vdW  Elec       q    Type
REMARK                         _______ _______ _______ _____ _____    ______ ____
ROOT
ATOM      1  N   UNL     1      33.250 -12.301 -23.821  0.00  0.00    -0.287 N 
ATOM      2  C   UNL     1      33.397 -13.545 -24.485  0.00  0.00    +0.052 C 
ATOM      3  C   UNL     1      32.559 -12.090 -22.601  0.00  0.00    +0.052 C 
ATOM      4  C   UNL     1      33.770 -14.726 -23.811  0.00  0.00    +0.014 C 
ATOM      5  C   UNL     1      32.732 -12.924 -21.478  0.00  0.00    +0.014 C 
ATOM      6  C   UNL     1      33.141 -13.643 -25.874  0.00  0.00    +0.015 C 
ATOM      7  C   UNL     1      31.633 -11.026 -22.484  0.00  0.00    +0.015 C 
ATOM      8  C   UNL     1      34.167 -14.773 -22.400  0.00  0.00    +0.001 C 
ATOM      9  C   UNL     1      33.723 -14.002 -21.402  0.00  0.00    +0.001 C 
ATOM     10  C   UNL     1      33.886 -15.936 -24.526  0.00  0.00    +0.001 C 
ATOM     11  C   UNL     1      32.004 -12.670 -20.296  0.00  0.00    +0.001 C 
ATOM     12  C   UNL     1      33.249 -14.850 -26.567  0.00  0.00    +0.001 C 
ATOM     13  C   UNL     1      30.911 -10.793 -21.313  0.00  0.00    +0.001 C 
ATOM     14  C   UNL     1      33.622 -16.001 -25.891  0.00  0.00    +0.000 C 
ATOM     15  C   UNL     1      31.097 -11.617 -20.216  0.00  0.00    +0.000 C 
ENDROOT
BRANCH   1  16
ATOM     16  C   UNL     1      33.582 -11.100 -24.601  0.00  0.00    +0.093 C 
BRANCH  16  17
ATOM     17  C   UNL     1      34.727 -10.329 -23.946  0.00  0.00    -0.001 C 
BRANCH  17  18
ATOM     18  C   UNL     1      34.794  -8.845 -24.321  0.00  0.00    -0.076 C 
BRANCH  18  19
ATOM     19  N   UNL     1      33.596  -8.121 -23.900  0.00  0.00    +0.384 N 
ATOM     20  N   UNL     1      32.242  -5.950 -22.554  0.00  0.00    +0.386 N 
ATOM     21  C   UNL     1      33.583  -6.764 -24.462  0.00  0.00    -0.101 C 
ATOM     22  C   UNL     1      33.507  -8.069 -22.436  0.00  0.00    -0.101 C 
ATOM     23  C   UNL     1      32.330  -6.003 -24.019  0.00  0.00    -0.101 C 
ATOM     24  C   UNL     1      32.254  -7.305 -21.991  0.00  0.00    -0.101 C 
ATOM     25  H   UNL     1      32.783  -8.624 -24.254  0.00  0.00    -0.080 HD
ATOM     26  H   UNL     1      33.056  -5.448 -22.201  0.00  0.00    -0.080 HD
BRANCH  20  27
ATOM     27  C   UNL     1      31.046  -5.223 -22.131  0.00  0.00    -0.045 C 
BRANCH  27  28
ATOM     28  C   UNL     1      30.849  -3.974 -22.976  0.00  0.00    +0.115 C 
BRANCH  28  29
ATOM     29  O   UNL     1      30.173  -2.997 -22.196  0.00  0.00    -0.384 OA
ATOM     30  H   UNL     1      29.229  -3.006 -22.415  0.00  0.00    +0.210 HD
ENDBRANCH  28  29
ENDBRANCH  27  28
ENDBRANCH  20  27
ENDBRANCH  18  19
ENDBRANCH  17  18
ENDBRANCH  16  17
ENDBRANCH   1  16
TORSDOF 7
ENDMDL
MODEL 8
REMARK VINA RESULT:      -8.7      2.601      7.315
REMARK  Name = 9417
REMARK  7 active torsions:
REMARK  status: ('A' for Active; 'I' for Inactive)
REMARK    1  A    between atoms: N_1  and  C_16
REMARK    2  A    between atoms: C_16  and  C_17
REMARK    3  A    between atoms: C_17  and  C_18
REMARK    4  A    between atoms: C_18  and  N_19
REMARK    5  A    between atoms: N_20  and  C_27
REMARK    6  A    between atoms: C_27  and  C_28
REMARK    7  A    between atoms: C_28  and  O_29
REMARK                            x       y       z     vdW  Elec       q    Type
REMARK                         _______ _______ _______ _____ _____    ______ ____
ROOT
ATOM      1  N   UNL     1      33.548 -13.860 -23.837  0.00  0.00    -0.287 N 
ATOM      2  C   UNL     1      33.836 -15.205 -24.184  0.00  0.00    +0.052 C 
ATOM      3  C   UNL     1      32.935 -13.429 -22.633  0.00  0.00    +0.052 C 
ATOM      4  C   UNL     1      34.447 -16.106 -23.287  0.00  0.00    +0.014 C 
ATOM      5  C   UNL     1      33.332 -13.906 -21.367  0.00  0.00    +0.014 C 
ATOM      6  C   UNL     1      33.484 -15.698 -25.463  0.00  0.00    +0.015 C 
ATOM      7  C   UNL     1      31.865 -12.504 -22.672  0.00  0.00    +0.015 C 
ATOM      8  C   UNL     1      34.962 -15.725 -21.968  0.00  0.00    +0.001 C 
ATOM      9  C   UNL     1      34.486 -14.785 -21.146  0.00  0.00    +0.001 C 
ATOM     10  C   UNL     1      34.695 -17.435 -23.688  0.00  0.00    +0.001 C 
ATOM     11  C   UNL     1      32.674 -13.448 -20.206  0.00  0.00    +0.001 C 
ATOM     12  C   UNL     1      33.725 -17.020 -25.842  0.00  0.00    +0.001 C 
ATOM     13  C   UNL     1      31.214 -12.068 -21.517  0.00  0.00    +0.001 C 
ATOM     14  C   UNL     1      34.332 -17.892 -24.951  0.00  0.00    +0.000 C 
ATOM     15  C   UNL     1      31.620 -12.542 -20.281  0.00  0.00    +0.000 C 
ENDROOT
BRANCH   1  16
ATOM     16  C   UNL     1      33.618 -12.875 -24.924  0.00  0.00    +0.093 C 
BRANCH  16  17
ATOM     17  C   UNL     1      34.544 -11.719 -24.549  0.00  0.00    -0.001 C 
BRANCH  17  18
ATOM     18  C   UNL     1      34.044 -10.335 -24.976  0.00  0.00    -0.076 C 
BRANCH  18  19
ATOM     19  N   UNL     1      33.680  -9.507 -23.828  0.00  0.00    +0.384 N 
ATOM     20  N   UNL     1      32.580  -7.122 -22.621  0.00  0.00    +0.386 N 
ATOM     21  C   UNL     1      32.232  -9.265 -23.799  0.00  0.00    -0.101 C 
ATOM     22  C   UNL     1      34.412  -8.236 -23.850  0.00  0.00    -0.101 C 
ATOM     23  C   UNL     1      31.849  -8.395 -22.597  0.00  0.00    -0.101 C 
ATOM     24  C   UNL     1      34.028  -7.363 -22.650  0.00  0.00    -0.101 C 
ATOM     25  H   UNL     1      33.938 -10.013 -22.981  0.00  0.00    -0.080 HD
ATOM     26  H   UNL     1      32.322  -6.618 -23.469  0.00  0.00    -0.080 HD
BRANCH  20  27
ATOM     27  C   UNL     1      32.215  -6.291 -21.474  0.00  0.00    -0.045 C 
BRANCH  27  28
ATOM     28  C   UNL     1      31.982  -7.151 -20.242  0.00  0.00    +0.115 C 
BRANCH  28  29
ATOM     29  O   UNL     1      33.178  -7.180 -19.474  0.00  0.00    -0.384 OA
ATOM     30  H   UNL     1      33.103  -6.556 -18.735  0.00  0.00    +0.210 HD
ENDBRANCH  28  29
ENDBRANCH  27  28
ENDBRANCH  20  27
ENDBRANCH  18  19
ENDBRANCH  17  18
ENDBRANCH  16  17
ENDBRANCH   1  16
TORSDOF 7
ENDMDL
MODEL 9
REMARK VINA RESULT:      -8.7      8.702     14.929
REMARK  Name = 9417
REMARK  7 active torsions:
REMARK  status: ('A' for Active; 'I' for Inactive)
REMARK    1  A    between atoms: N_1  and  C_16
REMARK    2  A    between atoms: C_16  and  C_17
REMARK    3  A    between atoms: C_17  and  C_18
REMARK    4  A    between atoms: C_18  and  N_19
REMARK    5  A    between atoms: N_20  and  C_27
REMARK    6  A    between atoms: C_27  and  C_28
REMARK    7  A    between atoms: C_28  and  O_29
REMARK                            x       y       z     vdW  Elec       q    Type
REMARK                         _______ _______ _______ _____ _____    ______ ____
ROOT
ATOM      1  N   UNL     1      35.998 -23.127 -15.066  0.00  0.00    -0.287 N 
ATOM      2  C   UNL     1      37.009 -23.975 -14.546  0.00  0.00    +0.052 C 
ATOM      3  C   UNL     1      34.606 -23.399 -15.059  0.00  0.00    +0.052 C 
ATOM      4  C   UNL     1      36.908 -24.590 -13.282  0.00  0.00    +0.014 C 
ATOM      5  C   UNL     1      33.932 -23.876 -13.916  0.00  0.00    +0.014 C 
ATOM      6  C   UNL     1      38.164 -24.255 -15.315  0.00  0.00    +0.015 C 
ATOM      7  C   UNL     1      33.842 -23.218 -16.236  0.00  0.00    +0.015 C 
ATOM      8  C   UNL     1      35.828 -24.324 -12.325  0.00  0.00    +0.001 C 
ATOM      9  C   UNL     1      34.556 -24.019 -12.596  0.00  0.00    +0.001 C 
ATOM     10  C   UNL     1      37.942 -25.435 -12.827  0.00  0.00    +0.001 C 
ATOM     11  C   UNL     1      32.547 -24.140 -13.977  0.00  0.00    +0.001 C 
ATOM     12  C   UNL     1      39.175 -25.102 -14.857  0.00  0.00    +0.001 C 
ATOM     13  C   UNL     1      32.474 -23.494 -16.285  0.00  0.00    +0.001 C 
ATOM     14  C   UNL     1      39.064 -25.694 -13.609  0.00  0.00    +0.000 C 
ATOM     15  C   UNL     1      31.826 -23.956 -15.153  0.00  0.00    +0.000 C 
ENDROOT
BRANCH   1  16
ATOM     16  C   UNL     1      36.447 -22.031 -15.936  0.00  0.00    +0.093 C 
BRANCH  16  17
ATOM     17  C   UNL     1      35.897 -22.204 -17.351  0.00  0.00    -0.001 C 
BRANCH  17  18
ATOM     18  C   UNL     1      36.811 -21.671 -18.459  0.00  0.00    -0.076 C 
BRANCH  18  19
ATOM     19  N   UNL     1      36.171 -20.606 -19.230  0.00  0.00    +0.384 N 
ATOM     20  N   UNL     1      35.220 -19.425 -21.691  0.00  0.00    +0.386 N 
ATOM     21  C   UNL     1      34.959 -21.100 -19.894  0.00  0.00    -0.101 C 
ATOM     22  C   UNL     1      37.102 -20.044 -20.214  0.00  0.00    -0.101 C 
ATOM     23  C   UNL     1      34.288 -19.985 -20.705  0.00  0.00    -0.101 C 
ATOM     24  C   UNL     1      36.432 -18.930 -21.027  0.00  0.00    -0.101 C 
ATOM     25  H   UNL     1      35.903 -19.866 -18.581  0.00  0.00    -0.080 HD
ATOM     26  H   UNL     1      35.488 -20.166 -22.338  0.00  0.00    -0.080 HD
BRANCH  20  27
ATOM     27  C   UNL     1      34.581 -18.361 -22.464  0.00  0.00    -0.045 C 
BRANCH  27  28
ATOM     28  C   UNL     1      35.211 -17.014 -22.147  0.00  0.00    +0.115 C 
BRANCH  28  29
ATOM     29  O   UNL     1      35.672 -16.430 -23.358  0.00  0.00    -0.384 OA
ATOM     30  H   UNL     1      36.356 -15.772 -23.159  0.00  0.00    +0.210 HD
ENDBRANCH  28  29
ENDBRANCH  27  28
ENDBRANCH  20  27
ENDBRANCH  18  19
ENDBRANCH  17  18
ENDBRANCH  16  17
ENDBRANCH   1  16
TORSDOF 7
ENDMDL
