MODEL 1
REMARK VINA RESULT:      -7.7      0.000      0.000
REMARK  Name = 5484
REMARK  2 active torsions:
REMARK  status: ('A' for Active; 'I' for Inactive)
REMARK    1  A    between atoms: C_7  and  C_11
REMARK    2  A    between atoms: C_7  and  C_16
REMARK                            x       y       z     vdW  Elec       q    Type
REMARK                         _______ _______ _______ _____ _____    ______ ____
ROOT
ATOM      1  N   UNL     1      30.910 -23.734 -15.792  0.00  0.00    +0.388 N 
ATOM      2  C   UNL     1      32.958 -24.201 -13.735  0.00  0.00    +0.018 C 
ATOM      3  C   UNL     1      31.681 -25.035 -13.834  0.00  0.00    -0.019 C 
ATOM      4  C   UNL     1      33.262 -23.572 -15.068  0.00  0.00    -0.064 C 
ATOM      5  C   UNL     1      30.531 -24.239 -14.463  0.00  0.00    -0.077 C 
ATOM      6  C   UNL     1      32.096 -22.863 -15.712  0.00  0.00    -0.054 C 
ATOM      7  C   UNL     1      34.472 -23.652 -15.643  0.00  0.00    +0.002 C 
ATOM      8  C   UNL     1      29.792 -23.021 -16.408  0.00  0.00    -0.100 C 
ATOM      9  H   UNL     1      31.147 -24.535 -16.376  0.00  0.00    -0.079 HD
ENDROOT
BRANCH   7  11
ATOM     10  S   UNL     1      36.089 -22.122 -17.173  0.00  0.00    -0.086 S 
ATOM     11  C   UNL     1      34.668 -23.014 -16.924  0.00  0.00    +0.029 C 
ATOM     12  C   UNL     1      33.832 -23.035 -17.993  0.00  0.00    +0.007 C 
ATOM     13  C   UNL     1      34.373 -22.286 -19.077  0.00  0.00    +0.007 C 
ATOM     14  C   UNL     1      35.596 -21.736 -18.766  0.00  0.00    +0.035 C 
ENDBRANCH   7  11
BRANCH   7  16
ATOM     15  S   UNL     1      36.403 -23.557 -13.757  0.00  0.00    -0.086 S 
ATOM     16  C   UNL     1      35.517 -24.372 -14.952  0.00  0.00    +0.029 C 
ATOM     17  C   UNL     1      35.895 -25.661 -15.140  0.00  0.00    +0.007 C 
ATOM     18  C   UNL     1      36.965 -26.011 -14.268  0.00  0.00    +0.007 C 
ATOM     19  C   UNL     1      37.340 -24.960 -13.461  0.00  0.00    +0.035 C 
ENDBRANCH   7  16
TORSDOF 2
ENDMDL
MODEL 2
REMARK VINA RESULT:      -7.5     12.854     15.535
REMARK  Name = 5484
REMARK  2 active torsions:
REMARK  status: ('A' for Active; 'I' for Inactive)
REMARK    1  A    between atoms: C_7  and  C_11
REMARK    2  A    between atoms: C_7  and  C_16
REMARK                            x       y       z     vdW  Elec       q    Type
REMARK                         _______ _______ _______ _____ _____    ______ ____
ROOT
ATOM      1  N   UNL     1      32.984 -13.426 -21.632  0.00  0.00    +0.388 N 
ATOM      2  C   UNL     1      31.208 -11.105 -21.309  0.00  0.00    +0.018 C 
ATOM      3  C   UNL     1      31.658 -11.972 -20.133  0.00  0.00    -0.019 C 
ATOM      4  C   UNL     1      32.185 -11.238 -22.446  0.00  0.00    -0.064 C 
ATOM      5  C   UNL     1      31.964 -13.409 -20.572  0.00  0.00    -0.077 C 
ATOM      6  C   UNL     1      32.539 -12.659 -22.810  0.00  0.00    -0.054 C 
ATOM      7  C   UNL     1      32.712 -10.175 -23.072  0.00  0.00    +0.002 C 
ATOM      8  C   UNL     1      33.309 -14.801 -22.009  0.00  0.00    -0.100 C 
ATOM      9  H   UNL     1      33.825 -12.981 -21.267  0.00  0.00    -0.079 HD
ENDROOT
BRANCH   7  11
ATOM     10  S   UNL     1      34.947  -9.336 -24.335  0.00  0.00    -0.086 S 
ATOM     11  C   UNL     1      33.642 -10.404 -24.153  0.00  0.00    +0.029 C 
ATOM     12  C   UNL     1      33.606 -11.398 -25.077  0.00  0.00    +0.007 C 
ATOM     13  C   UNL     1      34.697 -11.289 -25.985  0.00  0.00    +0.007 C 
ATOM     14  C   UNL     1      35.505 -10.211 -25.697  0.00  0.00    +0.035 C 
ENDBRANCH   7  11
BRANCH   7  16
ATOM     15  S   UNL     1      31.188  -7.999 -23.558  0.00  0.00    -0.086 S 
ATOM     16  C   UNL     1      32.322  -8.855 -22.632  0.00  0.00    +0.029 C 
ATOM     17  C   UNL     1      32.761  -8.187 -21.536  0.00  0.00    +0.007 C 
ATOM     18  C   UNL     1      32.144  -6.907 -21.438  0.00  0.00    +0.007 C 
ATOM     19  C   UNL     1      31.266  -6.675 -22.474  0.00  0.00    +0.035 C 
ENDBRANCH   7  16
TORSDOF 2
ENDMDL
MODEL 3
REMARK VINA RESULT:      -7.3     14.809     17.493
REMARK  Name = 5484
REMARK  2 active torsions:
REMARK  status: ('A' for Active; 'I' for Inactive)
REMARK    1  A    between atoms: C_7  and  C_11
REMARK    2  A    between atoms: C_7  and  C_16
REMARK                            x       y       z     vdW  Elec       q    Type
REMARK                         _______ _______ _______ _____ _____    ______ ____
ROOT
ATOM      1  N   UNL     1      31.227  -5.645 -22.401  0.00  0.00    +0.388 N 
ATOM      2  C   UNL     1      32.158  -7.220 -24.701  0.00  0.00    +0.018 C 
ATOM      3  C   UNL     1      32.484  -5.737 -24.529  0.00  0.00    -0.019 C 
ATOM      4  C   UNL     1      31.836  -7.832 -23.364  0.00  0.00    -0.064 C 
ATOM      5  C   UNL     1      31.406  -5.010 -23.715  0.00  0.00    -0.077 C 
ATOM      6  C   UNL     1      30.836  -7.059 -22.541  0.00  0.00    -0.054 C 
ATOM      7  C   UNL     1      32.410  -8.966 -22.934  0.00  0.00    +0.002 C 
ATOM      8  C   UNL     1      30.236  -4.915 -21.610  0.00  0.00    -0.100 C 
ATOM      9  H   UNL     1      32.121  -5.613 -21.911  0.00  0.00    -0.079 HD
ENDROOT
BRANCH   7  11
ATOM     10  S   UNL     1      31.094 -10.886 -21.563  0.00  0.00    -0.086 S 
ATOM     11  C   UNL     1      32.036  -9.476 -21.635  0.00  0.00    +0.029 C 
ATOM     12  C   UNL     1      32.349  -8.956 -20.422  0.00  0.00    +0.007 C 
ATOM     13  C   UNL     1      31.796  -9.743 -19.372  0.00  0.00    +0.007 C 
ATOM     14  C   UNL     1      31.089 -10.823 -19.852  0.00  0.00    +0.035 C 
ENDBRANCH   7  11
BRANCH   7  16
ATOM     15  S   UNL     1      34.846  -8.834 -24.093  0.00  0.00    -0.086 S 
ATOM     16  C   UNL     1      33.372  -9.619 -23.791  0.00  0.00    +0.029 C 
ATOM     17  C   UNL     1      33.247 -10.820 -24.409  0.00  0.00    +0.007 C 
ATOM     18  C   UNL     1      34.410 -11.125 -25.172  0.00  0.00    +0.007 C 
ATOM     19  C   UNL     1      35.359 -10.131 -25.089  0.00  0.00    +0.035 C 
ENDBRANCH   7  16
TORSDOF 2
ENDMDL
MODEL 4
REMARK VINA RESULT:      -7.2     14.880     17.392
REMARK  Name = 5484
REMARK  2 active torsions:
REMARK  status: ('A' for Active; 'I' for Inactive)
REMARK    1  A    between atoms: C_7  and  C_11
REMARK    2  A    between atoms: C_7  and  C_16
REMARK                            x       y       z     vdW  Elec       q    Type
REMARK                         _______ _______ _______ _____ _____    ______ ____
ROOT
ATOM      1  N   UNL     1      32.029  -5.855 -24.531  0.00  0.00    +0.388 N 
ATOM      2  C   UNL     1      31.697  -6.616 -21.711  0.00  0.00    +0.018 C 
ATOM      3  C   UNL     1      30.649  -5.811 -22.479  0.00  0.00    -0.019 C 
ATOM      4  C   UNL     1      32.552  -7.393 -22.675  0.00  0.00    -0.064 C 
ATOM      5  C   UNL     1      31.281  -4.988 -23.608  0.00  0.00    -0.077 C 
ATOM      6  C   UNL     1      33.098  -6.586 -23.827  0.00  0.00    -0.054 C 
ATOM      7  C   UNL     1      32.793  -8.705 -22.529  0.00  0.00    +0.002 C 
ATOM      8  C   UNL     1      32.585  -5.072 -25.634  0.00  0.00    -0.100 C 
ATOM      9  H   UNL     1      31.379  -6.541 -24.915  0.00  0.00    -0.079 HD
ENDROOT
BRANCH   7  11
ATOM     10  S   UNL     1      33.151 -10.890 -24.077  0.00  0.00    -0.086 S 
ATOM     11  C   UNL     1      33.627  -9.364 -23.507  0.00  0.00    +0.029 C 
ATOM     12  C   UNL     1      34.785  -8.907 -24.048  0.00  0.00    +0.007 C 
ATOM     13  C   UNL     1      35.318  -9.845 -24.978  0.00  0.00    +0.007 C 
ATOM     14  C   UNL     1      34.529 -10.968 -25.090  0.00  0.00    +0.035 C 
ENDBRANCH   7  11
BRANCH   7  16
ATOM     15  S   UNL     1      31.100 -10.641 -21.705  0.00  0.00    -0.086 S 
ATOM     16  C   UNL     1      32.206  -9.391 -21.401  0.00  0.00    +0.029 C 
ATOM     17  C   UNL     1      32.431  -9.157 -20.084  0.00  0.00    +0.007 C 
ATOM     18  C   UNL     1      31.664 -10.040 -19.271  0.00  0.00    +0.007 C 
ATOM     19  C   UNL     1      30.895 -10.901 -20.023  0.00  0.00    +0.035 C 
ENDBRANCH   7  16
TORSDOF 2
ENDMDL
MODEL 5
REMARK VINA RESULT:      -7.1     13.279     16.345
REMARK  Name = 5484
REMARK  2 active torsions:
REMARK  status: ('A' for Active; 'I' for Inactive)
REMARK    1  A    between atoms: C_7  and  C_11
REMARK    2  A    between atoms: C_7  and  C_16
REMARK                            x       y       z     vdW  Elec       q    Type
REMARK                         _______ _______ _______ _____ _____    ______ ____
ROOT
ATOM      1  N   UNL     1      32.997 -13.167 -24.095  0.00  0.00    +0.388 N 
ATOM      2  C   UNL     1      34.183 -10.571 -24.798  0.00  0.00    +0.018 C 
ATOM      3  C   UNL     1      33.801 -11.616 -25.846  0.00  0.00    -0.019 C 
ATOM      4  C   UNL     1      33.391 -10.797 -23.538  0.00  0.00    -0.064 C 
ATOM      5  C   UNL     1      33.863 -13.038 -25.277  0.00  0.00    -0.077 C 
ATOM      6  C   UNL     1      33.395 -12.221 -23.038  0.00  0.00    -0.054 C 
ATOM      7  C   UNL     1      32.722  -9.812 -22.920  0.00  0.00    +0.002 C 
ATOM      8  C   UNL     1      33.020 -14.539 -23.590  0.00  0.00    -0.100 C 
ATOM      9  H   UNL     1      32.043 -12.940 -24.377  0.00  0.00    -0.079 HD
ENDROOT
BRANCH   7  11
ATOM     10  S   UNL     1      32.261  -9.177 -20.335  0.00  0.00    -0.086 S 
ATOM     11  C   UNL     1      31.991 -10.128 -21.714  0.00  0.00    +0.029 C 
ATOM     12  C   UNL     1      31.085 -11.121 -21.534  0.00  0.00    +0.007 C 
ATOM     13  C   UNL     1      30.579 -11.114 -20.203  0.00  0.00    +0.007 C 
ATOM     14  C   UNL     1      31.135 -10.109 -19.443  0.00  0.00    +0.035 C 
ENDBRANCH   7  11
BRANCH   7  16
ATOM     15  S   UNL     1      31.301  -7.734 -23.897  0.00  0.00    -0.086 S 
ATOM     16  C   UNL     1      32.766  -8.486 -23.492  0.00  0.00    +0.029 C 
ATOM     17  C   UNL     1      33.866  -7.737 -23.758  0.00  0.00    +0.007 C 
ATOM     18  C   UNL     1      33.504  -6.481 -24.323  0.00  0.00    +0.007 C 
ATOM     19  C   UNL     1      32.139  -6.347 -24.454  0.00  0.00    +0.035 C 
ENDBRANCH   7  16
TORSDOF 2
ENDMDL
MODEL 6
REMARK VINA RESULT:      -7.1      9.047     12.575
REMARK  Name = 5484
REMARK  2 active torsions:
REMARK  status: ('A' for Active; 'I' for Inactive)
REMARK    1  A    between atoms: C_7  and  C_11
REMARK    2  A    between atoms: C_7  and  C_16
REMARK                            x       y       z     vdW  Elec       q    Type
REMARK                         _______ _______ _______ _____ _____    ______ ____
ROOT
ATOM      1  N   UNL     1      34.282 -18.363 -22.653  0.00  0.00    +0.388 N 
ATOM      2  C   UNL     1      34.951 -16.713 -24.992  0.00  0.00    +0.018 C 
ATOM      3  C   UNL     1      34.590 -18.194 -25.101  0.00  0.00    -0.019 C 
ATOM      4  C   UNL     1      34.387 -16.142 -23.719  0.00  0.00    -0.064 C 
ATOM      5  C   UNL     1      34.946 -18.961 -23.822  0.00  0.00    -0.077 C 
ATOM      6  C   UNL     1      34.675 -16.954 -22.481  0.00  0.00    -0.054 C 
ATOM      7  C   UNL     1      33.668 -15.009 -23.694  0.00  0.00    +0.002 C 
ATOM      8  C   UNL     1      34.583 -19.131 -21.445  0.00  0.00    -0.100 C 
ATOM      9  H   UNL     1      33.275 -18.391 -22.814  0.00  0.00    -0.079 HD
ENDROOT
BRANCH   7  11
ATOM     10  S   UNL     1      32.316 -13.072 -22.383  0.00  0.00    -0.086 S 
ATOM     11  C   UNL     1      33.169 -14.539 -22.423  0.00  0.00    +0.029 C 
ATOM     12  C   UNL     1      33.297 -15.139 -21.212  0.00  0.00    +0.007 C 
ATOM     13  C   UNL     1      32.670 -14.367 -20.193  0.00  0.00    +0.007 C 
ATOM     14  C   UNL     1      32.098 -13.218 -20.691  0.00  0.00    +0.035 C 
ENDBRANCH   7  11
BRANCH   7  16
ATOM     15  S   UNL     1      33.995 -12.725 -25.099  0.00  0.00    -0.086 S 
ATOM     16  C   UNL     1      33.431 -14.317 -24.940  0.00  0.00    +0.029 C 
ATOM     17  C   UNL     1      32.793 -14.791 -26.040  0.00  0.00    +0.007 C 
ATOM     18  C   UNL     1      32.757 -13.810 -27.071  0.00  0.00    +0.007 C 
ATOM     19  C   UNL     1      33.375 -12.639 -26.694  0.00  0.00    +0.035 C 
ENDBRANCH   7  16
TORSDOF 2
ENDMDL
MODEL 7
REMARK VINA RESULT:      -7.0      1.173      4.103
REMARK  Name = 5484
REMARK  2 active torsions:
REMARK  status: ('A' for Active; 'I' for Inactive)
REMARK    1  A    between atoms: C_7  and  C_11
REMARK    2  A    between atoms: C_7  and  C_16
REMARK                            x       y       z     vdW  Elec       q    Type
REMARK                         _______ _______ _______ _____ _____    ______ ____
ROOT
ATOM      1  N   UNL     1      31.461 -23.726 -14.209  0.00  0.00    +0.388 N 
ATOM      2  C   UNL     1      32.397 -23.313 -16.965  0.00  0.00    +0.018 C 
ATOM      3  C   UNL     1      31.179 -22.592 -16.389  0.00  0.00    -0.019 C 
ATOM      4  C   UNL     1      33.303 -23.757 -15.848  0.00  0.00    -0.064 C 
ATOM      5  C   UNL     1      30.505 -23.412 -15.282  0.00  0.00    -0.077 C 
ATOM      6  C   UNL     1      32.610 -24.490 -14.726  0.00  0.00    -0.054 C 
ATOM      7  C   UNL     1      34.621 -23.504 -15.845  0.00  0.00    +0.002 C 
ATOM      8  C   UNL     1      30.799 -24.463 -13.132  0.00  0.00    -0.100 C 
ATOM      9  H   UNL     1      31.812 -22.846 -13.833  0.00  0.00    -0.079 HD
ENDROOT
BRANCH   7  11
ATOM     10  S   UNL     1      36.211 -25.459 -14.874  0.00  0.00    -0.086 S 
ATOM     11  C   UNL     1      35.409 -23.972 -14.728  0.00  0.00    +0.029 C 
ATOM     12  C   UNL     1      35.597 -23.355 -13.534  0.00  0.00    +0.007 C 
ATOM     13  C   UNL     1      36.440 -24.130 -12.688  0.00  0.00    +0.007 C 
ATOM     14  C   UNL     1      36.845 -25.300 -13.292  0.00  0.00    +0.035 C 
ENDBRANCH   7  11
BRANCH   7  16
ATOM     15  S   UNL     1      36.702 -22.045 -16.760  0.00  0.00    -0.086 S 
ATOM     16  C   UNL     1      35.184 -22.776 -16.959  0.00  0.00    +0.029 C 
ATOM     17  C   UNL     1      34.637 -22.593 -18.187  0.00  0.00    +0.007 C 
ATOM     18  C   UNL     1      35.496 -21.816 -19.017  0.00  0.00    +0.007 C 
ATOM     19  C   UNL     1      36.654 -21.452 -18.366  0.00  0.00    +0.035 C 
ENDBRANCH   7  16
TORSDOF 2
ENDMDL
MODEL 8
REMARK VINA RESULT:      -6.8     12.545     15.037
REMARK  Name = 5484
REMARK  2 active torsions:
REMARK  status: ('A' for Active; 'I' for Inactive)
REMARK    1  A    between atoms: C_7  and  C_11
REMARK    2  A    between atoms: C_7  and  C_16
REMARK                            x       y       z     vdW  Elec       q    Type
REMARK                         _______ _______ _______ _____ _____    ______ ____
ROOT
ATOM      1  N   UNL     1      34.322  -8.860 -23.643  0.00  0.00    +0.388 N 
ATOM      2  C   UNL     1      34.279 -11.281 -25.310  0.00  0.00    +0.018 C 
ATOM      3  C   UNL     1      35.471 -10.326 -25.271  0.00  0.00    -0.019 C 
ATOM      4  C   UNL     1      33.466 -11.137 -24.051  0.00  0.00    -0.064 C 
ATOM      5  C   UNL     1      35.041  -8.895 -24.926  0.00  0.00    -0.077 C 
ATOM      6  C   UNL     1      33.122  -9.715 -23.682  0.00  0.00    -0.054 C 
ATOM      7  C   UNL     1      33.094 -12.191 -23.309  0.00  0.00    +0.002 C 
ATOM      8  C   UNL     1      33.961  -7.486 -23.296  0.00  0.00    -0.100 C 
ATOM      9  H   UNL     1      34.945  -9.225 -22.923  0.00  0.00    -0.079 HD
ENDROOT
BRANCH   7  11
ATOM     10  S   UNL     1      30.979 -10.909 -22.222  0.00  0.00    -0.086 S 
ATOM     11  C   UNL     1      32.314 -11.951 -22.117  0.00  0.00    +0.029 C 
ATOM     12  C   UNL     1      32.517 -12.469 -20.879  0.00  0.00    +0.007 C 
ATOM     13  C   UNL     1      31.536 -11.995 -19.962  0.00  0.00    +0.007 C 
ATOM     14  C   UNL     1      30.639 -11.139 -20.560  0.00  0.00    +0.035 C 
ENDBRANCH   7  11
BRANCH   7  16
ATOM     15  S   UNL     1      32.819 -14.131 -25.168  0.00  0.00    -0.086 S 
ATOM     16  C   UNL     1      33.493 -13.511 -23.740  0.00  0.00    +0.029 C 
ATOM     17  C   UNL     1      34.367 -14.350 -23.129  0.00  0.00    +0.007 C 
ATOM     18  C   UNL     1      34.500 -15.566 -23.858  0.00  0.00    +0.007 C 
ATOM     19  C   UNL     1      33.714 -15.581 -24.989  0.00  0.00    +0.035 C 
ENDBRANCH   7  16
TORSDOF 2
ENDMDL
MODEL 9
REMARK VINA RESULT:      -6.7     10.150     12.798
REMARK  Name = 5484
REMARK  2 active torsions:
REMARK  status: ('A' for Active; 'I' for Inactive)
REMARK    1  A    between atoms: C_7  and  C_11
REMARK    2  A    between atoms: C_7  and  C_16
REMARK                            x       y       z     vdW  Elec       q    Type
REMARK                         _______ _______ _______ _____ _____    ______ ____
ROOT
ATOM      1  N   UNL     1      35.099 -16.346 -22.504  0.00  0.00    +0.388 N 
ATOM      2  C   UNL     1      32.986 -15.211 -20.804  0.00  0.00    +0.018 C 
ATOM      3  C   UNL     1      34.283 -15.787 -20.237  0.00  0.00    -0.019 C 
ATOM      4  C   UNL     1      33.191 -14.806 -22.239  0.00  0.00    -0.064 C 
ATOM      5  C   UNL     1      34.869 -16.871 -21.149  0.00  0.00    -0.077 C 
ATOM      6  C   UNL     1      33.845 -15.855 -23.104  0.00  0.00    -0.054 C 
ATOM      7  C   UNL     1      32.834 -13.599 -22.705  0.00  0.00    +0.002 C 
ATOM      8  C   UNL     1      35.707 -17.369 -23.354  0.00  0.00    -0.100 C 
ATOM      9  H   UNL     1      35.743 -15.558 -22.431  0.00  0.00    -0.079 HD
ENDROOT
BRANCH   7  11
ATOM     10  S   UNL     1      33.953 -11.906 -24.488  0.00  0.00    -0.086 S 
ATOM     11  C   UNL     1      33.071 -13.302 -24.099  0.00  0.00    +0.029 C 
ATOM     12  C   UNL     1      32.665 -14.020 -25.176  0.00  0.00    +0.007 C 
ATOM     13  C   UNL     1      33.092 -13.405 -26.388  0.00  0.00    +0.007 C 
ATOM     14  C   UNL     1      33.802 -12.247 -26.159  0.00  0.00    +0.035 C 
ENDBRANCH   7  11
BRANCH   7  16
ATOM     15  S   UNL     1      31.446 -11.299 -22.430  0.00  0.00    -0.086 S 
ATOM     16  C   UNL     1      32.232 -12.658 -21.788  0.00  0.00    +0.029 C 
ATOM     17  C   UNL     1      32.214 -12.722 -20.433  0.00  0.00    +0.007 C 
ATOM     18  C   UNL     1      31.523 -11.606 -19.880  0.00  0.00    +0.007 C 
ATOM     19  C   UNL     1      31.053 -10.753 -20.854  0.00  0.00    +0.035 C 
ENDBRANCH   7  16
TORSDOF 2
ENDMDL
