MODEL 1
REMARK VINA RESULT:      -7.4      0.000      0.000
REMARK  Name = 6235
REMARK  3 active torsions:
REMARK  status: ('A' for Active; 'I' for Inactive)
REMARK    1  A    between atoms: C_3  and  N_9
REMARK    2  A    between atoms: C_4  and  N_12
REMARK    3  A    between atoms: C_5  and  N_15
REMARK                            x       y       z     vdW  Elec       q    Type
REMARK                         _______ _______ _______ _____ _____    ______ ____
ROOT
ATOM      1  O   UNL     1      34.998 -16.374 -21.606  0.00  0.00    -0.284 OA
ATOM      2  O   UNL     1      33.455 -15.475 -26.615  0.00  0.00    -0.285 OA
ATOM      3  C   UNL     1      33.976 -14.871 -23.129  0.00  0.00    +0.105 C 
ATOM      4  C   UNL     1      33.582 -14.634 -24.393  0.00  0.00    +0.104 C 
ATOM      5  C   UNL     1      34.843 -17.187 -23.820  0.00  0.00    +0.092 C 
ATOM      6  C   UNL     1      34.635 -16.162 -22.761  0.00  0.00    +0.223 C 
ATOM      7  C   UNL     1      33.798 -15.660 -25.450  0.00  0.00    +0.212 C 
ATOM      8  C   UNL     1      34.443 -16.927 -25.068  0.00  0.00    +0.061 C 
ENDROOT
BRANCH   3   9
ATOM      9  N   UNL     1      33.822 -13.993 -22.090  0.00  0.00    -0.301 N 
ATOM     10  C   UNL     1      33.208 -14.501 -20.868  0.00  0.00    +0.112 C 
ATOM     11  C   UNL     1      32.462 -13.572 -21.765  0.00  0.00    +0.112 C 
ENDBRANCH   3   9
BRANCH   4  12
ATOM     12  N   UNL     1      32.973 -13.486 -24.822  0.00  0.00    -0.301 N 
ATOM     13  C   UNL     1      33.464 -12.887 -26.059  0.00  0.00    +0.112 C 
ATOM     14  C   UNL     1      33.741 -12.247 -24.740  0.00  0.00    +0.112 C 
ENDBRANCH   4  12
BRANCH   5  15
ATOM     15  N   UNL     1      35.445 -18.347 -23.428  0.00  0.00    -0.301 N 
ATOM     16  C   UNL     1      35.036 -19.579 -24.100  0.00  0.00    +0.112 C 
ATOM     17  C   UNL     1      34.633 -19.312 -22.688  0.00  0.00    +0.112 C 
ENDBRANCH   5  15
TORSDOF 3
ENDMDL
MODEL 2
REMARK VINA RESULT:      -7.1      0.926      1.051
REMARK  Name = 6235
REMARK  3 active torsions:
REMARK  status: ('A' for Active; 'I' for Inactive)
REMARK    1  A    between atoms: C_3  and  N_9
REMARK    2  A    between atoms: C_4  and  N_12
REMARK    3  A    between atoms: C_5  and  N_15
REMARK                            x       y       z     vdW  Elec       q    Type
REMARK                         _______ _______ _______ _____ _____    ______ ____
ROOT
ATOM      1  O   UNL     1      34.676 -15.262 -21.117  0.00  0.00    -0.284 OA
ATOM      2  O   UNL     1      33.687 -16.208 -26.256  0.00  0.00    -0.285 OA
ATOM      3  C   UNL     1      33.729 -14.458 -23.138  0.00  0.00    +0.105 C 
ATOM      4  C   UNL     1      33.474 -14.688 -24.438  0.00  0.00    +0.104 C 
ATOM      5  C   UNL     1      34.858 -16.755 -22.939  0.00  0.00    +0.092 C 
ATOM      6  C   UNL     1      34.440 -15.476 -22.304  0.00  0.00    +0.223 C 
ATOM      7  C   UNL     1      33.899 -15.967 -25.070  0.00  0.00    +0.212 C 
ATOM      8  C   UNL     1      34.594 -16.959 -24.233  0.00  0.00    +0.061 C 
ENDROOT
BRANCH   3   9
ATOM      9  N   UNL     1      33.379 -13.317 -22.467  0.00  0.00    -0.301 N 
ATOM     10  C   UNL     1      32.555 -13.466 -21.273  0.00  0.00    +0.112 C 
ATOM     11  C   UNL     1      31.979 -12.906 -22.530  0.00  0.00    +0.112 C 
ENDBRANCH   3   9
BRANCH   4  12
ATOM     12  N   UNL     1      32.831 -13.818 -25.276  0.00  0.00    -0.301 N 
ATOM     13  C   UNL     1      33.276 -13.770 -26.665  0.00  0.00    +0.112 C 
ATOM     14  C   UNL     1      33.576 -12.647 -25.729  0.00  0.00    +0.112 C 
ENDBRANCH   4  12
BRANCH   5  15
ATOM     15  N   UNL     1      35.499 -17.650 -22.133  0.00  0.00    -0.301 N 
ATOM     16  C   UNL     1      35.521 -19.048 -22.559  0.00  0.00    +0.112 C 
ATOM     17  C   UNL     1      34.676 -18.616 -21.407  0.00  0.00    +0.112 C 
ENDBRANCH   5  15
TORSDOF 3
ENDMDL
MODEL 3
REMARK VINA RESULT:      -7.0      6.981     10.370
REMARK  Name = 6235
REMARK  3 active torsions:
REMARK  status: ('A' for Active; 'I' for Inactive)
REMARK    1  A    between atoms: C_3  and  N_9
REMARK    2  A    between atoms: C_4  and  N_12
REMARK    3  A    between atoms: C_5  and  N_15
REMARK                            x       y       z     vdW  Elec       q    Type
REMARK                         _______ _______ _______ _____ _____    ______ ____
ROOT
ATOM      1  O   UNL     1      33.152 -22.568 -19.260  0.00  0.00    -0.284 OA
ATOM      2  O   UNL     1      37.562 -21.981 -16.344  0.00  0.00    -0.285 OA
ATOM      3  C   UNL     1      34.244 -23.006 -17.199  0.00  0.00    +0.105 C 
ATOM      4  C   UNL     1      35.355 -22.862 -16.454  0.00  0.00    +0.104 C 
ATOM      5  C   UNL     1      35.343 -21.692 -19.113  0.00  0.00    +0.092 C 
ATOM      6  C   UNL     1      34.167 -22.432 -18.578  0.00  0.00    +0.223 C 
ATOM      7  C   UNL     1      36.530 -22.126 -16.996  0.00  0.00    +0.212 C 
ATOM      8  C   UNL     1      36.434 -21.564 -18.353  0.00  0.00    +0.061 C 
ENDROOT
BRANCH   3   9
ATOM      9  N   UNL     1      33.115 -23.663 -16.792  0.00  0.00    -0.301 N 
ATOM     10  C   UNL     1      31.857 -22.926 -16.834  0.00  0.00    +0.112 C 
ATOM     11  C   UNL     1      32.511 -23.240 -15.531  0.00  0.00    +0.112 C 
ENDBRANCH   3   9
BRANCH   4  12
ATOM     12  N   UNL     1      35.516 -23.351 -15.187  0.00  0.00    -0.301 N 
ATOM     13  C   UNL     1      36.796 -23.974 -14.865  0.00  0.00    +0.112 C 
ATOM     14  C   UNL     1      35.565 -24.802 -15.027  0.00  0.00    +0.112 C 
ENDBRANCH   4  12
BRANCH   5  15
ATOM     15  N   UNL     1      35.217 -21.186 -20.374  0.00  0.00    -0.301 N 
ATOM     16  C   UNL     1      35.949 -19.960 -20.685  0.00  0.00    +0.112 C 
ATOM     17  C   UNL     1      34.464 -19.943 -20.530  0.00  0.00    +0.112 C 
ENDBRANCH   5  15
TORSDOF 3
ENDMDL
MODEL 4
REMARK VINA RESULT:      -6.8     10.122     12.515
REMARK  Name = 6235
REMARK  3 active torsions:
REMARK  status: ('A' for Active; 'I' for Inactive)
REMARK    1  A    between atoms: C_3  and  N_9
REMARK    2  A    between atoms: C_4  and  N_12
REMARK    3  A    between atoms: C_5  and  N_15
REMARK                            x       y       z     vdW  Elec       q    Type
REMARK                         _______ _______ _______ _____ _____    ______ ____
ROOT
ATOM      1  O   UNL     1      34.205 -24.228 -12.384  0.00  0.00    -0.284 OA
ATOM      2  O   UNL     1      34.314 -22.980 -17.553  0.00  0.00    -0.285 OA
ATOM      3  C   UNL     1      35.537 -23.649 -14.260  0.00  0.00    +0.105 C 
ATOM      4  C   UNL     1      35.575 -23.332 -15.566  0.00  0.00    +0.104 C 
ATOM      5  C   UNL     1      32.980 -23.857 -14.371  0.00  0.00    +0.092 C 
ATOM      6  C   UNL     1      34.237 -23.935 -13.578  0.00  0.00    +0.223 C 
ATOM      7  C   UNL     1      34.315 -23.261 -16.357  0.00  0.00    +0.212 C 
ATOM      8  C   UNL     1      33.045 -23.541 -15.668  0.00  0.00    +0.061 C 
ENDROOT
BRANCH   3   9
ATOM      9  N   UNL     1      36.637 -23.739 -13.450  0.00  0.00    -0.301 N 
ATOM     10  C   UNL     1      37.702 -24.647 -13.863  0.00  0.00    +0.112 C 
ATOM     11  C   UNL     1      36.822 -24.981 -12.706  0.00  0.00    +0.112 C 
ENDBRANCH   3   9
BRANCH   4  12
ATOM     12  N   UNL     1      36.714 -23.056 -16.273  0.00  0.00    -0.301 N 
ATOM     13  C   UNL     1      37.361 -21.771 -16.028  0.00  0.00    +0.112 C 
ATOM     14  C   UNL     1      36.631 -22.026 -17.304  0.00  0.00    +0.112 C 
ENDBRANCH   4  12
BRANCH   5  15
ATOM     15  N   UNL     1      31.823 -24.123 -13.698  0.00  0.00    -0.301 N 
ATOM     16  C   UNL     1      30.877 -25.047 -14.321  0.00  0.00    +0.112 C 
ATOM     17  C   UNL     1      30.582 -23.586 -14.252  0.00  0.00    +0.112 C 
ENDBRANCH   5  15
TORSDOF 3
ENDMDL
MODEL 5
REMARK VINA RESULT:      -6.8     10.287     12.890
REMARK  Name = 6235
REMARK  3 active torsions:
REMARK  status: ('A' for Active; 'I' for Inactive)
REMARK    1  A    between atoms: C_3  and  N_9
REMARK    2  A    between atoms: C_4  and  N_12
REMARK    3  A    between atoms: C_5  and  N_15
REMARK                            x       y       z     vdW  Elec       q    Type
REMARK                         _______ _______ _______ _____ _____    ______ ____
ROOT
ATOM      1  O   UNL     1      34.224 -23.125 -17.211  0.00  0.00    -0.284 OA
ATOM      2  O   UNL     1      34.586 -24.228 -12.021  0.00  0.00    -0.285 OA
ATOM      3  C   UNL     1      35.650 -23.434 -15.341  0.00  0.00    +0.105 C 
ATOM      4  C   UNL     1      35.752 -23.712 -14.029  0.00  0.00    +0.104 C 
ATOM      5  C   UNL     1      33.096 -23.653 -15.202  0.00  0.00    +0.092 C 
ATOM      6  C   UNL     1      34.315 -23.384 -16.012  0.00  0.00    +0.223 C 
ATOM      7  C   UNL     1      34.529 -23.975 -13.222  0.00  0.00    +0.212 C 
ATOM      8  C   UNL     1      33.224 -23.926 -13.900  0.00  0.00    +0.061 C 
ENDROOT
BRANCH   3   9
ATOM      9  N   UNL     1      36.713 -23.179 -16.165  0.00  0.00    -0.301 N 
ATOM     10  C   UNL     1      37.455 -21.943 -15.941  0.00  0.00    +0.112 C 
ATOM     11  C   UNL     1      36.567 -22.092 -17.130  0.00  0.00    +0.112 C 
ENDBRANCH   3   9
BRANCH   4  12
ATOM     12  N   UNL     1      36.927 -23.780 -13.331  0.00  0.00    -0.301 N 
ATOM     13  C   UNL     1      37.896 -24.791 -13.743  0.00  0.00    +0.112 C 
ATOM     14  C   UNL     1      37.132 -24.941 -12.470  0.00  0.00    +0.112 C 
ENDBRANCH   4  12
BRANCH   5  15
ATOM     15  N   UNL     1      31.905 -23.598 -15.865  0.00  0.00    -0.301 N 
ATOM     16  C   UNL     1      30.809 -22.871 -15.227  0.00  0.00    +0.112 C 
ATOM     17  C   UNL     1      30.788 -24.361 -15.311  0.00  0.00    +0.112 C 
ENDBRANCH   5  15
TORSDOF 3
ENDMDL
MODEL 6
REMARK VINA RESULT:      -6.8      0.986      3.339
REMARK  Name = 6235
REMARK  3 active torsions:
REMARK  status: ('A' for Active; 'I' for Inactive)
REMARK    1  A    between atoms: C_3  and  N_9
REMARK    2  A    between atoms: C_4  and  N_12
REMARK    3  A    between atoms: C_5  and  N_15
REMARK                            x       y       z     vdW  Elec       q    Type
REMARK                         _______ _______ _______ _____ _____    ______ ____
ROOT
ATOM      1  O   UNL     1      33.737 -16.006 -26.220  0.00  0.00    -0.284 OA
ATOM      2  O   UNL     1      34.578 -14.872 -21.093  0.00  0.00    -0.285 OA
ATOM      3  C   UNL     1      33.461 -14.437 -24.462  0.00  0.00    +0.105 C 
ATOM      4  C   UNL     1      33.669 -14.141 -23.166  0.00  0.00    +0.104 C 
ATOM      5  C   UNL     1      34.642 -16.696 -24.149  0.00  0.00    +0.092 C 
ATOM      6  C   UNL     1      33.932 -15.735 -25.037  0.00  0.00    +0.223 C 
ATOM      7  C   UNL     1      34.375 -15.108 -22.281  0.00  0.00    +0.212 C 
ATOM      8  C   UNL     1      34.836 -16.378 -22.866  0.00  0.00    +0.061 C 
ENDROOT
BRANCH   3   9
ATOM      9  N   UNL     1      32.824 -13.616 -25.353  0.00  0.00    -0.301 N 
ATOM     10  C   UNL     1      33.273 -13.657 -26.741  0.00  0.00    +0.112 C 
ATOM     11  C   UNL     1      33.579 -12.481 -25.876  0.00  0.00    +0.112 C 
ENDBRANCH   3   9
BRANCH   4  12
ATOM     12  N   UNL     1      33.276 -12.983 -22.555  0.00  0.00    -0.301 N 
ATOM     13  C   UNL     1      32.401 -13.100 -21.392  0.00  0.00    +0.112 C 
ATOM     14  C   UNL     1      31.876 -12.592 -22.693  0.00  0.00    +0.112 C 
ENDBRANCH   4  12
BRANCH   5  15
ATOM     15  N   UNL     1      35.053 -17.862 -24.726  0.00  0.00    -0.301 N 
ATOM     16  C   UNL     1      34.093 -18.963 -24.782  0.00  0.00    +0.112 C 
ATOM     17  C   UNL     1      35.257 -19.014 -23.849  0.00  0.00    +0.112 C 
ENDBRANCH   5  15
TORSDOF 3
ENDMDL
MODEL 7
REMARK VINA RESULT:      -6.7      1.598      4.351
REMARK  Name = 6235
REMARK  3 active torsions:
REMARK  status: ('A' for Active; 'I' for Inactive)
REMARK    1  A    between atoms: C_3  and  N_9
REMARK    2  A    between atoms: C_4  and  N_12
REMARK    3  A    between atoms: C_5  and  N_15
REMARK                            x       y       z     vdW  Elec       q    Type
REMARK                         _______ _______ _______ _____ _____    ______ ____
ROOT
ATOM      1  O   UNL     1      32.917 -13.251 -23.250  0.00  0.00    -0.284 OA
ATOM      2  O   UNL     1      34.485 -17.807 -25.501  0.00  0.00    -0.285 OA
ATOM      3  C   UNL     1      33.741 -15.451 -22.917  0.00  0.00    +0.105 C 
ATOM      4  C   UNL     1      34.139 -16.607 -23.477  0.00  0.00    +0.104 C 
ATOM      5  C   UNL     1      33.286 -14.465 -25.244  0.00  0.00    +0.092 C 
ATOM      6  C   UNL     1      33.285 -14.306 -23.764  0.00  0.00    +0.223 C 
ATOM      7  C   UNL     1      34.132 -16.763 -24.957  0.00  0.00    +0.212 C 
ATOM      8  C   UNL     1      33.686 -15.624 -25.776  0.00  0.00    +0.061 C 
ENDROOT
BRANCH   3   9
ATOM      9  N   UNL     1      33.711 -15.210 -21.569  0.00  0.00    -0.301 N 
ATOM     10  C   UNL     1      32.600 -15.774 -20.811  0.00  0.00    +0.112 C 
ATOM     11  C   UNL     1      32.676 -14.308 -21.073  0.00  0.00    +0.112 C 
ENDBRANCH   3   9
BRANCH   4  12
ATOM     12  N   UNL     1      34.570 -17.705 -22.784  0.00  0.00    -0.301 N 
ATOM     13  C   UNL     1      35.606 -17.500 -21.776  0.00  0.00    +0.112 C 
ATOM     14  C   UNL     1      35.920 -18.188 -23.063  0.00  0.00    +0.112 C 
ENDBRANCH   4  12
BRANCH   5  15
ATOM     15  N   UNL     1      32.865 -13.388 -25.969  0.00  0.00    -0.301 N 
ATOM     16  C   UNL     1      33.386 -13.243 -27.327  0.00  0.00    +0.112 C 
ATOM     17  C   UNL     1      33.840 -12.332 -26.236  0.00  0.00    +0.112 C 
ENDBRANCH   5  15
TORSDOF 3
ENDMDL
MODEL 8
REMARK VINA RESULT:      -6.6      1.600      5.463
REMARK  Name = 6235
REMARK  3 active torsions:
REMARK  status: ('A' for Active; 'I' for Inactive)
REMARK    1  A    between atoms: C_3  and  N_9
REMARK    2  A    between atoms: C_4  and  N_12
REMARK    3  A    between atoms: C_5  and  N_15
REMARK                            x       y       z     vdW  Elec       q    Type
REMARK                         _______ _______ _______ _____ _____    ______ ____
ROOT
ATOM      1  O   UNL     1      33.098 -14.681 -24.921  0.00  0.00    -0.284 OA
ATOM      2  O   UNL     1      34.923 -16.084 -20.127  0.00  0.00    -0.285 OA
ATOM      3  C   UNL     1      34.501 -16.135 -23.678  0.00  0.00    +0.105 C 
ATOM      4  C   UNL     1      34.968 -16.497 -22.470  0.00  0.00    +0.104 C 
ATOM      5  C   UNL     1      33.064 -14.307 -22.588  0.00  0.00    +0.092 C 
ATOM      6  C   UNL     1      33.520 -15.014 -23.816  0.00  0.00    +0.223 C 
ATOM      7  C   UNL     1      34.513 -15.783 -21.245  0.00  0.00    +0.212 C 
ATOM      8  C   UNL     1      33.544 -14.685 -21.400  0.00  0.00    +0.061 C 
ENDROOT
BRANCH   3   9
ATOM      9  N   UNL     1      34.858 -16.728 -24.859  0.00  0.00    -0.301 N 
ATOM     10  C   UNL     1      33.808 -16.933 -25.851  0.00  0.00    +0.112 C 
ATOM     11  C   UNL     1      34.379 -18.087 -25.097  0.00  0.00    +0.112 C 
ENDBRANCH   3   9
BRANCH   4  12
ATOM     12  N   UNL     1      35.865 -17.506 -22.247  0.00  0.00    -0.301 N 
ATOM     13  C   UNL     1      35.363 -18.875 -22.308  0.00  0.00    +0.112 C 
ATOM     14  C   UNL     1      35.735 -18.257 -21.002  0.00  0.00    +0.112 C 
ENDBRANCH   4  12
BRANCH   5  15
ATOM     15  N   UNL     1      32.166 -13.296 -22.771  0.00  0.00    -0.301 N 
ATOM     16  C   UNL     1      32.680 -11.927 -22.769  0.00  0.00    +0.112 C 
ATOM     17  C   UNL     1      31.871 -12.439 -21.624  0.00  0.00    +0.112 C 
ENDBRANCH   5  15
TORSDOF 3
ENDMDL
MODEL 9
REMARK VINA RESULT:      -6.6      4.210      5.790
REMARK  Name = 6235
REMARK  3 active torsions:
REMARK  status: ('A' for Active; 'I' for Inactive)
REMARK    1  A    between atoms: C_3  and  N_9
REMARK    2  A    between atoms: C_4  and  N_12
REMARK    3  A    between atoms: C_5  and  N_15
REMARK                            x       y       z     vdW  Elec       q    Type
REMARK                         _______ _______ _______ _____ _____    ______ ____
ROOT
ATOM      1  O   UNL     1      31.365 -11.586 -21.832  0.00  0.00    -0.284 OA
ATOM      2  O   UNL     1      35.206  -9.422 -24.808  0.00  0.00    -0.285 OA
ATOM      3  C   UNL     1      32.571  -9.623 -22.398  0.00  0.00    +0.105 C 
ATOM      4  C   UNL     1      33.540  -9.066 -23.146  0.00  0.00    +0.104 C 
ATOM      5  C   UNL     1      33.018 -11.902 -23.492  0.00  0.00    +0.092 C 
ATOM      6  C   UNL     1      32.249 -11.078 -22.520  0.00  0.00    +0.223 C 
ATOM      7  C   UNL     1      34.311  -9.897 -24.113  0.00  0.00    +0.212 C 
ATOM      8  C   UNL     1      33.976 -11.326 -24.223  0.00  0.00    +0.061 C 
ENDROOT
BRANCH   3   9
ATOM      9  N   UNL     1      31.809  -8.945 -21.484  0.00  0.00    -0.301 N 
ATOM     10  C   UNL     1      32.512  -8.164 -20.472  0.00  0.00    +0.112 C 
ATOM     11  C   UNL     1      31.819  -9.435 -20.109  0.00  0.00    +0.112 C 
ENDBRANCH   3   9
BRANCH   4  12
ATOM     12  N   UNL     1      33.904  -7.748 -23.102  0.00  0.00    -0.301 N 
ATOM     13  C   UNL     1      33.006  -6.782 -23.727  0.00  0.00    +0.112 C 
ATOM     14  C   UNL     1      34.316  -7.123 -24.356  0.00  0.00    +0.112 C 
ENDBRANCH   4  12
BRANCH   5  15
ATOM     15  N   UNL     1      32.679 -13.222 -23.566  0.00  0.00    -0.301 N 
ATOM     16  C   UNL     1      33.759 -14.203 -23.469  0.00  0.00    +0.112 C 
ATOM     17  C   UNL     1      33.071 -13.953 -24.770  0.00  0.00    +0.112 C 
ENDBRANCH   5  15
TORSDOF 3
ENDMDL
