MODEL 1
REMARK VINA RESULT:      -9.6      0.000      0.000
REMARK  Name = 4369143
REMARK  5 active torsions:
REMARK  status: ('A' for Active; 'I' for Inactive)
REMARK    1  A    between atoms: C_7  and  C_18
REMARK    2  A    between atoms: CA_8  and  C_26
REMARK    3  A    between atoms: C_18  and  C_19
REMARK    4  A    between atoms: C_19  and  C_20
REMARK    5  A    between atoms: C_26  and  O_27
REMARK                            x       y       z     vdW  Elec       q    Type
REMARK                         _______ _______ _______ _____ _____    ______ ____
ROOT
ATOM      1  O   UNL     1      34.611 -18.242 -25.444  0.00  0.00    -0.207 OA
ATOM      2  N   UNL     1      34.050 -14.386 -22.808  0.00  0.00    -0.274 NA
ATOM      3  N   UNL     1      33.753 -15.654 -25.264  0.00  0.00    -0.395 NA
ATOM      4  N   UNL     1      35.032 -16.416 -21.946  0.00  0.00    -0.279 N 
ATOM      5  N   UNL     1      35.316 -18.349 -23.263  0.00  0.00    -0.301 NA
ATOM      6  N   UNL     1      35.982 -18.287 -21.008  0.00  0.00    -0.320 N 
ATOM      7  C   UNL     1      33.439 -13.587 -23.857  0.00  0.00    +0.089 C 
ATOM      8  CA  UNL     1      33.350 -14.423 -25.148  0.00  0.00    +0.129 C 
ATOM      9  C   UNL     1      32.040 -13.183 -23.386  0.00  0.00    +0.023 C 
ATOM     10  C   UNL     1      34.464 -15.688 -22.966  0.00  0.00    +0.197 C 
ATOM     11  C   UNL     1      34.303 -16.271 -24.170  0.00  0.00    +0.235 C 
ATOM     12  C   UNL     1      34.754 -17.700 -24.350  0.00  0.00    +0.236 C 
ATOM     13  C   UNL     1      35.437 -17.715 -22.128  0.00  0.00    +0.245 C 
ATOM     14  H   UNL     1      34.176 -13.968 -21.927  0.00  0.00    +0.125 HD
ATOM     15  H   UNL     1      35.151 -15.995 -21.065  0.00  0.00    +0.152 HD
ATOM     16  H   UNL     1      36.053 -17.768 -20.174  0.00  0.00    +0.146 HD
ATOM     17  H   UNL     1      36.303 -19.217 -21.038  0.00  0.00    +0.146 HD
ENDROOT
BRANCH   7  18
ATOM     18  C   UNL     1      34.315 -12.352 -24.080  0.00  0.00    +0.026 C 
BRANCH  18  19
ATOM     19  C   UNL     1      33.525 -11.229 -24.748  0.00  0.00    +0.028 C 
BRANCH  19  20
ATOM     20  C   UNL     1      33.656  -9.932 -24.006  0.00  0.00    -0.022 C 
ATOM     21  C   UNL     1      32.678  -9.562 -23.088  0.00  0.00    -0.004 C 
ATOM     22  C   UNL     1      34.753  -9.111 -24.242  0.00  0.00    -0.004 C 
ATOM     23  C   UNL     1      32.800  -8.357 -22.398  0.00  0.00    -0.000 C 
ATOM     24  C   UNL     1      34.875  -7.905 -23.551  0.00  0.00    -0.000 C 
ATOM     25  C   UNL     1      33.897  -7.528 -22.629  0.00  0.00    -0.000 C 
ENDBRANCH  19  20
ENDBRANCH  18  19
ENDBRANCH   7  18
BRANCH   8  26
ATOM     26  C   UNL     1      32.753 -13.786 -26.385  0.00  0.00    +0.193 C 
BRANCH  26  27
ATOM     27  O   UNL     1      33.705 -13.811 -27.425  0.00  0.00    -0.375 OA
ATOM     28  H   UNL     1      34.594 -13.695 -27.054  0.00  0.00    +0.211 HD
ENDBRANCH  26  27
ENDBRANCH   8  26
TORSDOF 5
ENDMDL
MODEL 2
REMARK VINA RESULT:      -9.6      3.903      6.413
REMARK  Name = 4369143
REMARK  5 active torsions:
REMARK  status: ('A' for Active; 'I' for Inactive)
REMARK    1  A    between atoms: C_7  and  C_18
REMARK    2  A    between atoms: CA_8  and  C_26
REMARK    3  A    between atoms: C_18  and  C_19
REMARK    4  A    between atoms: C_19  and  C_20
REMARK    5  A    between atoms: C_26  and  O_27
REMARK                            x       y       z     vdW  Elec       q    Type
REMARK                         _______ _______ _______ _____ _____    ______ ____
ROOT
ATOM      1  O   UNL     1      36.880 -21.905 -18.553  0.00  0.00    -0.207 OA
ATOM      2  N   UNL     1      33.570 -19.677 -21.045  0.00  0.00    -0.274 NA
ATOM      3  N   UNL     1      36.259 -20.021 -20.433  0.00  0.00    -0.395 NA
ATOM      4  N   UNL     1      33.044 -21.398 -19.436  0.00  0.00    -0.279 N 
ATOM      5  N   UNL     1      34.699 -22.516 -18.184  0.00  0.00    -0.301 NA
ATOM      6  N   UNL     1      32.415 -23.020 -17.932  0.00  0.00    -0.320 N 
ATOM      7  C   UNL     1      34.493 -18.830 -21.780  0.00  0.00    +0.089 C 
ATOM      8  CA  UNL     1      35.934 -19.135 -21.327  0.00  0.00    +0.129 C 
ATOM      9  C   UNL     1      34.328 -19.135 -23.271  0.00  0.00    +0.023 C 
ATOM     10  C   UNL     1      33.949 -20.608 -20.106  0.00  0.00    +0.197 C 
ATOM     11  C   UNL     1      35.261 -20.748 -19.836  0.00  0.00    +0.235 C 
ATOM     12  C   UNL     1      35.685 -21.768 -18.807  0.00  0.00    +0.236 C 
ATOM     13  C   UNL     1      33.447 -22.321 -18.502  0.00  0.00    +0.245 C 
ATOM     14  H   UNL     1      32.608 -19.579 -21.232  0.00  0.00    +0.125 HD
ATOM     15  H   UNL     1      32.085 -21.300 -19.630  0.00  0.00    +0.152 HD
ATOM     16  H   UNL     1      31.486 -22.837 -18.204  0.00  0.00    +0.146 HD
ATOM     17  H   UNL     1      32.603 -23.704 -17.250  0.00  0.00    +0.146 HD
ENDROOT
BRANCH   7  18
ATOM     18  C   UNL     1      34.136 -17.372 -21.480  0.00  0.00    +0.026 C 
BRANCH  18  19
ATOM     19  C   UNL     1      34.349 -16.489 -22.707  0.00  0.00    +0.028 C 
BRANCH  19  20
ATOM     20  C   UNL     1      33.632 -15.177 -22.585  0.00  0.00    -0.022 C 
ATOM     21  C   UNL     1      33.683 -14.264 -23.634  0.00  0.00    -0.004 C 
ATOM     22  C   UNL     1      32.923 -14.884 -21.425  0.00  0.00    -0.004 C 
ATOM     23  C   UNL     1      33.016 -13.044 -23.521  0.00  0.00    -0.000 C 
ATOM     24  C   UNL     1      32.256 -13.664 -21.312  0.00  0.00    -0.000 C 
ATOM     25  C   UNL     1      32.303 -12.744 -22.360  0.00  0.00    -0.000 C 
ENDBRANCH  19  20
ENDBRANCH  18  19
ENDBRANCH   7  18
BRANCH   8  26
ATOM     26  C   UNL     1      37.072 -18.356 -21.954  0.00  0.00    +0.193 C 
BRANCH  26  27
ATOM     27  O   UNL     1      38.296 -18.964 -21.607  0.00  0.00    -0.375 OA
ATOM     28  H   UNL     1      38.398 -19.793 -22.099  0.00  0.00    +0.211 HD
ENDBRANCH  26  27
ENDBRANCH   8  26
TORSDOF 5
ENDMDL
MODEL 3
REMARK VINA RESULT:      -9.5      3.105      8.171
REMARK  Name = 4369143
REMARK  5 active torsions:
REMARK  status: ('A' for Active; 'I' for Inactive)
REMARK    1  A    between atoms: C_7  and  C_18
REMARK    2  A    between atoms: CA_8  and  C_26
REMARK    3  A    between atoms: C_18  and  C_19
REMARK    4  A    between atoms: C_19  and  C_20
REMARK    5  A    between atoms: C_26  and  O_27
REMARK                            x       y       z     vdW  Elec       q    Type
REMARK                         _______ _______ _______ _____ _____    ______ ____
ROOT
ATOM      1  O   UNL     1      32.576 -13.377 -24.543  0.00  0.00    -0.207 OA
ATOM      2  N   UNL     1      34.021 -16.318 -21.168  0.00  0.00    -0.274 NA
ATOM      3  N   UNL     1      33.803 -15.725 -23.875  0.00  0.00    -0.395 NA
ATOM      4  N   UNL     1      32.891 -14.240 -20.683  0.00  0.00    -0.279 N 
ATOM      5  N   UNL     1      32.164 -12.764 -22.370  0.00  0.00    -0.301 NA
ATOM      6  N   UNL     1      31.825 -12.291 -20.091  0.00  0.00    -0.320 N 
ATOM      7  C   UNL     1      34.590 -17.302 -22.073  0.00  0.00    +0.089 C 
ATOM      8  CA  UNL     1      34.386 -16.834 -23.527  0.00  0.00    +0.129 C 
ATOM      9  C   UNL     1      36.083 -17.424 -21.757  0.00  0.00    +0.023 C 
ATOM     10  C   UNL     1      33.412 -15.152 -21.571  0.00  0.00    +0.197 C 
ATOM     11  C   UNL     1      33.326 -14.897 -22.891  0.00  0.00    +0.235 C 
ATOM     12  C   UNL     1      32.660 -13.620 -23.341  0.00  0.00    +0.236 C 
ATOM     13  C   UNL     1      32.288 -13.083 -21.109  0.00  0.00    +0.245 C 
ATOM     14  H   UNL     1      34.074 -16.497 -20.202  0.00  0.00    +0.125 HD
ATOM     15  H   UNL     1      32.952 -14.422 -19.717  0.00  0.00    +0.152 HD
ATOM     16  H   UNL     1      31.940 -12.574 -19.155  0.00  0.00    +0.146 HD
ATOM     17  H   UNL     1      31.376 -11.439 -20.296  0.00  0.00    +0.146 HD
ENDROOT
BRANCH   7  18
ATOM     18  C   UNL     1      33.872 -18.632 -21.835  0.00  0.00    +0.026 C 
BRANCH  18  19
ATOM     19  C   UNL     1      34.866 -19.790 -21.768  0.00  0.00    +0.028 C 
BRANCH  19  20
ATOM     20  C   UNL     1      34.629 -20.664 -20.572  0.00  0.00    -0.022 C 
ATOM     21  C   UNL     1      35.712 -21.240 -19.915  0.00  0.00    -0.004 C 
ATOM     22  C   UNL     1      33.330 -20.892 -20.131  0.00  0.00    -0.004 C 
ATOM     23  C   UNL     1      35.493 -22.052 -18.803  0.00  0.00    -0.000 C 
ATOM     24  C   UNL     1      33.111 -21.704 -19.019  0.00  0.00    -0.000 C 
ATOM     25  C   UNL     1      34.192 -22.284 -18.354  0.00  0.00    -0.000 C 
ENDBRANCH  19  20
ENDBRANCH  18  19
ENDBRANCH   7  18
BRANCH   8  26
ATOM     26  C   UNL     1      34.894 -17.714 -24.650  0.00  0.00    +0.193 C 
BRANCH  26  27
ATOM     27  O   UNL     1      34.871 -16.985 -25.857  0.00  0.00    -0.375 OA
ATOM     28  H   UNL     1      34.172 -17.331 -26.432  0.00  0.00    +0.211 HD
ENDBRANCH  26  27
ENDBRANCH   8  26
TORSDOF 5
ENDMDL
MODEL 4
REMARK VINA RESULT:      -9.4      2.799      8.129
REMARK  Name = 4369143
REMARK  5 active torsions:
REMARK  status: ('A' for Active; 'I' for Inactive)
REMARK    1  A    between atoms: C_7  and  C_18
REMARK    2  A    between atoms: CA_8  and  C_26
REMARK    3  A    between atoms: C_18  and  C_19
REMARK    4  A    between atoms: C_19  and  C_20
REMARK    5  A    between atoms: C_26  and  O_27
REMARK                            x       y       z     vdW  Elec       q    Type
REMARK                         _______ _______ _______ _____ _____    ______ ____
ROOT
ATOM      1  O   UNL     1      33.056 -15.343 -26.693  0.00  0.00    -0.207 OA
ATOM      2  N   UNL     1      35.084 -16.222 -22.541  0.00  0.00    -0.274 NA
ATOM      3  N   UNL     1      34.203 -17.159 -25.005  0.00  0.00    -0.395 NA
ATOM      4  N   UNL     1      34.315 -14.022 -23.169  0.00  0.00    -0.279 N 
ATOM      5  N   UNL     1      33.297 -13.577 -25.248  0.00  0.00    -0.301 NA
ATOM      6  N   UNL     1      33.623 -11.882 -23.650  0.00  0.00    -0.320 N 
ATOM      7  C   UNL     1      35.301 -17.638 -22.787  0.00  0.00    +0.089 C 
ATOM      8  CA  UNL     1      34.757 -18.000 -24.183  0.00  0.00    +0.129 C 
ATOM      9  C   UNL     1      36.806 -17.903 -22.716  0.00  0.00    +0.023 C 
ATOM     10  C   UNL     1      34.496 -15.359 -23.436  0.00  0.00    +0.197 C 
ATOM     11  C   UNL     1      34.082 -15.848 -24.621  0.00  0.00    +0.235 C 
ATOM     12  C   UNL     1      33.436 -14.908 -25.609  0.00  0.00    +0.236 C 
ATOM     13  C   UNL     1      33.725 -13.180 -24.079  0.00  0.00    +0.245 C 
ATOM     14  H   UNL     1      35.378 -15.856 -21.676  0.00  0.00    +0.125 HD
ATOM     15  H   UNL     1      34.616 -13.660 -22.305  0.00  0.00    +0.152 HD
ATOM     16  H   UNL     1      33.960 -11.630 -22.759  0.00  0.00    +0.146 HD
ATOM     17  H   UNL     1      33.214 -11.202 -24.231  0.00  0.00    +0.146 HD
ENDROOT
BRANCH   7  18
ATOM     18  C   UNL     1      34.557 -18.423 -21.704  0.00  0.00    +0.026 C 
BRANCH  18  19
ATOM     19  C   UNL     1      35.502 -19.363 -20.959  0.00  0.00    +0.028 C 
BRANCH  19  20
ATOM     20  C   UNL     1      34.757 -20.400 -20.172  0.00  0.00    -0.022 C 
ATOM     21  C   UNL     1      35.464 -21.350 -19.441  0.00  0.00    -0.004 C 
ATOM     22  C   UNL     1      33.366 -20.403 -20.178  0.00  0.00    -0.004 C 
ATOM     23  C   UNL     1      34.771 -22.314 -18.709  0.00  0.00    -0.000 C 
ATOM     24  C   UNL     1      32.674 -21.367 -19.446  0.00  0.00    -0.000 C 
ATOM     25  C   UNL     1      33.376 -22.323 -18.711  0.00  0.00    -0.000 C 
ENDBRANCH  19  20
ENDBRANCH  18  19
ENDBRANCH   7  18
BRANCH   8  26
ATOM     26  C   UNL     1      34.865 -19.436 -24.652  0.00  0.00    +0.193 C 
BRANCH  26  27
ATOM     27  O   UNL     1      33.737 -19.753 -25.437  0.00  0.00    -0.375 OA
ATOM     28  H   UNL     1      32.932 -19.638 -24.909  0.00  0.00    +0.211 HD
ENDBRANCH  26  27
ENDBRANCH   8  26
TORSDOF 5
ENDMDL
MODEL 5
REMARK VINA RESULT:      -9.2     10.942     13.801
REMARK  Name = 4369143
REMARK  5 active torsions:
REMARK  status: ('A' for Active; 'I' for Inactive)
REMARK    1  A    between atoms: C_7  and  C_18
REMARK    2  A    between atoms: CA_8  and  C_26
REMARK    3  A    between atoms: C_18  and  C_19
REMARK    4  A    between atoms: C_19  and  C_20
REMARK    5  A    between atoms: C_26  and  O_27
REMARK                            x       y       z     vdW  Elec       q    Type
REMARK                         _______ _______ _______ _____ _____    ______ ____
ROOT
ATOM      1  O   UNL     1      30.405 -24.046 -12.265  0.00  0.00    -0.207 OA
ATOM      2  N   UNL     1      33.464 -23.826 -15.832  0.00  0.00    -0.274 NA
ATOM      3  N   UNL     1      33.007 -23.953 -13.093  0.00  0.00    -0.395 NA
ATOM      4  N   UNL     1      31.074 -23.860 -16.172  0.00  0.00    -0.279 N 
ATOM      5  N   UNL     1      29.538 -23.969 -14.388  0.00  0.00    -0.301 NA
ATOM      6  N   UNL     1      28.820 -23.886 -16.626  0.00  0.00    -0.320 N 
ATOM      7  C   UNL     1      34.654 -23.845 -14.999  0.00  0.00    +0.089 C 
ATOM      8  CA  UNL     1      34.236 -23.911 -13.516  0.00  0.00    +0.129 C 
ATOM      9  C   UNL     1      35.473 -25.082 -15.376  0.00  0.00    +0.023 C 
ATOM     10  C   UNL     1      32.177 -23.873 -15.350  0.00  0.00    +0.197 C 
ATOM     11  C   UNL     1      31.993 -23.936 -14.016  0.00  0.00    +0.235 C 
ATOM     12  C   UNL     1      30.584 -23.988 -13.479  0.00  0.00    +0.236 C 
ATOM     13  C   UNL     1      29.799 -23.909 -15.666  0.00  0.00    +0.245 C 
ATOM     14  H   UNL     1      33.587 -23.776 -16.807  0.00  0.00    +0.125 HD
ATOM     15  H   UNL     1      31.203 -23.816 -17.146  0.00  0.00    +0.152 HD
ATOM     16  H   UNL     1      29.066 -23.839 -17.579  0.00  0.00    +0.146 HD
ATOM     17  H   UNL     1      27.872 -23.916 -16.363  0.00  0.00    +0.146 HD
ENDROOT
BRANCH   7  18
ATOM     18  C   UNL     1      35.443 -22.564 -15.274  0.00  0.00    +0.026 C 
BRANCH  18  19
ATOM     19  C   UNL     1      36.449 -22.769 -16.405  0.00  0.00    +0.028 C 
BRANCH  19  20
ATOM     20  C   UNL     1      35.985 -22.145 -17.688  0.00  0.00    -0.022 C 
ATOM     21  C   UNL     1      36.849 -21.324 -18.406  0.00  0.00    -0.004 C 
ATOM     22  C   UNL     1      34.696 -22.392 -18.148  0.00  0.00    -0.004 C 
ATOM     23  C   UNL     1      36.418 -20.744 -19.600  0.00  0.00    -0.000 C 
ATOM     24  C   UNL     1      34.266 -21.812 -19.341  0.00  0.00    -0.000 C 
ATOM     25  C   UNL     1      35.127 -20.988 -20.067  0.00  0.00    -0.000 C 
ENDBRANCH  19  20
ENDBRANCH  18  19
ENDBRANCH   7  18
BRANCH   8  26
ATOM     26  C   UNL     1      35.319 -23.930 -12.458  0.00  0.00    +0.193 C 
BRANCH  26  27
ATOM     27  O   UNL     1      35.119 -25.039 -11.610  0.00  0.00    -0.375 OA
ATOM     28  H   UNL     1      35.768 -25.018 -10.890  0.00  0.00    +0.211 HD
ENDBRANCH  26  27
ENDBRANCH   8  26
TORSDOF 5
ENDMDL
MODEL 6
REMARK VINA RESULT:      -9.2      8.436     11.679
REMARK  Name = 4369143
REMARK  5 active torsions:
REMARK  status: ('A' for Active; 'I' for Inactive)
REMARK    1  A    between atoms: C_7  and  C_18
REMARK    2  A    between atoms: CA_8  and  C_26
REMARK    3  A    between atoms: C_18  and  C_19
REMARK    4  A    between atoms: C_19  and  C_20
REMARK    5  A    between atoms: C_26  and  O_27
REMARK                            x       y       z     vdW  Elec       q    Type
REMARK                         _______ _______ _______ _____ _____    ______ ____
ROOT
ATOM      1  O   UNL     1      31.677 -23.385 -13.194  0.00  0.00    -0.207 OA
ATOM      2  N   UNL     1      32.195 -22.824 -17.836  0.00  0.00    -0.274 NA
ATOM      3  N   UNL     1      33.348 -23.312 -15.354  0.00  0.00    -0.395 NA
ATOM      4  N   UNL     1      30.047 -22.684 -16.744  0.00  0.00    -0.279 N 
ATOM      5  N   UNL     1      29.783 -22.963 -14.419  0.00  0.00    -0.301 NA
ATOM      6  N   UNL     1      27.946 -22.527 -15.822  0.00  0.00    -0.320 N 
ATOM      7  C   UNL     1      33.634 -23.024 -17.842  0.00  0.00    +0.089 C 
ATOM      8  CA  UNL     1      34.119 -23.276 -16.401  0.00  0.00    +0.129 C 
ATOM      9  C   UNL     1      33.938 -24.235 -18.726  0.00  0.00    +0.023 C 
ATOM     10  C   UNL     1      31.409 -22.871 -16.708  0.00  0.00    +0.197 C 
ATOM     11  C   UNL     1      32.002 -23.112 -15.523  0.00  0.00    +0.235 C 
ATOM     12  C   UNL     1      31.146 -23.165 -14.281  0.00  0.00    +0.236 C 
ATOM     13  C   UNL     1      29.283 -22.736 -15.604  0.00  0.00    +0.245 C 
ATOM     14  H   UNL     1      31.753 -22.643 -18.696  0.00  0.00    +0.125 HD
ATOM     15  H   UNL     1      29.609 -22.509 -17.607  0.00  0.00    +0.152 HD
ATOM     16  H   UNL     1      27.616 -22.358 -16.735  0.00  0.00    +0.146 HD
ATOM     17  H   UNL     1      27.316 -22.544 -15.066  0.00  0.00    +0.146 HD
ENDROOT
BRANCH   7  18
ATOM     18  C   UNL     1      34.283 -21.759 -18.410  0.00  0.00    +0.026 C 
BRANCH  18  19
ATOM     19  C   UNL     1      33.634 -21.352 -19.730  0.00  0.00    +0.028 C 
BRANCH  19  20
ATOM     20  C   UNL     1      34.436 -20.310 -20.452  0.00  0.00    -0.022 C 
ATOM     21  C   UNL     1      35.817 -20.268 -20.288  0.00  0.00    -0.004 C 
ATOM     22  C   UNL     1      33.793 -19.396 -21.279  0.00  0.00    -0.004 C 
ATOM     23  C   UNL     1      36.563 -19.299 -20.959  0.00  0.00    -0.000 C 
ATOM     24  C   UNL     1      34.539 -18.427 -21.951  0.00  0.00    -0.000 C 
ATOM     25  C   UNL     1      35.925 -18.379 -21.790  0.00  0.00    -0.000 C 
ENDBRANCH  19  20
ENDBRANCH  18  19
ENDBRANCH   7  18
BRANCH   8  26
ATOM     26  C   UNL     1      35.598 -23.501 -16.162  0.00  0.00    +0.193 C 
BRANCH  26  27
ATOM     27  O   UNL     1      35.791 -24.797 -15.641  0.00  0.00    -0.375 OA
ATOM     28  H   UNL     1      36.624 -25.161 -15.978  0.00  0.00    +0.211 HD
ENDBRANCH  26  27
ENDBRANCH   8  26
TORSDOF 5
ENDMDL
MODEL 7
REMARK VINA RESULT:      -9.2     10.445     13.656
REMARK  Name = 4369143
REMARK  5 active torsions:
REMARK  status: ('A' for Active; 'I' for Inactive)
REMARK    1  A    between atoms: C_7  and  C_18
REMARK    2  A    between atoms: CA_8  and  C_26
REMARK    3  A    between atoms: C_18  and  C_19
REMARK    4  A    between atoms: C_19  and  C_20
REMARK    5  A    between atoms: C_26  and  O_27
REMARK                            x       y       z     vdW  Elec       q    Type
REMARK                         _______ _______ _______ _____ _____    ______ ____
ROOT
ATOM      1  O   UNL     1      36.862 -26.543 -12.017  0.00  0.00    -0.207 OA
ATOM      2  N   UNL     1      36.675 -23.786 -15.823  0.00  0.00    -0.274 NA
ATOM      3  N   UNL     1      35.369 -24.961 -13.669  0.00  0.00    -0.395 NA
ATOM      4  N   UNL     1      38.711 -24.861 -15.099  0.00  0.00    -0.279 N 
ATOM      5  N   UNL     1      38.809 -26.244 -13.193  0.00  0.00    -0.301 NA
ATOM      6  N   UNL     1      40.712 -25.829 -14.512  0.00  0.00    -0.320 N 
ATOM      7  C   UNL     1      35.261 -23.474 -15.701  0.00  0.00    +0.089 C 
ATOM      8  CA  UNL     1      34.684 -24.200 -14.470  0.00  0.00    +0.129 C 
ATOM      9  C   UNL     1      35.125 -21.958 -15.538  0.00  0.00    +0.023 C 
ATOM     10  C   UNL     1      37.369 -24.595 -14.954  0.00  0.00    +0.197 C 
ATOM     11  C   UNL     1      36.704 -25.147 -13.921  0.00  0.00    +0.235 C 
ATOM     12  C   UNL     1      37.459 -26.035 -12.963  0.00  0.00    +0.236 C 
ATOM     13  C   UNL     1      39.383 -25.672 -14.218  0.00  0.00    +0.245 C 
ATOM     14  H   UNL     1      37.168 -23.391 -16.577  0.00  0.00    +0.125 HD
ATOM     15  H   UNL     1      39.202 -24.460 -15.851  0.00  0.00    +0.152 HD
ATOM     16  H   UNL     1      41.100 -25.378 -15.297  0.00  0.00    +0.146 HD
ATOM     17  H   UNL     1      41.279 -26.393 -13.939  0.00  0.00    +0.146 HD
ENDROOT
BRANCH   7  18
ATOM     18  C   UNL     1      34.562 -23.948 -16.977  0.00  0.00    +0.026 C 
BRANCH  18  19
ATOM     19  C   UNL     1      33.522 -22.933 -17.447  0.00  0.00    +0.028 C 
BRANCH  19  20
ATOM     20  C   UNL     1      34.034 -22.086 -18.574  0.00  0.00    -0.022 C 
ATOM     21  C   UNL     1      35.394 -22.080 -18.868  0.00  0.00    -0.004 C 
ATOM     22  C   UNL     1      33.145 -21.315 -19.316  0.00  0.00    -0.004 C 
ATOM     23  C   UNL     1      35.870 -21.292 -19.917  0.00  0.00    -0.000 C 
ATOM     24  C   UNL     1      33.622 -20.528 -20.364  0.00  0.00    -0.000 C 
ATOM     25  C   UNL     1      34.984 -20.517 -20.665  0.00  0.00    -0.000 C 
ENDBRANCH  19  20
ENDBRANCH  18  19
ENDBRANCH   7  18
BRANCH   8  26
ATOM     26  C   UNL     1      33.213 -24.029 -14.152  0.00  0.00    +0.193 C 
BRANCH  26  27
ATOM     27  O   UNL     1      32.850 -24.940 -13.138  0.00  0.00    -0.375 OA
ATOM     28  H   UNL     1      33.276 -24.685 -12.305  0.00  0.00    +0.211 HD
ENDBRANCH  26  27
ENDBRANCH   8  26
TORSDOF 5
ENDMDL
MODEL 8
REMARK VINA RESULT:      -8.9      6.985     10.164
REMARK  Name = 4369143
REMARK  5 active torsions:
REMARK  status: ('A' for Active; 'I' for Inactive)
REMARK    1  A    between atoms: C_7  and  C_18
REMARK    2  A    between atoms: CA_8  and  C_26
REMARK    3  A    between atoms: C_18  and  C_19
REMARK    4  A    between atoms: C_19  and  C_20
REMARK    5  A    between atoms: C_26  and  O_27
REMARK                            x       y       z     vdW  Elec       q    Type
REMARK                         _______ _______ _______ _____ _____    ______ ____
ROOT
ATOM      1  O   UNL     1      37.676 -22.775 -15.280  0.00  0.00    -0.207 OA
ATOM      2  N   UNL     1      33.725 -22.781 -17.831  0.00  0.00    -0.274 NA
ATOM      3  N   UNL     1      36.423 -22.147 -17.625  0.00  0.00    -0.395 NA
ATOM      4  N   UNL     1      33.822 -23.669 -15.589  0.00  0.00    -0.279 N 
ATOM      5  N   UNL     1      35.800 -23.667 -14.306  0.00  0.00    -0.301 NA
ATOM      6  N   UNL     1      33.787 -24.544 -13.463  0.00  0.00    -0.320 N 
ATOM      7  C   UNL     1      34.313 -22.155 -19.003  0.00  0.00    +0.089 C 
ATOM      8  CA  UNL     1      35.801 -21.863 -18.731  0.00  0.00    +0.129 C 
ATOM      9  C   UNL     1      34.167 -23.125 -20.178  0.00  0.00    +0.023 C 
ATOM     10  C   UNL     1      34.413 -23.069 -16.676  0.00  0.00    +0.197 C 
ATOM     11  C   UNL     1      35.721 -22.748 -16.612  0.00  0.00    +0.235 C 
ATOM     12  C   UNL     1      36.483 -23.062 -15.348  0.00  0.00    +0.236 C 
ATOM     13  C   UNL     1      34.531 -23.947 -14.447  0.00  0.00    +0.245 C 
ATOM     14  H   UNL     1      32.769 -23.014 -17.866  0.00  0.00    +0.125 HD
ATOM     15  H   UNL     1      32.868 -23.906 -15.631  0.00  0.00    +0.152 HD
ATOM     16  H   UNL     1      32.832 -24.735 -13.615  0.00  0.00    +0.146 HD
ATOM     17  H   UNL     1      34.206 -24.783 -12.605  0.00  0.00    +0.146 HD
ENDROOT
BRANCH   7  18
ATOM     18  C   UNL     1      33.555 -20.854 -19.274  0.00  0.00    +0.026 C 
BRANCH  18  19
ATOM     19  C   UNL     1      33.227 -20.705 -20.758  0.00  0.00    +0.028 C 
BRANCH  19  20
ATOM     20  C   UNL     1      33.922 -19.526 -21.371  0.00  0.00    -0.022 C 
ATOM     21  C   UNL     1      33.782 -18.268 -20.795  0.00  0.00    -0.004 C 
ATOM     22  C   UNL     1      34.701 -19.701 -22.510  0.00  0.00    -0.004 C 
ATOM     23  C   UNL     1      34.429 -17.171 -21.365  0.00  0.00    -0.000 C 
ATOM     24  C   UNL     1      35.348 -18.604 -23.080  0.00  0.00    -0.000 C 
ATOM     25  C   UNL     1      35.212 -17.339 -22.506  0.00  0.00    -0.000 C 
ENDBRANCH  19  20
ENDBRANCH  18  19
ENDBRANCH   7  18
BRANCH   8  26
ATOM     26  C   UNL     1      36.620 -21.197 -19.817  0.00  0.00    +0.193 C 
BRANCH  26  27
ATOM     27  O   UNL     1      36.848 -19.850 -19.465  0.00  0.00    -0.375 OA
ATOM     28  H   UNL     1      37.667 -19.541 -19.882  0.00  0.00    +0.211 HD
ENDBRANCH  26  27
ENDBRANCH   8  26
TORSDOF 5
ENDMDL
MODEL 9
REMARK VINA RESULT:      -8.9     12.681     14.209
REMARK  Name = 4369143
REMARK  5 active torsions:
REMARK  status: ('A' for Active; 'I' for Inactive)
REMARK    1  A    between atoms: C_7  and  C_18
REMARK    2  A    between atoms: CA_8  and  C_26
REMARK    3  A    between atoms: C_18  and  C_19
REMARK    4  A    between atoms: C_19  and  C_20
REMARK    5  A    between atoms: C_26  and  O_27
REMARK                            x       y       z     vdW  Elec       q    Type
REMARK                         _______ _______ _______ _____ _____    ______ ____
ROOT
ATOM      1  O   UNL     1      37.481 -22.864 -15.902  0.00  0.00    -0.207 OA
ATOM      2  N   UNL     1      33.749 -23.913 -13.237  0.00  0.00    -0.274 NA
ATOM      3  N   UNL     1      34.794 -23.333 -15.747  0.00  0.00    -0.395 NA
ATOM      4  N   UNL     1      35.973 -23.690 -12.325  0.00  0.00    -0.279 N 
ATOM      5  N   UNL     1      37.846 -23.164 -13.656  0.00  0.00    -0.301 NA
ATOM      6  N   UNL     1      38.041 -23.504 -11.337  0.00  0.00    -0.320 N 
ATOM      7  C   UNL     1      32.790 -23.904 -14.328  0.00  0.00    +0.089 C 
ATOM      8  CA  UNL     1      33.518 -23.564 -15.643  0.00  0.00    +0.129 C 
ATOM      9  C   UNL     1      32.161 -25.297 -14.413  0.00  0.00    +0.023 C 
ATOM     10  C   UNL     1      35.094 -23.665 -13.383  0.00  0.00    +0.197 C 
ATOM     11  C   UNL     1      35.566 -23.389 -14.614  0.00  0.00    +0.235 C 
ATOM     12  C   UNL     1      37.040 -23.117 -14.783  0.00  0.00    +0.236 C 
ATOM     13  C   UNL     1      37.312 -23.440 -12.496  0.00  0.00    +0.245 C 
ATOM     14  H   UNL     1      33.414 -24.109 -12.333  0.00  0.00    +0.125 HD
ATOM     15  H   UNL     1      35.634 -23.892 -11.424  0.00  0.00    +0.152 HD
ATOM     16  H   UNL     1      37.594 -23.716 -10.485  0.00  0.00    +0.146 HD
ATOM     17  H   UNL     1      39.011 -23.340 -11.356  0.00  0.00    +0.146 HD
ENDROOT
BRANCH   7  18
ATOM     18  C   UNL     1      31.730 -22.846 -14.016  0.00  0.00    +0.026 C 
BRANCH  18  19
ATOM     19  C   UNL     1      30.368 -23.488 -13.764  0.00  0.00    +0.028 C 
BRANCH  19  20
ATOM     20  C   UNL     1      29.476 -23.403 -14.967  0.00  0.00    -0.022 C 
ATOM     21  C   UNL     1      28.903 -22.184 -15.314  0.00  0.00    -0.004 C 
ATOM     22  C   UNL     1      29.229 -24.543 -15.725  0.00  0.00    -0.004 C 
ATOM     23  C   UNL     1      28.073 -22.104 -16.433  0.00  0.00    -0.000 C 
ATOM     24  C   UNL     1      28.400 -24.463 -16.843  0.00  0.00    -0.000 C 
ATOM     25  C   UNL     1      27.822 -23.243 -17.198  0.00  0.00    -0.000 C 
ENDBRANCH  19  20
ENDBRANCH  18  19
ENDBRANCH   7  18
BRANCH   8  26
ATOM     26  C   UNL     1      32.709 -23.487 -16.921  0.00  0.00    +0.193 C 
BRANCH  26  27
ATOM     27  O   UNL     1      33.583 -23.548 -18.027  0.00  0.00    -0.375 OA
ATOM     28  H   UNL     1      33.731 -22.654 -18.373  0.00  0.00    +0.211 HD
ENDBRANCH  26  27
ENDBRANCH   8  26
TORSDOF 5
ENDMDL
