MODEL 1
REMARK VINA RESULT:      -5.7      0.000      0.000
REMARK  Name = 6992003
REMARK  7 active torsions:
REMARK  status: ('A' for Active; 'I' for Inactive)
REMARK    1  A    between atoms: C_1  and  C_2
REMARK    2  A    between atoms: C_1  and  C_9
REMARK    3  A    between atoms: C_2  and  C_3
REMARK    4  A    between atoms: C_3  and  C_4
REMARK    5  A    between atoms: C_4  and  N_5
REMARK    6  A    between atoms: C_9  and  N_10
REMARK    7  A    between atoms: C_9  and  C_16
REMARK                            x       y       z     vdW  Elec       q    Type
REMARK                         _______ _______ _______ _____ _____    ______ ____
ROOT
ATOM      1  C   UNK     1      30.503 -23.008 -16.108  0.00  0.00    -0.011 C 
ENDROOT
BRANCH   1   2
ATOM      2  C   UNK     1      31.425 -22.987 -14.881  0.00  0.00    -0.004 C 
BRANCH   2   3
ATOM      3  C   UNK     1      32.873 -23.302 -15.276  0.00  0.00    -0.022 C 
BRANCH   3   4
ATOM      4  C   UNK     1      33.598 -24.186 -14.269  0.00  0.00    -0.073 C 
BRANCH   4   5
ATOM      5  N   UNK     1      35.063 -23.991 -14.360  0.00  0.00    +0.386 N 
ATOM      6  C   UNK     1      35.401 -22.781 -15.242  0.00  0.00    -0.096 C 
ATOM      7  C   UNK     1      35.671 -23.751 -12.970  0.00  0.00    -0.096 C 
ATOM      8  C   UNK     1      35.743 -25.227 -14.969  0.00  0.00    -0.096 C 
ENDBRANCH   4   5
ENDBRANCH   3   4
ENDBRANCH   2   3
ENDBRANCH   1   2
BRANCH   1   9
ATOM      9  C   UNK     1      29.022 -23.241 -15.785  0.00  0.00    +0.040 C 
BRANCH   9  10
ATOM     10  N   UNK     1      28.861 -24.620 -15.225  0.00  0.00    +0.389 N 
ATOM     11  H   UNK     1      28.915 -24.581 -14.207  0.00  0.00    -0.088 HD
ATOM     12  H   UNK     1      29.603 -25.221 -15.582  0.00  0.00    -0.088 HD
ATOM     13  H   UNK     1      27.955 -24.997 -15.502  0.00  0.00    -0.088 HD
ENDBRANCH   9  10
BRANCH   9  16
ATOM     14  O   UNK     1      27.744 -21.695 -17.049  0.00  0.00    -0.248 OA
ATOM     15  O   UNK     1      27.668 -23.900 -17.625  0.00  0.00    -0.248 OA
ATOM     16  C   UNK     1      28.042 -22.917 -16.926  0.00  0.00    +0.345 C 
ENDBRANCH   9  16
ENDBRANCH   1   9
TORSDOF 7
ENDMDL
MODEL 2
REMARK VINA RESULT:      -5.7      0.140      1.193
REMARK  Name = 6992003
REMARK  7 active torsions:
REMARK  status: ('A' for Active; 'I' for Inactive)
REMARK    1  A    between atoms: C_1  and  C_2
REMARK    2  A    between atoms: C_1  and  C_9
REMARK    3  A    between atoms: C_2  and  C_3
REMARK    4  A    between atoms: C_3  and  C_4
REMARK    5  A    between atoms: C_4  and  N_5
REMARK    6  A    between atoms: C_9  and  N_10
REMARK    7  A    between atoms: C_9  and  C_16
REMARK                            x       y       z     vdW  Elec       q    Type
REMARK                         _______ _______ _______ _____ _____    ______ ____
ROOT
ATOM      1  C   UNK     1      30.562 -23.138 -16.144  0.00  0.00    -0.011 C 
ENDROOT
BRANCH   1   2
ATOM      2  C   UNK     1      31.493 -22.973 -14.935  0.00  0.00    -0.004 C 
BRANCH   2   3
ATOM      3  C   UNK     1      32.929 -23.378 -15.288  0.00  0.00    -0.022 C 
BRANCH   3   4
ATOM      4  C   UNK     1      33.698 -23.972 -14.114  0.00  0.00    -0.073 C 
BRANCH   4   5
ATOM      5  N   UNK     1      35.158 -23.898 -14.354  0.00  0.00    +0.386 N 
ATOM      6  C   UNK     1      35.918 -23.661 -13.041  0.00  0.00    -0.096 C 
ATOM      7  C   UNK     1      35.677 -25.204 -14.974  0.00  0.00    -0.096 C 
ATOM      8  C   UNK     1      35.498 -22.749 -15.314  0.00  0.00    -0.096 C 
ENDBRANCH   4   5
ENDBRANCH   3   4
ENDBRANCH   2   3
ENDBRANCH   1   2
BRANCH   1   9
ATOM      9  C   UNK     1      29.080 -23.307 -15.786  0.00  0.00    +0.040 C 
BRANCH   9  10
ATOM     10  N   UNK     1      28.878 -24.669 -15.199  0.00  0.00    +0.389 N 
ATOM     11  H   UNK     1      28.720 -24.587 -14.195  0.00  0.00    -0.088 HD
ATOM     12  H   UNK     1      29.706 -25.239 -15.367  0.00  0.00    -0.088 HD
ATOM     13  H   UNK     1      28.068 -25.111 -15.635  0.00  0.00    -0.088 HD
ENDBRANCH   9  10
BRANCH   9  16
ATOM     14  O   UNK     1      27.820 -21.733 -17.034  0.00  0.00    -0.248 OA
ATOM     15  O   UNK     1      27.677 -23.938 -17.599  0.00  0.00    -0.248 OA
ATOM     16  C   UNK     1      28.088 -22.962 -16.911  0.00  0.00    +0.345 C 
ENDBRANCH   9  16
ENDBRANCH   1   9
TORSDOF 7
ENDMDL
MODEL 3
REMARK VINA RESULT:      -5.6      6.424      7.415
REMARK  Name = 6992003
REMARK  7 active torsions:
REMARK  status: ('A' for Active; 'I' for Inactive)
REMARK    1  A    between atoms: C_1  and  C_2
REMARK    2  A    between atoms: C_1  and  C_9
REMARK    3  A    between atoms: C_2  and  C_3
REMARK    4  A    between atoms: C_3  and  C_4
REMARK    5  A    between atoms: C_4  and  N_5
REMARK    6  A    between atoms: C_9  and  N_10
REMARK    7  A    between atoms: C_9  and  C_16
REMARK                            x       y       z     vdW  Elec       q    Type
REMARK                         _______ _______ _______ _____ _____    ______ ____
ROOT
ATOM      1  C   UNK     1      34.207 -22.415 -18.848  0.00  0.00    -0.011 C 
ENDROOT
BRANCH   1   2
ATOM      2  C   UNK     1      33.486 -21.303 -19.622  0.00  0.00    -0.004 C 
BRANCH   2   3
ATOM      3  C   UNK     1      34.488 -20.411 -20.365  0.00  0.00    -0.022 C 
BRANCH   3   4
ATOM      4  C   UNK     1      33.837 -19.235 -21.082  0.00  0.00    -0.073 C 
BRANCH   4   5
ATOM      5  N   UNK     1      34.863 -18.379 -21.722  0.00  0.00    +0.386 N 
ATOM      6  C   UNK     1      36.269 -18.745 -21.225  0.00  0.00    -0.096 C 
ATOM      7  C   UNK     1      34.840 -18.546 -23.248  0.00  0.00    -0.096 C 
ATOM      8  C   UNK     1      34.616 -16.897 -21.403  0.00  0.00    -0.096 C 
ENDBRANCH   4   5
ENDBRANCH   3   4
ENDBRANCH   2   3
ENDBRANCH   1   2
BRANCH   1   9
ATOM      9  C   UNK     1      33.333 -23.143 -17.819  0.00  0.00    +0.040 C 
BRANCH   9  10
ATOM     10  N   UNK     1      31.987 -22.490 -17.782  0.00  0.00    +0.389 N 
ATOM     11  H   UNK     1      31.430 -22.813 -18.573  0.00  0.00    -0.088 HD
ATOM     12  H   UNK     1      32.097 -21.478 -17.836  0.00  0.00    -0.088 HD
ATOM     13  H   UNK     1      31.513 -22.734 -16.911  0.00  0.00    -0.088 HD
ENDBRANCH   9  10
BRANCH   9  16
ATOM     14  O   UNK     1      33.184 -23.189 -15.453  0.00  0.00    -0.248 OA
ATOM     15  O   UNK     1      35.197 -23.635 -16.428  0.00  0.00    -0.248 OA
ATOM     16  C   UNK     1      33.970 -23.333 -16.432  0.00  0.00    +0.345 C 
ENDBRANCH   9  16
ENDBRANCH   1   9
TORSDOF 7
ENDMDL
MODEL 4
REMARK VINA RESULT:      -5.5     10.423     11.128
REMARK  Name = 6992003
REMARK  7 active torsions:
REMARK  status: ('A' for Active; 'I' for Inactive)
REMARK    1  A    between atoms: C_1  and  C_2
REMARK    2  A    between atoms: C_1  and  C_9
REMARK    3  A    between atoms: C_2  and  C_3
REMARK    4  A    between atoms: C_3  and  C_4
REMARK    5  A    between atoms: C_4  and  N_5
REMARK    6  A    between atoms: C_9  and  N_10
REMARK    7  A    between atoms: C_9  and  C_16
REMARK                            x       y       z     vdW  Elec       q    Type
REMARK                         _______ _______ _______ _____ _____    ______ ____
ROOT
ATOM      1  C   UNK     1      34.699 -15.372 -23.325  0.00  0.00    -0.011 C 
ENDROOT
BRANCH   1   2
ATOM      2  C   UNK     1      34.411 -15.188 -21.829  0.00  0.00    -0.004 C 
BRANCH   2   3
ATOM      3  C   UNK     1      34.837 -16.426 -21.031  0.00  0.00    -0.022 C 
BRANCH   3   4
ATOM      4  C   UNK     1      33.928 -17.630 -21.248  0.00  0.00    -0.073 C 
BRANCH   4   5
ATOM      5  N   UNK     1      34.727 -18.843 -21.538  0.00  0.00    +0.386 N 
ATOM      6  C   UNK     1      34.219 -20.041 -20.723  0.00  0.00    -0.096 C 
ATOM      7  C   UNK     1      34.642 -19.212 -23.027  0.00  0.00    -0.096 C 
ATOM      8  C   UNK     1      36.206 -18.622 -21.187  0.00  0.00    -0.096 C 
ENDBRANCH   4   5
ENDBRANCH   3   4
ENDBRANCH   2   3
ENDBRANCH   1   2
BRANCH   1   9
ATOM      9  C   UNK     1      33.838 -14.502 -24.250  0.00  0.00    +0.040 C 
BRANCH   9  10
ATOM     10  N   UNK     1      32.663 -13.992 -23.476  0.00  0.00    +0.389 N 
ATOM     11  H   UNK     1      32.003 -14.754 -23.319  0.00  0.00    -0.088 HD
ATOM     12  H   UNK     1      32.205 -13.249 -24.002  0.00  0.00    -0.088 HD
ATOM     13  H   UNK     1      32.980 -13.626 -22.577  0.00  0.00    -0.088 HD
ENDBRANCH   9  10
BRANCH   9  16
ATOM     14  O   UNK     1      34.164 -16.143 -25.930  0.00  0.00    -0.248 OA
ATOM     15  O   UNK     1      32.484 -14.624 -26.201  0.00  0.00    -0.248 OA
ATOM     16  C   UNK     1      33.463 -15.146 -25.596  0.00  0.00    +0.345 C 
ENDBRANCH   9  16
ENDBRANCH   1   9
TORSDOF 7
ENDMDL
MODEL 5
REMARK VINA RESULT:      -5.5      4.375      6.887
REMARK  Name = 6992003
REMARK  7 active torsions:
REMARK  status: ('A' for Active; 'I' for Inactive)
REMARK    1  A    between atoms: C_1  and  C_2
REMARK    2  A    between atoms: C_1  and  C_9
REMARK    3  A    between atoms: C_2  and  C_3
REMARK    4  A    between atoms: C_3  and  C_4
REMARK    5  A    between atoms: C_4  and  N_5
REMARK    6  A    between atoms: C_9  and  N_10
REMARK    7  A    between atoms: C_9  and  C_16
REMARK                            x       y       z     vdW  Elec       q    Type
REMARK                         _______ _______ _______ _____ _____    ______ ____
ROOT
ATOM      1  C   UNK     1      35.246 -24.906 -14.808  0.00  0.00    -0.011 C 
ENDROOT
BRANCH   1   2
ATOM      2  C   UNK     1      34.866 -23.666 -15.628  0.00  0.00    -0.004 C 
BRANCH   2   3
ATOM      3  C   UNK     1      33.493 -23.128 -15.208  0.00  0.00    -0.022 C 
BRANCH   3   4
ATOM      4  C   UNK     1      32.334 -23.771 -15.961  0.00  0.00    -0.073 C 
BRANCH   4   5
ATOM      5  N   UNK     1      31.214 -24.072 -15.040  0.00  0.00    +0.386 N 
ATOM      6  C   UNK     1      30.645 -22.784 -14.429  0.00  0.00    -0.096 C 
ATOM      7  C   UNK     1      30.076 -24.791 -15.779  0.00  0.00    -0.096 C 
ATOM      8  C   UNK     1      31.679 -24.978 -13.890  0.00  0.00    -0.096 C 
ENDBRANCH   4   5
ENDBRANCH   3   4
ENDBRANCH   2   3
ENDBRANCH   1   2
BRANCH   1   9
ATOM      9  C   UNK     1      36.751 -25.203 -14.765  0.00  0.00    +0.040 C 
BRANCH   9  10
ATOM     10  N   UNK     1      37.478 -24.114 -15.490  0.00  0.00    +0.389 N 
ATOM     11  H   UNK     1      36.885 -23.286 -15.541  0.00  0.00    -0.088 HD
ATOM     12  H   UNK     1      37.708 -24.426 -16.432  0.00  0.00    -0.088 HD
ATOM     13  H   UNK     1      38.337 -23.886 -14.988  0.00  0.00    -0.088 HD
ENDBRANCH   9  10
BRANCH   9  16
ATOM     14  O   UNK     1      36.427 -27.130 -16.110  0.00  0.00    -0.248 OA
ATOM     15  O   UNK     1      38.175 -27.104 -14.644  0.00  0.00    -0.248 OA
ATOM     16  C   UNK     1      37.153 -26.621 -15.209  0.00  0.00    +0.345 C 
ENDBRANCH   9  16
ENDBRANCH   1   9
TORSDOF 7
ENDMDL
MODEL 6
REMARK VINA RESULT:      -5.5     10.315     11.018
REMARK  Name = 6992003
REMARK  7 active torsions:
REMARK  status: ('A' for Active; 'I' for Inactive)
REMARK    1  A    between atoms: C_1  and  C_2
REMARK    2  A    between atoms: C_1  and  C_9
REMARK    3  A    between atoms: C_2  and  C_3
REMARK    4  A    between atoms: C_3  and  C_4
REMARK    5  A    between atoms: C_4  and  N_5
REMARK    6  A    between atoms: C_9  and  N_10
REMARK    7  A    between atoms: C_9  and  C_16
REMARK                            x       y       z     vdW  Elec       q    Type
REMARK                         _______ _______ _______ _____ _____    ______ ____
ROOT
ATOM      1  C   UNK     1      33.338 -14.823 -22.264  0.00  0.00    -0.011 C 
ENDROOT
BRANCH   1   2
ATOM      2  C   UNK     1      34.253 -14.951 -21.040  0.00  0.00    -0.004 C 
BRANCH   2   3
ATOM      3  C   UNK     1      34.877 -16.350 -20.963  0.00  0.00    -0.022 C 
BRANCH   3   4
ATOM      4  C   UNK     1      33.914 -17.466 -21.349  0.00  0.00    -0.073 C 
BRANCH   4   5
ATOM      5  N   UNK     1      34.646 -18.730 -21.591  0.00  0.00    +0.386 N 
ATOM      6  C   UNK     1      36.097 -18.625 -21.100  0.00  0.00    -0.096 C 
ATOM      7  C   UNK     1      33.979 -19.900 -20.852  0.00  0.00    -0.096 C 
ATOM      8  C   UNK     1      34.675 -19.069 -23.089  0.00  0.00    -0.096 C 
ENDBRANCH   4   5
ENDBRANCH   3   4
ENDBRANCH   2   3
ENDBRANCH   1   2
BRANCH   1   9
ATOM      9  C   UNK     1      34.058 -14.416 -23.556  0.00  0.00    +0.040 C 
BRANCH   9  10
ATOM     10  N   UNK     1      34.133 -12.922 -23.616  0.00  0.00    +0.389 N 
ATOM     11  H   UNK     1      34.928 -12.600 -23.064  0.00  0.00    -0.088 HD
ATOM     12  H   UNK     1      33.274 -12.523 -23.241  0.00  0.00    -0.088 HD
ATOM     13  H   UNK     1      34.250 -12.626 -24.586  0.00  0.00    -0.088 HD
ENDBRANCH   9  10
BRANCH   9  16
ATOM     14  O   UNK     1      32.730 -14.340 -25.519  0.00  0.00    -0.248 OA
ATOM     15  O   UNK     1      33.934 -16.229 -25.090  0.00  0.00    -0.248 OA
ATOM     16  C   UNK     1      33.515 -15.063 -24.843  0.00  0.00    +0.345 C 
ENDBRANCH   9  16
ENDBRANCH   1   9
TORSDOF 7
ENDMDL
MODEL 7
REMARK VINA RESULT:      -5.5      4.518      5.424
REMARK  Name = 6992003
REMARK  7 active torsions:
REMARK  status: ('A' for Active; 'I' for Inactive)
REMARK    1  A    between atoms: C_1  and  C_2
REMARK    2  A    between atoms: C_1  and  C_9
REMARK    3  A    between atoms: C_2  and  C_3
REMARK    4  A    between atoms: C_3  and  C_4
REMARK    5  A    between atoms: C_4  and  N_5
REMARK    6  A    between atoms: C_9  and  N_10
REMARK    7  A    between atoms: C_9  and  C_16
REMARK                            x       y       z     vdW  Elec       q    Type
REMARK                         _______ _______ _______ _____ _____    ______ ____
ROOT
ATOM      1  C   UNK     1      35.438 -22.063 -18.385  0.00  0.00    -0.011 C 
ENDROOT
BRANCH   1   2
ATOM      2  C   UNK     1      36.772 -21.534 -17.838  0.00  0.00    -0.004 C 
BRANCH   2   3
ATOM      3  C   UNK     1      37.193 -22.302 -16.579  0.00  0.00    -0.022 C 
BRANCH   3   4
ATOM      4  C   UNK     1      36.032 -22.619 -15.645  0.00  0.00    -0.073 C 
BRANCH   4   5
ATOM      5  N   UNK     1      36.366 -23.762 -14.764  0.00  0.00    +0.386 N 
ATOM      6  C   UNK     1      37.826 -24.196 -14.960  0.00  0.00    -0.096 C 
ATOM      7  C   UNK     1      36.175 -23.389 -13.287  0.00  0.00    -0.096 C 
ATOM      8  C   UNK     1      35.466 -24.969 -15.069  0.00  0.00    -0.096 C 
ENDBRANCH   4   5
ENDBRANCH   3   4
ENDBRANCH   2   3
ENDBRANCH   1   2
BRANCH   1   9
ATOM      9  C   UNK     1      34.996 -21.424 -19.707  0.00  0.00    +0.040 C 
BRANCH   9  10
ATOM     10  N   UNK     1      35.896 -20.267 -20.009  0.00  0.00    +0.389 N 
ATOM     11  H   UNK     1      35.335 -19.422 -20.125  0.00  0.00    -0.088 HD
ATOM     12  H   UNK     1      36.412 -20.452 -20.868  0.00  0.00    -0.088 HD
ATOM     13  H   UNK     1      36.552 -20.136 -19.239  0.00  0.00    -0.088 HD
ENDBRANCH   9  10
BRANCH   9  16
ATOM     14  O   UNK     1      32.722 -21.922 -19.258  0.00  0.00    -0.248 OA
ATOM     15  O   UNK     1      33.214 -20.009 -20.399  0.00  0.00    -0.248 OA
ATOM     16  C   UNK     1      33.497 -21.089 -19.806  0.00  0.00    +0.345 C 
ENDBRANCH   9  16
ENDBRANCH   1   9
TORSDOF 7
ENDMDL
MODEL 8
REMARK VINA RESULT:      -5.3      3.765      5.599
REMARK  Name = 6992003
REMARK  7 active torsions:
REMARK  status: ('A' for Active; 'I' for Inactive)
REMARK    1  A    between atoms: C_1  and  C_2
REMARK    2  A    between atoms: C_1  and  C_9
REMARK    3  A    between atoms: C_2  and  C_3
REMARK    4  A    between atoms: C_3  and  C_4
REMARK    5  A    between atoms: C_4  and  N_5
REMARK    6  A    between atoms: C_9  and  N_10
REMARK    7  A    between atoms: C_9  and  C_16
REMARK                            x       y       z     vdW  Elec       q    Type
REMARK                         _______ _______ _______ _____ _____    ______ ____
ROOT
ATOM      1  C   UNK     1      33.334 -22.775 -18.173  0.00  0.00    -0.011 C 
ENDROOT
BRANCH   1   2
ATOM      2  C   UNK     1      33.968 -23.217 -16.847  0.00  0.00    -0.004 C 
BRANCH   2   3
ATOM      3  C   UNK     1      32.902 -23.390 -15.758  0.00  0.00    -0.022 C 
BRANCH   3   4
ATOM      4  C   UNK     1      31.476 -23.239 -16.276  0.00  0.00    -0.073 C 
BRANCH   4   5
ATOM      5  N   UNK     1      30.497 -23.600 -15.226  0.00  0.00    +0.386 N 
ATOM      6  C   UNK     1      31.101 -23.416 -13.826  0.00  0.00    -0.096 C 
ATOM      7  C   UNK     1      29.242 -22.720 -15.321  0.00  0.00    -0.096 C 
ATOM      8  C   UNK     1      30.060 -25.066 -15.365  0.00  0.00    -0.096 C 
ENDBRANCH   4   5
ENDBRANCH   3   4
ENDBRANCH   2   3
ENDBRANCH   1   2
BRANCH   1   9
ATOM      9  C   UNK     1      34.316 -22.142 -19.167  0.00  0.00    +0.040 C 
BRANCH   9  10
ATOM     10  N   UNK     1      35.638 -21.958 -18.488  0.00  0.00    +0.389 N 
ATOM     11  H   UNK     1      35.520 -21.356 -17.673  0.00  0.00    -0.088 HD
ATOM     12  H   UNK     1      36.297 -21.528 -19.136  0.00  0.00    -0.088 HD
ATOM     13  H   UNK     1      35.997 -22.866 -18.190  0.00  0.00    -0.088 HD
ENDBRANCH   9  10
BRANCH   9  16
ATOM     14  O   UNK     1      34.665 -20.268 -20.577  0.00  0.00    -0.248 OA
ATOM     15  O   UNK     1      32.580 -20.613 -19.717  0.00  0.00    -0.248 OA
ATOM     16  C   UNK     1      33.804 -20.880 -19.883  0.00  0.00    +0.345 C 
ENDBRANCH   9  16
ENDBRANCH   1   9
TORSDOF 7
ENDMDL
MODEL 9
REMARK VINA RESULT:      -5.3      7.858      9.197
REMARK  Name = 6992003
REMARK  7 active torsions:
REMARK  status: ('A' for Active; 'I' for Inactive)
REMARK    1  A    between atoms: C_1  and  C_2
REMARK    2  A    between atoms: C_1  and  C_9
REMARK    3  A    between atoms: C_2  and  C_3
REMARK    4  A    between atoms: C_3  and  C_4
REMARK    5  A    between atoms: C_4  and  N_5
REMARK    6  A    between atoms: C_9  and  N_10
REMARK    7  A    between atoms: C_9  and  C_16
REMARK                            x       y       z     vdW  Elec       q    Type
REMARK                         _______ _______ _______ _____ _____    ______ ____
ROOT
ATOM      1  C   UNK     1      34.572 -19.972 -20.877  0.00  0.00    -0.011 C 
ENDROOT
BRANCH   1   2
ATOM      2  C   UNK     1      35.690 -18.991 -21.256  0.00  0.00    -0.004 C 
BRANCH   2   3
ATOM      3  C   UNK     1      35.246 -17.540 -21.039  0.00  0.00    -0.022 C 
BRANCH   3   4
ATOM      4  C   UNK     1      34.140 -17.095 -21.989  0.00  0.00    -0.073 C 
BRANCH   4   5
ATOM      5  N   UNK     1      33.607 -15.773 -21.590  0.00  0.00    +0.386 N 
ATOM      6  C   UNK     1      32.297 -15.925 -20.803  0.00  0.00    -0.096 C 
ATOM      7  C   UNK     1      34.610 -15.023 -20.701  0.00  0.00    -0.096 C 
ATOM      8  C   UNK     1      33.321 -14.902 -22.823  0.00  0.00    -0.096 C 
ENDBRANCH   4   5
ENDBRANCH   3   4
ENDBRANCH   2   3
ENDBRANCH   1   2
BRANCH   1   9
ATOM      9  C   UNK     1      34.940 -20.953 -19.757  0.00  0.00    +0.040 C 
BRANCH   9  10
ATOM     10  N   UNK     1      36.348 -21.418 -19.966  0.00  0.00    +0.389 N 
ATOM     11  H   UNK     1      36.625 -21.237 -20.931  0.00  0.00    -0.088 HD
ATOM     12  H   UNK     1      36.408 -22.418 -19.777  0.00  0.00    -0.088 HD
ATOM     13  H   UNK     1      36.970 -20.915 -19.334  0.00  0.00    -0.088 HD
ENDBRANCH   9  10
BRANCH   9  16
ATOM     14  O   UNK     1      34.448 -23.241 -19.375  0.00  0.00    -0.248 OA
ATOM     15  O   UNK     1      32.718 -21.758 -19.493  0.00  0.00    -0.248 OA
ATOM     16  C   UNK     1      33.936 -22.096 -19.528  0.00  0.00    +0.345 C 
ENDBRANCH   9  16
ENDBRANCH   1   9
TORSDOF 7
ENDMDL
