MODEL 1
REMARK VINA RESULT:      -8.5      0.000      0.000
REMARK  Name = 9948102
REMARK  8 active torsions:
REMARK  status: ('A' for Active; 'I' for Inactive)
REMARK    1  A    between atoms: O_1  and  C_2
REMARK    2  A    between atoms: O_1  and  C_12
REMARK    3  A    between atoms: C_2  and  C_3
REMARK    4  A    between atoms: C_3  and  C_4
REMARK    5  A    between atoms: C_4  and  N_5
REMARK    6  A    between atoms: C_12  and  C_13
REMARK    7  A    between atoms: C_13  and  C_14
REMARK    8  A    between atoms: C_14  and  C_16
REMARK                            x       y       z     vdW  Elec       q    Type
REMARK                         _______ _______ _______ _____ _____    ______ ____
ROOT
ATOM      1  O   UNL     1      33.880 -17.681 -25.495  0.00  0.00    -0.354 OA
ENDROOT
BRANCH   1   2
ATOM      2  C   UNL     1      33.635 -16.286 -25.613  0.00  0.00    +0.140 C 
BRANCH   2   3
ATOM      3  C   UNL     1      34.488 -15.548 -24.590  0.00  0.00    +0.009 C 
BRANCH   3   4
ATOM      4  C   UNL     1      33.863 -14.213 -24.199  0.00  0.00    -0.075 C 
BRANCH   4   5
ATOM      5  N   UNL     1      33.780 -14.099 -22.743  0.00  0.00    +0.387 N 
ATOM      6  C   UNL     1      32.423 -13.710 -22.334  0.00  0.00    -0.077 C 
ATOM      7  C   UNL     1      34.186 -15.359 -22.105  0.00  0.00    -0.077 C 
ATOM      8  C   UNL     1      32.332 -13.539 -20.817  0.00  0.00    -0.023 C 
ATOM      9  C   UNL     1      34.153 -15.242 -20.580  0.00  0.00    -0.023 C 
ATOM     10  C   UNL     1      32.779 -14.801 -20.089  0.00  0.00    -0.004 C 
ATOM     11  H   UNL     1      34.423 -13.370 -22.434  0.00  0.00    -0.080 HD
ENDBRANCH   4   5
ENDBRANCH   3   4
ENDBRANCH   2   3
ENDBRANCH   1   2
BRANCH   1  12
ATOM     12  C   UNL     1      34.961 -17.948 -24.613  0.00  0.00    +0.143 C 
BRANCH  12  13
ATOM     13  C   UNL     1      34.518 -18.985 -23.591  0.00  0.00    +0.037 C 
BRANCH  13  14
ATOM     14  C   UNL     1      35.234 -18.799 -22.254  0.00  0.00    +0.029 C 
BRANCH  14  16
ATOM     15 CL   UNL     1      33.196 -22.609 -18.089  0.00  0.00    -0.082 Cl
ATOM     16  C   UNL     1      34.722 -19.757 -21.209  0.00  0.00    -0.022 C 
ATOM     17  C   UNL     1      33.360 -19.820 -20.950  0.00  0.00    -0.003 C 
ATOM     18  C   UNL     1      35.621 -20.559 -20.522  0.00  0.00    -0.003 C 
ATOM     19  C   UNL     1      32.887 -20.705 -19.982  0.00  0.00    +0.011 C 
ATOM     20  C   UNL     1      35.147 -21.445 -19.554  0.00  0.00    +0.011 C 
ATOM     21  C   UNL     1      33.780 -21.518 -19.284  0.00  0.00    +0.058 C 
ENDBRANCH  14  16
ENDBRANCH  13  14
ENDBRANCH  12  13
ENDBRANCH   1  12
TORSDOF 8
ENDMDL
MODEL 2
REMARK VINA RESULT:      -8.4      1.948      3.089
REMARK  Name = 9948102
REMARK  8 active torsions:
REMARK  status: ('A' for Active; 'I' for Inactive)
REMARK    1  A    between atoms: O_1  and  C_2
REMARK    2  A    between atoms: O_1  and  C_12
REMARK    3  A    between atoms: C_2  and  C_3
REMARK    4  A    between atoms: C_3  and  C_4
REMARK    5  A    between atoms: C_4  and  N_5
REMARK    6  A    between atoms: C_12  and  C_13
REMARK    7  A    between atoms: C_13  and  C_14
REMARK    8  A    between atoms: C_14  and  C_16
REMARK                            x       y       z     vdW  Elec       q    Type
REMARK                         _______ _______ _______ _____ _____    ______ ____
ROOT
ATOM      1  O   UNL     1      34.564 -15.198 -22.005  0.00  0.00    -0.354 OA
ENDROOT
BRANCH   1   2
ATOM      2  C   UNL     1      34.054 -15.335 -20.685  0.00  0.00    +0.140 C 
BRANCH   2   3
ATOM      3  C   UNL     1      32.773 -14.520 -20.565  0.00  0.00    +0.009 C 
BRANCH   3   4
ATOM      4  C   UNL     1      32.363 -13.922 -21.906  0.00  0.00    -0.075 C 
BRANCH   4   5
ATOM      5  N   UNL     1      31.727 -12.620 -21.709  0.00  0.00    +0.387 N 
ATOM      6  C   UNL     1      31.818 -12.211 -20.300  0.00  0.00    -0.077 C 
ATOM      7  C   UNL     1      32.331 -11.613 -22.593  0.00  0.00    -0.077 C 
ATOM      8  C   UNL     1      31.115 -10.873 -20.067  0.00  0.00    -0.023 C 
ATOM      9  C   UNL     1      31.644 -10.256 -22.436  0.00  0.00    -0.023 C 
ATOM     10  C   UNL     1      31.668  -9.789 -20.985  0.00  0.00    -0.004 C 
ATOM     11  H   UNL     1      30.739 -12.697 -21.951  0.00  0.00    -0.080 HD
ENDBRANCH   4   5
ENDBRANCH   3   4
ENDBRANCH   2   3
ENDBRANCH   1   2
BRANCH   1  12
ATOM     12  C   UNL     1      35.032 -16.440 -22.514  0.00  0.00    +0.143 C 
BRANCH  12  13
ATOM     13  C   UNL     1      35.250 -17.398 -21.352  0.00  0.00    +0.037 C 
BRANCH  13  14
ATOM     14  C   UNL     1      35.552 -18.814 -21.840  0.00  0.00    +0.029 C 
BRANCH  14  16
ATOM     15 CL   UNL     1      33.323 -22.964 -18.121  0.00  0.00    -0.082 Cl
ATOM     16  C   UNL     1      34.992 -19.857 -20.907  0.00  0.00    -0.022 C 
ATOM     17  C   UNL     1      33.623 -19.915 -20.692  0.00  0.00    -0.003 C 
ATOM     18  C   UNL     1      35.855 -20.741 -20.277  0.00  0.00    -0.003 C 
ATOM     19  C   UNL     1      33.105 -20.880 -19.827  0.00  0.00    +0.011 C 
ATOM     20  C   UNL     1      35.337 -21.706 -19.413  0.00  0.00    +0.011 C 
ATOM     21  C   UNL     1      33.962 -21.775 -19.188  0.00  0.00    +0.058 C 
ENDBRANCH  14  16
ENDBRANCH  13  14
ENDBRANCH  12  13
ENDBRANCH   1  12
TORSDOF 8
ENDMDL
MODEL 3
REMARK VINA RESULT:      -8.3      1.762      3.203
REMARK  Name = 9948102
REMARK  8 active torsions:
REMARK  status: ('A' for Active; 'I' for Inactive)
REMARK    1  A    between atoms: O_1  and  C_2
REMARK    2  A    between atoms: O_1  and  C_12
REMARK    3  A    between atoms: C_2  and  C_3
REMARK    4  A    between atoms: C_3  and  C_4
REMARK    5  A    between atoms: C_4  and  N_5
REMARK    6  A    between atoms: C_12  and  C_13
REMARK    7  A    between atoms: C_13  and  C_14
REMARK    8  A    between atoms: C_14  and  C_16
REMARK                            x       y       z     vdW  Elec       q    Type
REMARK                         _______ _______ _______ _____ _____    ______ ____
ROOT
ATOM      1  O   UNL     1      34.975 -16.449 -21.182  0.00  0.00    -0.354 OA
ENDROOT
BRANCH   1   2
ATOM      2  C   UNL     1      34.334 -15.180 -21.157  0.00  0.00    +0.140 C 
BRANCH   2   3
ATOM      3  C   UNL     1      34.405 -14.565 -22.548  0.00  0.00    +0.009 C 
BRANCH   3   4
ATOM      4  C   UNL     1      33.323 -13.510 -22.749  0.00  0.00    -0.075 C 
BRANCH   4   5
ATOM      5  N   UNL     1      33.016 -13.361 -24.171  0.00  0.00    +0.387 N 
ATOM      6  C   UNL     1      33.836 -12.297 -24.767  0.00  0.00    -0.077 C 
ATOM      7  C   UNL     1      33.210 -14.638 -24.875  0.00  0.00    -0.077 C 
ATOM      8  C   UNL     1      33.492 -12.096 -26.244  0.00  0.00    -0.023 C 
ATOM      9  C   UNL     1      32.845 -14.513 -26.355  0.00  0.00    -0.023 C 
ATOM     10  C   UNL     1      33.634 -13.396 -27.027  0.00  0.00    -0.004 C 
ATOM     11  H   UNL     1      32.036 -13.095 -24.269  0.00  0.00    -0.080 HD
ENDBRANCH   4   5
ENDBRANCH   3   4
ENDBRANCH   2   3
ENDBRANCH   1   2
BRANCH   1  12
ATOM     12  C   UNL     1      35.194 -16.896 -22.513  0.00  0.00    +0.143 C 
BRANCH  12  13
ATOM     13  C   UNL     1      35.182 -18.418 -22.529  0.00  0.00    +0.037 C 
BRANCH  13  14
ATOM     14  C   UNL     1      36.106 -19.000 -21.461  0.00  0.00    +0.029 C 
BRANCH  14  16
ATOM     15 CL   UNL     1      33.293 -23.068 -18.062  0.00  0.00    -0.082 Cl
ATOM     16  C   UNL     1      35.400 -20.022 -20.608  0.00  0.00    -0.022 C 
ATOM     17  C   UNL     1      34.013 -20.055 -20.591  0.00  0.00    -0.003 C 
ATOM     18  C   UNL     1      36.148 -20.913 -19.853  0.00  0.00    -0.003 C 
ATOM     19  C   UNL     1      33.359 -21.001 -19.801  0.00  0.00    +0.011 C 
ATOM     20  C   UNL     1      35.494 -21.859 -19.063  0.00  0.00    +0.011 C 
ATOM     21  C   UNL     1      34.100 -21.902 -19.038  0.00  0.00    +0.058 C 
ENDBRANCH  14  16
ENDBRANCH  13  14
ENDBRANCH  12  13
ENDBRANCH   1  12
TORSDOF 8
ENDMDL
MODEL 4
REMARK VINA RESULT:      -8.2      5.710      9.400
REMARK  Name = 9948102
REMARK  8 active torsions:
REMARK  status: ('A' for Active; 'I' for Inactive)
REMARK    1  A    between atoms: O_1  and  C_2
REMARK    2  A    between atoms: O_1  and  C_12
REMARK    3  A    between atoms: C_2  and  C_3
REMARK    4  A    between atoms: C_3  and  C_4
REMARK    5  A    between atoms: C_4  and  N_5
REMARK    6  A    between atoms: C_12  and  C_13
REMARK    7  A    between atoms: C_13  and  C_14
REMARK    8  A    between atoms: C_14  and  C_16
REMARK                            x       y       z     vdW  Elec       q    Type
REMARK                         _______ _______ _______ _____ _____    ______ ____
ROOT
ATOM      1  O   UNL     1      34.709 -23.592 -16.751  0.00  0.00    -0.354 OA
ENDROOT
BRANCH   1   2
ATOM      2  C   UNL     1      34.475 -23.960 -15.397  0.00  0.00    +0.140 C 
BRANCH   2   3
ATOM      3  C   UNL     1      33.252 -23.209 -14.887  0.00  0.00    +0.009 C 
BRANCH   3   4
ATOM      4  C   UNL     1      32.483 -24.028 -13.856  0.00  0.00    -0.075 C 
BRANCH   4   5
ATOM      5  N   UNL     1      31.044 -23.923 -14.095  0.00  0.00    +0.387 N 
ATOM      6  C   UNL     1      30.756 -22.822 -15.026  0.00  0.00    -0.077 C 
ATOM      7  C   UNL     1      30.513 -25.197 -14.599  0.00  0.00    -0.077 C 
ATOM      8  C   UNL     1      29.251 -22.668 -15.249  0.00  0.00    -0.023 C 
ATOM      9  C   UNL     1      28.999 -25.121 -14.808  0.00  0.00    -0.023 C 
ATOM     10  C   UNL     1      28.626 -23.971 -15.736  0.00  0.00    -0.004 C 
ATOM     11  H   UNL     1      30.580 -23.717 -13.211  0.00  0.00    -0.080 HD
ENDBRANCH   4   5
ENDBRANCH   3   4
ENDBRANCH   2   3
ENDBRANCH   1   2
BRANCH   1  12
ATOM     12  C   UNL     1      33.516 -23.153 -17.385  0.00  0.00    +0.143 C 
BRANCH  12  13
ATOM     13  C   UNL     1      33.830 -22.789 -18.829  0.00  0.00    +0.037 C 
BRANCH  13  14
ATOM     14  C   UNL     1      35.181 -22.085 -18.951  0.00  0.00    +0.029 C 
BRANCH  14  16
ATOM     15 CL   UNL     1      34.868 -17.275 -22.526  0.00  0.00    -0.082 Cl
ATOM     16  C   UNL     1      35.102 -20.878 -19.849  0.00  0.00    -0.022 C 
ATOM     17  C   UNL     1      36.272 -20.255 -20.258  0.00  0.00    -0.003 C 
ATOM     18  C   UNL     1      33.861 -20.409 -20.252  0.00  0.00    -0.003 C 
ATOM     19  C   UNL     1      36.200 -19.137 -21.090  0.00  0.00    +0.011 C 
ATOM     20  C   UNL     1      33.788 -19.291 -21.084  0.00  0.00    +0.011 C 
ATOM     21  C   UNL     1      34.957 -18.655 -21.502  0.00  0.00    +0.058 C 
ENDBRANCH  14  16
ENDBRANCH  13  14
ENDBRANCH  12  13
ENDBRANCH   1  12
TORSDOF 8
ENDMDL
MODEL 5
REMARK VINA RESULT:      -8.1      3.722      5.786
REMARK  Name = 9948102
REMARK  8 active torsions:
REMARK  status: ('A' for Active; 'I' for Inactive)
REMARK    1  A    between atoms: O_1  and  C_2
REMARK    2  A    between atoms: O_1  and  C_12
REMARK    3  A    between atoms: C_2  and  C_3
REMARK    4  A    between atoms: C_3  and  C_4
REMARK    5  A    between atoms: C_4  and  N_5
REMARK    6  A    between atoms: C_12  and  C_13
REMARK    7  A    between atoms: C_13  and  C_14
REMARK    8  A    between atoms: C_14  and  C_16
REMARK                            x       y       z     vdW  Elec       q    Type
REMARK                         _______ _______ _______ _____ _____    ______ ____
ROOT
ATOM      1  O   UNL     1      33.548 -10.592 -24.446  0.00  0.00    -0.354 OA
ENDROOT
BRANCH   1   2
ATOM      2  C   UNL     1      34.484  -9.596 -24.057  0.00  0.00    +0.140 C 
BRANCH   2   3
ATOM      3  C   UNL     1      33.727  -8.410 -23.474  0.00  0.00    +0.009 C 
BRANCH   3   4
ATOM      4  C   UNL     1      32.282  -8.773 -23.152  0.00  0.00    -0.075 C 
BRANCH   4   5
ATOM      5  N   UNL     1      32.223  -9.620 -21.961  0.00  0.00    +0.387 N 
ATOM      6  C   UNL     1      32.196  -8.795 -20.744  0.00  0.00    -0.077 C 
ATOM      7  C   UNL     1      31.058 -10.514 -22.022  0.00  0.00    -0.077 C 
ATOM      8  C   UNL     1      32.184  -9.667 -19.487  0.00  0.00    -0.023 C 
ATOM      9  C   UNL     1      31.010 -11.442 -20.807  0.00  0.00    -0.023 C 
ATOM     10  C   UNL     1      31.019 -10.649 -19.505  0.00  0.00    -0.004 C 
ATOM     11  H   UNL     1      33.062 -10.199 -21.929  0.00  0.00    -0.080 HD
ENDBRANCH   4   5
ENDBRANCH   3   4
ENDBRANCH   2   3
ENDBRANCH   1   2
BRANCH   1  12
ATOM     12  C   UNL     1      34.188 -11.688 -25.085  0.00  0.00    +0.143 C 
BRANCH  12  13
ATOM     13  C   UNL     1      33.550 -12.982 -24.601  0.00  0.00    +0.037 C 
BRANCH  13  14
ATOM     14  C   UNL     1      33.541 -13.069 -23.076  0.00  0.00    +0.029 C 
BRANCH  14  16
ATOM     15 CL   UNL     1      35.701 -18.320 -21.134  0.00  0.00    -0.082 Cl
ATOM     16  C   UNL     1      34.084 -14.387 -22.588  0.00  0.00    -0.022 C 
ATOM     17  C   UNL     1      34.551 -15.315 -23.508  0.00  0.00    -0.003 C 
ATOM     18  C   UNL     1      34.108 -14.652 -21.227  0.00  0.00    -0.003 C 
ATOM     19  C   UNL     1      35.053 -16.535 -23.056  0.00  0.00    +0.011 C 
ATOM     20  C   UNL     1      34.611 -15.873 -20.775  0.00  0.00    +0.011 C 
ATOM     21  C   UNL     1      35.082 -16.814 -21.690  0.00  0.00    +0.058 C 
ENDBRANCH  14  16
ENDBRANCH  13  14
ENDBRANCH  12  13
ENDBRANCH   1  12
TORSDOF 8
ENDMDL
MODEL 6
REMARK VINA RESULT:      -8.0      5.943      9.961
REMARK  Name = 9948102
REMARK  8 active torsions:
REMARK  status: ('A' for Active; 'I' for Inactive)
REMARK    1  A    between atoms: O_1  and  C_2
REMARK    2  A    between atoms: O_1  and  C_12
REMARK    3  A    between atoms: C_2  and  C_3
REMARK    4  A    between atoms: C_3  and  C_4
REMARK    5  A    between atoms: C_4  and  N_5
REMARK    6  A    between atoms: C_12  and  C_13
REMARK    7  A    between atoms: C_13  and  C_14
REMARK    8  A    between atoms: C_14  and  C_16
REMARK                            x       y       z     vdW  Elec       q    Type
REMARK                         _______ _______ _______ _____ _____    ______ ____
ROOT
ATOM      1  O   UNL     1      32.351 -23.146 -16.700  0.00  0.00    -0.354 OA
ENDROOT
BRANCH   1   2
ATOM      2  C   UNL     1      32.566 -23.399 -15.318  0.00  0.00    +0.140 C 
BRANCH   2   3
ATOM      3  C   UNL     1      34.058 -23.596 -15.080  0.00  0.00    +0.009 C 
BRANCH   3   4
ATOM      4  C   UNL     1      34.331 -24.186 -13.701  0.00  0.00    -0.075 C 
BRANCH   4   5
ATOM      5  N   UNL     1      35.582 -24.944 -13.712  0.00  0.00    +0.387 N 
ATOM      6  C   UNL     1      35.804 -25.552 -15.031  0.00  0.00    -0.077 C 
ATOM      7  C   UNL     1      36.708 -24.082 -13.329  0.00  0.00    -0.077 C 
ATOM      8  C   UNL     1      37.084 -26.389 -15.045  0.00  0.00    -0.023 C 
ATOM      9  C   UNL     1      38.018 -24.871 -13.287  0.00  0.00    -0.023 C 
ATOM     10  C   UNL     1      38.291 -25.563 -14.617  0.00  0.00    -0.004 C 
ATOM     11  H   UNL     1      35.515 -25.696 -13.026  0.00  0.00    -0.080 HD
ENDBRANCH   4   5
ENDBRANCH   3   4
ENDBRANCH   2   3
ENDBRANCH   1   2
BRANCH   1  12
ATOM     12  C   UNL     1      33.538 -23.341 -17.457  0.00  0.00    +0.143 C 
BRANCH  12  13
ATOM     13  C   UNL     1      33.535 -22.378 -18.636  0.00  0.00    +0.037 C 
BRANCH  13  14
ATOM     14  C   UNL     1      34.946 -22.137 -19.170  0.00  0.00    +0.029 C 
BRANCH  14  16
ATOM     15 CL   UNL     1      35.282 -17.056 -22.346  0.00  0.00    -0.082 Cl
ATOM     16  C   UNL     1      35.030 -20.860 -19.966  0.00  0.00    -0.022 C 
ATOM     17  C   UNL     1      33.864 -20.257 -20.413  0.00  0.00    -0.003 C 
ATOM     18  C   UNL     1      36.273 -20.310 -20.241  0.00  0.00    -0.003 C 
ATOM     19  C   UNL     1      33.942 -19.075 -21.151  0.00  0.00    +0.011 C 
ATOM     20  C   UNL     1      36.351 -19.128 -20.979  0.00  0.00    +0.011 C 
ATOM     21  C   UNL     1      35.186 -18.512 -21.434  0.00  0.00    +0.058 C 
ENDBRANCH  14  16
ENDBRANCH  13  14
ENDBRANCH  12  13
ENDBRANCH   1  12
TORSDOF 8
ENDMDL
MODEL 7
REMARK VINA RESULT:      -7.9      2.138      3.321
REMARK  Name = 9948102
REMARK  8 active torsions:
REMARK  status: ('A' for Active; 'I' for Inactive)
REMARK    1  A    between atoms: O_1  and  C_2
REMARK    2  A    between atoms: O_1  and  C_12
REMARK    3  A    between atoms: C_2  and  C_3
REMARK    4  A    between atoms: C_3  and  C_4
REMARK    5  A    between atoms: C_4  and  N_5
REMARK    6  A    between atoms: C_12  and  C_13
REMARK    7  A    between atoms: C_13  and  C_14
REMARK    8  A    between atoms: C_14  and  C_16
REMARK                            x       y       z     vdW  Elec       q    Type
REMARK                         _______ _______ _______ _____ _____    ______ ____
ROOT
ATOM      1  O   UNL     1      34.928 -16.234 -21.042  0.00  0.00    -0.354 OA
ENDROOT
BRANCH   1   2
ATOM      2  C   UNL     1      34.372 -14.926 -21.038  0.00  0.00    +0.140 C 
BRANCH   2   3
ATOM      3  C   UNL     1      33.968 -14.558 -22.459  0.00  0.00    +0.009 C 
BRANCH   3   4
ATOM      4  C   UNL     1      32.671 -13.758 -22.484  0.00  0.00    -0.075 C 
BRANCH   4   5
ATOM      5  N   UNL     1      32.958 -12.327 -22.585  0.00  0.00    +0.387 N 
ATOM      6  C   UNL     1      33.555 -12.013 -23.890  0.00  0.00    -0.077 C 
ATOM      7  C   UNL     1      31.737 -11.541 -22.356  0.00  0.00    -0.077 C 
ATOM      8  C   UNL     1      33.906 -10.528 -23.994  0.00  0.00    -0.023 C 
ATOM      9  C   UNL     1      32.029 -10.040 -22.409  0.00  0.00    -0.023 C 
ATOM     10  C   UNL     1      32.689  -9.651 -23.727  0.00  0.00    -0.004 C 
ATOM     11  H   UNL     1      33.632 -12.076 -21.862  0.00  0.00    -0.080 HD
ENDBRANCH   4   5
ENDBRANCH   3   4
ENDBRANCH   2   3
ENDBRANCH   1   2
BRANCH   1  12
ATOM     12  C   UNL     1      35.118 -16.715 -22.365  0.00  0.00    +0.143 C 
BRANCH  12  13
ATOM     13  C   UNL     1      34.877 -18.218 -22.383  0.00  0.00    +0.037 C 
BRANCH  13  14
ATOM     14  C   UNL     1      35.923 -18.966 -21.558  0.00  0.00    +0.029 C 
BRANCH  14  16
ATOM     15 CL   UNL     1      33.421 -23.153 -18.061  0.00  0.00    -0.082 Cl
ATOM     16  C   UNL     1      35.295 -20.017 -20.679  0.00  0.00    -0.022 C 
ATOM     17  C   UNL     1      36.109 -20.890 -19.972  0.00  0.00    -0.003 C 
ATOM     18  C   UNL     1      33.913 -20.094 -20.592  0.00  0.00    -0.003 C 
ATOM     19  C   UNL     1      35.527 -21.863 -19.159  0.00  0.00    +0.011 C 
ATOM     20  C   UNL     1      33.331 -21.067 -19.779  0.00  0.00    +0.011 C 
ATOM     21  C   UNL     1      34.139 -21.951 -19.063  0.00  0.00    +0.058 C 
ENDBRANCH  14  16
ENDBRANCH  13  14
ENDBRANCH  12  13
ENDBRANCH   1  12
TORSDOF 8
ENDMDL
MODEL 8
REMARK VINA RESULT:      -7.8      3.306      7.099
REMARK  Name = 9948102
REMARK  8 active torsions:
REMARK  status: ('A' for Active; 'I' for Inactive)
REMARK    1  A    between atoms: O_1  and  C_2
REMARK    2  A    between atoms: O_1  and  C_12
REMARK    3  A    between atoms: C_2  and  C_3
REMARK    4  A    between atoms: C_3  and  C_4
REMARK    5  A    between atoms: C_4  and  N_5
REMARK    6  A    between atoms: C_12  and  C_13
REMARK    7  A    between atoms: C_13  and  C_14
REMARK    8  A    between atoms: C_14  and  C_16
REMARK                            x       y       z     vdW  Elec       q    Type
REMARK                         _______ _______ _______ _____ _____    ______ ____
ROOT
ATOM      1  O   UNL     1      34.299 -16.971 -23.404  0.00  0.00    -0.354 OA
ENDROOT
BRANCH   1   2
ATOM      2  C   UNL     1      34.864 -18.077 -24.094  0.00  0.00    +0.140 C 
BRANCH   2   3
ATOM      3  C   UNL     1      35.245 -19.148 -23.080  0.00  0.00    +0.009 C 
BRANCH   3   4
ATOM      4  C   UNL     1      35.535 -18.544 -21.711  0.00  0.00    -0.075 C 
BRANCH   4   5
ATOM      5  N   UNL     1      34.975 -19.387 -20.655  0.00  0.00    +0.387 N 
ATOM      6  C   UNL     1      33.589 -19.758 -20.973  0.00  0.00    -0.077 C 
ATOM      7  C   UNL     1      35.810 -20.579 -20.452  0.00  0.00    -0.077 C 
ATOM      8  C   UNL     1      32.972 -20.599 -19.855  0.00  0.00    -0.023 C 
ATOM      9  C   UNL     1      35.266 -21.447 -19.316  0.00  0.00    -0.023 C 
ATOM     10  C   UNL     1      33.813 -21.836 -19.564  0.00  0.00    -0.004 C 
ATOM     11  H   UNL     1      34.967 -18.857 -19.784  0.00  0.00    -0.080 HD
ENDBRANCH   4   5
ENDBRANCH   3   4
ENDBRANCH   2   3
ENDBRANCH   1   2
BRANCH   1  12
ATOM     12  C   UNL     1      34.282 -15.804 -24.215  0.00  0.00    +0.143 C 
BRANCH  12  13
ATOM     13  C   UNL     1      34.222 -14.579 -23.314  0.00  0.00    +0.037 C 
BRANCH  13  14
ATOM     14  C   UNL     1      33.152 -13.592 -23.776  0.00  0.00    +0.029 C 
BRANCH  14  16
ATOM     15 CL   UNL     1      30.853 -10.492 -19.180  0.00  0.00    -0.082 Cl
ATOM     16  C   UNL     1      32.573 -12.814 -22.622  0.00  0.00    -0.022 C 
ATOM     17  C   UNL     1      32.173 -11.500 -22.818  0.00  0.00    -0.003 C 
ATOM     18  C   UNL     1      32.452 -13.424 -21.383  0.00  0.00    -0.003 C 
ATOM     19  C   UNL     1      31.638 -10.780 -21.750  0.00  0.00    +0.011 C 
ATOM     20  C   UNL     1      31.917 -12.703 -20.314  0.00  0.00    +0.011 C 
ATOM     21  C   UNL     1      31.511 -11.382 -20.498  0.00  0.00    +0.058 C 
ENDBRANCH  14  16
ENDBRANCH  13  14
ENDBRANCH  12  13
ENDBRANCH   1  12
TORSDOF 8
ENDMDL
MODEL 9
REMARK VINA RESULT:      -7.8      3.238      4.275
REMARK  Name = 9948102
REMARK  8 active torsions:
REMARK  status: ('A' for Active; 'I' for Inactive)
REMARK    1  A    between atoms: O_1  and  C_2
REMARK    2  A    between atoms: O_1  and  C_12
REMARK    3  A    between atoms: C_2  and  C_3
REMARK    4  A    between atoms: C_3  and  C_4
REMARK    5  A    between atoms: C_4  and  N_5
REMARK    6  A    between atoms: C_12  and  C_13
REMARK    7  A    between atoms: C_13  and  C_14
REMARK    8  A    between atoms: C_14  and  C_16
REMARK                            x       y       z     vdW  Elec       q    Type
REMARK                         _______ _______ _______ _____ _____    ______ ____
ROOT
ATOM      1  O   UNL     1      33.577 -14.061 -21.778  0.00  0.00    -0.354 OA
ENDROOT
BRANCH   1   2
ATOM      2  C   UNL     1      32.315 -13.556 -22.197  0.00  0.00    +0.140 C 
BRANCH   2   3
ATOM      3  C   UNL     1      31.890 -12.444 -21.247  0.00  0.00    +0.009 C 
BRANCH   3   4
ATOM      4  C   UNL     1      31.185 -11.314 -21.989  0.00  0.00    -0.075 C 
BRANCH   4   5
ATOM      5  N   UNL     1      31.938 -10.068 -21.850  0.00  0.00    +0.387 N 
ATOM      6  C   UNL     1      31.500  -9.087 -22.853  0.00  0.00    -0.077 C 
ATOM      7  C   UNL     1      31.798  -9.532 -20.488  0.00  0.00    -0.077 C 
ATOM      8  C   UNL     1      32.311  -7.794 -22.752  0.00  0.00    -0.023 C 
ATOM      9  C   UNL     1      32.619  -8.254 -20.309  0.00  0.00    -0.023 C 
ATOM     10  C   UNL     1      32.242  -7.205 -21.348  0.00  0.00    -0.004 C 
ATOM     11  H   UNL     1      32.926 -10.262 -22.010  0.00  0.00    -0.080 HD
ENDBRANCH   4   5
ENDBRANCH   3   4
ENDBRANCH   2   3
ENDBRANCH   1   2
BRANCH   1  12
ATOM     12  C   UNL     1      33.881 -15.295 -22.412  0.00  0.00    +0.143 C 
BRANCH  12  13
ATOM     13  C   UNL     1      34.541 -16.220 -21.399  0.00  0.00    +0.037 C 
BRANCH  13  14
ATOM     14  C   UNL     1      35.218 -17.409 -22.080  0.00  0.00    +0.029 C 
BRANCH  14  16
ATOM     15 CL   UNL     1      34.360 -22.501 -19.023  0.00  0.00    -0.082 Cl
ATOM     16  C   UNL     1      35.002 -18.688 -21.313  0.00  0.00    -0.022 C 
ATOM     17  C   UNL     1      33.710 -19.138 -21.087  0.00  0.00    -0.003 C 
ATOM     18  C   UNL     1      36.100 -19.395 -20.845  0.00  0.00    -0.003 C 
ATOM     19  C   UNL     1      33.510 -20.322 -20.377  0.00  0.00    +0.011 C 
ATOM     20  C   UNL     1      35.901 -20.578 -20.134  0.00  0.00    +0.011 C 
ATOM     21  C   UNL     1      34.606 -21.042 -19.900  0.00  0.00    +0.058 C 
ENDBRANCH  14  16
ENDBRANCH  13  14
ENDBRANCH  12  13
ENDBRANCH   1  12
TORSDOF 8
ENDMDL
