MODEL 1
REMARK VINA RESULT:      -9.7      0.000      0.000
REMARK  Name = 10150081
REMARK  8 active torsions:
REMARK  status: ('A' for Active; 'I' for Inactive)
REMARK    1  A    between atoms: C_3  and  N_18
REMARK    2  A    between atoms: C_4  and  C_11
REMARK    3  A    between atoms: N_10  and  O_13
REMARK    4  A    between atoms: O_13  and  C_14
REMARK    5  A    between atoms: C_14  and  C_15
REMARK    6  A    between atoms: C_15  and  O_16
REMARK    7  A    between atoms: N_18  and  C_21
REMARK    8  A    between atoms: C_26  and  C_27
REMARK                            x       y       z     vdW  Elec       q    Type
REMARK                         _______ _______ _______ _____ _____    ______ ____
ROOT
ATOM      1  F   UNL     1      31.198 -22.773 -17.229  0.00  0.00    -0.200 F 
ATOM      2  F   UNL     1      29.919 -22.638 -14.828  0.00  0.00    -0.202 F 
ATOM      3  C   UNL     1      33.234 -23.356 -16.152  0.00  0.00    +0.083 C 
ATOM      4  C   UNL     1      33.928 -23.617 -14.968  0.00  0.00    +0.071 C 
ATOM      5  C   UNL     1      31.878 -23.026 -16.101  0.00  0.00    +0.181 C 
ATOM      6  C   UNL     1      33.269 -23.547 -13.741  0.00  0.00    +0.008 C 
ATOM      7  C   UNL     1      31.219 -22.956 -14.873  0.00  0.00    +0.169 C 
ATOM      8  C   UNL     1      31.916 -23.216 -13.693  0.00  0.00    +0.032 C 
ENDROOT
BRANCH   4  11
ATOM      9  O   UNL     1      35.752 -24.923 -15.661  0.00  0.00    -0.268 OA
ATOM     10  N   UNL     1      36.187 -23.195 -14.197  0.00  0.00    -0.190 N 
ATOM     11  C   UNL     1      35.343 -23.966 -14.983  0.00  0.00    +0.269 C 
ATOM     12  H   UNL     1      35.853 -22.446 -13.652  0.00  0.00    +0.183 HD
BRANCH  10  13
ATOM     13  O   UNL     1      37.551 -23.547 -14.225  0.00  0.00    -0.263 OA
BRANCH  13  14
ATOM     14  C   UNL     1      37.878 -24.174 -12.993  0.00  0.00    +0.203 C 
BRANCH  14  15
ATOM     15  C   UNL     1      37.348 -23.330 -11.851  0.00  0.00    +0.172 C 
BRANCH  15  16
ATOM     16  O   UNL     1      37.991 -22.061 -11.873  0.00  0.00    -0.379 OA
ATOM     17  H   UNL     1      38.951 -22.184 -11.821  0.00  0.00    +0.211 HD
ENDBRANCH  15  16
ENDBRANCH  14  15
ENDBRANCH  13  14
ENDBRANCH  10  13
ENDBRANCH   4  11
BRANCH   3  18
ATOM     18  N   UNL     1      33.882 -23.422 -17.401  0.00  0.00    -0.309 N 
ATOM     19  H   UNL     1      34.111 -24.338 -17.680  0.00  0.00    +0.152 HD
BRANCH  18  21
ATOM     20  F   UNL     1      36.509 -22.518 -17.559  0.00  0.00    -0.203 F 
ATOM     21  C   UNL     1      34.265 -22.433 -18.331  0.00  0.00    +0.076 C 
ATOM     22  C   UNL     1      35.590 -22.000 -18.385  0.00  0.00    +0.154 C 
ATOM     23  C   UNL     1      33.317 -21.887 -19.196  0.00  0.00    +0.018 C 
ATOM     24  C   UNL     1      35.966 -21.021 -19.305  0.00  0.00    +0.039 C 
ATOM     25  C   UNL     1      33.692 -20.908 -20.115  0.00  0.00    +0.010 C 
ATOM     26  C   UNL     1      35.018 -20.475 -20.170  0.00  0.00    +0.045 C 
BRANCH  26  27
ATOM     27  C   UNL     1      35.404 -19.472 -21.112  0.00  0.00    -0.051 C 
ATOM     28  C   UNL     1      35.729 -18.628 -21.905  0.00  0.00    -0.009 C 
ENDBRANCH  26  27
ENDBRANCH  18  21
ENDBRANCH   3  18
TORSDOF 8
ENDMDL
MODEL 2
REMARK VINA RESULT:      -9.5      1.316      1.514
REMARK  Name = 10150081
REMARK  8 active torsions:
REMARK  status: ('A' for Active; 'I' for Inactive)
REMARK    1  A    between atoms: C_3  and  N_18
REMARK    2  A    between atoms: C_4  and  C_11
REMARK    3  A    between atoms: N_10  and  O_13
REMARK    4  A    between atoms: O_13  and  C_14
REMARK    5  A    between atoms: C_14  and  C_15
REMARK    6  A    between atoms: C_15  and  O_16
REMARK    7  A    between atoms: N_18  and  C_21
REMARK    8  A    between atoms: C_26  and  C_27
REMARK                            x       y       z     vdW  Elec       q    Type
REMARK                         _______ _______ _______ _____ _____    ______ ____
ROOT
ATOM      1  F   UNL     1      31.158 -22.600 -17.235  0.00  0.00    -0.200 F 
ATOM      2  F   UNL     1      29.982 -22.552 -14.777  0.00  0.00    -0.202 F 
ATOM      3  C   UNL     1      33.200 -23.353 -16.282  0.00  0.00    +0.083 C 
ATOM      4  C   UNL     1      33.925 -23.723 -15.146  0.00  0.00    +0.071 C 
ATOM      5  C   UNL     1      31.866 -22.958 -16.154  0.00  0.00    +0.181 C 
ATOM      6  C   UNL     1      33.319 -23.698 -13.890  0.00  0.00    +0.008 C 
ATOM      7  C   UNL     1      31.260 -22.932 -14.897  0.00  0.00    +0.169 C 
ATOM      8  C   UNL     1      31.988 -23.302 -13.765  0.00  0.00    +0.032 C 
ENDROOT
BRANCH   4  11
ATOM      9  O   UNL     1      36.226 -23.300 -15.338  0.00  0.00    -0.268 OA
ATOM     10  N   UNL     1      35.564 -25.506 -15.240  0.00  0.00    -0.190 N 
ATOM     11  C   UNL     1      35.318 -24.142 -15.242  0.00  0.00    +0.269 C 
ATOM     12  H   UNL     1      34.837 -26.168 -15.178  0.00  0.00    +0.183 HD
BRANCH  10  13
ATOM     13  O   UNL     1      36.916 -25.891 -15.334  0.00  0.00    -0.263 OA
BRANCH  13  14
ATOM     14  C   UNL     1      37.193 -26.814 -14.290  0.00  0.00    +0.203 C 
BRANCH  14  15
ATOM     15  C   UNL     1      37.617 -26.049 -13.051  0.00  0.00    +0.172 C 
BRANCH  15  16
ATOM     16  O   UNL     1      36.774 -26.418 -11.967  0.00  0.00    -0.379 OA
ATOM     17  H   UNL     1      37.240 -26.268 -11.129  0.00  0.00    +0.211 HD
ENDBRANCH  15  16
ENDBRANCH  14  15
ENDBRANCH  13  14
ENDBRANCH  10  13
ENDBRANCH   4  11
BRANCH   3  18
ATOM     18  N   UNL     1      33.794 -23.372 -17.558  0.00  0.00    -0.309 N 
ATOM     19  H   UNL     1      34.056 -24.273 -17.859  0.00  0.00    +0.152 HD
BRANCH  18  21
ATOM     20  F   UNL     1      36.399 -22.485 -17.971  0.00  0.00    -0.203 F 
ATOM     21  C   UNL     1      34.086 -22.355 -18.492  0.00  0.00    +0.076 C 
ATOM     22  C   UNL     1      35.402 -21.931 -18.675  0.00  0.00    +0.154 C 
ATOM     23  C   UNL     1      33.056 -21.773 -19.230  0.00  0.00    +0.018 C 
ATOM     24  C   UNL     1      35.689 -20.925 -19.598  0.00  0.00    +0.039 C 
ATOM     25  C   UNL     1      33.342 -20.766 -20.152  0.00  0.00    +0.010 C 
ATOM     26  C   UNL     1      34.659 -20.342 -20.336  0.00  0.00    +0.045 C 
BRANCH  26  27
ATOM     27  C   UNL     1      34.952 -19.311 -21.280  0.00  0.00    -0.051 C 
ATOM     28  C   UNL     1      35.200 -18.443 -22.076  0.00  0.00    -0.009 C 
ENDBRANCH  26  27
ENDBRANCH  18  21
ENDBRANCH   3  18
TORSDOF 8
ENDMDL
MODEL 3
REMARK VINA RESULT:      -9.1      2.610      5.720
REMARK  Name = 10150081
REMARK  8 active torsions:
REMARK  status: ('A' for Active; 'I' for Inactive)
REMARK    1  A    between atoms: C_3  and  N_18
REMARK    2  A    between atoms: C_4  and  C_11
REMARK    3  A    between atoms: N_10  and  O_13
REMARK    4  A    between atoms: O_13  and  C_14
REMARK    5  A    between atoms: C_14  and  C_15
REMARK    6  A    between atoms: C_15  and  O_16
REMARK    7  A    between atoms: N_18  and  C_21
REMARK    8  A    between atoms: C_26  and  C_27
REMARK                            x       y       z     vdW  Elec       q    Type
REMARK                         _______ _______ _______ _____ _____    ______ ____
ROOT
ATOM      1  F   UNL     1      32.991 -23.124 -12.630  0.00  0.00    -0.200 F 
ATOM      2  F   UNL     1      30.414 -24.006 -12.588  0.00  0.00    -0.202 F 
ATOM      3  C   UNL     1      33.012 -23.188 -15.004  0.00  0.00    +0.083 C 
ATOM      4  C   UNL     1      32.339 -23.455 -16.199  0.00  0.00    +0.071 C 
ATOM      5  C   UNL     1      32.358 -23.375 -13.785  0.00  0.00    +0.181 C 
ATOM      6  C   UNL     1      31.020 -23.906 -16.174  0.00  0.00    +0.008 C 
ATOM      7  C   UNL     1      31.038 -23.827 -13.759  0.00  0.00    +0.169 C 
ATOM      8  C   UNL     1      30.370 -24.093 -14.955  0.00  0.00    +0.032 C 
ENDROOT
BRANCH   4  11
ATOM      9  O   UNL     1      34.024 -23.898 -17.774  0.00  0.00    -0.268 OA
ATOM     10  N   UNL     1      32.412 -22.356 -18.359  0.00  0.00    -0.190 N 
ATOM     11  C   UNL     1      32.990 -23.270 -17.490  0.00  0.00    +0.269 C 
ATOM     12  H   UNL     1      31.601 -21.852 -18.122  0.00  0.00    +0.183 HD
BRANCH  10  13
ATOM     13  O   UNL     1      33.056 -22.192 -19.601  0.00  0.00    -0.263 OA
BRANCH  13  14
ATOM     14  C   UNL     1      33.590 -20.876 -19.660  0.00  0.00    +0.203 C 
BRANCH  14  15
ATOM     15  C   UNL     1      35.090 -20.960 -19.864  0.00  0.00    +0.172 C 
BRANCH  15  16
ATOM     16  O   UNL     1      35.552 -22.224 -19.405  0.00  0.00    -0.379 OA
ATOM     17  H   UNL     1      36.385 -22.445 -19.850  0.00  0.00    +0.211 HD
ENDBRANCH  15  16
ENDBRANCH  14  15
ENDBRANCH  13  14
ENDBRANCH  10  13
ENDBRANCH   4  11
BRANCH   3  18
ATOM     18  N   UNL     1      34.345 -22.732 -15.010  0.00  0.00    -0.309 N 
ATOM     19  H   UNL     1      34.428 -21.755 -15.104  0.00  0.00    +0.152 HD
BRANCH  18  21
ATOM     20  F   UNL     1      36.632 -21.750 -16.254  0.00  0.00    -0.203 F 
ATOM     21  C   UNL     1      35.584 -23.399 -14.904  0.00  0.00    +0.076 C 
ATOM     22  C   UNL     1      36.712 -22.882 -15.541  0.00  0.00    +0.154 C 
ATOM     23  C   UNL     1      35.678 -24.577 -14.165  0.00  0.00    +0.018 C 
ATOM     24  C   UNL     1      37.936 -23.543 -15.437  0.00  0.00    +0.039 C 
ATOM     25  C   UNL     1      36.901 -25.239 -14.061  0.00  0.00    +0.010 C 
ATOM     26  C   UNL     1      38.030 -24.722 -14.698  0.00  0.00    +0.045 C 
BRANCH  26  27
ATOM     27  C   UNL     1      39.284 -25.400 -14.591  0.00  0.00    -0.051 C 
ATOM     28  C   UNL     1      40.339 -25.970 -14.502  0.00  0.00    -0.009 C 
ENDBRANCH  26  27
ENDBRANCH  18  21
ENDBRANCH   3  18
TORSDOF 8
ENDMDL
MODEL 4
REMARK VINA RESULT:      -9.0      3.389      4.897
REMARK  Name = 10150081
REMARK  8 active torsions:
REMARK  status: ('A' for Active; 'I' for Inactive)
REMARK    1  A    between atoms: C_3  and  N_18
REMARK    2  A    between atoms: C_4  and  C_11
REMARK    3  A    between atoms: N_10  and  O_13
REMARK    4  A    between atoms: O_13  and  C_14
REMARK    5  A    between atoms: C_14  and  C_15
REMARK    6  A    between atoms: C_15  and  O_16
REMARK    7  A    between atoms: N_18  and  C_21
REMARK    8  A    between atoms: C_26  and  C_27
REMARK                            x       y       z     vdW  Elec       q    Type
REMARK                         _______ _______ _______ _____ _____    ______ ____
ROOT
ATOM      1  F   UNL     1      36.363 -23.063 -16.791  0.00  0.00    -0.200 F 
ATOM      2  F   UNL     1      36.563 -23.244 -14.080  0.00  0.00    -0.202 F 
ATOM      3  C   UNL     1      33.992 -23.150 -16.657  0.00  0.00    +0.083 C 
ATOM      4  C   UNL     1      32.842 -23.243 -15.870  0.00  0.00    +0.071 C 
ATOM      5  C   UNL     1      35.249 -23.151 -16.048  0.00  0.00    +0.181 C 
ATOM      6  C   UNL     1      32.948 -23.334 -14.483  0.00  0.00    +0.008 C 
ATOM      7  C   UNL     1      35.356 -23.243 -14.660  0.00  0.00    +0.169 C 
ATOM      8  C   UNL     1      34.205 -23.336 -13.878  0.00  0.00    +0.032 C 
ENDROOT
BRANCH   4  11
ATOM      9  O   UNL     1      31.200 -22.390 -17.317  0.00  0.00    -0.268 OA
ATOM     10  N   UNL     1      30.631 -24.223 -16.038  0.00  0.00    -0.190 N 
ATOM     11  C   UNL     1      31.514 -23.244 -16.471  0.00  0.00    +0.269 C 
ATOM     12  H   UNL     1      30.882 -24.888 -15.357  0.00  0.00    +0.183 HD
BRANCH  10  13
ATOM     13  O   UNL     1      29.353 -24.208 -16.630  0.00  0.00    -0.263 OA
BRANCH  13  14
ATOM     14  C   UNL     1      28.397 -23.889 -15.628  0.00  0.00    +0.203 C 
BRANCH  14  15
ATOM     15  C   UNL     1      27.927 -22.461 -15.827  0.00  0.00    +0.172 C 
BRANCH  15  16
ATOM     16  O   UNL     1      28.377 -21.997 -17.094  0.00  0.00    -0.379 OA
ATOM     17  H   UNL     1      27.872 -21.209 -17.348  0.00  0.00    +0.211 HD
ENDBRANCH  15  16
ENDBRANCH  14  15
ENDBRANCH  13  14
ENDBRANCH  10  13
ENDBRANCH   4  11
BRANCH   3  18
ATOM     18  N   UNL     1      33.905 -23.057 -18.059  0.00  0.00    -0.309 N 
ATOM     19  H   UNL     1      33.694 -23.912 -18.501  0.00  0.00    +0.152 HD
BRANCH  18  21
ATOM     20  F   UNL     1      36.420 -22.217 -18.904  0.00  0.00    -0.203 F 
ATOM     21  C   UNL     1      34.058 -21.979 -18.957  0.00  0.00    +0.076 C 
ATOM     22  C   UNL     1      35.332 -21.581 -19.361  0.00  0.00    +0.154 C 
ATOM     23  C   UNL     1      32.933 -21.309 -19.438  0.00  0.00    +0.018 C 
ATOM     24  C   UNL     1      35.481 -20.514 -20.247  0.00  0.00    +0.039 C 
ATOM     25  C   UNL     1      33.081 -20.242 -20.323  0.00  0.00    +0.010 C 
ATOM     26  C   UNL     1      34.356 -19.845 -20.728  0.00  0.00    +0.045 C 
BRANCH  26  27
ATOM     27  C   UNL     1      34.509 -18.751 -21.635  0.00  0.00    -0.051 C 
ATOM     28  C   UNL     1      34.638 -17.831 -22.400  0.00  0.00    -0.009 C 
ENDBRANCH  26  27
ENDBRANCH  18  21
ENDBRANCH   3  18
TORSDOF 8
ENDMDL
MODEL 5
REMARK VINA RESULT:      -8.9      8.583     11.592
REMARK  Name = 10150081
REMARK  8 active torsions:
REMARK  status: ('A' for Active; 'I' for Inactive)
REMARK    1  A    between atoms: C_3  and  N_18
REMARK    2  A    between atoms: C_4  and  C_11
REMARK    3  A    between atoms: N_10  and  O_13
REMARK    4  A    between atoms: O_13  and  C_14
REMARK    5  A    between atoms: C_14  and  C_15
REMARK    6  A    between atoms: C_15  and  O_16
REMARK    7  A    between atoms: N_18  and  C_21
REMARK    8  A    between atoms: C_26  and  C_27
REMARK                            x       y       z     vdW  Elec       q    Type
REMARK                         _______ _______ _______ _____ _____    ______ ____
ROOT
ATOM      1  F   UNL     1      35.444 -17.394 -20.670  0.00  0.00    -0.200 F 
ATOM      2  F   UNL     1      35.296 -20.085 -21.071  0.00  0.00    -0.202 F 
ATOM      3  C   UNL     1      34.965 -16.991 -22.962  0.00  0.00    +0.083 C 
ATOM      4  C   UNL     1      34.682 -17.500 -24.232  0.00  0.00    +0.071 C 
ATOM      5  C   UNL     1      35.172 -17.868 -21.895  0.00  0.00    +0.181 C 
ATOM      6  C   UNL     1      34.607 -18.878 -24.433  0.00  0.00    +0.008 C 
ATOM      7  C   UNL     1      35.097 -19.246 -22.096  0.00  0.00    +0.169 C 
ATOM      8  C   UNL     1      34.815 -19.751 -23.366  0.00  0.00    +0.032 C 
ENDROOT
BRANCH   4  11
ATOM      9  O   UNL     1      35.413 -16.031 -25.912  0.00  0.00    -0.268 OA
ATOM     10  N   UNL     1      33.149 -16.449 -25.788  0.00  0.00    -0.190 N 
ATOM     11  C   UNL     1      34.460 -16.614 -25.368  0.00  0.00    +0.269 C 
ATOM     12  H   UNL     1      32.397 -16.905 -25.343  0.00  0.00    +0.183 HD
BRANCH  10  13
ATOM     13  O   UNL     1      32.954 -15.590 -26.887  0.00  0.00    -0.263 OA
BRANCH  13  14
ATOM     14  C   UNL     1      32.451 -14.352 -26.406  0.00  0.00    +0.203 C 
BRANCH  14  15
ATOM     15  C   UNL     1      33.104 -13.219 -27.174  0.00  0.00    +0.172 C 
BRANCH  15  16
ATOM     16  O   UNL     1      34.206 -13.733 -27.912  0.00  0.00    -0.379 OA
ATOM     17  H   UNL     1      34.213 -13.342 -28.799  0.00  0.00    +0.211 HD
ENDBRANCH  15  16
ENDBRANCH  14  15
ENDBRANCH  13  14
ENDBRANCH  10  13
ENDBRANCH   4  11
BRANCH   3  18
ATOM     18  N   UNL     1      35.045 -15.602 -22.739  0.00  0.00    -0.309 N 
ATOM     19  H   UNL     1      35.933 -15.221 -22.931  0.00  0.00    +0.152 HD
BRANCH  18  21
ATOM     20  F   UNL     1      34.392 -13.384 -24.287  0.00  0.00    -0.203 F 
ATOM     21  C   UNL     1      34.102 -14.649 -22.299  0.00  0.00    +0.076 C 
ATOM     22  C   UNL     1      33.797 -13.547 -23.097  0.00  0.00    +0.154 C 
ATOM     23  C   UNL     1      33.478 -14.809 -21.062  0.00  0.00    +0.018 C 
ATOM     24  C   UNL     1      32.867 -12.605 -22.659  0.00  0.00    +0.039 C 
ATOM     25  C   UNL     1      32.548 -13.867 -20.623  0.00  0.00    +0.010 C 
ATOM     26  C   UNL     1      32.242 -12.765 -21.422  0.00  0.00    +0.045 C 
BRANCH  26  27
ATOM     27  C   UNL     1      31.289 -11.799 -20.974  0.00  0.00    -0.051 C 
ATOM     28  C   UNL     1      30.486 -10.987 -20.596  0.00  0.00    -0.009 C 
ENDBRANCH  26  27
ENDBRANCH  18  21
ENDBRANCH   3  18
TORSDOF 8
ENDMDL
MODEL 6
REMARK VINA RESULT:      -8.8      9.978     13.339
REMARK  Name = 10150081
REMARK  8 active torsions:
REMARK  status: ('A' for Active; 'I' for Inactive)
REMARK    1  A    between atoms: C_3  and  N_18
REMARK    2  A    between atoms: C_4  and  C_11
REMARK    3  A    between atoms: N_10  and  O_13
REMARK    4  A    between atoms: O_13  and  C_14
REMARK    5  A    between atoms: C_14  and  C_15
REMARK    6  A    between atoms: C_15  and  O_16
REMARK    7  A    between atoms: N_18  and  C_21
REMARK    8  A    between atoms: C_26  and  C_27
REMARK                            x       y       z     vdW  Elec       q    Type
REMARK                         _______ _______ _______ _____ _____    ______ ____
ROOT
ATOM      1  F   UNL     1      33.633 -11.281 -26.314  0.00  0.00    -0.200 F 
ATOM      2  F   UNL     1      32.948 -13.252 -28.066  0.00  0.00    -0.202 F 
ATOM      3  C   UNL     1      33.776 -12.857 -24.542  0.00  0.00    +0.083 C 
ATOM      4  C   UNL     1      33.667 -14.180 -24.107  0.00  0.00    +0.071 C 
ATOM      5  C   UNL     1      33.532 -12.547 -25.881  0.00  0.00    +0.181 C 
ATOM      6  C   UNL     1      33.317 -15.186 -25.006  0.00  0.00    +0.008 C 
ATOM      7  C   UNL     1      33.182 -13.553 -26.782  0.00  0.00    +0.169 C 
ATOM      8  C   UNL     1      33.073 -14.873 -26.343  0.00  0.00    +0.032 C 
ENDROOT
BRANCH   4  11
ATOM      9  O   UNL     1      33.449 -13.854 -21.791  0.00  0.00    -0.268 OA
ATOM     10  N   UNL     1      34.699 -15.662 -22.489  0.00  0.00    -0.190 N 
ATOM     11  C   UNL     1      33.914 -14.541 -22.716  0.00  0.00    +0.269 C 
ATOM     12  H   UNL     1      35.075 -16.194 -23.228  0.00  0.00    +0.183 HD
BRANCH  10  13
ATOM     13  O   UNL     1      34.927 -15.995 -21.139  0.00  0.00    -0.263 OA
BRANCH  13  14
ATOM     14  C   UNL     1      35.125 -17.399 -21.050  0.00  0.00    +0.203 C 
BRANCH  14  15
ATOM     15  C   UNL     1      35.093 -17.993 -22.445  0.00  0.00    +0.172 C 
BRANCH  15  16
ATOM     16  O   UNL     1      36.422 -18.080 -22.944  0.00  0.00    -0.379 OA
ATOM     17  H   UNL     1      36.548 -18.935 -23.384  0.00  0.00    +0.211 HD
ENDBRANCH  15  16
ENDBRANCH  14  15
ENDBRANCH  13  14
ENDBRANCH  10  13
ENDBRANCH   4  11
BRANCH   3  18
ATOM     18  N   UNL     1      34.128 -11.828 -23.648  0.00  0.00    -0.309 N 
ATOM     19  H   UNL     1      34.875 -12.061 -23.050  0.00  0.00    +0.152 HD
BRANCH  18  21
ATOM     20  F   UNL     1      35.554  -9.573 -24.438  0.00  0.00    -0.203 F 
ATOM     21  C   UNL     1      33.622 -10.527 -23.441  0.00  0.00    +0.076 C 
ATOM     22  C   UNL     1      34.361  -9.416 -23.847  0.00  0.00    +0.154 C 
ATOM     23  C   UNL     1      32.382 -10.353 -22.827  0.00  0.00    +0.018 C 
ATOM     24  C   UNL     1      33.860  -8.131 -23.640  0.00  0.00    +0.039 C 
ATOM     25  C   UNL     1      31.881  -9.068 -22.619  0.00  0.00    +0.010 C 
ATOM     26  C   UNL     1      32.620  -7.957 -23.026  0.00  0.00    +0.045 C 
BRANCH  26  27
ATOM     27  C   UNL     1      32.107  -6.640 -22.814  0.00  0.00    -0.051 C 
ATOM     28  C   UNL     1      31.674  -5.532 -22.636  0.00  0.00    -0.009 C 
ENDBRANCH  26  27
ENDBRANCH  18  21
ENDBRANCH   3  18
TORSDOF 8
ENDMDL
MODEL 7
REMARK VINA RESULT:      -8.7     10.015     13.197
REMARK  Name = 10150081
REMARK  8 active torsions:
REMARK  status: ('A' for Active; 'I' for Inactive)
REMARK    1  A    between atoms: C_3  and  N_18
REMARK    2  A    between atoms: C_4  and  C_11
REMARK    3  A    between atoms: N_10  and  O_13
REMARK    4  A    between atoms: O_13  and  C_14
REMARK    5  A    between atoms: C_14  and  C_15
REMARK    6  A    between atoms: C_15  and  O_16
REMARK    7  A    between atoms: N_18  and  C_21
REMARK    8  A    between atoms: C_26  and  C_27
REMARK                            x       y       z     vdW  Elec       q    Type
REMARK                         _______ _______ _______ _____ _____    ______ ____
ROOT
ATOM      1  F   UNL     1      32.493 -14.490 -19.877  0.00  0.00    -0.200 F 
ATOM      2  F   UNL     1      34.427 -16.409 -19.883  0.00  0.00    -0.202 F 
ATOM      3  C   UNL     1      32.933 -13.989 -22.157  0.00  0.00    +0.083 C 
ATOM      4  C   UNL     1      33.670 -14.243 -23.316  0.00  0.00    +0.071 C 
ATOM      5  C   UNL     1      33.192 -14.723 -20.998  0.00  0.00    +0.181 C 
ATOM      6  C   UNL     1      34.658 -15.227 -23.316  0.00  0.00    +0.008 C 
ATOM      7  C   UNL     1      34.181 -15.707 -20.997  0.00  0.00    +0.169 C 
ATOM      8  C   UNL     1      34.915 -15.958 -22.157  0.00  0.00    +0.032 C 
ENDROOT
BRANCH   4  11
ATOM      9  O   UNL     1      32.564 -13.875 -25.355  0.00  0.00    -0.268 OA
ATOM     10  N   UNL     1      34.212 -12.374 -24.762  0.00  0.00    -0.190 N 
ATOM     11  C   UNL     1      33.427 -13.497 -24.545  0.00  0.00    +0.269 C 
ATOM     12  H   UNL     1      34.903 -12.089 -24.122  0.00  0.00    +0.183 HD
BRANCH  10  13
ATOM     13  O   UNL     1      33.962 -11.666 -25.954  0.00  0.00    -0.263 OA
BRANCH  13  14
ATOM     14  C   UNL     1      35.060 -10.798 -26.199  0.00  0.00    +0.203 C 
BRANCH  14  15
ATOM     15  C   UNL     1      34.993  -9.631 -25.233  0.00  0.00    +0.172 C 
BRANCH  15  16
ATOM     16  O   UNL     1      35.540 -10.031 -23.982  0.00  0.00    -0.379 OA
ATOM     17  H   UNL     1      35.581  -9.266 -23.388  0.00  0.00    +0.211 HD
ENDBRANCH  15  16
ENDBRANCH  14  15
ENDBRANCH  13  14
ENDBRANCH  10  13
ENDBRANCH   4  11
BRANCH   3  18
ATOM     18  N   UNL     1      31.931 -13.000 -22.138  0.00  0.00    -0.309 N 
ATOM     19  H   UNL     1      31.037 -13.337 -22.379  0.00  0.00    +0.152 HD
BRANCH  18  21
ATOM     20  F   UNL     1      31.551 -12.071 -19.543  0.00  0.00    -0.203 F 
ATOM     21  C   UNL     1      31.954 -11.621 -21.839  0.00  0.00    +0.076 C 
ATOM     22  C   UNL     1      31.759 -11.186 -20.528  0.00  0.00    +0.154 C 
ATOM     23  C   UNL     1      32.170 -10.692 -22.857  0.00  0.00    +0.018 C 
ATOM     24  C   UNL     1      31.781  -9.823 -20.235  0.00  0.00    +0.039 C 
ATOM     25  C   UNL     1      32.191  -9.329 -22.565  0.00  0.00    +0.010 C 
ATOM     26  C   UNL     1      31.997  -8.894 -21.253  0.00  0.00    +0.045 C 
BRANCH  26  27
ATOM     27  C   UNL     1      32.019  -7.497 -20.952  0.00  0.00    -0.051 C 
ATOM     28  C   UNL     1      32.038  -6.321 -20.699  0.00  0.00    -0.009 C 
ENDBRANCH  26  27
ENDBRANCH  18  21
ENDBRANCH   3  18
TORSDOF 8
ENDMDL
MODEL 8
REMARK VINA RESULT:      -8.2      7.437     10.910
REMARK  Name = 10150081
REMARK  8 active torsions:
REMARK  status: ('A' for Active; 'I' for Inactive)
REMARK    1  A    between atoms: C_3  and  N_18
REMARK    2  A    between atoms: C_4  and  C_11
REMARK    3  A    between atoms: N_10  and  O_13
REMARK    4  A    between atoms: O_13  and  C_14
REMARK    5  A    between atoms: C_14  and  C_15
REMARK    6  A    between atoms: C_15  and  O_16
REMARK    7  A    between atoms: N_18  and  C_21
REMARK    8  A    between atoms: C_26  and  C_27
REMARK                            x       y       z     vdW  Elec       q    Type
REMARK                         _______ _______ _______ _____ _____    ______ ____
ROOT
ATOM      1  F   UNL     1      33.703 -15.802 -19.663  0.00  0.00    -0.200 F 
ATOM      2  F   UNL     1      32.282 -13.492 -19.413  0.00  0.00    -0.202 F 
ATOM      3  C   UNL     1      33.719 -15.578 -22.028  0.00  0.00    +0.083 C 
ATOM      4  C   UNL     1      33.350 -14.851 -23.163  0.00  0.00    +0.071 C 
ATOM      5  C   UNL     1      33.356 -15.115 -20.762  0.00  0.00    +0.181 C 
ATOM      6  C   UNL     1      32.624 -13.668 -23.031  0.00  0.00    +0.008 C 
ATOM      7  C   UNL     1      32.629 -13.932 -20.629  0.00  0.00    +0.169 C 
ATOM      8  C   UNL     1      32.262 -13.209 -21.764  0.00  0.00    +0.032 C 
ENDROOT
BRANCH   4  11
ATOM      9  O   UNL     1      34.639 -16.113 -24.666  0.00  0.00    -0.268 OA
ATOM     10  N   UNL     1      32.990 -14.772 -25.559  0.00  0.00    -0.190 N 
ATOM     11  C   UNL     1      33.712 -15.303 -24.501  0.00  0.00    +0.269 C 
ATOM     12  H   UNL     1      32.265 -14.119 -25.421  0.00  0.00    +0.183 HD
BRANCH  10  13
ATOM     13  O   UNL     1      33.354 -15.221 -26.844  0.00  0.00    -0.263 OA
BRANCH  13  14
ATOM     14  C   UNL     1      33.726 -14.094 -27.624  0.00  0.00    +0.203 C 
BRANCH  14  15
ATOM     15  C   UNL     1      32.943 -12.884 -27.152  0.00  0.00    +0.172 C 
BRANCH  15  16
ATOM     16  O   UNL     1      33.754 -12.122 -26.266  0.00  0.00    -0.379 OA
ATOM     17  H   UNL     1      34.689 -12.253 -26.489  0.00  0.00    +0.211 HD
ENDBRANCH  15  16
ENDBRANCH  14  15
ENDBRANCH  13  14
ENDBRANCH  10  13
ENDBRANCH   4  11
BRANCH   3  18
ATOM     18  N   UNL     1      34.453 -16.774 -22.142  0.00  0.00    -0.309 N 
ATOM     19  H   UNL     1      35.188 -16.727 -22.796  0.00  0.00    +0.152 HD
BRANCH  18  21
ATOM     20  F   UNL     1      36.706 -18.277 -21.501  0.00  0.00    -0.203 F 
ATOM     21  C   UNL     1      34.344 -18.027 -21.502  0.00  0.00    +0.076 C 
ATOM     22  C   UNL     1      35.493 -18.757 -21.194  0.00  0.00    +0.154 C 
ATOM     23  C   UNL     1      33.087 -18.536 -21.178  0.00  0.00    +0.018 C 
ATOM     24  C   UNL     1      35.383 -19.996 -20.563  0.00  0.00    +0.039 C 
ATOM     25  C   UNL     1      32.976 -19.774 -20.547  0.00  0.00    +0.010 C 
ATOM     26  C   UNL     1      34.125 -20.504 -20.239  0.00  0.00    +0.045 C 
BRANCH  26  27
ATOM     27  C   UNL     1      34.013 -21.774 -19.592  0.00  0.00    -0.051 C 
ATOM     28  C   UNL     1      33.918 -22.842 -19.047  0.00  0.00    -0.009 C 
ENDBRANCH  26  27
ENDBRANCH  18  21
ENDBRANCH   3  18
TORSDOF 8
ENDMDL
MODEL 9
REMARK VINA RESULT:      -8.1      1.896      2.309
REMARK  Name = 10150081
REMARK  8 active torsions:
REMARK  status: ('A' for Active; 'I' for Inactive)
REMARK    1  A    between atoms: C_3  and  N_18
REMARK    2  A    between atoms: C_4  and  C_11
REMARK    3  A    between atoms: N_10  and  O_13
REMARK    4  A    between atoms: O_13  and  C_14
REMARK    5  A    between atoms: C_14  and  C_15
REMARK    6  A    between atoms: C_15  and  O_16
REMARK    7  A    between atoms: N_18  and  C_21
REMARK    8  A    between atoms: C_26  and  C_27
REMARK                            x       y       z     vdW  Elec       q    Type
REMARK                         _______ _______ _______ _____ _____    ______ ____
ROOT
ATOM      1  F   UNL     1      32.158 -23.653 -16.659  0.00  0.00    -0.200 F 
ATOM      2  F   UNL     1      31.508 -23.740 -14.015  0.00  0.00    -0.202 F 
ATOM      3  C   UNL     1      34.456 -23.378 -16.121  0.00  0.00    +0.083 C 
ATOM      4  C   UNL     1      35.450 -23.262 -15.146  0.00  0.00    +0.071 C 
ATOM      5  C   UNL     1      33.124 -23.540 -15.735  0.00  0.00    +0.181 C 
ATOM      6  C   UNL     1      35.113 -23.308 -13.794  0.00  0.00    +0.008 C 
ATOM      7  C   UNL     1      32.786 -23.586 -14.382  0.00  0.00    +0.169 C 
ATOM      8  C   UNL     1      33.782 -23.468 -13.411  0.00  0.00    +0.032 C 
ENDROOT
BRANCH   4  11
ATOM      9  O   UNL     1      37.227 -22.079 -16.125  0.00  0.00    -0.268 OA
ATOM     10  N   UNL     1      37.719 -24.116 -15.161  0.00  0.00    -0.190 N 
ATOM     11  C   UNL     1      36.851 -23.093 -15.512  0.00  0.00    +0.269 C 
ATOM     12  H   UNL     1      37.411 -24.923 -14.688  0.00  0.00    +0.183 HD
BRANCH  10  13
ATOM     13  O   UNL     1      39.068 -23.934 -15.524  0.00  0.00    -0.263 OA
BRANCH  13  14
ATOM     14  C   UNL     1      39.798 -25.087 -15.129  0.00  0.00    +0.203 C 
BRANCH  14  15
ATOM     15  C   UNL     1      38.842 -26.096 -14.524  0.00  0.00    +0.172 C 
BRANCH  15  16
ATOM     16  O   UNL     1      38.962 -26.059 -13.107  0.00  0.00    -0.379 OA
ATOM     17  H   UNL     1      39.263 -26.923 -12.785  0.00  0.00    +0.211 HD
ENDBRANCH  15  16
ENDBRANCH  14  15
ENDBRANCH  13  14
ENDBRANCH  10  13
ENDBRANCH   4  11
BRANCH   3  18
ATOM     18  N   UNL     1      34.777 -23.334 -17.491  0.00  0.00    -0.309 N 
ATOM     19  H   UNL     1      35.074 -24.200 -17.856  0.00  0.00    +0.152 HD
BRANCH  18  21
ATOM     20  F   UNL     1      32.380 -22.310 -18.466  0.00  0.00    -0.203 F 
ATOM     21  C   UNL     1      34.755 -22.295 -18.445  0.00  0.00    +0.076 C 
ATOM     22  C   UNL     1      33.537 -21.804 -18.916  0.00  0.00    +0.154 C 
ATOM     23  C   UNL     1      35.952 -21.761 -18.920  0.00  0.00    +0.018 C 
ATOM     24  C   UNL     1      33.517 -20.777 -19.860  0.00  0.00    +0.039 C 
ATOM     25  C   UNL     1      35.933 -20.735 -19.865  0.00  0.00    +0.010 C 
ATOM     26  C   UNL     1      34.715 -20.243 -20.334  0.00  0.00    +0.045 C 
BRANCH  26  27
ATOM     27  C   UNL     1      34.694 -19.192 -21.302  0.00  0.00    -0.051 C 
ATOM     28  C   UNL     1      34.677 -18.307 -22.117  0.00  0.00    -0.009 C 
ENDBRANCH  26  27
ENDBRANCH  18  21
ENDBRANCH   3  18
TORSDOF 8
ENDMDL
