MODEL 1
REMARK VINA RESULT:      -9.7      0.000      0.000
REMARK  Name = 21158904
REMARK  9 active torsions:
REMARK  status: ('A' for Active; 'I' for Inactive)
REMARK    1  A    between atoms: C_1  and  N_3
REMARK    2  A    between atoms: C_1  and  C_15
REMARK    3  A    between atoms: C_1  and  C_19
REMARK    4  A    between atoms: C_4  and  O_6
REMARK    5  A    between atoms: O_6  and  C_7
REMARK    6  A    between atoms: C_7  and  C_8
REMARK    7  A    between atoms: C_15  and  C_16
REMARK    8  A    between atoms: C_16  and  N_17
REMARK    9  A    between atoms: C_19  and  C_20
REMARK                            x       y       z     vdW  Elec       q    Type
REMARK                         _______ _______ _______ _____ _____    ______ ____
ROOT
ATOM      1  C   UNL     1      33.713 -14.061 -22.663  0.00  0.00    +0.138 C 
ENDROOT
BRANCH   1   3
ATOM      2  O   UNL     1      34.824 -15.214 -20.239  0.00  0.00    -0.226 OA
ATOM      3  N   UNL     1      34.300 -15.366 -22.495  0.00  0.00    -0.265 N 
ATOM      4  C   UNL     1      34.807 -15.834 -21.298  0.00  0.00    +0.402 C 
ATOM      5  H   UNL     1      34.343 -15.960 -23.280  0.00  0.00    +0.153 HD
BRANCH   4   6
ATOM      6  O   UNL     1      35.291 -17.100 -21.464  0.00  0.00    -0.430 OA
BRANCH   6   7
ATOM      7  C   UNL     1      34.375 -18.051 -22.020  0.00  0.00    +0.237 C 
BRANCH   7   8
ATOM      8  C   UNL     1      34.345 -19.270 -21.146  0.00  0.00    +0.021 C 
ATOM      9  C   UNL     1      33.125 -19.778 -20.700  0.00  0.00    -0.001 C 
ATOM     10  C   UNL     1      35.536 -19.896 -20.778  0.00  0.00    -0.001 C 
ATOM     11  C   UNL     1      33.096 -20.911 -19.887  0.00  0.00    -0.000 C 
ATOM     12  C   UNL     1      35.507 -21.029 -19.966  0.00  0.00    -0.000 C 
ATOM     13  C   UNL     1      34.287 -21.536 -19.519  0.00  0.00    -0.000 C 
ENDBRANCH   7   8
ENDBRANCH   6   7
ENDBRANCH   4   6
ENDBRANCH   1   3
BRANCH   1  15
ATOM     14  O   UNL     1      34.130 -12.721 -24.627  0.00  0.00    -0.293 OA
ATOM     15  C   UNL     1      33.693 -13.774 -24.159  0.00  0.00    +0.188 C 
BRANCH  15  16
ATOM     16  C   UNL     1      33.067 -14.835 -25.033  0.00  0.00    +0.177 C 
BRANCH  16  17
ATOM     17  N   UNL     1      34.006 -15.857 -25.355  0.00  0.00    -0.105 NA
ATOM     18  N   UNL     1      34.722 -16.636 -25.600  0.00  0.00    -0.020 NA
ENDBRANCH  16  17
ENDBRANCH  15  16
ENDBRANCH   1  15
BRANCH   1  19
ATOM     19  C   UNL     1      32.296 -13.982 -22.094  0.00  0.00    +0.054 C 
BRANCH  19  20
ATOM     20  C   UNL     1      31.993 -12.643 -21.467  0.00  0.00    -0.020 C 
ATOM     21  C   UNL     1      31.746 -11.534 -22.275  0.00  0.00    -0.004 C 
ATOM     22  C   UNL     1      31.956 -12.516 -20.078  0.00  0.00    -0.004 C 
ATOM     23  C   UNL     1      31.464 -10.297 -21.696  0.00  0.00    -0.000 C 
ATOM     24  C   UNL     1      31.674 -11.278 -19.498  0.00  0.00    -0.000 C 
ATOM     25  C   UNL     1      31.429 -10.169 -20.308  0.00  0.00    -0.000 C 
ENDBRANCH  19  20
ENDBRANCH   1  19
TORSDOF 9
ENDMDL
MODEL 2
REMARK VINA RESULT:      -9.6      1.450      7.361
REMARK  Name = 21158904
REMARK  9 active torsions:
REMARK  status: ('A' for Active; 'I' for Inactive)
REMARK    1  A    between atoms: C_1  and  N_3
REMARK    2  A    between atoms: C_1  and  C_15
REMARK    3  A    between atoms: C_1  and  C_19
REMARK    4  A    between atoms: C_4  and  O_6
REMARK    5  A    between atoms: O_6  and  C_7
REMARK    6  A    between atoms: C_7  and  C_8
REMARK    7  A    between atoms: C_15  and  C_16
REMARK    8  A    between atoms: C_16  and  N_17
REMARK    9  A    between atoms: C_19  and  C_20
REMARK                            x       y       z     vdW  Elec       q    Type
REMARK                         _______ _______ _______ _____ _____    ______ ____
ROOT
ATOM      1  C   UNL     1      34.299 -17.545 -22.875  0.00  0.00    +0.138 C 
ENDROOT
BRANCH   1   3
ATOM      2  O   UNL     1      32.685 -16.026 -20.996  0.00  0.00    -0.226 OA
ATOM      3  N   UNL     1      34.183 -16.113 -22.767  0.00  0.00    -0.265 N 
ATOM      4  C   UNL     1      33.387 -15.473 -21.837  0.00  0.00    +0.402 C 
ATOM      5  H   UNL     1      34.703 -15.558 -23.392  0.00  0.00    +0.153 HD
BRANCH   4   6
ATOM      6  O   UNL     1      33.493 -14.120 -21.989  0.00  0.00    -0.430 OA
BRANCH   6   7
ATOM      7  C   UNL     1      32.337 -13.458 -22.515  0.00  0.00    +0.237 C 
BRANCH   7   8
ATOM      8  C   UNL     1      32.040 -12.251 -21.676  0.00  0.00    +0.021 C 
ATOM      9  C   UNL     1      31.941 -10.993 -22.272  0.00  0.00    -0.001 C 
ATOM     10  C   UNL     1      31.862 -12.384 -20.299  0.00  0.00    -0.001 C 
ATOM     11  C   UNL     1      31.666  -9.871 -21.492  0.00  0.00    -0.000 C 
ATOM     12  C   UNL     1      31.586 -11.262 -19.519  0.00  0.00    -0.000 C 
ATOM     13  C   UNL     1      31.488 -10.005 -20.115  0.00  0.00    -0.000 C 
ENDBRANCH   7   8
ENDBRANCH   6   7
ENDBRANCH   4   6
ENDBRANCH   1   3
BRANCH   1  15
ATOM     14  O   UNL     1      34.504 -19.001 -24.789  0.00  0.00    -0.293 OA
ATOM     15  C   UNL     1      34.585 -17.857 -24.338  0.00  0.00    +0.188 C 
BRANCH  15  16
ATOM     16  C   UNL     1      35.016 -16.690 -25.196  0.00  0.00    +0.177 C 
BRANCH  16  17
ATOM     17  N   UNL     1      33.929 -16.190 -25.970  0.00  0.00    -0.105 NA
ATOM     18  N   UNL     1      33.101 -15.808 -26.560  0.00  0.00    -0.020 NA
ENDBRANCH  16  17
ENDBRANCH  15  16
ENDBRANCH   1  15
BRANCH   1  19
ATOM     19  C   UNL     1      35.411 -18.109 -21.990  0.00  0.00    +0.054 C 
BRANCH  19  20
ATOM     20  C   UNL     1      34.952 -19.273 -21.146  0.00  0.00    -0.020 C 
ATOM     21  C   UNL     1      35.890 -20.116 -20.552  0.00  0.00    -0.004 C 
ATOM     22  C   UNL     1      33.589 -19.503 -20.957  0.00  0.00    -0.004 C 
ATOM     23  C   UNL     1      35.466 -21.191 -19.770  0.00  0.00    -0.000 C 
ATOM     24  C   UNL     1      33.165 -20.578 -20.175  0.00  0.00    -0.000 C 
ATOM     25  C   UNL     1      34.104 -21.421 -19.582  0.00  0.00    -0.000 C 
ENDBRANCH  19  20
ENDBRANCH   1  19
TORSDOF 9
ENDMDL
MODEL 3
REMARK VINA RESULT:      -9.6      1.677      7.423
REMARK  Name = 21158904
REMARK  9 active torsions:
REMARK  status: ('A' for Active; 'I' for Inactive)
REMARK    1  A    between atoms: C_1  and  N_3
REMARK    2  A    between atoms: C_1  and  C_15
REMARK    3  A    between atoms: C_1  and  C_19
REMARK    4  A    between atoms: C_4  and  O_6
REMARK    5  A    between atoms: O_6  and  C_7
REMARK    6  A    between atoms: C_7  and  C_8
REMARK    7  A    between atoms: C_15  and  C_16
REMARK    8  A    between atoms: C_16  and  N_17
REMARK    9  A    between atoms: C_19  and  C_20
REMARK                            x       y       z     vdW  Elec       q    Type
REMARK                         _______ _______ _______ _____ _____    ______ ____
ROOT
ATOM      1  C   UNL     1      34.534 -17.599 -22.956  0.00  0.00    +0.138 C 
ENDROOT
BRANCH   1   3
ATOM      2  O   UNL     1      32.987 -15.642 -21.467  0.00  0.00    -0.226 OA
ATOM      3  N   UNL     1      34.699 -16.167 -22.943  0.00  0.00    -0.265 N 
ATOM      4  C   UNL     1      33.913 -15.309 -22.200  0.00  0.00    +0.402 C 
ATOM      5  H   UNL     1      35.415 -15.778 -23.496  0.00  0.00    +0.153 HD
BRANCH   4   6
ATOM      6  O   UNL     1      34.317 -14.020 -22.401  0.00  0.00    -0.430 OA
BRANCH   6   7
ATOM      7  C   UNL     1      33.840 -13.395 -23.598  0.00  0.00    +0.237 C 
BRANCH   7   8
ATOM      8  C   UNL     1      33.073 -12.159 -23.233  0.00  0.00    +0.021 C 
ATOM      9  C   UNL     1      32.013 -12.237 -22.330  0.00  0.00    -0.001 C 
ATOM     10  C   UNL     1      33.419 -10.930 -23.797  0.00  0.00    -0.001 C 
ATOM     11  C   UNL     1      31.299 -11.088 -21.990  0.00  0.00    -0.000 C 
ATOM     12  C   UNL     1      32.705  -9.781 -23.457  0.00  0.00    -0.000 C 
ATOM     13  C   UNL     1      31.645  -9.860 -22.554  0.00  0.00    -0.000 C 
ENDBRANCH   7   8
ENDBRANCH   6   7
ENDBRANCH   4   6
ENDBRANCH   1   3
BRANCH   1  15
ATOM     14  O   UNL     1      34.550 -19.227 -24.738  0.00  0.00    -0.293 OA
ATOM     15  C   UNL     1      34.684 -18.049 -24.404  0.00  0.00    +0.188 C 
BRANCH  15  16
ATOM     16  C   UNL     1      35.052 -16.974 -25.400  0.00  0.00    +0.177 C 
BRANCH  16  17
ATOM     17  N   UNL     1      33.888 -16.344 -25.930  0.00  0.00    -0.105 NA
ATOM     18  N   UNL     1      33.002 -15.863 -26.334  0.00  0.00    -0.020 NA
ENDBRANCH  16  17
ENDBRANCH  15  16
ENDBRANCH   1  15
BRANCH   1  19
ATOM     19  C   UNL     1      35.560 -18.312 -22.075  0.00  0.00    +0.054 C 
BRANCH  19  20
ATOM     20  C   UNL     1      34.940 -19.373 -21.198  0.00  0.00    -0.020 C 
ATOM     21  C   UNL     1      33.555 -19.432 -21.049  0.00  0.00    -0.004 C 
ATOM     22  C   UNL     1      35.753 -20.295 -20.539  0.00  0.00    -0.004 C 
ATOM     23  C   UNL     1      32.982 -20.413 -20.240  0.00  0.00    -0.000 C 
ATOM     24  C   UNL     1      35.180 -21.277 -19.730  0.00  0.00    -0.000 C 
ATOM     25  C   UNL     1      33.794 -21.335 -19.580  0.00  0.00    -0.000 C 
ENDBRANCH  19  20
ENDBRANCH   1  19
TORSDOF 9
ENDMDL
MODEL 4
REMARK VINA RESULT:      -9.6      6.824     11.044
REMARK  Name = 21158904
REMARK  9 active torsions:
REMARK  status: ('A' for Active; 'I' for Inactive)
REMARK    1  A    between atoms: C_1  and  N_3
REMARK    2  A    between atoms: C_1  and  C_15
REMARK    3  A    between atoms: C_1  and  C_19
REMARK    4  A    between atoms: C_4  and  O_6
REMARK    5  A    between atoms: O_6  and  C_7
REMARK    6  A    between atoms: C_7  and  C_8
REMARK    7  A    between atoms: C_15  and  C_16
REMARK    8  A    between atoms: C_16  and  N_17
REMARK    9  A    between atoms: C_19  and  C_20
REMARK                            x       y       z     vdW  Elec       q    Type
REMARK                         _______ _______ _______ _____ _____    ______ ____
ROOT
ATOM      1  C   UNL     1      33.636 -23.878 -14.920  0.00  0.00    +0.138 C 
ENDROOT
BRANCH   1   3
ATOM      2  O   UNL     1      33.453 -23.900 -17.820  0.00  0.00    -0.226 OA
ATOM      3  N   UNL     1      34.386 -23.082 -15.859  0.00  0.00    -0.265 N 
ATOM      4  C   UNL     1      34.232 -23.159 -17.229  0.00  0.00    +0.402 C 
ATOM      5  H   UNL     1      35.047 -22.446 -15.502  0.00  0.00    +0.153 HD
BRANCH   4   6
ATOM      6  O   UNL     1      35.082 -22.282 -17.840  0.00  0.00    -0.430 OA
BRANCH   6   7
ATOM      7  C   UNL     1      35.199 -22.414 -19.262  0.00  0.00    +0.237 C 
BRANCH   7   8
ATOM      8  C   UNL     1      34.683 -21.165 -19.913  0.00  0.00    +0.021 C 
ATOM      9  C   UNL     1      33.313 -20.906 -19.938  0.00  0.00    -0.001 C 
ATOM     10  C   UNL     1      35.573 -20.262 -20.495  0.00  0.00    -0.001 C 
ATOM     11  C   UNL     1      32.832 -19.746 -20.543  0.00  0.00    -0.000 C 
ATOM     12  C   UNL     1      35.093 -19.101 -21.100  0.00  0.00    -0.000 C 
ATOM     13  C   UNL     1      33.722 -18.843 -21.125  0.00  0.00    -0.000 C 
ENDBRANCH   7   8
ENDBRANCH   6   7
ENDBRANCH   4   6
ENDBRANCH   1   3
BRANCH   1  15
ATOM     14  O   UNL     1      34.255 -24.382 -12.642  0.00  0.00    -0.293 OA
ATOM     15  C   UNL     1      34.604 -24.297 -13.821  0.00  0.00    +0.188 C 
BRANCH  15  16
ATOM     16  C   UNL     1      36.028 -24.559 -14.252  0.00  0.00    +0.177 C 
BRANCH  16  17
ATOM     17  N   UNL     1      36.101 -25.670 -15.141  0.00  0.00    -0.105 NA
ATOM     18  N   UNL     1      36.155 -26.517 -15.819  0.00  0.00    -0.020 NA
ENDBRANCH  16  17
ENDBRANCH  15  16
ENDBRANCH   1  15
BRANCH   1  19
ATOM     19  C   UNL     1      32.457 -23.113 -14.319  0.00  0.00    +0.054 C 
BRANCH  19  20
ATOM     20  C   UNL     1      31.127 -23.550 -14.884  0.00  0.00    -0.020 C 
ATOM     21  C   UNL     1      30.566 -22.860 -15.958  0.00  0.00    -0.004 C 
ATOM     22  C   UNL     1      30.461 -24.646 -14.334  0.00  0.00    -0.004 C 
ATOM     23  C   UNL     1      29.338 -23.265 -16.482  0.00  0.00    -0.000 C 
ATOM     24  C   UNL     1      29.233 -25.050 -14.858  0.00  0.00    -0.000 C 
ATOM     25  C   UNL     1      28.672 -24.359 -15.932  0.00  0.00    -0.000 C 
ENDBRANCH  19  20
ENDBRANCH   1  19
TORSDOF 9
ENDMDL
MODEL 5
REMARK VINA RESULT:      -9.4      1.414      1.948
REMARK  Name = 21158904
REMARK  9 active torsions:
REMARK  status: ('A' for Active; 'I' for Inactive)
REMARK    1  A    between atoms: C_1  and  N_3
REMARK    2  A    between atoms: C_1  and  C_15
REMARK    3  A    between atoms: C_1  and  C_19
REMARK    4  A    between atoms: C_4  and  O_6
REMARK    5  A    between atoms: O_6  and  C_7
REMARK    6  A    between atoms: C_7  and  C_8
REMARK    7  A    between atoms: C_15  and  C_16
REMARK    8  A    between atoms: C_16  and  N_17
REMARK    9  A    between atoms: C_19  and  C_20
REMARK                            x       y       z     vdW  Elec       q    Type
REMARK                         _______ _______ _______ _____ _____    ______ ____
ROOT
ATOM      1  C   UNL     1      34.036 -15.054 -23.346  0.00  0.00    +0.138 C 
ENDROOT
BRANCH   1   3
ATOM      2  O   UNL     1      34.863 -14.877 -20.567  0.00  0.00    -0.226 OA
ATOM      3  N   UNL     1      34.446 -16.127 -22.477  0.00  0.00    -0.265 N 
ATOM      4  C   UNL     1      34.824 -15.949 -21.161  0.00  0.00    +0.402 C 
ATOM      5  H   UNL     1      34.455 -17.041 -22.842  0.00  0.00    +0.153 HD
BRANCH   4   6
ATOM      6  O   UNL     1      35.155 -17.154 -20.607  0.00  0.00    -0.430 OA
BRANCH   6   7
ATOM      7  C   UNL     1      35.243 -18.256 -21.518  0.00  0.00    +0.237 C 
BRANCH   7   8
ATOM      8  C   UNL     1      34.825 -19.511 -20.809  0.00  0.00    +0.021 C 
ATOM      9  C   UNL     1      33.471 -19.793 -20.631  0.00  0.00    -0.001 C 
ATOM     10  C   UNL     1      35.790 -20.396 -20.328  0.00  0.00    -0.001 C 
ATOM     11  C   UNL     1      33.081 -20.958 -19.972  0.00  0.00    -0.000 C 
ATOM     12  C   UNL     1      35.401 -21.562 -19.670  0.00  0.00    -0.000 C 
ATOM     13  C   UNL     1      34.046 -21.843 -19.491  0.00  0.00    -0.000 C 
ENDBRANCH   7   8
ENDBRANCH   6   7
ENDBRANCH   4   6
ENDBRANCH   1   3
BRANCH   1  15
ATOM     14  O   UNL     1      33.040 -15.310 -25.530  0.00  0.00    -0.293 OA
ATOM     15  C   UNL     1      33.938 -15.635 -24.751  0.00  0.00    +0.188 C 
BRANCH  15  16
ATOM     16  C   UNL     1      34.979 -16.665 -25.120  0.00  0.00    +0.177 C 
BRANCH  16  17
ATOM     17  N   UNL     1      34.462 -17.987 -24.997  0.00  0.00    -0.105 NA
ATOM     18  N   UNL     1      34.068 -18.995 -24.903  0.00  0.00    -0.020 NA
ENDBRANCH  16  17
ENDBRANCH  15  16
ENDBRANCH   1  15
BRANCH   1  19
ATOM     19  C   UNL     1      32.694 -14.449 -22.933  0.00  0.00    +0.054 C 
BRANCH  19  20
ATOM     20  C   UNL     1      32.693 -12.940 -22.983  0.00  0.00    -0.020 C 
ATOM     21  C   UNL     1      31.842 -12.215 -22.150  0.00  0.00    -0.004 C 
ATOM     22  C   UNL     1      33.546 -12.271 -23.861  0.00  0.00    -0.004 C 
ATOM     23  C   UNL     1      31.842 -10.821 -22.195  0.00  0.00    -0.000 C 
ATOM     24  C   UNL     1      33.546 -10.877 -23.906  0.00  0.00    -0.000 C 
ATOM     25  C   UNL     1      32.694 -10.152 -23.073  0.00  0.00    -0.000 C 
ENDBRANCH  19  20
ENDBRANCH   1  19
TORSDOF 9
ENDMDL
MODEL 6
REMARK VINA RESULT:      -9.3      2.479      7.774
REMARK  Name = 21158904
REMARK  9 active torsions:
REMARK  status: ('A' for Active; 'I' for Inactive)
REMARK    1  A    between atoms: C_1  and  N_3
REMARK    2  A    between atoms: C_1  and  C_15
REMARK    3  A    between atoms: C_1  and  C_19
REMARK    4  A    between atoms: C_4  and  O_6
REMARK    5  A    between atoms: O_6  and  C_7
REMARK    6  A    between atoms: C_7  and  C_8
REMARK    7  A    between atoms: C_15  and  C_16
REMARK    8  A    between atoms: C_16  and  N_17
REMARK    9  A    between atoms: C_19  and  C_20
REMARK                            x       y       z     vdW  Elec       q    Type
REMARK                         _______ _______ _______ _____ _____    ______ ____
ROOT
ATOM      1  C   UNL     1      33.850 -15.661 -23.915  0.00  0.00    +0.138 C 
ENDROOT
BRANCH   1   3
ATOM      2  O   UNL     1      32.128 -14.373 -21.962  0.00  0.00    -0.226 OA
ATOM      3  N   UNL     1      33.564 -14.255 -23.781  0.00  0.00    -0.265 N 
ATOM      4  C   UNL     1      32.727 -13.729 -22.817  0.00  0.00    +0.402 C 
ATOM      5  H   UNL     1      33.990 -13.633 -24.414  0.00  0.00    +0.153 HD
BRANCH   4   6
ATOM      6  O   UNL     1      32.662 -12.371 -22.952  0.00  0.00    -0.430 OA
BRANCH   6   7
ATOM      7  C   UNL     1      33.471 -11.807 -23.991  0.00  0.00    +0.237 C 
BRANCH   7   8
ATOM      8  C   UNL     1      33.615 -10.333 -23.753  0.00  0.00    +0.021 C 
ATOM      9  C   UNL     1      34.749  -9.660 -24.210  0.00  0.00    -0.001 C 
ATOM     10  C   UNL     1      32.617  -9.634 -23.073  0.00  0.00    -0.001 C 
ATOM     11  C   UNL     1      34.884  -8.290 -23.989  0.00  0.00    -0.000 C 
ATOM     12  C   UNL     1      32.752  -8.264 -22.852  0.00  0.00    -0.000 C 
ATOM     13  C   UNL     1      33.886  -7.592 -23.310  0.00  0.00    -0.000 C 
ENDBRANCH   7   8
ENDBRANCH   6   7
ENDBRANCH   4   6
ENDBRANCH   1   3
BRANCH   1  15
ATOM     14  O   UNL     1      34.762 -16.700 -25.894  0.00  0.00    -0.293 OA
ATOM     15  C   UNL     1      33.903 -15.962 -25.407  0.00  0.00    +0.188 C 
BRANCH  15  16
ATOM     16  C   UNL     1      32.870 -15.268 -26.264  0.00  0.00    +0.177 C 
BRANCH  16  17
ATOM     17  N   UNL     1      33.461 -14.234 -27.046  0.00  0.00    -0.105 NA
ATOM     18  N   UNL     1      33.911 -13.446 -27.643  0.00  0.00    -0.020 NA
ENDBRANCH  16  17
ENDBRANCH  15  16
ENDBRANCH   1  15
BRANCH   1  19
ATOM     19  C   UNL     1      35.171 -16.053 -23.253  0.00  0.00    +0.054 C 
BRANCH  19  20
ATOM     20  C   UNL     1      35.056 -17.302 -22.413  0.00  0.00    -0.020 C 
ATOM     21  C   UNL     1      33.891 -17.549 -21.687  0.00  0.00    -0.004 C 
ATOM     22  C   UNL     1      36.114 -18.210 -22.364  0.00  0.00    -0.004 C 
ATOM     23  C   UNL     1      33.783 -18.703 -20.912  0.00  0.00    -0.000 C 
ATOM     24  C   UNL     1      36.006 -19.365 -21.589  0.00  0.00    -0.000 C 
ATOM     25  C   UNL     1      34.841 -19.611 -20.863  0.00  0.00    -0.000 C 
ENDBRANCH  19  20
ENDBRANCH   1  19
TORSDOF 9
ENDMDL
MODEL 7
REMARK VINA RESULT:      -9.2      1.714      2.178
REMARK  Name = 21158904
REMARK  9 active torsions:
REMARK  status: ('A' for Active; 'I' for Inactive)
REMARK    1  A    between atoms: C_1  and  N_3
REMARK    2  A    between atoms: C_1  and  C_15
REMARK    3  A    between atoms: C_1  and  C_19
REMARK    4  A    between atoms: C_4  and  O_6
REMARK    5  A    between atoms: O_6  and  C_7
REMARK    6  A    between atoms: C_7  and  C_8
REMARK    7  A    between atoms: C_15  and  C_16
REMARK    8  A    between atoms: C_16  and  N_17
REMARK    9  A    between atoms: C_19  and  C_20
REMARK                            x       y       z     vdW  Elec       q    Type
REMARK                         _______ _______ _______ _____ _____    ______ ____
ROOT
ATOM      1  C   UNL     1      33.944 -15.069 -23.906  0.00  0.00    +0.138 C 
ENDROOT
BRANCH   1   3
ATOM      2  O   UNL     1      34.873 -14.861 -21.161  0.00  0.00    -0.226 OA
ATOM      3  N   UNL     1      34.091 -16.129 -22.940  0.00  0.00    -0.265 N 
ATOM      4  C   UNL     1      34.543 -15.937 -21.649  0.00  0.00    +0.402 C 
ATOM      5  H   UNL     1      33.855 -17.043 -23.218  0.00  0.00    +0.153 HD
BRANCH   4   6
ATOM      6  O   UNL     1      34.569 -17.131 -20.986  0.00  0.00    -0.430 OA
BRANCH   6   7
ATOM      7  C   UNL     1      34.880 -18.280 -21.782  0.00  0.00    +0.237 C 
BRANCH   7   8
ATOM      8  C   UNL     1      34.708 -19.515 -20.947  0.00  0.00    +0.021 C 
ATOM      9  C   UNL     1      33.428 -19.965 -20.624  0.00  0.00    -0.001 C 
ATOM     10  C   UNL     1      35.828 -20.213 -20.493  0.00  0.00    -0.001 C 
ATOM     11  C   UNL     1      33.267 -21.112 -19.847  0.00  0.00    -0.000 C 
ATOM     12  C   UNL     1      35.667 -21.360 -19.717  0.00  0.00    -0.000 C 
ATOM     13  C   UNL     1      34.387 -21.810 -19.394  0.00  0.00    -0.000 C 
ENDBRANCH   7   8
ENDBRANCH   6   7
ENDBRANCH   4   6
ENDBRANCH   1   3
BRANCH   1  15
ATOM     14  O   UNL     1      34.770 -16.583 -25.594  0.00  0.00    -0.293 OA
ATOM     15  C   UNL     1      33.947 -15.720 -25.282  0.00  0.00    +0.188 C 
BRANCH  15  16
ATOM     16  C   UNL     1      32.911 -15.216 -26.260  0.00  0.00    +0.177 C 
BRANCH  16  17
ATOM     17  N   UNL     1      33.470 -14.259 -27.155  0.00  0.00    -0.105 NA
ATOM     18  N   UNL     1      33.895 -13.529 -27.838  0.00  0.00    -0.020 NA
ENDBRANCH  16  17
ENDBRANCH  15  16
ENDBRANCH   1  15
BRANCH   1  19
ATOM     19  C   UNL     1      32.656 -14.271 -23.704  0.00  0.00    +0.054 C 
BRANCH  19  20
ATOM     20  C   UNL     1      32.899 -12.784 -23.602  0.00  0.00    -0.020 C 
ATOM     21  C   UNL     1      33.849 -12.176 -24.420  0.00  0.00    -0.004 C 
ATOM     22  C   UNL     1      32.171 -12.020 -22.690  0.00  0.00    -0.004 C 
ATOM     23  C   UNL     1      34.073 -10.802 -24.327  0.00  0.00    -0.000 C 
ATOM     24  C   UNL     1      32.394 -10.646 -22.597  0.00  0.00    -0.000 C 
ATOM     25  C   UNL     1      33.346 -10.038 -23.415  0.00  0.00    -0.000 C 
ENDBRANCH  19  20
ENDBRANCH   1  19
TORSDOF 9
ENDMDL
MODEL 8
REMARK VINA RESULT:      -8.9      6.926     11.601
REMARK  Name = 21158904
REMARK  9 active torsions:
REMARK  status: ('A' for Active; 'I' for Inactive)
REMARK    1  A    between atoms: C_1  and  N_3
REMARK    2  A    between atoms: C_1  and  C_15
REMARK    3  A    between atoms: C_1  and  C_19
REMARK    4  A    between atoms: C_4  and  O_6
REMARK    5  A    between atoms: O_6  and  C_7
REMARK    6  A    between atoms: C_7  and  C_8
REMARK    7  A    between atoms: C_15  and  C_16
REMARK    8  A    between atoms: C_16  and  N_17
REMARK    9  A    between atoms: C_19  and  C_20
REMARK                            x       y       z     vdW  Elec       q    Type
REMARK                         _______ _______ _______ _____ _____    ______ ____
ROOT
ATOM      1  C   UNL     1      33.989 -23.764 -14.678  0.00  0.00    +0.138 C 
ENDROOT
BRANCH   1   3
ATOM      2  O   UNL     1      36.056 -22.405 -16.201  0.00  0.00    -0.226 OA
ATOM      3  N   UNL     1      34.001 -23.478 -16.091  0.00  0.00    -0.265 N 
ATOM      4  C   UNL     1      35.033 -22.823 -16.734  0.00  0.00    +0.402 C 
ATOM      5  H   UNL     1      33.229 -23.767 -16.629  0.00  0.00    +0.153 HD
BRANCH   4   6
ATOM      6  O   UNL     1      34.749 -22.705 -18.065  0.00  0.00    -0.430 OA
BRANCH   6   7
ATOM      7  C   UNL     1      35.697 -21.965 -18.843  0.00  0.00    +0.237 C 
BRANCH   7   8
ATOM      8  C   UNL     1      34.958 -21.028 -19.752  0.00  0.00    +0.021 C 
ATOM      9  C   UNL     1      35.666 -20.156 -20.579  0.00  0.00    -0.001 C 
ATOM     10  C   UNL     1      33.563 -21.028 -19.771  0.00  0.00    -0.001 C 
ATOM     11  C   UNL     1      34.981 -19.284 -21.423  0.00  0.00    -0.000 C 
ATOM     12  C   UNL     1      32.877 -20.156 -20.617  0.00  0.00    -0.000 C 
ATOM     13  C   UNL     1      33.586 -19.284 -21.443  0.00  0.00    -0.000 C 
ENDBRANCH   7   8
ENDBRANCH   6   7
ENDBRANCH   4   6
ENDBRANCH   1   3
BRANCH   1  15
ATOM     14  O   UNL     1      32.154 -25.092 -13.844  0.00  0.00    -0.293 OA
ATOM     15  C   UNL     1      32.536 -24.008 -14.289  0.00  0.00    +0.188 C 
BRANCH  15  16
ATOM     16  C   UNL     1      31.582 -22.860 -14.522  0.00  0.00    +0.177 C 
BRANCH  16  17
ATOM     17  N   UNL     1      31.194 -22.784 -15.891  0.00  0.00    -0.105 NA
ATOM     18  N   UNL     1      30.898 -22.724 -16.934  0.00  0.00    -0.020 NA
ENDBRANCH  16  17
ENDBRANCH  15  16
ENDBRANCH   1  15
BRANCH   1  19
ATOM     19  C   UNL     1      34.840 -24.983 -14.323  0.00  0.00    +0.054 C 
BRANCH  19  20
ATOM     20  C   UNL     1      36.044 -24.630 -13.483  0.00  0.00    -0.020 C 
ATOM     21  C   UNL     1      36.028 -23.485 -12.688  0.00  0.00    -0.004 C 
ATOM     22  C   UNL     1      37.172 -25.451 -13.501  0.00  0.00    -0.004 C 
ATOM     23  C   UNL     1      37.140 -23.159 -11.911  0.00  0.00    -0.000 C 
ATOM     24  C   UNL     1      38.284 -25.126 -12.724  0.00  0.00    -0.000 C 
ATOM     25  C   UNL     1      38.267 -23.979 -11.930  0.00  0.00    -0.000 C 
ENDBRANCH  19  20
ENDBRANCH   1  19
TORSDOF 9
ENDMDL
MODEL 9
REMARK VINA RESULT:      -8.9      2.081      4.294
REMARK  Name = 21158904
REMARK  9 active torsions:
REMARK  status: ('A' for Active; 'I' for Inactive)
REMARK    1  A    between atoms: C_1  and  N_3
REMARK    2  A    between atoms: C_1  and  C_15
REMARK    3  A    between atoms: C_1  and  C_19
REMARK    4  A    between atoms: C_4  and  O_6
REMARK    5  A    between atoms: O_6  and  C_7
REMARK    6  A    between atoms: C_7  and  C_8
REMARK    7  A    between atoms: C_15  and  C_16
REMARK    8  A    between atoms: C_16  and  N_17
REMARK    9  A    between atoms: C_19  and  C_20
REMARK                            x       y       z     vdW  Elec       q    Type
REMARK                         _______ _______ _______ _____ _____    ______ ____
ROOT
ATOM      1  C   UNL     1      33.457 -14.925 -22.044  0.00  0.00    +0.138 C 
ENDROOT
BRANCH   1   3
ATOM      2  O   UNL     1      34.687 -17.365 -23.032  0.00  0.00    -0.226 OA
ATOM      3  N   UNL     1      34.262 -15.869 -21.309  0.00  0.00    -0.265 N 
ATOM      4  C   UNL     1      34.809 -17.009 -21.864  0.00  0.00    +0.402 C 
ATOM      5  H   UNL     1      34.431 -15.690 -20.356  0.00  0.00    +0.153 HD
BRANCH   4   6
ATOM      6  O   UNL     1      35.515 -17.692 -20.915  0.00  0.00    -0.430 OA
BRANCH   6   7
ATOM      7  C   UNL     1      36.017 -18.974 -21.313  0.00  0.00    +0.237 C 
BRANCH   7   8
ATOM      8  C   UNL     1      35.277 -20.042 -20.563  0.00  0.00    +0.021 C 
ATOM      9  C   UNL     1      35.983 -21.011 -19.850  0.00  0.00    -0.001 C 
ATOM     10  C   UNL     1      33.882 -20.068 -20.580  0.00  0.00    -0.001 C 
ATOM     11  C   UNL     1      35.296 -22.004 -19.153  0.00  0.00    -0.000 C 
ATOM     12  C   UNL     1      33.195 -21.062 -19.882  0.00  0.00    -0.000 C 
ATOM     13  C   UNL     1      33.902 -22.030 -19.170  0.00  0.00    -0.000 C 
ENDBRANCH   7   8
ENDBRANCH   6   7
ENDBRANCH   4   6
ENDBRANCH   1   3
BRANCH   1  15
ATOM     14  O   UNL     1      32.352 -14.674 -19.913  0.00  0.00    -0.293 OA
ATOM     15  C   UNL     1      32.586 -14.200 -21.026  0.00  0.00    +0.188 C 
BRANCH  15  16
ATOM     16  C   UNL     1      31.988 -12.887 -21.476  0.00  0.00    +0.177 C 
BRANCH  16  17
ATOM     17  N   UNL     1      31.735 -12.030 -20.366  0.00  0.00    -0.105 NA
ATOM     18  N   UNL     1      31.542 -11.376 -19.521  0.00  0.00    -0.020 NA
ENDBRANCH  16  17
ENDBRANCH  15  16
ENDBRANCH   1  15
BRANCH   1  19
ATOM     19  C   UNL     1      34.304 -13.919 -22.823  0.00  0.00    +0.054 C 
BRANCH  19  20
ATOM     20  C   UNL     1      33.866 -13.776 -24.260  0.00  0.00    -0.020 C 
ATOM     21  C   UNL     1      33.411 -14.890 -24.965  0.00  0.00    -0.004 C 
ATOM     22  C   UNL     1      33.914 -12.529 -24.884  0.00  0.00    -0.004 C 
ATOM     23  C   UNL     1      33.005 -14.758 -26.293  0.00  0.00    -0.000 C 
ATOM     24  C   UNL     1      33.508 -12.397 -26.212  0.00  0.00    -0.000 C 
ATOM     25  C   UNL     1      33.054 -13.512 -26.916  0.00  0.00    -0.000 C 
ENDBRANCH  19  20
ENDBRANCH   1  19
TORSDOF 9
ENDMDL
