MODEL 1
REMARK VINA RESULT:      -9.7      0.000      0.000
REMARK  Name = 47608
REMARK  2 active torsions:
REMARK  status: ('A' for Active; 'I' for Inactive)
REMARK    1  A    between atoms: N_5  and  N_21
REMARK    2  A    between atoms: C_11  and  C_15
REMARK                            x       y       z     vdW  Elec       q    Type
REMARK                         _______ _______ _______ _____ _____    ______ ____
ROOT
ATOM      1  O   UNL     1      32.699 -22.826 -15.282  0.00  0.00    -0.270 OA
ATOM      2  N   UNL     1      34.566 -24.183 -14.904  0.00  0.00    -0.272 N 
ATOM      3  N   UNL     1      37.288 -25.217 -11.875  0.00  0.00    -0.151 NA
ATOM      4  N   UNL     1      38.545 -25.660 -12.152  0.00  0.00    -0.132 NA
ATOM      5  N   UNL     1      40.228 -26.261 -13.727  0.00  0.00    -0.266 N 
ATOM      6  C   UNL     1      34.068 -24.694 -13.626  0.00  0.00    +0.100 C 
ATOM      7  C   UNL     1      35.861 -24.724 -15.350  0.00  0.00    +0.122 C 
ATOM      8  C   UNL     1      35.075 -24.417 -12.518  0.00  0.00    +0.069 C 
ATOM      9  C   UNL     1      36.808 -25.048 -14.225  0.00  0.00    +0.016 C 
ATOM     10  C   UNL     1      36.440 -24.927 -12.888  0.00  0.00    +0.080 C 
ATOM     11  C   UNL     1      33.783 -23.287 -15.638  0.00  0.00    +0.249 C 
ATOM     12  C   UNL     1      38.093 -25.504 -14.499  0.00  0.00    +0.036 C 
ATOM     13  C   UNL     1      38.924 -25.797 -13.438  0.00  0.00    +0.163 C 
ATOM     14  H   UNL     1      40.763 -26.668 -13.008  0.00  0.00    +0.168 HD
ENDROOT
BRANCH  11  15
ATOM     15  C   UNL     1      34.277 -22.850 -16.953  0.00  0.00    +0.054 C 
ATOM     16  C   UNL     1      35.546 -22.289 -17.065  0.00  0.00    +0.005 C 
ATOM     17  C   UNL     1      33.472 -23.000 -18.078  0.00  0.00    +0.005 C 
ATOM     18  C   UNL     1      36.015 -21.875 -18.312  0.00  0.00    +0.000 C 
ATOM     19  C   UNL     1      33.940 -22.585 -19.326  0.00  0.00    +0.000 C 
ATOM     20  C   UNL     1      35.211 -22.023 -19.442  0.00  0.00    +0.000 C 
ENDBRANCH  11  15
BRANCH   5  21
ATOM     21  N   UNL     1      40.766 -26.159 -14.986  0.00  0.00    -0.255 NA
ATOM     22  H   UNL     1      40.692 -27.058 -15.462  0.00  0.00    +0.140 HD
ATOM     23  H   UNL     1      41.748 -25.891 -14.916  0.00  0.00    +0.140 HD
ENDBRANCH   5  21
TORSDOF 2
ENDMDL
MODEL 2
REMARK VINA RESULT:      -9.7      3.818      6.777
REMARK  Name = 47608
REMARK  2 active torsions:
REMARK  status: ('A' for Active; 'I' for Inactive)
REMARK    1  A    between atoms: N_5  and  N_21
REMARK    2  A    between atoms: C_11  and  C_15
REMARK                            x       y       z     vdW  Elec       q    Type
REMARK                         _______ _______ _______ _____ _____    ______ ____
ROOT
ATOM      1  O   UNL     1      35.572 -24.213 -15.595  0.00  0.00    -0.270 OA
ATOM      2  N   UNL     1      33.355 -23.492 -15.412  0.00  0.00    -0.272 N 
ATOM      3  N   UNL     1      29.523 -24.932 -14.467  0.00  0.00    -0.151 NA
ATOM      4  N   UNL     1      28.392 -24.348 -14.947  0.00  0.00    -0.132 NA
ATOM      5  N   UNL     1      27.323 -22.647 -16.228  0.00  0.00    -0.266 N 
ATOM      6  C   UNL     1      33.130 -24.165 -14.133  0.00  0.00    +0.100 C 
ATOM      7  C   UNL     1      32.220 -22.714 -15.937  0.00  0.00    +0.122 C 
ATOM      8  C   UNL     1      31.945 -25.116 -14.238  0.00  0.00    +0.069 C 
ATOM      9  C   UNL     1      30.872 -23.292 -15.594  0.00  0.00    +0.016 C 
ATOM     10  C   UNL     1      30.732 -24.410 -14.776  0.00  0.00    +0.080 C 
ATOM     11  C   UNL     1      34.613 -23.569 -16.019  0.00  0.00    +0.249 C 
ATOM     12  C   UNL     1      29.711 -22.699 -16.077  0.00  0.00    +0.036 C 
ATOM     13  C   UNL     1      28.498 -23.257 -15.731  0.00  0.00    +0.163 C 
ATOM     14  H   UNL     1      26.453 -22.892 -15.837  0.00  0.00    +0.168 HD
ENDROOT
BRANCH  11  15
ATOM     15  C   UNL     1      34.830 -22.820 -17.266  0.00  0.00    +0.054 C 
ATOM     16  C   UNL     1      33.824 -22.770 -18.228  0.00  0.00    +0.005 C 
ATOM     17  C   UNL     1      36.040 -22.166 -17.477  0.00  0.00    +0.005 C 
ATOM     18  C   UNL     1      34.030 -22.060 -19.410  0.00  0.00    +0.000 C 
ATOM     19  C   UNL     1      36.246 -21.456 -18.661  0.00  0.00    +0.000 C 
ATOM     20  C   UNL     1      35.242 -21.402 -19.626  0.00  0.00    +0.000 C 
ENDBRANCH  11  15
BRANCH   5  21
ATOM     21  N   UNL     1      27.366 -21.720 -17.240  0.00  0.00    -0.255 NA
ATOM     22  H   UNL     1      28.145 -21.082 -17.084  0.00  0.00    +0.140 HD
ATOM     23  H   UNL     1      26.492 -21.193 -17.255  0.00  0.00    +0.140 HD
ENDBRANCH   5  21
TORSDOF 2
ENDMDL
MODEL 3
REMARK VINA RESULT:      -9.5      3.435      5.534
REMARK  Name = 47608
REMARK  2 active torsions:
REMARK  status: ('A' for Active; 'I' for Inactive)
REMARK    1  A    between atoms: N_5  and  N_21
REMARK    2  A    between atoms: C_11  and  C_15
REMARK                            x       y       z     vdW  Elec       q    Type
REMARK                         _______ _______ _______ _____ _____    ______ ____
ROOT
ATOM      1  O   UNL     1      32.244 -24.864 -13.107  0.00  0.00    -0.270 OA
ATOM      2  N   UNL     1      33.435 -24.216 -15.013  0.00  0.00    -0.272 N 
ATOM      3  N   UNL     1      36.942 -22.194 -16.138  0.00  0.00    -0.151 NA
ATOM      4  N   UNL     1      37.063 -21.571 -17.342  0.00  0.00    -0.132 NA
ATOM      5  N   UNL     1      36.164 -20.980 -19.467  0.00  0.00    -0.266 N 
ATOM      6  C   UNL     1      34.726 -24.658 -14.486  0.00  0.00    +0.100 C 
ATOM      7  C   UNL     1      33.455 -23.658 -16.375  0.00  0.00    +0.122 C 
ATOM      8  C   UNL     1      35.718 -23.503 -14.481  0.00  0.00    +0.069 C 
ATOM      9  C   UNL     1      34.722 -22.918 -16.714  0.00  0.00    +0.016 C 
ATOM     10  C   UNL     1      35.802 -22.858 -15.837  0.00  0.00    +0.080 C 
ATOM     11  C   UNL     1      32.280 -24.399 -14.246  0.00  0.00    +0.249 C 
ATOM     12  C   UNL     1      34.856 -22.282 -17.943  0.00  0.00    +0.036 C 
ATOM     13  C   UNL     1      36.038 -21.623 -18.214  0.00  0.00    +0.163 C 
ATOM     14  H   UNL     1      37.054 -20.684 -19.767  0.00  0.00    +0.168 HD
ENDROOT
BRANCH  11  15
ATOM     15  C   UNL     1      30.988 -24.013 -14.834  0.00  0.00    +0.054 C 
ATOM     16  C   UNL     1      30.217 -24.963 -15.498  0.00  0.00    +0.005 C 
ATOM     17  C   UNL     1      30.544 -22.698 -14.722  0.00  0.00    +0.005 C 
ATOM     18  C   UNL     1      28.992 -24.596 -16.055  0.00  0.00    +0.000 C 
ATOM     19  C   UNL     1      29.319 -22.331 -15.281  0.00  0.00    +0.000 C 
ATOM     20  C   UNL     1      28.543 -23.279 -15.946  0.00  0.00    +0.000 C 
ENDBRANCH  11  15
BRANCH   5  21
ATOM     21  N   UNL     1      35.077 -20.757 -20.275  0.00  0.00    -0.255 NA
ATOM     22  H   UNL     1      35.370 -20.248 -21.108  0.00  0.00    +0.140 HD
ATOM     23  H   UNL     1      34.382 -20.209 -19.768  0.00  0.00    +0.140 HD
ENDBRANCH   5  21
TORSDOF 2
ENDMDL
MODEL 4
REMARK VINA RESULT:      -9.5      3.436      5.476
REMARK  Name = 47608
REMARK  2 active torsions:
REMARK  status: ('A' for Active; 'I' for Inactive)
REMARK    1  A    between atoms: N_5  and  N_21
REMARK    2  A    between atoms: C_11  and  C_15
REMARK                            x       y       z     vdW  Elec       q    Type
REMARK                         _______ _______ _______ _____ _____    ______ ____
ROOT
ATOM      1  O   UNL     1      32.232 -24.861 -13.109  0.00  0.00    -0.270 OA
ATOM      2  N   UNL     1      33.429 -24.213 -15.011  0.00  0.00    -0.272 N 
ATOM      3  N   UNL     1      36.937 -22.187 -16.125  0.00  0.00    -0.151 NA
ATOM      4  N   UNL     1      37.061 -21.565 -17.329  0.00  0.00    -0.132 NA
ATOM      5  N   UNL     1      36.169 -20.977 -19.458  0.00  0.00    -0.266 N 
ATOM      6  C   UNL     1      34.719 -24.653 -14.478  0.00  0.00    +0.100 C 
ATOM      7  C   UNL     1      33.453 -23.656 -16.374  0.00  0.00    +0.122 C 
ATOM      8  C   UNL     1      35.709 -23.495 -14.472  0.00  0.00    +0.069 C 
ATOM      9  C   UNL     1      34.720 -22.915 -16.708  0.00  0.00    +0.016 C 
ATOM     10  C   UNL     1      35.797 -22.852 -15.827  0.00  0.00    +0.080 C 
ATOM     11  C   UNL     1      32.271 -24.397 -14.247  0.00  0.00    +0.249 C 
ATOM     12  C   UNL     1      34.858 -22.279 -17.937  0.00  0.00    +0.036 C 
ATOM     13  C   UNL     1      36.039 -21.619 -18.205  0.00  0.00    +0.163 C 
ATOM     14  H   UNL     1      37.059 -20.680 -19.755  0.00  0.00    +0.168 HD
ENDROOT
BRANCH  11  15
ATOM     15  C   UNL     1      30.981 -24.013 -14.840  0.00  0.00    +0.054 C 
ATOM     16  C   UNL     1      30.537 -22.697 -14.743  0.00  0.00    +0.005 C 
ATOM     17  C   UNL     1      30.211 -24.970 -15.496  0.00  0.00    +0.005 C 
ATOM     18  C   UNL     1      29.314 -22.334 -15.306  0.00  0.00    +0.000 C 
ATOM     19  C   UNL     1      28.986 -24.607 -16.058  0.00  0.00    +0.000 C 
ATOM     20  C   UNL     1      28.538 -23.290 -15.964  0.00  0.00    +0.000 C 
ENDBRANCH  11  15
BRANCH   5  21
ATOM     21  N   UNL     1      35.084 -20.757 -20.271  0.00  0.00    -0.255 NA
ATOM     22  H   UNL     1      34.347 -21.424 -20.042  0.00  0.00    +0.140 HD
ATOM     23  H   UNL     1      35.360 -20.876 -21.246  0.00  0.00    +0.140 HD
ENDBRANCH   5  21
TORSDOF 2
ENDMDL
MODEL 5
REMARK VINA RESULT:      -9.4     13.380     15.974
REMARK  Name = 47608
REMARK  2 active torsions:
REMARK  status: ('A' for Active; 'I' for Inactive)
REMARK    1  A    between atoms: N_5  and  N_21
REMARK    2  A    between atoms: C_11  and  C_15
REMARK                            x       y       z     vdW  Elec       q    Type
REMARK                         _______ _______ _______ _____ _____    ______ ____
ROOT
ATOM      1  O   UNL     1      31.908  -8.092 -20.284  0.00  0.00    -0.270 OA
ATOM      2  N   UNL     1      31.829 -10.088 -21.500  0.00  0.00    -0.272 N 
ATOM      3  N   UNL     1      32.532 -14.207 -21.060  0.00  0.00    -0.151 NA
ATOM      4  N   UNL     1      32.862 -15.001 -22.115  0.00  0.00    -0.132 NA
ATOM      5  N   UNL     1      33.281 -15.284 -24.443  0.00  0.00    -0.266 N 
ATOM      6  C   UNL     1      31.145 -10.830 -20.441  0.00  0.00    +0.100 C 
ATOM      7  C   UNL     1      32.098 -10.838 -22.738  0.00  0.00    +0.122 C 
ATOM      8  C   UNL     1      31.953 -12.062 -20.053  0.00  0.00    +0.069 C 
ATOM      9  C   UNL     1      32.373 -12.302 -22.519  0.00  0.00    +0.016 C 
ATOM     10  C   UNL     1      32.286 -12.892 -21.260  0.00  0.00    +0.080 C 
ATOM     11  C   UNL     1      32.126  -8.735 -21.310  0.00  0.00    +0.249 C 
ATOM     12  C   UNL     1      32.707 -13.122 -23.591  0.00  0.00    +0.036 C 
ATOM     13  C   UNL     1      32.942 -14.459 -23.345  0.00  0.00    +0.163 C 
ATOM     14  H   UNL     1      33.252 -16.262 -24.335  0.00  0.00    +0.168 HD
ENDROOT
BRANCH  11  15
ATOM     15  C   UNL     1      32.746  -7.998 -22.422  0.00  0.00    +0.054 C 
ATOM     16  C   UNL     1      31.961  -7.196 -23.246  0.00  0.00    +0.005 C 
ATOM     17  C   UNL     1      34.116  -8.107 -22.643  0.00  0.00    +0.005 C 
ATOM     18  C   UNL     1      32.550  -6.498 -24.300  0.00  0.00    +0.000 C 
ATOM     19  C   UNL     1      34.706  -7.408 -23.698  0.00  0.00    +0.000 C 
ATOM     20  C   UNL     1      33.923  -6.604 -24.525  0.00  0.00    +0.000 C 
ENDBRANCH  11  15
BRANCH   5  21
ATOM     21  N   UNL     1      33.649 -14.755 -25.655  0.00  0.00    -0.255 NA
ATOM     22  H   UNL     1      33.190 -15.272 -26.405  0.00  0.00    +0.140 HD
ATOM     23  H   UNL     1      34.661 -14.824 -25.763  0.00  0.00    +0.140 HD
ENDBRANCH   5  21
TORSDOF 2
ENDMDL
MODEL 6
REMARK VINA RESULT:      -9.3     10.821     14.082
REMARK  Name = 47608
REMARK  2 active torsions:
REMARK  status: ('A' for Active; 'I' for Inactive)
REMARK    1  A    between atoms: N_5  and  N_21
REMARK    2  A    between atoms: C_11  and  C_15
REMARK                            x       y       z     vdW  Elec       q    Type
REMARK                         _______ _______ _______ _____ _____    ______ ____
ROOT
ATOM      1  O   UNL     1      34.942 -16.662 -25.736  0.00  0.00    -0.270 OA
ATOM      2  N   UNL     1      33.608 -15.173 -24.523  0.00  0.00    -0.272 N 
ATOM      3  N   UNL     1      32.944 -11.055 -24.017  0.00  0.00    -0.151 NA
ATOM      4  N   UNL     1      32.438 -10.540 -22.863  0.00  0.00    -0.132 NA
ATOM      5  N   UNL     1      31.584 -10.843 -20.660  0.00  0.00    -0.266 N 
ATOM      6  C   UNL     1      33.292 -14.343 -25.685  0.00  0.00    +0.100 C 
ATOM      7  C   UNL     1      32.982 -14.766 -23.253  0.00  0.00    +0.122 C 
ATOM      8  C   UNL     1      33.698 -12.897 -25.428  0.00  0.00    +0.069 C 
ATOM      9  C   UNL     1      32.795 -13.279 -23.113  0.00  0.00    +0.016 C 
ATOM     10  C   UNL     1      33.110 -12.392 -24.140  0.00  0.00    +0.080 C 
ATOM     11  C   UNL     1      34.412 -16.307 -24.685  0.00  0.00    +0.249 C 
ATOM     12  C   UNL     1      32.276 -12.744 -21.940  0.00  0.00    +0.036 C 
ATOM     13  C   UNL     1      32.114 -11.377 -21.858  0.00  0.00    +0.163 C 
ATOM     14  H   UNL     1      31.269  -9.911 -20.648  0.00  0.00    +0.168 HD
ENDROOT
BRANCH  11  15
ATOM     15  C   UNL     1      34.650 -17.162 -23.512  0.00  0.00    +0.054 C 
ATOM     16  C   UNL     1      34.996 -16.586 -22.293  0.00  0.00    +0.005 C 
ATOM     17  C   UNL     1      34.527 -18.543 -23.629  0.00  0.00    +0.005 C 
ATOM     18  C   UNL     1      35.222 -17.398 -21.181  0.00  0.00    +0.000 C 
ATOM     19  C   UNL     1      34.754 -19.356 -22.517  0.00  0.00    +0.000 C 
ATOM     20  C   UNL     1      35.100 -18.783 -21.294  0.00  0.00    +0.000 C 
ENDBRANCH  11  15
BRANCH   5  21
ATOM     21  N   UNL     1      31.498 -11.594 -19.514  0.00  0.00    -0.255 NA
ATOM     22  H   UNL     1      30.949 -11.090 -18.818  0.00  0.00    +0.140 HD
ATOM     23  H   UNL     1      32.435 -11.766 -19.148  0.00  0.00    +0.140 HD
ENDBRANCH   5  21
TORSDOF 2
ENDMDL
MODEL 7
REMARK VINA RESULT:      -8.9      2.942      6.133
REMARK  Name = 47608
REMARK  2 active torsions:
REMARK  status: ('A' for Active; 'I' for Inactive)
REMARK    1  A    between atoms: N_5  and  N_21
REMARK    2  A    between atoms: C_11  and  C_15
REMARK                            x       y       z     vdW  Elec       q    Type
REMARK                         _______ _______ _______ _____ _____    ______ ____
ROOT
ATOM      1  O   UNL     1      33.719 -24.798 -12.654  0.00  0.00    -0.270 OA
ATOM      2  N   UNL     1      34.115 -23.480 -14.545  0.00  0.00    -0.272 N 
ATOM      3  N   UNL     1      32.613 -22.779 -18.406  0.00  0.00    -0.151 NA
ATOM      4  N   UNL     1      33.396 -22.299 -19.410  0.00  0.00    -0.132 NA
ATOM      5  N   UNL     1      35.502 -21.512 -20.199  0.00  0.00    -0.266 N 
ATOM      6  C   UNL     1      32.708 -23.121 -14.720  0.00  0.00    +0.100 C 
ATOM      7  C   UNL     1      35.054 -22.884 -15.510  0.00  0.00    +0.122 C 
ATOM      8  C   UNL     1      32.231 -23.516 -16.112  0.00  0.00    +0.069 C 
ATOM      9  C   UNL     1      34.473 -22.684 -16.884  0.00  0.00    +0.016 C 
ATOM     10  C   UNL     1      33.139 -22.958 -17.172  0.00  0.00    +0.080 C 
ATOM     11  C   UNL     1      34.489 -24.293 -13.469  0.00  0.00    +0.249 C 
ATOM     12  C   UNL     1      35.265 -22.191 -17.915  0.00  0.00    +0.036 C 
ATOM     13  C   UNL     1      34.689 -22.014 -19.156  0.00  0.00    +0.163 C 
ATOM     14  H   UNL     1      35.077 -21.186 -21.024  0.00  0.00    +0.168 HD
ENDROOT
BRANCH  11  15
ATOM     15  C   UNL     1      35.920 -24.575 -13.277  0.00  0.00    +0.054 C 
ATOM     16  C   UNL     1      36.658 -23.824 -12.367  0.00  0.00    +0.005 C 
ATOM     17  C   UNL     1      36.527 -25.591 -14.008  0.00  0.00    +0.005 C 
ATOM     18  C   UNL     1      38.015 -24.092 -12.185  0.00  0.00    +0.000 C 
ATOM     19  C   UNL     1      37.885 -25.859 -13.827  0.00  0.00    +0.000 C 
ATOM     20  C   UNL     1      38.628 -25.110 -12.916  0.00  0.00    +0.000 C 
ENDBRANCH  11  15
BRANCH   5  21
ATOM     21  N   UNL     1      36.870 -21.467 -20.086  0.00  0.00    -0.255 NA
ATOM     22  H   UNL     1      37.137 -20.683 -19.492  0.00  0.00    +0.140 HD
ATOM     23  H   UNL     1      37.283 -21.348 -21.012  0.00  0.00    +0.140 HD
ENDBRANCH   5  21
TORSDOF 2
ENDMDL
MODEL 8
REMARK VINA RESULT:      -8.9     12.405     15.046
REMARK  Name = 47608
REMARK  2 active torsions:
REMARK  status: ('A' for Active; 'I' for Inactive)
REMARK    1  A    between atoms: N_5  and  N_21
REMARK    2  A    between atoms: C_11  and  C_15
REMARK                            x       y       z     vdW  Elec       q    Type
REMARK                         _______ _______ _______ _____ _____    ______ ____
ROOT
ATOM      1  O   UNL     1      32.257  -9.428 -24.104  0.00  0.00    -0.270 OA
ATOM      2  N   UNL     1      33.320 -11.510 -24.071  0.00  0.00    -0.272 N 
ATOM      3  N   UNL     1      33.750 -14.992 -26.385  0.00  0.00    -0.151 NA
ATOM      4  N   UNL     1      34.041 -16.199 -25.828  0.00  0.00    -0.132 NA
ATOM      5  N   UNL     1      34.528 -17.534 -23.916  0.00  0.00    -0.266 N 
ATOM      6  C   UNL     1      33.795 -11.408 -25.451  0.00  0.00    +0.100 C 
ATOM      7  C   UNL     1      33.714 -12.730 -23.345  0.00  0.00    +0.122 C 
ATOM      8  C   UNL     1      33.303 -12.596 -26.268  0.00  0.00    +0.069 C 
ATOM      9  C   UNL     1      33.823 -13.952 -24.218  0.00  0.00    +0.016 C 
ATOM     10  C   UNL     1      33.653 -13.895 -25.598  0.00  0.00    +0.080 C 
ATOM     11  C   UNL     1      32.594 -10.453 -23.514  0.00  0.00    +0.249 C 
ATOM     12  C   UNL     1      34.123 -15.189 -23.658  0.00  0.00    +0.036 C 
ATOM     13  C   UNL     1      34.222 -16.280 -24.495  0.00  0.00    +0.163 C 
ATOM     14  H   UNL     1      34.804 -18.277 -24.499  0.00  0.00    +0.168 HD
ENDROOT
BRANCH  11  15
ATOM     15  C   UNL     1      32.195 -10.554 -22.101  0.00  0.00    +0.054 C 
ATOM     16  C   UNL     1      31.715 -11.761 -21.601  0.00  0.00    +0.005 C 
ATOM     17  C   UNL     1      32.300  -9.440 -21.273  0.00  0.00    +0.005 C 
ATOM     18  C   UNL     1      31.336 -11.856 -20.262  0.00  0.00    +0.000 C 
ATOM     19  C   UNL     1      31.921  -9.535 -19.933  0.00  0.00    +0.000 C 
ATOM     20  C   UNL     1      31.440 -10.742 -19.428  0.00  0.00    +0.000 C 
ENDBRANCH  11  15
BRANCH   5  21
ATOM     21  N   UNL     1      34.450 -17.739 -22.561  0.00  0.00    -0.255 NA
ATOM     22  H   UNL     1      34.751 -18.688 -22.343  0.00  0.00    +0.140 HD
ATOM     23  H   UNL     1      33.486 -17.608 -22.252  0.00  0.00    +0.140 HD
ENDBRANCH   5  21
TORSDOF 2
ENDMDL
MODEL 9
REMARK VINA RESULT:      -8.9      2.926      6.219
REMARK  Name = 47608
REMARK  2 active torsions:
REMARK  status: ('A' for Active; 'I' for Inactive)
REMARK    1  A    between atoms: N_5  and  N_21
REMARK    2  A    between atoms: C_11  and  C_15
REMARK                            x       y       z     vdW  Elec       q    Type
REMARK                         _______ _______ _______ _____ _____    ______ ____
ROOT
ATOM      1  O   UNL     1      34.978 -25.032 -11.425  0.00  0.00    -0.270 OA
ATOM      2  N   UNL     1      34.548 -23.892 -13.422  0.00  0.00    -0.272 N 
ATOM      3  N   UNL     1      31.509 -23.328 -16.268  0.00  0.00    -0.151 NA
ATOM      4  N   UNL     1      31.780 -22.993 -17.559  0.00  0.00    -0.132 NA
ATOM      5  N   UNL     1      33.344 -22.461 -19.276  0.00  0.00    -0.266 N 
ATOM      6  C   UNL     1      33.233 -23.418 -12.992  0.00  0.00    +0.100 C 
ATOM      7  C   UNL     1      34.983 -23.455 -14.759  0.00  0.00    +0.122 C 
ATOM      8  C   UNL     1      32.162 -23.864 -13.979  0.00  0.00    +0.069 C 
ATOM      9  C   UNL     1      33.857 -23.298 -15.747  0.00  0.00    +0.016 C 
ATOM     10  C   UNL     1      32.523 -23.467 -15.383  0.00  0.00    +0.080 C 
ATOM     11  C   UNL     1      35.324 -24.658 -12.545  0.00  0.00    +0.249 C 
ATOM     12  C   UNL     1      34.124 -22.954 -17.067  0.00  0.00    +0.036 C 
ATOM     13  C   UNL     1      33.061 -22.813 -17.935  0.00  0.00    +0.163 C 
ATOM     14  H   UNL     1      32.610 -22.156 -19.856  0.00  0.00    +0.168 HD
ENDROOT
BRANCH  11  15
ATOM     15  C   UNL     1      36.672 -25.057 -12.979  0.00  0.00    +0.054 C 
ATOM     16  C   UNL     1      36.828 -26.110 -13.875  0.00  0.00    +0.005 C 
ATOM     17  C   UNL     1      37.783 -24.377 -12.489  0.00  0.00    +0.005 C 
ATOM     18  C   UNL     1      38.107 -26.488 -14.286  0.00  0.00    +0.000 C 
ATOM     19  C   UNL     1      39.063 -24.755 -12.900  0.00  0.00    +0.000 C 
ATOM     20  C   UNL     1      39.224 -25.809 -13.798  0.00  0.00    +0.000 C 
ENDBRANCH  11  15
BRANCH   5  21
ATOM     21  N   UNL     1      34.616 -22.535 -19.786  0.00  0.00    -0.255 NA
ATOM     22  H   UNL     1      34.823 -23.499 -20.047  0.00  0.00    +0.140 HD
ATOM     23  H   UNL     1      35.284 -22.223 -19.081  0.00  0.00    +0.140 HD
ENDBRANCH   5  21
TORSDOF 2
ENDMDL
