MODEL 1
REMARK VINA RESULT:      -6.7      0.000      0.000
REMARK  Name = 127370
REMARK  11 active torsions:
REMARK  status: ('A' for Active; 'I' for Inactive)
REMARK    1  A    between atoms: CA_1  and  N_3
REMARK    2  A    between atoms: CA_1  and  C_13
REMARK    3  A    between atoms: CA_1  and  C_16
REMARK    4  A    between atoms: C_4  and  C_6
REMARK    5  A    between atoms: C_6  and  C_7
REMARK    6  A    between atoms: C_7  and  C_9
REMARK    7  A    between atoms: C_9  and  O_10
REMARK    8  A    between atoms: C_13  and  O_14
REMARK    9  A    between atoms: C_16  and  C_17
REMARK   10  A    between atoms: C_17  and  C_18
REMARK   11  A    between atoms: C_18  and  N_19
REMARK                            x       y       z     vdW  Elec       q    Type
REMARK                         _______ _______ _______ _____ _____    ______ ____
ROOT
ATOM      1  CA  UNL     1      34.796 -18.400 -21.158  0.00  0.00    +0.171 C 
ENDROOT
BRANCH   1   3
ATOM      2  O   UNL     1      34.844 -15.577 -20.524  0.00  0.00    -0.275 OA
ATOM      3  N   UNL     1      34.697 -17.298 -22.081  0.00  0.00    -0.297 N 
ATOM      4  C   UNL     1      34.729 -15.967 -21.683  0.00  0.00    +0.223 C 
ATOM      5  H   UNL     1      34.601 -17.498 -23.039  0.00  0.00    +0.150 HD
BRANCH   4   6
ATOM      6  C   UNL     1      34.602 -15.026 -22.867  0.00  0.00    +0.097 C 
BRANCH   6   7
ATOM      7  C   UNL     1      33.550 -15.490 -23.870  0.00  0.00    +0.119 C 
BRANCH   7   9
ATOM      8  O   UNL     1      33.785 -15.631 -26.289  0.00  0.00    -0.250 OA
ATOM      9  C   UNL     1      34.171 -15.944 -25.170  0.00  0.00    +0.314 C 
BRANCH   9  10
ATOM     10  O   UNL     1      35.236 -16.760 -24.954  0.00  0.00    -0.480 OA
ATOM     11  H   UNL     1      35.334 -17.194 -24.130  0.00  0.00    +0.295 HD
ENDBRANCH   9  10
ENDBRANCH   7   9
ENDBRANCH   6   7
ENDBRANCH   4   6
ENDBRANCH   1   3
BRANCH   1  13
ATOM     12  OXT UNL     1      36.790 -19.454 -20.235  0.00  0.00    -0.248 OA
ATOM     13  C   UNL     1      36.251 -18.825 -21.137  0.00  0.00    +0.332 C 
BRANCH  13  14
ATOM     14  O   UNL     1      36.927 -18.381 -22.230  0.00  0.00    -0.479 OA
ATOM     15  H   UNL     1      36.631 -17.616 -22.683  0.00  0.00    +0.295 HD
ENDBRANCH  13  14
ENDBRANCH   1  13
BRANCH   1  16
ATOM     16  C   UNL     1      33.904 -19.575 -21.558  0.00  0.00    +0.029 C 
BRANCH  16  17
ATOM     17  C   UNL     1      33.056 -20.089 -20.389  0.00  0.00    -0.022 C 
BRANCH  17  18
ATOM     18  C   UNL     1      33.741 -21.258 -19.684  0.00  0.00    -0.086 C 
BRANCH  18  19
ATOM     19  N   UNL     1      32.765 -22.041 -18.934  0.00  0.00    +0.380 N 
ATOM     20  H   UNL     1      31.906 -22.124 -19.478  0.00  0.00    -0.089 HD
ATOM     21  H   UNL     1      32.565 -21.575 -18.049  0.00  0.00    -0.089 HD
ATOM     22  H   UNL     1      33.144 -22.970 -18.751  0.00  0.00    -0.089 HD
ENDBRANCH  18  19
ENDBRANCH  17  18
ENDBRANCH  16  17
ENDBRANCH   1  16
TORSDOF 11
ENDMDL
MODEL 2
REMARK VINA RESULT:      -6.6      7.204      9.830
REMARK  Name = 127370
REMARK  11 active torsions:
REMARK  status: ('A' for Active; 'I' for Inactive)
REMARK    1  A    between atoms: CA_1  and  N_3
REMARK    2  A    between atoms: CA_1  and  C_13
REMARK    3  A    between atoms: CA_1  and  C_16
REMARK    4  A    between atoms: C_4  and  C_6
REMARK    5  A    between atoms: C_6  and  C_7
REMARK    6  A    between atoms: C_7  and  C_9
REMARK    7  A    between atoms: C_9  and  O_10
REMARK    8  A    between atoms: C_13  and  O_14
REMARK    9  A    between atoms: C_16  and  C_17
REMARK   10  A    between atoms: C_17  and  C_18
REMARK   11  A    between atoms: C_18  and  N_19
REMARK                            x       y       z     vdW  Elec       q    Type
REMARK                         _______ _______ _______ _____ _____    ______ ____
ROOT
ATOM      1  CA  UNL     1      39.000 -25.157 -14.331  0.00  0.00    +0.171 C 
ENDROOT
BRANCH   1   3
ATOM      2  O   UNL     1      37.386 -22.759 -14.189  0.00  0.00    -0.275 OA
ATOM      3  N   UNL     1      38.639 -24.284 -15.419  0.00  0.00    -0.297 N 
ATOM      4  C   UNL     1      37.855 -23.148 -15.256  0.00  0.00    +0.223 C 
ATOM      5  H   UNL     1      38.963 -24.503 -16.322  0.00  0.00    +0.150 HD
BRANCH   4   6
ATOM      6  C   UNL     1      37.636 -22.425 -16.572  0.00  0.00    +0.097 C 
BRANCH   6   7
ATOM      7  C   UNL     1      36.164 -22.368 -16.968  0.00  0.00    +0.119 C 
BRANCH   7   9
ATOM      8  O   UNL     1      36.549 -20.823 -18.810  0.00  0.00    -0.250 OA
ATOM      9  C   UNL     1      35.974 -21.804 -18.357  0.00  0.00    +0.314 C 
BRANCH   9  10
ATOM     10  O   UNL     1      35.069 -22.527 -19.067  0.00  0.00    -0.480 OA
ATOM     11  H   UNL     1      35.302 -23.370 -19.403  0.00  0.00    +0.295 HD
ENDBRANCH   9  10
ENDBRANCH   7   9
ENDBRANCH   6   7
ENDBRANCH   4   6
ENDBRANCH   1   3
BRANCH   1  13
ATOM     12  OXT UNL     1      41.003 -26.513 -14.040  0.00  0.00    -0.248 OA
ATOM     13  C   UNL     1      40.215 -25.942 -14.783  0.00  0.00    +0.332 C 
BRANCH  13  14
ATOM     14  O   UNL     1      40.373 -25.903 -16.133  0.00  0.00    -0.479 OA
ATOM     15  H   UNL     1      40.895 -25.230 -16.523  0.00  0.00    +0.295 HD
ENDBRANCH  13  14
ENDBRANCH   1  13
BRANCH   1  16
ATOM     16  C   UNL     1      37.865 -26.107 -13.948  0.00  0.00    +0.029 C 
BRANCH  16  17
ATOM     17  C   UNL     1      37.537 -26.052 -12.452  0.00  0.00    -0.022 C 
BRANCH  17  18
ATOM     18  C   UNL     1      36.284 -25.217 -12.192  0.00  0.00    -0.086 C 
BRANCH  18  19
ATOM     19  N   UNL     1      35.508 -25.072 -13.418  0.00  0.00    +0.380 N 
ATOM     20  H   UNL     1      35.077 -25.965 -13.655  0.00  0.00    -0.089 HD
ATOM     21  H   UNL     1      36.124 -24.778 -14.177  0.00  0.00    -0.089 HD
ATOM     22  H   UNL     1      34.782 -24.369 -13.279  0.00  0.00    -0.089 HD
ENDBRANCH  18  19
ENDBRANCH  17  18
ENDBRANCH  16  17
ENDBRANCH   1  16
TORSDOF 11
ENDMDL
MODEL 3
REMARK VINA RESULT:      -6.6      2.593      6.412
REMARK  Name = 127370
REMARK  11 active torsions:
REMARK  status: ('A' for Active; 'I' for Inactive)
REMARK    1  A    between atoms: CA_1  and  N_3
REMARK    2  A    between atoms: CA_1  and  C_13
REMARK    3  A    between atoms: CA_1  and  C_16
REMARK    4  A    between atoms: C_4  and  C_6
REMARK    5  A    between atoms: C_6  and  C_7
REMARK    6  A    between atoms: C_7  and  C_9
REMARK    7  A    between atoms: C_9  and  O_10
REMARK    8  A    between atoms: C_13  and  O_14
REMARK    9  A    between atoms: C_16  and  C_17
REMARK   10  A    between atoms: C_17  and  C_18
REMARK   11  A    between atoms: C_18  and  N_19
REMARK                            x       y       z     vdW  Elec       q    Type
REMARK                         _______ _______ _______ _____ _____    ______ ____
ROOT
ATOM      1  CA  UNL     1      35.414 -18.040 -21.409  0.00  0.00    +0.171 C 
ENDROOT
BRANCH   1   3
ATOM      2  O   UNL     1      35.914 -20.417 -19.838  0.00  0.00    -0.275 OA
ATOM      3  N   UNL     1      34.452 -19.030 -20.995  0.00  0.00    -0.297 N 
ATOM      4  C   UNL     1      34.785 -20.146 -20.237  0.00  0.00    +0.223 C 
ATOM      5  H   UNL     1      33.512 -18.910 -21.263  0.00  0.00    +0.150 HD
BRANCH   4   6
ATOM      6  C   UNL     1      33.573 -21.013 -19.954  0.00  0.00    +0.097 C 
BRANCH   6   7
ATOM      7  C   UNL     1      33.954 -22.439 -19.567  0.00  0.00    +0.119 C 
BRANCH   7   9
ATOM      8  O   UNL     1      34.303 -23.171 -17.271  0.00  0.00    -0.250 OA
ATOM      9  C   UNL     1      33.551 -22.766 -18.148  0.00  0.00    +0.314 C 
BRANCH   9  10
ATOM     10  O   UNL     1      32.223 -22.554 -17.948  0.00  0.00    -0.480 OA
ATOM     11  H   UNL     1      31.628 -23.277 -17.949  0.00  0.00    +0.295 HD
ENDBRANCH   9  10
ENDBRANCH   7   9
ENDBRANCH   6   7
ENDBRANCH   4   6
ENDBRANCH   1   3
BRANCH   1  13
ATOM     12  OXT UNL     1      34.055 -16.142 -22.108  0.00  0.00    -0.248 OA
ATOM     13  C   UNL     1      34.745 -16.688 -21.257  0.00  0.00    +0.332 C 
BRANCH  13  14
ATOM     14  O   UNL     1      35.040 -16.106 -20.064  0.00  0.00    -0.479 OA
ATOM     15  H   UNL     1      34.351 -15.781 -19.519  0.00  0.00    +0.295 HD
ENDBRANCH  13  14
ENDBRANCH   1  13
BRANCH   1  16
ATOM     16  C   UNL     1      35.875 -18.246 -22.852  0.00  0.00    +0.029 C 
BRANCH  16  17
ATOM     17  C   UNL     1      34.846 -19.014 -23.689  0.00  0.00    -0.022 C 
BRANCH  17  18
ATOM     18  C   UNL     1      34.456 -18.227 -24.940  0.00  0.00    -0.086 C 
BRANCH  18  19
ATOM     19  N   UNL     1      35.058 -16.899 -24.913  0.00  0.00    +0.380 N 
ATOM     20  H   UNL     1      35.396 -16.660 -25.845  0.00  0.00    -0.089 HD
ATOM     21  H   UNL     1      35.838 -16.894 -24.255  0.00  0.00    -0.089 HD
ATOM     22  H   UNL     1      34.361 -16.216 -24.617  0.00  0.00    -0.089 HD
ENDBRANCH  18  19
ENDBRANCH  17  18
ENDBRANCH  16  17
ENDBRANCH   1  16
TORSDOF 11
ENDMDL
MODEL 4
REMARK VINA RESULT:      -6.5      8.306     11.030
REMARK  Name = 127370
REMARK  11 active torsions:
REMARK  status: ('A' for Active; 'I' for Inactive)
REMARK    1  A    between atoms: CA_1  and  N_3
REMARK    2  A    between atoms: CA_1  and  C_13
REMARK    3  A    between atoms: CA_1  and  C_16
REMARK    4  A    between atoms: C_4  and  C_6
REMARK    5  A    between atoms: C_6  and  C_7
REMARK    6  A    between atoms: C_7  and  C_9
REMARK    7  A    between atoms: C_9  and  O_10
REMARK    8  A    between atoms: C_13  and  O_14
REMARK    9  A    between atoms: C_16  and  C_17
REMARK   10  A    between atoms: C_17  and  C_18
REMARK   11  A    between atoms: C_18  and  N_19
REMARK                            x       y       z     vdW  Elec       q    Type
REMARK                         _______ _______ _______ _____ _____    ______ ____
ROOT
ATOM      1  CA  UNL     1      36.210 -23.615 -15.751  0.00  0.00    +0.171 C 
ENDROOT
BRANCH   1   3
ATOM      2  O   UNL     1      36.086 -26.506 -15.737  0.00  0.00    -0.275 OA
ATOM      3  N   UNL     1      36.955 -24.515 -14.908  0.00  0.00    -0.297 N 
ATOM      4  C   UNL     1      36.829 -25.898 -14.971  0.00  0.00    +0.223 C 
ATOM      5  H   UNL     1      37.582 -24.132 -14.254  0.00  0.00    +0.150 HD
BRANCH   4   6
ATOM      6  C   UNL     1      37.731 -26.589 -13.966  0.00  0.00    +0.097 C 
BRANCH   6   7
ATOM      7  C   UNL     1      38.948 -25.746 -13.598  0.00  0.00    +0.119 C 
BRANCH   7   9
ATOM      8  O   UNL     1      41.149 -26.615 -14.173  0.00  0.00    -0.250 OA
ATOM      9  C   UNL     1      40.125 -26.030 -14.502  0.00  0.00    +0.314 C 
BRANCH   9  10
ATOM     10  O   UNL     1      39.915 -25.550 -15.756  0.00  0.00    -0.480 OA
ATOM     11  H   UNL     1      39.226 -24.936 -15.914  0.00  0.00    +0.295 HD
ENDBRANCH   9  10
ENDBRANCH   7   9
ENDBRANCH   6   7
ENDBRANCH   4   6
ENDBRANCH   1   3
BRANCH   1  13
ATOM     12  OXT UNL     1      36.877 -21.492 -16.744  0.00  0.00    -0.248 OA
ATOM     13  C   UNL     1      37.187 -22.565 -16.242  0.00  0.00    +0.332 C 
BRANCH  13  14
ATOM     14  O   UNL     1      38.478 -22.971 -16.111  0.00  0.00    -0.479 OA
ATOM     15  H   UNL     1      39.170 -22.450 -16.469  0.00  0.00    +0.295 HD
ENDBRANCH  13  14
ENDBRANCH   1  13
BRANCH   1  16
ATOM     16  C   UNL     1      35.047 -22.954 -15.012  0.00  0.00    +0.029 C 
BRANCH  16  17
ATOM     17  C   UNL     1      33.688 -23.316 -15.621  0.00  0.00    -0.022 C 
BRANCH  17  18
ATOM     18  C   UNL     1      32.738 -23.871 -14.561  0.00  0.00    -0.086 C 
BRANCH  18  19
ATOM     19  N   UNL     1      32.415 -22.841 -13.580  0.00  0.00    +0.380 N 
ATOM     20  H   UNL     1      31.437 -22.570 -13.681  0.00  0.00    -0.089 HD
ATOM     21  H   UNL     1      33.013 -22.028 -13.732  0.00  0.00    -0.089 HD
ATOM     22  H   UNL     1      32.572 -23.207 -12.641  0.00  0.00    -0.089 HD
ENDBRANCH  18  19
ENDBRANCH  17  18
ENDBRANCH  16  17
ENDBRANCH   1  16
TORSDOF 11
ENDMDL
MODEL 5
REMARK VINA RESULT:      -6.5      9.120     11.422
REMARK  Name = 127370
REMARK  11 active torsions:
REMARK  status: ('A' for Active; 'I' for Inactive)
REMARK    1  A    between atoms: CA_1  and  N_3
REMARK    2  A    between atoms: CA_1  and  C_13
REMARK    3  A    between atoms: CA_1  and  C_16
REMARK    4  A    between atoms: C_4  and  C_6
REMARK    5  A    between atoms: C_6  and  C_7
REMARK    6  A    between atoms: C_7  and  C_9
REMARK    7  A    between atoms: C_9  and  O_10
REMARK    8  A    between atoms: C_13  and  O_14
REMARK    9  A    between atoms: C_16  and  C_17
REMARK   10  A    between atoms: C_17  and  C_18
REMARK   11  A    between atoms: C_18  and  N_19
REMARK                            x       y       z     vdW  Elec       q    Type
REMARK                         _______ _______ _______ _____ _____    ______ ____
ROOT
ATOM      1  CA  UNL     1      34.606 -24.644 -14.702  0.00  0.00    +0.171 C 
ENDROOT
BRANCH   1   3
ATOM      2  O   UNL     1      36.088 -26.773 -15.982  0.00  0.00    -0.275 OA
ATOM      3  N   UNL     1      35.847 -25.228 -14.261  0.00  0.00    -0.297 N 
ATOM      4  C   UNL     1      36.490 -26.253 -14.944  0.00  0.00    +0.223 C 
ATOM      5  H   UNL     1      36.259 -24.885 -13.436  0.00  0.00    +0.150 HD
BRANCH   4   6
ATOM      6  C   UNL     1      37.773 -26.671 -14.249  0.00  0.00    +0.097 C 
BRANCH   6   7
ATOM      7  C   UNL     1      38.814 -25.556 -14.227  0.00  0.00    +0.119 C 
BRANCH   7   9
ATOM      8  O   UNL     1      41.047 -26.522 -14.142  0.00  0.00    -0.250 OA
ATOM      9  C   UNL     1      40.141 -26.011 -14.788  0.00  0.00    +0.314 C 
BRANCH   9  10
ATOM     10  O   UNL     1      40.219 -25.785 -16.125  0.00  0.00    -0.480 OA
ATOM     11  H   UNL     1      40.608 -26.426 -16.687  0.00  0.00    +0.295 HD
ENDBRANCH   9  10
ENDBRANCH   7   9
ENDBRANCH   6   7
ENDBRANCH   4   6
ENDBRANCH   1   3
BRANCH   1  13
ATOM     12  OXT UNL     1      35.505 -22.434 -15.198  0.00  0.00    -0.248 OA
ATOM     13  C   UNL     1      34.965 -23.464 -15.582  0.00  0.00    +0.332 C 
BRANCH  13  14
ATOM     14  O   UNL     1      34.569 -23.650 -16.869  0.00  0.00    -0.479 OA
ATOM     15  H   UNL     1      34.696 -22.970 -17.501  0.00  0.00    +0.295 HD
ENDBRANCH  13  14
ENDBRANCH   1  13
BRANCH   1  16
ATOM     16  C   UNL     1      33.732 -24.189 -13.533  0.00  0.00    +0.029 C 
BRANCH  16  17
ATOM     17  C   UNL     1      32.317 -23.802 -13.978  0.00  0.00    -0.022 C 
BRANCH  17  18
ATOM     18  C   UNL     1      31.423 -25.035 -14.107  0.00  0.00    -0.086 C 
BRANCH  18  19
ATOM     19  N   UNL     1      30.188 -24.848 -13.355  0.00  0.00    +0.380 N 
ATOM     20  H   UNL     1      29.707 -24.015 -13.694  0.00  0.00    -0.089 HD
ATOM     21  H   UNL     1      30.408 -24.736 -12.365  0.00  0.00    -0.089 HD
ATOM     22  H   UNL     1      29.589 -25.663 -13.479  0.00  0.00    -0.089 HD
ENDBRANCH  18  19
ENDBRANCH  17  18
ENDBRANCH  16  17
ENDBRANCH   1  16
TORSDOF 11
ENDMDL
MODEL 6
REMARK VINA RESULT:      -6.4      2.593      6.287
REMARK  Name = 127370
REMARK  11 active torsions:
REMARK  status: ('A' for Active; 'I' for Inactive)
REMARK    1  A    between atoms: CA_1  and  N_3
REMARK    2  A    between atoms: CA_1  and  C_13
REMARK    3  A    between atoms: CA_1  and  C_16
REMARK    4  A    between atoms: C_4  and  C_6
REMARK    5  A    between atoms: C_6  and  C_7
REMARK    6  A    between atoms: C_7  and  C_9
REMARK    7  A    between atoms: C_9  and  O_10
REMARK    8  A    between atoms: C_13  and  O_14
REMARK    9  A    between atoms: C_16  and  C_17
REMARK   10  A    between atoms: C_17  and  C_18
REMARK   11  A    between atoms: C_18  and  N_19
REMARK                            x       y       z     vdW  Elec       q    Type
REMARK                         _______ _______ _______ _____ _____    ______ ____
ROOT
ATOM      1  CA  UNL     1      34.521 -17.632 -21.699  0.00  0.00    +0.171 C 
ENDROOT
BRANCH   1   3
ATOM      2  O   UNL     1      33.377 -20.196 -20.997  0.00  0.00    -0.275 OA
ATOM      3  N   UNL     1      35.143 -18.684 -20.935  0.00  0.00    -0.297 N 
ATOM      4  C   UNL     1      34.513 -19.889 -20.645  0.00  0.00    +0.223 C 
ATOM      5  H   UNL     1      36.058 -18.542 -20.602  0.00  0.00    +0.150 HD
BRANCH   4   6
ATOM      6  C   UNL     1      35.405 -20.804 -19.826  0.00  0.00    +0.097 C 
BRANCH   6   7
ATOM      7  C   UNL     1      34.890 -22.239 -19.788  0.00  0.00    +0.119 C 
BRANCH   7   9
ATOM      8  O   UNL     1      34.495 -22.929 -17.487  0.00  0.00    -0.250 OA
ATOM      9  C   UNL     1      34.063 -22.511 -18.553  0.00  0.00    +0.314 C 
BRANCH   9  10
ATOM     10  O   UNL     1      32.750 -22.230 -18.764  0.00  0.00    -0.480 OA
ATOM     11  H   UNL     1      32.506 -21.468 -19.250  0.00  0.00    +0.295 HD
ENDBRANCH   9  10
ENDBRANCH   7   9
ENDBRANCH   6   7
ENDBRANCH   4   6
ENDBRANCH   1   3
BRANCH   1  13
ATOM     12  OXT UNL     1      35.254 -18.574 -23.822  0.00  0.00    -0.248 OA
ATOM     13  C   UNL     1      35.193 -17.620 -23.057  0.00  0.00    +0.332 C 
BRANCH  13  14
ATOM     14  O   UNL     1      35.779 -16.423 -23.324  0.00  0.00    -0.479 OA
ATOM     15  H   UNL     1      36.657 -16.260 -23.043  0.00  0.00    +0.295 HD
ENDBRANCH  13  14
ENDBRANCH   1  13
BRANCH   1  16
ATOM     16  C   UNL     1      34.658 -16.267 -21.025  0.00  0.00    +0.029 C 
BRANCH  16  17
ATOM     17  C   UNL     1      33.303 -15.588 -20.800  0.00  0.00    -0.022 C 
BRANCH  17  18
ATOM     18  C   UNL     1      32.942 -14.677 -21.973  0.00  0.00    -0.086 C 
BRANCH  18  19
ATOM     19  N   UNL     1      34.149 -14.132 -22.583  0.00  0.00    +0.380 N 
ATOM     20  H   UNL     1      34.140 -14.324 -23.584  0.00  0.00    -0.089 HD
ATOM     21  H   UNL     1      34.969 -14.567 -22.159  0.00  0.00    -0.089 HD
ATOM     22  H   UNL     1      34.182 -13.125 -22.429  0.00  0.00    -0.089 HD
ENDBRANCH  18  19
ENDBRANCH  17  18
ENDBRANCH  16  17
ENDBRANCH   1  16
TORSDOF 11
ENDMDL
MODEL 7
REMARK VINA RESULT:      -6.4      9.171     11.153
REMARK  Name = 127370
REMARK  11 active torsions:
REMARK  status: ('A' for Active; 'I' for Inactive)
REMARK    1  A    between atoms: CA_1  and  N_3
REMARK    2  A    between atoms: CA_1  and  C_13
REMARK    3  A    between atoms: CA_1  and  C_16
REMARK    4  A    between atoms: C_4  and  C_6
REMARK    5  A    between atoms: C_6  and  C_7
REMARK    6  A    between atoms: C_7  and  C_9
REMARK    7  A    between atoms: C_9  and  O_10
REMARK    8  A    between atoms: C_13  and  O_14
REMARK    9  A    between atoms: C_16  and  C_17
REMARK   10  A    between atoms: C_17  and  C_18
REMARK   11  A    between atoms: C_18  and  N_19
REMARK                            x       y       z     vdW  Elec       q    Type
REMARK                         _______ _______ _______ _____ _____    ______ ____
ROOT
ATOM      1  CA  UNL     1      36.798 -25.315 -14.565  0.00  0.00    +0.171 C 
ENDROOT
BRANCH   1   3
ATOM      2  O   UNL     1      35.793 -22.707 -15.312  0.00  0.00    -0.275 OA
ATOM      3  N   UNL     1      35.473 -24.992 -15.030  0.00  0.00    -0.297 N 
ATOM      4  C   UNL     1      35.077 -23.703 -15.368  0.00  0.00    +0.223 C 
ATOM      5  H   UNL     1      34.816 -25.720 -15.112  0.00  0.00    +0.150 HD
BRANCH   4   6
ATOM      6  C   UNL     1      33.629 -23.663 -15.821  0.00  0.00    +0.097 C 
BRANCH   6   7
ATOM      7  C   UNL     1      32.665 -23.406 -14.668  0.00  0.00    +0.119 C 
BRANCH   7   9
ATOM      8  O   UNL     1      31.371 -25.424 -14.240  0.00  0.00    -0.250 OA
ATOM      9  C   UNL     1      32.297 -24.681 -13.945  0.00  0.00    +0.314 C 
BRANCH   9  10
ATOM     10  O   UNL     1      33.134 -24.918 -12.900  0.00  0.00    -0.480 OA
ATOM     11  H   UNL     1      33.682 -24.232 -12.574  0.00  0.00    +0.295 HD
ENDBRANCH   9  10
ENDBRANCH   7   9
ENDBRANCH   6   7
ENDBRANCH   4   6
ENDBRANCH   1   3
BRANCH   1  13
ATOM     12  OXT UNL     1      36.569 -27.177 -16.118  0.00  0.00    -0.248 OA
ATOM     13  C   UNL     1      37.179 -26.634 -15.207  0.00  0.00    +0.332 C 
BRANCH  13  14
ATOM     14  O   UNL     1      38.270 -27.191 -14.617  0.00  0.00    -0.479 OA
ATOM     15  H   UNL     1      38.710 -26.737 -13.925  0.00  0.00    +0.295 HD
ENDBRANCH  13  14
ENDBRANCH   1  13
BRANCH   1  16
ATOM     16  C   UNL     1      36.868 -25.424 -13.042  0.00  0.00    +0.029 C 
BRANCH  16  17
ATOM     17  C   UNL     1      37.774 -24.355 -12.421  0.00  0.00    -0.022 C 
BRANCH  17  18
ATOM     18  C   UNL     1      36.965 -23.136 -11.979  0.00  0.00    -0.086 C 
BRANCH  18  19
ATOM     19  N   UNL     1      35.560 -23.492 -11.815  0.00  0.00    +0.380 N 
ATOM     20  H   UNL     1      35.421 -23.913 -10.897  0.00  0.00    -0.089 HD
ATOM     21  H   UNL     1      35.292 -24.157 -12.540  0.00  0.00    -0.089 HD
ATOM     22  H   UNL     1      34.987 -22.653 -11.896  0.00  0.00    -0.089 HD
ENDBRANCH  18  19
ENDBRANCH  17  18
ENDBRANCH  16  17
ENDBRANCH   1  16
TORSDOF 11
ENDMDL
MODEL 8
REMARK VINA RESULT:      -6.4      7.552     10.484
REMARK  Name = 127370
REMARK  11 active torsions:
REMARK  status: ('A' for Active; 'I' for Inactive)
REMARK    1  A    between atoms: CA_1  and  N_3
REMARK    2  A    between atoms: CA_1  and  C_13
REMARK    3  A    between atoms: CA_1  and  C_16
REMARK    4  A    between atoms: C_4  and  C_6
REMARK    5  A    between atoms: C_6  and  C_7
REMARK    6  A    between atoms: C_7  and  C_9
REMARK    7  A    between atoms: C_9  and  O_10
REMARK    8  A    between atoms: C_13  and  O_14
REMARK    9  A    between atoms: C_16  and  C_17
REMARK   10  A    between atoms: C_17  and  C_18
REMARK   11  A    between atoms: C_18  and  N_19
REMARK                            x       y       z     vdW  Elec       q    Type
REMARK                         _______ _______ _______ _____ _____    ______ ____
ROOT
ATOM      1  CA  UNL     1      36.170 -24.755 -12.886  0.00  0.00    +0.171 C 
ENDROOT
BRANCH   1   3
ATOM      2  O   UNL     1      35.785 -25.330 -15.695  0.00  0.00    -0.275 OA
ATOM      3  N   UNL     1      35.761 -23.834 -13.915  0.00  0.00    -0.297 N 
ATOM      4  C   UNL     1      35.602 -24.201 -15.246  0.00  0.00    +0.223 C 
ATOM      5  H   UNL     1      35.587 -22.898 -13.664  0.00  0.00    +0.150 HD
BRANCH   4   6
ATOM      6  C   UNL     1      35.168 -23.026 -16.103  0.00  0.00    +0.097 C 
BRANCH   6   7
ATOM      7  C   UNL     1      33.832 -23.273 -16.797  0.00  0.00    +0.119 C 
BRANCH   7   9
ATOM      8  O   UNL     1      34.794 -22.785 -18.979  0.00  0.00    -0.250 OA
ATOM      9  C   UNL     1      33.833 -22.769 -18.222  0.00  0.00    +0.314 C 
BRANCH   9  10
ATOM     10  O   UNL     1      32.615 -22.284 -18.578  0.00  0.00    -0.480 OA
ATOM     11  H   UNL     1      32.054 -21.904 -17.931  0.00  0.00    +0.295 HD
ENDBRANCH   9  10
ENDBRANCH   7   9
ENDBRANCH   6   7
ENDBRANCH   4   6
ENDBRANCH   1   3
BRANCH   1  13
ATOM     12  OXT UNL     1      35.386 -25.047 -10.598  0.00  0.00    -0.248 OA
ATOM     13  C   UNL     1      35.295 -24.481 -11.679  0.00  0.00    +0.332 C 
BRANCH  13  14
ATOM     14  O   UNL     1      34.339 -23.551 -11.944  0.00  0.00    -0.479 OA
ATOM     15  H   UNL     1      34.283 -22.776 -11.421  0.00  0.00    +0.295 HD
ENDBRANCH  13  14
ENDBRANCH   1  13
BRANCH   1  16
ATOM     16  C   UNL     1      37.646 -24.599 -12.519  0.00  0.00    +0.029 C 
BRANCH  16  17
ATOM     17  C   UNL     1      38.479 -25.821 -12.920  0.00  0.00    -0.022 C 
BRANCH  17  18
ATOM     18  C   UNL     1      39.325 -25.529 -14.159  0.00  0.00    -0.086 C 
BRANCH  18  19
ATOM     19  N   UNL     1      40.546 -26.326 -14.139  0.00  0.00    +0.380 N 
ATOM     20  H   UNL     1      40.336 -27.261 -13.789  0.00  0.00    -0.089 HD
ATOM     21  H   UNL     1      41.232 -25.880 -13.529  0.00  0.00    -0.089 HD
ATOM     22  H   UNL     1      40.923 -26.392 -15.083  0.00  0.00    -0.089 HD
ENDBRANCH  18  19
ENDBRANCH  17  18
ENDBRANCH  16  17
ENDBRANCH   1  16
TORSDOF 11
ENDMDL
MODEL 9
REMARK VINA RESULT:      -6.3      1.905      2.412
REMARK  Name = 127370
REMARK  11 active torsions:
REMARK  status: ('A' for Active; 'I' for Inactive)
REMARK    1  A    between atoms: CA_1  and  N_3
REMARK    2  A    between atoms: CA_1  and  C_13
REMARK    3  A    between atoms: CA_1  and  C_16
REMARK    4  A    between atoms: C_4  and  C_6
REMARK    5  A    between atoms: C_6  and  C_7
REMARK    6  A    between atoms: C_7  and  C_9
REMARK    7  A    between atoms: C_9  and  O_10
REMARK    8  A    between atoms: C_13  and  O_14
REMARK    9  A    between atoms: C_16  and  C_17
REMARK   10  A    between atoms: C_17  and  C_18
REMARK   11  A    between atoms: C_18  and  N_19
REMARK                            x       y       z     vdW  Elec       q    Type
REMARK                         _______ _______ _______ _____ _____    ______ ____
ROOT
ATOM      1  CA  UNL     1      35.245 -17.548 -21.984  0.00  0.00    +0.171 C 
ENDROOT
BRANCH   1   3
ATOM      2  O   UNL     1      34.969 -15.241 -20.260  0.00  0.00    -0.275 OA
ATOM      3  N   UNL     1      34.065 -16.745 -21.785  0.00  0.00    -0.297 N 
ATOM      4  C   UNL     1      34.025 -15.649 -20.932  0.00  0.00    +0.223 C 
ATOM      5  H   UNL     1      33.247 -16.985 -22.276  0.00  0.00    +0.150 HD
BRANCH   4   6
ATOM      6  C   UNL     1      32.654 -14.998 -20.919  0.00  0.00    +0.097 C 
BRANCH   6   7
ATOM      7  C   UNL     1      32.609 -13.717 -21.746  0.00  0.00    +0.119 C 
BRANCH   7   9
ATOM      8  O   UNL     1      33.028 -14.828 -23.872  0.00  0.00    -0.250 OA
ATOM      9  C   UNL     1      33.245 -13.899 -23.105  0.00  0.00    +0.314 C 
BRANCH   9  10
ATOM     10  O   UNL     1      34.109 -12.890 -23.388  0.00  0.00    -0.480 OA
ATOM     11  H   UNL     1      34.028 -12.066 -22.949  0.00  0.00    +0.295 HD
ENDBRANCH   9  10
ENDBRANCH   7   9
ENDBRANCH   6   7
ENDBRANCH   4   6
ENDBRANCH   1   3
BRANCH   1  13
ATOM     12  OXT UNL     1      35.273 -19.036 -23.913  0.00  0.00    -0.248 OA
ATOM     13  C   UNL     1      35.292 -17.900 -23.458  0.00  0.00    +0.332 C 
BRANCH  13  14
ATOM     14  O   UNL     1      35.409 -16.795 -24.242  0.00  0.00    -0.479 OA
ATOM     15  H   UNL     1      36.173 -16.678 -24.772  0.00  0.00    +0.295 HD
ENDBRANCH  13  14
ENDBRANCH   1  13
BRANCH   1  16
ATOM     16  C   UNL     1      35.234 -18.818 -21.134  0.00  0.00    +0.029 C 
BRANCH  16  17
ATOM     17  C   UNL     1      33.817 -19.350 -20.898  0.00  0.00    -0.022 C 
BRANCH  17  18
ATOM     18  C   UNL     1      33.845 -20.676 -20.138  0.00  0.00    -0.086 C 
BRANCH  18  19
ATOM     19  N   UNL     1      32.579 -20.893 -19.449  0.00  0.00    +0.380 N 
ATOM     20  H   UNL     1      32.724 -20.828 -18.442  0.00  0.00    -0.089 HD
ATOM     21  H   UNL     1      32.220 -21.820 -19.683  0.00  0.00    -0.089 HD
ATOM     22  H   UNL     1      31.907 -20.185 -19.743  0.00  0.00    -0.089 HD
ENDBRANCH  18  19
ENDBRANCH  17  18
ENDBRANCH  16  17
ENDBRANCH   1  16
TORSDOF 11
ENDMDL
