MODEL 1
REMARK VINA RESULT:      -9.0      0.000      0.000
REMARK  Name = 10635
REMARK  1 active torsions:
REMARK  status: ('A' for Active; 'I' for Inactive)
REMARK    1  A    between atoms: C_12  and  O_21
REMARK                            x       y       z     vdW  Elec       q    Type
REMARK                         _______ _______ _______ _____ _____    ______ ____
ROOT
ATOM      1  O   UNL     1      39.698 -24.667 -13.455  0.00  0.00    -0.296 OA
ATOM      2  C   UNL     1      33.767 -23.332 -15.474  0.00  0.00    +0.000 C 
ATOM      3  C   UNL     1      34.287 -24.550 -14.648  0.00  0.00    +0.000 C 
ATOM      4  C   UNL     1      32.338 -23.633 -15.938  0.00  0.00    +0.002 C 
ATOM      5  C   UNL     1      31.367 -23.879 -14.767  0.00  0.00    +0.025 C 
ATOM      6  C   UNL     1      35.775 -24.359 -14.170  0.00  0.00    +0.001 C 
ATOM      7  C   UNL     1      36.660 -24.027 -15.413  0.00  0.00    +0.007 C 
ATOM      8  C   UNL     1      33.301 -24.949 -13.515  0.00  0.00    +0.000 C 
ATOM      9  C   UNL     1      31.850 -25.119 -14.002  0.00  0.00    +0.002 C 
ATOM     10  C   UNL     1      34.690 -23.048 -16.665  0.00  0.00    +0.000 C 
ATOM     11  C   UNL     1      31.602 -22.609 -16.800  0.00  0.00    +0.003 C 
ATOM     12  C   UNL     1      30.062 -24.079 -15.560  0.00  0.00    +0.110 C 
ATOM     13  C   UNL     1      36.135 -22.838 -16.228  0.00  0.00    +0.000 C 
ATOM     14  C   UNL     1      30.120 -22.996 -16.654  0.00  0.00    +0.029 C 
ATOM     15  C   UNL     1      36.299 -25.683 -13.526  0.00  0.00    +0.008 C 
ATOM     16  C   UNL     1      31.224 -22.688 -13.786  0.00  0.00    +0.002 C 
ATOM     17  C   UNL     1      35.870 -23.235 -13.104  0.00  0.00    +0.000 C 
ATOM     18  C   UNL     1      38.134 -23.797 -15.042  0.00  0.00    +0.064 C 
ATOM     19  C   UNL     1      37.762 -26.026 -13.808  0.00  0.00    +0.065 C 
ATOM     20  C   UNL     1      38.615 -24.805 -14.025  0.00  0.00    +0.151 C 
ENDROOT
BRANCH  12  21
ATOM     21  O   UNL     1      28.903 -23.954 -14.758  0.00  0.00    -0.384 OA
ATOM     22  H   UNL     1      29.057 -24.380 -13.900  0.00  0.00    +0.210 HD
ENDBRANCH  12  21
TORSDOF 1
ENDMDL
MODEL 2
REMARK VINA RESULT:      -8.0      1.277      2.687
REMARK  Name = 10635
REMARK  1 active torsions:
REMARK  status: ('A' for Active; 'I' for Inactive)
REMARK    1  A    between atoms: C_12  and  O_21
REMARK                            x       y       z     vdW  Elec       q    Type
REMARK                         _______ _______ _______ _____ _____    ______ ____
ROOT
ATOM      1  O   UNL     1      39.243 -24.868 -14.161  0.00  0.00    -0.296 OA
ATOM      2  C   UNL     1      32.947 -23.716 -14.406  0.00  0.00    +0.000 C 
ATOM      3  C   UNL     1      34.076 -23.291 -15.396  0.00  0.00    +0.000 C 
ATOM      4  C   UNL     1      31.670 -22.948 -14.765  0.00  0.00    +0.002 C 
ATOM      5  C   UNL     1      31.189 -23.225 -16.202  0.00  0.00    +0.025 C 
ATOM      6  C   UNL     1      35.450 -23.990 -15.074  0.00  0.00    +0.001 C 
ATOM      7  C   UNL     1      35.805 -23.726 -13.576  0.00  0.00    +0.007 C 
ATOM      8  C   UNL     1      33.629 -23.420 -16.879  0.00  0.00    +0.000 C 
ATOM      9  C   UNL     1      32.278 -22.741 -17.169  0.00  0.00    +0.002 C 
ATOM     10  C   UNL     1      33.366 -23.451 -12.955  0.00  0.00    +0.000 C 
ATOM     11  C   UNL     1      30.413 -23.158 -13.923  0.00  0.00    +0.003 C 
ATOM     12  C   UNL     1      29.903 -22.378 -16.204  0.00  0.00    +0.110 C 
ATOM     13  C   UNL     1      34.684 -24.133 -12.610  0.00  0.00    +0.000 C 
ATOM     14  C   UNL     1      29.273 -22.652 -14.824  0.00  0.00    +0.029 C 
ATOM     15  C   UNL     1      36.577 -23.377 -15.967  0.00  0.00    +0.008 C 
ATOM     16  C   UNL     1      30.856 -24.710 -16.497  0.00  0.00    +0.002 C 
ATOM     17  C   UNL     1      35.376 -25.511 -15.368  0.00  0.00    +0.000 C 
ATOM     18  C   UNL     1      37.124 -24.393 -13.158  0.00  0.00    +0.064 C 
ATOM     19  C   UNL     1      37.941 -23.214 -15.296  0.00  0.00    +0.065 C 
ATOM     20  C   UNL     1      38.188 -24.237 -14.219  0.00  0.00    +0.151 C 
ENDROOT
BRANCH  12  21
ATOM     21  O   UNL     1      29.022 -22.713 -17.260  0.00  0.00    -0.384 OA
ATOM     22  H   UNL     1      29.232 -22.176 -18.039  0.00  0.00    +0.210 HD
ENDBRANCH  12  21
TORSDOF 1
ENDMDL
MODEL 3
REMARK VINA RESULT:      -7.6      3.691      6.088
REMARK  Name = 10635
REMARK  1 active torsions:
REMARK  status: ('A' for Active; 'I' for Inactive)
REMARK    1  A    between atoms: C_12  and  O_21
REMARK                            x       y       z     vdW  Elec       q    Type
REMARK                         _______ _______ _______ _____ _____    ______ ____
ROOT
ATOM      1  O   UNL     1      34.568 -20.056 -22.683  0.00  0.00    -0.296 OA
ATOM      2  C   UNL     1      35.640 -22.615 -16.909  0.00  0.00    +0.000 C 
ATOM      3  C   UNL     1      34.316 -22.064 -17.525  0.00  0.00    +0.000 C 
ATOM      4  C   UNL     1      35.424 -22.843 -15.410  0.00  0.00    +0.002 C 
ATOM      5  C   UNL     1      34.294 -23.849 -15.115  0.00  0.00    +0.025 C 
ATOM      6  C   UNL     1      34.455 -21.744 -19.060  0.00  0.00    +0.001 C 
ATOM      7  C   UNL     1      35.677 -20.793 -19.263  0.00  0.00    +0.007 C 
ATOM      8  C   UNL     1      33.094 -22.956 -17.168  0.00  0.00    +0.000 C 
ATOM      9  C   UNL     1      32.984 -23.266 -15.664  0.00  0.00    +0.002 C 
ATOM     10  C   UNL     1      36.802 -21.646 -17.161  0.00  0.00    +0.000 C 
ATOM     11  C   UNL     1      36.584 -23.353 -14.558  0.00  0.00    +0.003 C 
ATOM     12  C   UNL     1      34.387 -23.888 -13.579  0.00  0.00    +0.110 C 
ATOM     13  C   UNL     1      36.973 -21.334 -18.644  0.00  0.00    +0.000 C 
ATOM     14  C   UNL     1      35.902 -23.913 -13.296  0.00  0.00    +0.029 C 
ATOM     15  C   UNL     1      33.169 -21.016 -19.568  0.00  0.00    +0.008 C 
ATOM     16  C   UNL     1      34.519 -25.265 -15.705  0.00  0.00    +0.002 C 
ATOM     17  C   UNL     1      34.624 -23.051 -19.880  0.00  0.00    +0.000 C 
ATOM     18  C   UNL     1      35.910 -20.442 -20.741  0.00  0.00    +0.064 C 
ATOM     19  C   UNL     1      33.393 -19.916 -20.605  0.00  0.00    +0.065 C 
ATOM     20  C   UNL     1      34.611 -20.158 -21.457  0.00  0.00    +0.151 C 
ENDROOT
BRANCH  12  21
ATOM     21  O   UNL     1      33.730 -25.007 -13.013  0.00  0.00    -0.384 OA
ATOM     22  H   UNL     1      34.287 -25.794 -13.115  0.00  0.00    +0.210 HD
ENDBRANCH  12  21
TORSDOF 1
ENDMDL
MODEL 4
REMARK VINA RESULT:      -7.5      1.091      6.349
REMARK  Name = 10635
REMARK  1 active torsions:
REMARK  status: ('A' for Active; 'I' for Inactive)
REMARK    1  A    between atoms: C_12  and  O_21
REMARK                            x       y       z     vdW  Elec       q    Type
REMARK                         _______ _______ _______ _____ _____    ______ ____
ROOT
ATOM      1  O   UNL     1      28.040 -23.354 -16.082  0.00  0.00    -0.296 OA
ATOM      2  C   UNL     1      34.403 -23.769 -15.475  0.00  0.00    +0.000 C 
ATOM      3  C   UNL     1      33.318 -23.453 -14.398  0.00  0.00    +0.000 C 
ATOM      4  C   UNL     1      35.782 -23.463 -14.882  0.00  0.00    +0.002 C 
ATOM      5  C   UNL     1      36.089 -24.294 -13.621  0.00  0.00    +0.025 C 
ATOM      6  C   UNL     1      31.856 -23.685 -14.934  0.00  0.00    +0.001 C 
ATOM      7  C   UNL     1      31.674 -22.874 -16.256  0.00  0.00    +0.007 C 
ATOM      8  C   UNL     1      33.619 -24.155 -13.045  0.00  0.00    +0.000 C 
ATOM      9  C   UNL     1      35.058 -23.925 -12.546  0.00  0.00    +0.002 C 
ATOM     10  C   UNL     1      34.156 -22.957 -16.753  0.00  0.00    +0.000 C 
ATOM     11  C   UNL     1      37.026 -23.658 -15.747  0.00  0.00    +0.003 C 
ATOM     12  C   UNL     1      37.520 -23.801 -13.337  0.00  0.00    +0.110 C 
ATOM     13  C   UNL     1      32.752 -23.179 -17.305  0.00  0.00    +0.000 C 
ATOM     14  C   UNL     1      38.178 -23.740 -14.730  0.00  0.00    +0.029 C 
ATOM     15  C   UNL     1      30.819 -23.165 -13.886  0.00  0.00    +0.008 C 
ATOM     16  C   UNL     1      36.082 -25.829 -13.841  0.00  0.00    +0.002 C 
ATOM     17  C   UNL     1      31.589 -25.195 -15.167  0.00  0.00    +0.000 C 
ATOM     18  C   UNL     1      30.278 -23.057 -16.872  0.00  0.00    +0.064 C 
ATOM     19  C   UNL     1      29.572 -22.494 -14.461  0.00  0.00    +0.065 C 
ATOM     20  C   UNL     1      29.197 -23.026 -15.818  0.00  0.00    +0.151 C 
ENDROOT
BRANCH  12  21
ATOM     21  O   UNL     1      38.233 -24.649 -12.457  0.00  0.00    -0.384 OA
ATOM     22  H   UNL     1      39.184 -24.559 -12.620  0.00  0.00    +0.210 HD
ENDBRANCH  12  21
TORSDOF 1
ENDMDL
MODEL 5
REMARK VINA RESULT:      -7.0     19.774     21.908
REMARK  Name = 10635
REMARK  1 active torsions:
REMARK  status: ('A' for Active; 'I' for Inactive)
REMARK    1  A    between atoms: C_12  and  O_21
REMARK                            x       y       z     vdW  Elec       q    Type
REMARK                         _______ _______ _______ _____ _____    ______ ____
ROOT
ATOM      1  O   UNL     1      31.985  -9.038 -20.875  0.00  0.00    -0.296 OA
ATOM      2  C   UNL     1      32.180  -4.521 -25.413  0.00  0.00    +0.000 C 
ATOM      3  C   UNL     1      33.311  -5.464 -24.896  0.00  0.00    +0.000 C 
ATOM      4  C   UNL     1      32.812  -3.437 -26.292  0.00  0.00    +0.002 C 
ATOM      5  C   UNL     1      33.559  -4.014 -27.509  0.00  0.00    +0.025 C 
ATOM      6  C   UNL     1      32.766  -6.585 -23.935  0.00  0.00    +0.001 C 
ATOM      7  C   UNL     1      31.951  -5.906 -22.788  0.00  0.00    +0.007 C 
ATOM      8  C   UNL     1      34.199  -5.996 -26.056  0.00  0.00    +0.000 C 
ATOM      9  C   UNL     1      34.711  -4.885 -26.991  0.00  0.00    +0.002 C 
ATOM     10  C   UNL     1      31.407  -3.905 -24.240  0.00  0.00    +0.000 C 
ATOM     11  C   UNL     1      31.919  -2.357 -26.902  0.00  0.00    +0.003 C 
ATOM     12  C   UNL     1      33.997  -2.700 -28.182  0.00  0.00    +0.110 C 
ATOM     13  C   UNL     1      30.850  -4.970 -23.303  0.00  0.00    +0.000 C 
ATOM     14  C   UNL     1      32.763  -1.786 -28.055  0.00  0.00    +0.029 C 
ATOM     15  C   UNL     1      33.962  -7.366 -23.300  0.00  0.00    +0.008 C 
ATOM     16  C   UNL     1      32.675  -4.845 -28.475  0.00  0.00    +0.002 C 
ATOM     17  C   UNL     1      31.888  -7.599 -24.715  0.00  0.00    +0.000 C 
ATOM     18  C   UNL     1      31.354  -6.927 -21.807  0.00  0.00    +0.064 C 
ATOM     19  C   UNL     1      33.780  -7.790 -21.843  0.00  0.00    +0.065 C 
ATOM     20  C   UNL     1      32.338  -8.026 -21.480  0.00  0.00    +0.151 C 
ENDROOT
BRANCH  12  21
ATOM     21  O   UNL     1      34.386  -2.872 -29.531  0.00  0.00    -0.384 OA
ATOM     22  H   UNL     1      34.521  -2.004 -29.942  0.00  0.00    +0.210 HD
ENDBRANCH  12  21
TORSDOF 1
ENDMDL
MODEL 6
REMARK VINA RESULT:      -7.0     14.295     16.499
REMARK  Name = 10635
REMARK  1 active torsions:
REMARK  status: ('A' for Active; 'I' for Inactive)
REMARK    1  A    between atoms: C_12  and  O_21
REMARK                            x       y       z     vdW  Elec       q    Type
REMARK                         _______ _______ _______ _____ _____    ______ ____
ROOT
ATOM      1  O   UNL     1      32.296 -15.695 -21.387  0.00  0.00    -0.296 OA
ATOM      2  C   UNL     1      31.816  -9.307 -21.443  0.00  0.00    +0.000 C 
ATOM      3  C   UNL     1      32.646 -10.252 -22.368  0.00  0.00    +0.000 C 
ATOM      4  C   UNL     1      32.272  -7.864 -21.685  0.00  0.00    +0.002 C 
ATOM      5  C   UNL     1      32.078  -7.412 -23.145  0.00  0.00    +0.025 C 
ATOM      6  C   UNL     1      32.287 -11.770 -22.152  0.00  0.00    +0.001 C 
ATOM      7  C   UNL     1      32.428 -12.105 -20.633  0.00  0.00    +0.007 C 
ATOM      8  C   UNL     1      32.608  -9.793 -23.853  0.00  0.00    +0.000 C 
ATOM      9  C   UNL     1      32.951  -8.304 -24.039  0.00  0.00    +0.002 C 
ATOM     10  C   UNL     1      31.981  -9.702 -19.971  0.00  0.00    +0.000 C 
ATOM     11  C   UNL     1      31.635  -6.735 -20.876  0.00  0.00    +0.003 C 
ATOM     12  C   UNL     1      32.559  -5.955 -23.023  0.00  0.00    +0.110 C 
ATOM     13  C   UNL     1      31.620 -11.163 -19.730  0.00  0.00    +0.000 C 
ATOM     14  C   UNL     1      31.949  -5.469 -21.694  0.00  0.00    +0.029 C 
ATOM     15  C   UNL     1      33.282 -12.668 -22.954  0.00  0.00    +0.008 C 
ATOM     16  C   UNL     1      30.611  -7.455 -23.645  0.00  0.00    +0.002 C 
ATOM     17  C   UNL     1      30.851 -12.071 -22.657  0.00  0.00    +0.000 C 
ATOM     18  C   UNL     1      32.072 -13.566 -20.318  0.00  0.00    +0.064 C 
ATOM     19  C   UNL     1      33.698 -13.972 -22.273  0.00  0.00    +0.065 C 
ATOM     20  C   UNL     1      32.637 -14.512 -21.351  0.00  0.00    +0.151 C 
ENDROOT
BRANCH  12  21
ATOM     21  O   UNL     1      32.155  -5.146 -24.112  0.00  0.00    -0.384 OA
ATOM     22  H   UNL     1      31.896  -5.711 -24.856  0.00  0.00    +0.210 HD
ENDBRANCH  12  21
TORSDOF 1
ENDMDL
MODEL 7
REMARK VINA RESULT:      -6.8      9.157     10.965
REMARK  Name = 10635
REMARK  1 active torsions:
REMARK  status: ('A' for Active; 'I' for Inactive)
REMARK    1  A    between atoms: C_12  and  O_21
REMARK                            x       y       z     vdW  Elec       q    Type
REMARK                         _______ _______ _______ _____ _____    ______ ____
ROOT
ATOM      1  O   UNL     1      35.401 -21.896 -20.032  0.00  0.00    -0.296 OA
ATOM      2  C   UNL     1      34.365 -16.416 -23.184  0.00  0.00    +0.000 C 
ATOM      3  C   UNL     1      33.562 -17.057 -22.008  0.00  0.00    +0.000 C 
ATOM      4  C   UNL     1      33.542 -15.262 -23.764  0.00  0.00    +0.002 C 
ATOM      5  C   UNL     1      33.237 -14.164 -22.727  0.00  0.00    +0.025 C 
ATOM      6  C   UNL     1      34.305 -18.294 -21.378  0.00  0.00    +0.001 C 
ATOM      7  C   UNL     1      34.648 -19.304 -22.519  0.00  0.00    +0.007 C 
ATOM      8  C   UNL     1      33.103 -15.994 -20.971  0.00  0.00    +0.000 C 
ATOM      9  C   UNL     1      32.390 -14.788 -21.610  0.00  0.00    +0.002 C 
ATOM     10  C   UNL     1      34.687 -17.464 -24.257  0.00  0.00    +0.000 C 
ATOM     11  C   UNL     1      34.090 -14.481 -24.957  0.00  0.00    +0.003 C 
ATOM     12  C   UNL     1      32.482 -13.169 -23.629  0.00  0.00    +0.110 C 
ATOM     13  C   UNL     1      35.425 -18.665 -23.677  0.00  0.00    +0.000 C 
ATOM     14  C   UNL     1      33.291 -13.166 -24.941  0.00  0.00    +0.029 C 
ATOM     15  C   UNL     1      33.369 -19.005 -20.349  0.00  0.00    +0.008 C 
ATOM     16  C   UNL     1      34.490 -13.490 -22.113  0.00  0.00    +0.002 C 
ATOM     17  C   UNL     1      35.587 -17.842 -20.630  0.00  0.00    +0.000 C 
ATOM     18  C   UNL     1      35.401 -20.540 -22.003  0.00  0.00    +0.064 C 
ATOM     19  C   UNL     1      33.458 -20.531 -20.313  0.00  0.00    +0.065 C 
ATOM     20  C   UNL     1      34.818 -21.045 -20.704  0.00  0.00    +0.151 C 
ENDROOT
BRANCH  12  21
ATOM     21  O   UNL     1      32.389 -11.874 -23.066  0.00  0.00    -0.384 OA
ATOM     22  H   UNL     1      32.972 -11.815 -22.293  0.00  0.00    +0.210 HD
ENDBRANCH  12  21
TORSDOF 1
ENDMDL
MODEL 8
REMARK VINA RESULT:      -6.8      1.178      6.737
REMARK  Name = 10635
REMARK  1 active torsions:
REMARK  status: ('A' for Active; 'I' for Inactive)
REMARK    1  A    between atoms: C_12  and  O_21
REMARK                            x       y       z     vdW  Elec       q    Type
REMARK                         _______ _______ _______ _____ _____    ______ ____
ROOT
ATOM      1  O   UNL     1      27.449 -22.885 -15.528  0.00  0.00    -0.296 OA
ATOM      2  C   UNL     1      33.573 -24.291 -14.278  0.00  0.00    +0.000 C 
ATOM      3  C   UNL     1      32.909 -23.831 -15.614  0.00  0.00    +0.000 C 
ATOM      4  C   UNL     1      34.995 -24.773 -14.581  0.00  0.00    +0.002 C 
ATOM      5  C   UNL     1      35.876 -23.677 -15.211  0.00  0.00    +0.025 C 
ATOM      6  C   UNL     1      31.417 -23.367 -15.414  0.00  0.00    +0.001 C 
ATOM      7  C   UNL     1      30.633 -24.508 -14.690  0.00  0.00    +0.007 C 
ATOM      8  C   UNL     1      33.795 -22.812 -16.383  0.00  0.00    +0.000 C 
ATOM      9  C   UNL     1      35.252 -23.280 -16.556  0.00  0.00    +0.002 C 
ATOM     10  C   UNL     1      32.743 -25.395 -13.609  0.00  0.00    +0.000 C 
ATOM     11  C   UNL     1      35.859 -25.311 -13.441  0.00  0.00    +0.003 C 
ATOM     12  C   UNL     1      37.202 -24.452 -15.321  0.00  0.00    +0.110 C 
ATOM     13  C   UNL     1      31.298 -24.965 -13.385  0.00  0.00    +0.000 C 
ATOM     14  C   UNL     1      37.294 -25.224 -13.990  0.00  0.00    +0.029 C 
ATOM     15  C   UNL     1      30.752 -23.111 -16.804  0.00  0.00    +0.008 C 
ATOM     16  C   UNL     1      36.062 -22.413 -14.333  0.00  0.00    +0.002 C 
ATOM     17  C   UNL     1      31.357 -22.048 -14.600  0.00  0.00    +0.000 C 
ATOM     18  C   UNL     1      29.165 -24.137 -14.427  0.00  0.00    +0.064 C 
ATOM     19  C   UNL     1      29.284 -23.520 -16.924  0.00  0.00    +0.065 C 
ATOM     20  C   UNL     1      28.547 -23.437 -15.614  0.00  0.00    +0.151 C 
ENDROOT
BRANCH  12  21
ATOM     21  O   UNL     1      38.321 -23.608 -15.516  0.00  0.00    -0.384 OA
ATOM     22  H   UNL     1      38.714 -23.388 -14.657  0.00  0.00    +0.210 HD
ENDBRANCH  12  21
TORSDOF 1
ENDMDL
MODEL 9
REMARK VINA RESULT:      -6.7      8.842     11.492
REMARK  Name = 10635
REMARK  1 active torsions:
REMARK  status: ('A' for Active; 'I' for Inactive)
REMARK    1  A    between atoms: C_12  and  O_21
REMARK                            x       y       z     vdW  Elec       q    Type
REMARK                         _______ _______ _______ _____ _____    ______ ____
ROOT
ATOM      1  O   UNL     1      33.054 -11.439 -23.238  0.00  0.00    -0.296 OA
ATOM      2  C   UNL     1      33.649 -17.419 -21.020  0.00  0.00    +0.000 C 
ATOM      3  C   UNL     1      34.152 -16.799 -22.361  0.00  0.00    +0.000 C 
ATOM      4  C   UNL     1      33.791 -18.942 -21.103  0.00  0.00    +0.002 C 
ATOM      5  C   UNL     1      35.245 -19.396 -21.335  0.00  0.00    +0.025 C 
ATOM      6  C   UNL     1      33.995 -15.233 -22.395  0.00  0.00    +0.001 C 
ATOM      7  C   UNL     1      32.512 -14.873 -22.061  0.00  0.00    +0.007 C 
ATOM      8  C   UNL     1      35.572 -17.305 -22.739  0.00  0.00    +0.000 C 
ATOM      9  C   UNL     1      35.707 -18.838 -22.688  0.00  0.00    +0.002 C 
ATOM     10  C   UNL     1      32.197 -17.011 -20.742  0.00  0.00    +0.000 C 
ATOM     11  C   UNL     1      33.335 -19.799 -19.923  0.00  0.00    +0.003 C 
ATOM     12  C   UNL     1      35.040 -20.922 -21.303  0.00  0.00    +0.110 C 
ATOM     13  C   UNL     1      32.020 -15.497 -20.748  0.00  0.00    +0.000 C 
ATOM     14  C   UNL     1      34.054 -21.143 -20.140  0.00  0.00    +0.029 C 
ATOM     15  C   UNL     1      34.327 -14.698 -23.825  0.00  0.00    +0.008 C 
ATOM     16  C   UNL     1      36.241 -18.963 -20.229  0.00  0.00    +0.002 C 
ATOM     17  C   UNL     1      34.970 -14.562 -21.392  0.00  0.00    +0.000 C 
ATOM     18  C   UNL     1      32.264 -13.357 -22.045  0.00  0.00    +0.064 C 
ATOM     19  C   UNL     1      33.466 -13.534 -24.316  0.00  0.00    +0.065 C 
ATOM     20  C   UNL     1      32.964 -12.666 -23.192  0.00  0.00    +0.151 C 
ENDROOT
BRANCH  12  21
ATOM     21  O   UNL     1      36.246 -21.638 -21.112  0.00  0.00    -0.384 OA
ATOM     22  H   UNL     1      36.587 -21.932 -21.971  0.00  0.00    +0.210 HD
ENDBRANCH  12  21
TORSDOF 1
ENDMDL
