MODEL 1
REMARK VINA RESULT:      -7.2      0.000      0.000
REMARK  Name = 9885653
REMARK  13 active torsions:
REMARK  status: ('A' for Active; 'I' for Inactive)
REMARK    1  A    between atoms: C_2  and  O_3
REMARK    2  A    between atoms: C_2  and  C_15
REMARK    3  A    between atoms: O_3  and  C_4
REMARK    4  A    between atoms: C_5  and  O_11
REMARK    5  A    between atoms: C_6  and  O_13
REMARK    6  A    between atoms: C_15  and  N_16
REMARK    7  A    between atoms: C_15  and  C_26
REMARK    8  A    between atoms: N_16  and  C_18
REMARK    9  A    between atoms: N_16  and  C_22
REMARK   10  A    between atoms: C_18  and  C_19
REMARK   11  A    between atoms: C_19  and  O_20
REMARK   12  A    between atoms: C_22  and  C_23
REMARK   13  A    between atoms: C_23  and  O_24
REMARK                            x       y       z     vdW  Elec       q    Type
REMARK                         _______ _______ _______ _____ _____    ______ ____
ROOT
ATOM      1  O   UNL     1      34.968 -15.802 -20.779  0.00  0.00    -0.252 OA
ATOM      2  C   UNL     1      34.208 -16.405 -21.525  0.00  0.00    +0.302 C 
ENDROOT
BRANCH   2   3
ATOM      3  O   UNL     1      33.010 -15.919 -22.047  0.00  0.00    -0.419 OA
BRANCH   3   4
ATOM      4  C   UNL     1      33.143 -14.659 -22.634  0.00  0.00    +0.216 C 
ATOM      5  C   UNL     1      33.603 -14.546 -23.947  0.00  0.00    +0.176 C 
ATOM      6  C   UNL     1      32.817 -13.513 -21.909  0.00  0.00    +0.176 C 
ATOM      7  C   UNL     1      33.408 -12.142 -23.809  0.00  0.00    -0.016 C 
ATOM      8  C   UNL     1      33.736 -13.288 -24.534  0.00  0.00    +0.036 C 
ATOM      9  C   UNL     1      32.950 -12.254 -22.497  0.00  0.00    +0.036 C 
ATOM     10  C   UNL     1      33.550 -10.797 -24.437  0.00  0.00    +0.031 C 
BRANCH   5  11
ATOM     11  O   UNL     1      33.926 -15.658 -24.665  0.00  0.00    -0.468 OA
ATOM     12  C   UNL     1      33.388 -15.758 -25.982  0.00  0.00    +0.253 C 
ENDBRANCH   5  11
BRANCH   6  13
ATOM     13  O   UNL     1      32.367 -13.608 -20.628  0.00  0.00    -0.468 OA
ATOM     14  C   UNL     1      31.932 -12.402 -20.002  0.00  0.00    +0.253 C 
ENDBRANCH   6  13
ENDBRANCH   3   4
ENDBRANCH   2   3
BRANCH   2  15
ATOM     15  C   UNL     1      34.410 -17.825 -22.031  0.00  0.00    +0.044 C 
BRANCH  15  16
ATOM     16  N   UNL     1      34.769 -18.669 -20.892  0.00  0.00    +0.399 N 
ATOM     17  H   UNL     1      34.454 -18.210 -20.038  0.00  0.00    -0.079 HD
BRANCH  16  18
ATOM     18  C   UNL     1      36.220 -18.838 -20.818  0.00  0.00    -0.044 C 
BRANCH  18  19
ATOM     19  C   UNL     1      36.575 -20.250 -20.384  0.00  0.00    +0.120 C 
BRANCH  19  20
ATOM     20  O   UNL     1      36.799 -20.254 -18.979  0.00  0.00    -0.353 OA
ATOM     21  C   UNL     1      36.714 -21.566 -18.441  0.00  0.00    +0.174 C 
ENDBRANCH  19  20
ENDBRANCH  18  19
ENDBRANCH  16  18
BRANCH  16  22
ATOM     22  C   UNL     1      34.108 -19.969 -20.990  0.00  0.00    -0.044 C 
BRANCH  22  23
ATOM     23  C   UNL     1      32.661 -19.872 -20.535  0.00  0.00    +0.120 C 
BRANCH  23  24
ATOM     24  O   UNL     1      32.488 -20.682 -19.380  0.00  0.00    -0.353 OA
ATOM     25  C   UNL     1      33.356 -21.806 -19.396  0.00  0.00    +0.174 C 
ENDBRANCH  23  24
ENDBRANCH  22  23
ENDBRANCH  16  22
ENDBRANCH  15  16
BRANCH  15  26
ATOM     26  C   UNL     1      35.470 -17.896 -23.138  0.00  0.00    -0.010 C 
ATOM     27  C   UNL     1      35.120 -18.828 -24.294  0.00  0.00    -0.002 C 
ENDBRANCH  15  26
ENDBRANCH   2  15
TORSDOF 13
ENDMDL
MODEL 2
REMARK VINA RESULT:      -7.2      0.192      2.549
REMARK  Name = 9885653
REMARK  13 active torsions:
REMARK  status: ('A' for Active; 'I' for Inactive)
REMARK    1  A    between atoms: C_2  and  O_3
REMARK    2  A    between atoms: C_2  and  C_15
REMARK    3  A    between atoms: O_3  and  C_4
REMARK    4  A    between atoms: C_5  and  O_11
REMARK    5  A    between atoms: C_6  and  O_13
REMARK    6  A    between atoms: C_15  and  N_16
REMARK    7  A    between atoms: C_15  and  C_26
REMARK    8  A    between atoms: N_16  and  C_18
REMARK    9  A    between atoms: N_16  and  C_22
REMARK   10  A    between atoms: C_18  and  C_19
REMARK   11  A    between atoms: C_19  and  O_20
REMARK   12  A    between atoms: C_22  and  C_23
REMARK   13  A    between atoms: C_23  and  O_24
REMARK                            x       y       z     vdW  Elec       q    Type
REMARK                         _______ _______ _______ _____ _____    ______ ____
ROOT
ATOM      1  O   UNL     1      35.058 -15.929 -20.713  0.00  0.00    -0.252 OA
ATOM      2  C   UNL     1      34.273 -16.531 -21.435  0.00  0.00    +0.302 C 
ENDROOT
BRANCH   2   3
ATOM      3  O   UNL     1      33.051 -16.049 -21.903  0.00  0.00    -0.419 OA
BRANCH   3   4
ATOM      4  C   UNL     1      33.162 -14.813 -22.544  0.00  0.00    +0.216 C 
ATOM      5  C   UNL     1      32.932 -13.635 -21.834  0.00  0.00    +0.176 C 
ATOM      6  C   UNL     1      33.502 -14.758 -23.896  0.00  0.00    +0.176 C 
ATOM      7  C   UNL     1      33.384 -12.346 -23.826  0.00  0.00    -0.016 C 
ATOM      8  C   UNL     1      33.043 -12.401 -22.474  0.00  0.00    +0.036 C 
ATOM      9  C   UNL     1      33.613 -13.523 -24.537  0.00  0.00    +0.036 C 
ATOM     10  C   UNL     1      33.503 -11.026 -24.511  0.00  0.00    +0.031 C 
BRANCH   5  11
ATOM     11  O   UNL     1      32.598 -13.676 -20.514  0.00  0.00    -0.468 OA
ATOM     12  C   UNL     1      31.954 -12.526 -19.972  0.00  0.00    +0.253 C 
ENDBRANCH   5  11
BRANCH   6  13
ATOM     13  O   UNL     1      33.730 -15.900 -24.602  0.00  0.00    -0.468 OA
ATOM     14  C   UNL     1      33.545 -15.837 -26.015  0.00  0.00    +0.253 C 
ENDBRANCH   6  13
ENDBRANCH   3   4
ENDBRANCH   2   3
BRANCH   2  15
ATOM     15  C   UNL     1      34.465 -17.944 -21.964  0.00  0.00    +0.044 C 
BRANCH  15  16
ATOM     16  N   UNL     1      34.826 -18.807 -20.840  0.00  0.00    +0.399 N 
ATOM     17  H   UNL     1      34.572 -18.333 -19.974  0.00  0.00    -0.079 HD
BRANCH  16  18
ATOM     18  C   UNL     1      36.269 -19.052 -20.827  0.00  0.00    -0.044 C 
BRANCH  18  19
ATOM     19  C   UNL     1      36.574 -20.425 -20.251  0.00  0.00    +0.120 C 
BRANCH  19  20
ATOM     20  O   UNL     1      36.867 -20.284 -18.866  0.00  0.00    -0.353 OA
ATOM     21  C   UNL     1      36.739 -21.520 -18.177  0.00  0.00    +0.174 C 
ENDBRANCH  19  20
ENDBRANCH  18  19
ENDBRANCH  16  18
BRANCH  16  22
ATOM     22  C   UNL     1      34.095 -20.071 -20.909  0.00  0.00    -0.044 C 
BRANCH  22  23
ATOM     23  C   UNL     1      32.651 -19.880 -20.471  0.00  0.00    +0.120 C 
BRANCH  23  24
ATOM     24  O   UNL     1      32.379 -20.764 -19.392  0.00  0.00    -0.353 OA
ATOM     25  C   UNL     1      33.367 -21.778 -19.286  0.00  0.00    +0.174 C 
ENDBRANCH  23  24
ENDBRANCH  22  23
ENDBRANCH  16  22
ENDBRANCH  15  16
BRANCH  15  26
ATOM     26  C   UNL     1      35.518 -18.003 -23.078  0.00  0.00    -0.010 C 
ATOM     27  C   UNL     1      35.146 -18.899 -24.256  0.00  0.00    -0.002 C 
ENDBRANCH  15  26
ENDBRANCH   2  15
TORSDOF 13
ENDMDL
MODEL 3
REMARK VINA RESULT:      -7.0      5.373      9.633
REMARK  Name = 9885653
REMARK  13 active torsions:
REMARK  status: ('A' for Active; 'I' for Inactive)
REMARK    1  A    between atoms: C_2  and  O_3
REMARK    2  A    between atoms: C_2  and  C_15
REMARK    3  A    between atoms: O_3  and  C_4
REMARK    4  A    between atoms: C_5  and  O_11
REMARK    5  A    between atoms: C_6  and  O_13
REMARK    6  A    between atoms: C_15  and  N_16
REMARK    7  A    between atoms: C_15  and  C_26
REMARK    8  A    between atoms: N_16  and  C_18
REMARK    9  A    between atoms: N_16  and  C_22
REMARK   10  A    between atoms: C_18  and  C_19
REMARK   11  A    between atoms: C_19  and  O_20
REMARK   12  A    between atoms: C_22  and  C_23
REMARK   13  A    between atoms: C_23  and  O_24
REMARK                            x       y       z     vdW  Elec       q    Type
REMARK                         _______ _______ _______ _____ _____    ______ ____
ROOT
ATOM      1  O   UNL     1      31.327  -9.690 -23.271  0.00  0.00    -0.252 OA
ATOM      2  C   UNL     1      32.486  -9.434 -22.971  0.00  0.00    +0.302 C 
ENDROOT
BRANCH   2   3
ATOM      3  O   UNL     1      33.517 -10.359 -22.812  0.00  0.00    -0.419 OA
BRANCH   3   4
ATOM      4  C   UNL     1      33.400 -11.458 -23.665  0.00  0.00    +0.216 C 
ATOM      5  C   UNL     1      33.890 -11.385 -24.969  0.00  0.00    +0.176 C 
ATOM      6  C   UNL     1      32.793 -12.630 -23.213  0.00  0.00    +0.176 C 
ATOM      7  C   UNL     1      33.166 -13.654 -25.369  0.00  0.00    -0.016 C 
ATOM      8  C   UNL     1      33.773 -12.482 -25.821  0.00  0.00    +0.036 C 
ATOM      9  C   UNL     1      32.676 -13.728 -24.066  0.00  0.00    +0.036 C 
ATOM     10  C   UNL     1      33.042 -14.829 -26.281  0.00  0.00    +0.031 C 
BRANCH   5  11
ATOM     11  O   UNL     1      34.484 -10.245 -25.422  0.00  0.00    -0.468 OA
ATOM     12  C   UNL     1      35.681 -10.397 -26.182  0.00  0.00    +0.253 C 
ENDBRANCH   5  11
BRANCH   6  13
ATOM     13  O   UNL     1      32.310 -12.716 -21.943  0.00  0.00    -0.468 OA
ATOM     14  C   UNL     1      32.672 -13.872 -21.189  0.00  0.00    +0.253 C 
ENDBRANCH   6  13
ENDBRANCH   3   4
ENDBRANCH   2   3
BRANCH   2  15
ATOM     15  C   UNL     1      33.040  -8.045 -22.695  0.00  0.00    +0.044 C 
BRANCH  15  16
ATOM     16  N   UNL     1      32.164  -7.387 -21.727  0.00  0.00    +0.399 N 
ATOM     17  H   UNL     1      31.244  -7.826 -21.774  0.00  0.00    -0.079 HD
BRANCH  16  18
ATOM     18  C   UNL     1      32.017  -5.968 -22.052  0.00  0.00    -0.044 C 
BRANCH  18  19
ATOM     19  C   UNL     1      30.581  -5.517 -21.844  0.00  0.00    +0.120 C 
BRANCH  19  20
ATOM     20  O   UNL     1      30.403  -4.254 -22.475  0.00  0.00    -0.353 OA
ATOM     21  C   UNL     1      31.333  -4.065 -23.533  0.00  0.00    +0.174 C 
ENDBRANCH  19  20
ENDBRANCH  18  19
ENDBRANCH  16  18
BRANCH  16  22
ATOM     22  C   UNL     1      32.686  -7.549 -20.371  0.00  0.00    -0.044 C 
BRANCH  22  23
ATOM     23  C   UNL     1      31.752  -8.408 -19.535  0.00  0.00    +0.120 C 
BRANCH  23  24
ATOM     24  O   UNL     1      32.431  -9.603 -19.171  0.00  0.00    -0.353 OA
ATOM     25  C   UNL     1      31.551 -10.717 -19.148  0.00  0.00    +0.174 C 
ENDBRANCH  23  24
ENDBRANCH  22  23
ENDBRANCH  16  22
ENDBRANCH  15  16
BRANCH  15  26
ATOM     26  C   UNL     1      33.181  -7.217 -23.979  0.00  0.00    -0.010 C 
ATOM     27  C   UNL     1      34.620  -6.975 -24.425  0.00  0.00    -0.002 C 
ENDBRANCH  15  26
ENDBRANCH   2  15
TORSDOF 13
ENDMDL
MODEL 4
REMARK VINA RESULT:      -7.0      5.914      9.277
REMARK  Name = 9885653
REMARK  13 active torsions:
REMARK  status: ('A' for Active; 'I' for Inactive)
REMARK    1  A    between atoms: C_2  and  O_3
REMARK    2  A    between atoms: C_2  and  C_15
REMARK    3  A    between atoms: O_3  and  C_4
REMARK    4  A    between atoms: C_5  and  O_11
REMARK    5  A    between atoms: C_6  and  O_13
REMARK    6  A    between atoms: C_15  and  N_16
REMARK    7  A    between atoms: C_15  and  C_26
REMARK    8  A    between atoms: N_16  and  C_18
REMARK    9  A    between atoms: N_16  and  C_22
REMARK   10  A    between atoms: C_18  and  C_19
REMARK   11  A    between atoms: C_19  and  O_20
REMARK   12  A    between atoms: C_22  and  C_23
REMARK   13  A    between atoms: C_23  and  O_24
REMARK                            x       y       z     vdW  Elec       q    Type
REMARK                         _______ _______ _______ _____ _____    ______ ____
ROOT
ATOM      1  O   UNL     1      35.950 -21.652 -15.902  0.00  0.00    -0.252 OA
ATOM      2  C   UNL     1      35.682 -22.819 -16.161  0.00  0.00    +0.302 C 
ENDROOT
BRANCH   2   3
ATOM      3  O   UNL     1      35.438 -23.344 -17.429  0.00  0.00    -0.419 OA
BRANCH   3   4
ATOM      4  C   UNL     1      34.707 -22.479 -18.246  0.00  0.00    +0.216 C 
ATOM      5  C   UNL     1      33.314 -22.472 -18.185  0.00  0.00    +0.176 C 
ATOM      6  C   UNL     1      35.370 -21.622 -19.125  0.00  0.00    +0.176 C 
ATOM      7  C   UNL     1      33.247 -20.751 -19.878  0.00  0.00    -0.016 C 
ATOM      8  C   UNL     1      32.583 -21.608 -19.000  0.00  0.00    +0.036 C 
ATOM      9  C   UNL     1      34.639 -20.758 -19.941  0.00  0.00    +0.036 C 
ATOM     10  C   UNL     1      32.465 -19.826 -20.750  0.00  0.00    +0.031 C 
BRANCH   5  11
ATOM     11  O   UNL     1      32.654 -23.305 -17.331  0.00  0.00    -0.468 OA
ATOM     12  C   UNL     1      31.424 -22.833 -16.786  0.00  0.00    +0.253 C 
ENDBRANCH   5  11
BRANCH   6  13
ATOM     13  O   UNL     1      36.730 -21.618 -19.196  0.00  0.00    -0.468 OA
ATOM     14  C   UNL     1      37.334 -20.608 -20.001  0.00  0.00    +0.253 C 
ENDBRANCH   6  13
ENDBRANCH   3   4
ENDBRANCH   2   3
BRANCH   2  15
ATOM     15  C   UNL     1      35.549 -23.941 -15.143  0.00  0.00    +0.044 C 
BRANCH  15  16
ATOM     16  N   UNL     1      35.308 -23.341 -13.832  0.00  0.00    +0.399 N 
ATOM     17  H   UNL     1      34.942 -22.399 -13.969  0.00  0.00    -0.079 HD
BRANCH  16  18
ATOM     18  C   UNL     1      36.556 -23.247 -13.075  0.00  0.00    -0.044 C 
BRANCH  18  19
ATOM     19  C   UNL     1      36.319 -23.560 -11.607  0.00  0.00    +0.120 C 
BRANCH  19  20
ATOM     20  O   UNL     1      37.415 -24.323 -11.119  0.00  0.00    -0.353 OA
ATOM     21  C   UNL     1      38.473 -24.382 -12.066  0.00  0.00    +0.174 C 
ENDBRANCH  19  20
ENDBRANCH  18  19
ENDBRANCH  16  18
BRANCH  16  22
ATOM     22  C   UNL     1      34.317 -24.118 -13.088  0.00  0.00    -0.044 C 
BRANCH  22  23
ATOM     23  C   UNL     1      33.064 -24.330 -13.922  0.00  0.00    +0.120 C 
BRANCH  23  24
ATOM     24  O   UNL     1      32.108 -25.033 -13.140  0.00  0.00    -0.353 OA
ATOM     25  C   UNL     1      30.783 -24.786 -13.589  0.00  0.00    +0.174 C 
ENDBRANCH  23  24
ENDBRANCH  22  23
ENDBRANCH  16  22
ENDBRANCH  15  16
BRANCH  15  26
ATOM     26  C   UNL     1      36.783 -24.851 -15.126  0.00  0.00    -0.010 C 
ATOM     27  C   UNL     1      36.472 -26.344 -15.189  0.00  0.00    -0.002 C 
ENDBRANCH  15  26
ENDBRANCH   2  15
TORSDOF 13
ENDMDL
MODEL 5
REMARK VINA RESULT:      -6.9      5.338      9.780
REMARK  Name = 9885653
REMARK  13 active torsions:
REMARK  status: ('A' for Active; 'I' for Inactive)
REMARK    1  A    between atoms: C_2  and  O_3
REMARK    2  A    between atoms: C_2  and  C_15
REMARK    3  A    between atoms: O_3  and  C_4
REMARK    4  A    between atoms: C_5  and  O_11
REMARK    5  A    between atoms: C_6  and  O_13
REMARK    6  A    between atoms: C_15  and  N_16
REMARK    7  A    between atoms: C_15  and  C_26
REMARK    8  A    between atoms: N_16  and  C_18
REMARK    9  A    between atoms: N_16  and  C_22
REMARK   10  A    between atoms: C_18  and  C_19
REMARK   11  A    between atoms: C_19  and  O_20
REMARK   12  A    between atoms: C_22  and  C_23
REMARK   13  A    between atoms: C_23  and  O_24
REMARK                            x       y       z     vdW  Elec       q    Type
REMARK                         _______ _______ _______ _____ _____    ______ ____
ROOT
ATOM      1  O   UNL     1      31.363  -9.758 -23.206  0.00  0.00    -0.252 OA
ATOM      2  C   UNL     1      32.531  -9.479 -22.963  0.00  0.00    +0.302 C 
ENDROOT
BRANCH   2   3
ATOM      3  O   UNL     1      33.588 -10.383 -22.867  0.00  0.00    -0.419 OA
BRANCH   3   4
ATOM      4  C   UNL     1      33.446 -11.482 -23.718  0.00  0.00    +0.216 C 
ATOM      5  C   UNL     1      32.856 -12.656 -23.249  0.00  0.00    +0.176 C 
ATOM      6  C   UNL     1      33.895 -11.406 -25.036  0.00  0.00    +0.176 C 
ATOM      7  C   UNL     1      33.162 -13.676 -25.417  0.00  0.00    -0.016 C 
ATOM      8  C   UNL     1      32.714 -13.753 -24.098  0.00  0.00    +0.036 C 
ATOM      9  C   UNL     1      33.752 -12.503 -25.886  0.00  0.00    +0.036 C 
ATOM     10  C   UNL     1      33.009 -14.850 -26.325  0.00  0.00    +0.031 C 
BRANCH   5  11
ATOM     11  O   UNL     1      32.415 -12.743 -21.962  0.00  0.00    -0.468 OA
ATOM     12  C   UNL     1      32.508 -14.017 -21.330  0.00  0.00    +0.253 C 
ENDBRANCH   5  11
BRANCH   6  13
ATOM     13  O   UNL     1      34.472 -10.266 -25.508  0.00  0.00    -0.468 OA
ATOM     14  C   UNL     1      35.683 -10.411 -26.249  0.00  0.00    +0.253 C 
ENDBRANCH   6  13
ENDBRANCH   3   4
ENDBRANCH   2   3
BRANCH   2  15
ATOM     15  C   UNL     1      33.069  -8.081 -22.702  0.00  0.00    +0.044 C 
BRANCH  15  16
ATOM     16  N   UNL     1      32.188  -7.426 -21.738  0.00  0.00    +0.399 N 
ATOM     17  H   UNL     1      31.270  -7.868 -21.786  0.00  0.00    -0.079 HD
BRANCH  16  18
ATOM     18  C   UNL     1      32.036  -6.008 -22.065  0.00  0.00    -0.044 C 
BRANCH  18  19
ATOM     19  C   UNL     1      30.578  -5.589 -21.973  0.00  0.00    +0.120 C 
BRANCH  19  20
ATOM     20  O   UNL     1      30.451  -4.263 -22.472  0.00  0.00    -0.353 OA
ATOM     21  C   UNL     1      31.338  -4.027 -23.557  0.00  0.00    +0.174 C 
ENDBRANCH  19  20
ENDBRANCH  18  19
ENDBRANCH  16  18
BRANCH  16  22
ATOM     22  C   UNL     1      32.707  -7.583 -20.380  0.00  0.00    -0.044 C 
BRANCH  22  23
ATOM     23  C   UNL     1      31.759  -8.420 -19.536  0.00  0.00    +0.120 C 
BRANCH  23  24
ATOM     24  O   UNL     1      32.432  -9.602 -19.127  0.00  0.00    -0.353 OA
ATOM     25  C   UNL     1      31.591 -10.742 -19.222  0.00  0.00    +0.174 C 
ENDBRANCH  23  24
ENDBRANCH  22  23
ENDBRANCH  16  22
ENDBRANCH  15  16
BRANCH  15  26
ATOM     26  C   UNL     1      33.195  -7.263 -23.994  0.00  0.00    -0.010 C 
ATOM     27  C   UNL     1      34.628  -6.943 -24.406  0.00  0.00    -0.002 C 
ENDBRANCH  15  26
ENDBRANCH   2  15
TORSDOF 13
ENDMDL
MODEL 6
REMARK VINA RESULT:      -6.9      4.274      8.406
REMARK  Name = 9885653
REMARK  13 active torsions:
REMARK  status: ('A' for Active; 'I' for Inactive)
REMARK    1  A    between atoms: C_2  and  O_3
REMARK    2  A    between atoms: C_2  and  C_15
REMARK    3  A    between atoms: O_3  and  C_4
REMARK    4  A    between atoms: C_5  and  O_11
REMARK    5  A    between atoms: C_6  and  O_13
REMARK    6  A    between atoms: C_15  and  N_16
REMARK    7  A    between atoms: C_15  and  C_26
REMARK    8  A    between atoms: N_16  and  C_18
REMARK    9  A    between atoms: N_16  and  C_22
REMARK   10  A    between atoms: C_18  and  C_19
REMARK   11  A    between atoms: C_19  and  O_20
REMARK   12  A    between atoms: C_22  and  C_23
REMARK   13  A    between atoms: C_23  and  O_24
REMARK                            x       y       z     vdW  Elec       q    Type
REMARK                         _______ _______ _______ _____ _____    ______ ____
ROOT
ATOM      1  O   UNL     1      34.678 -11.520 -25.198  0.00  0.00    -0.252 OA
ATOM      2  C   UNL     1      33.892 -11.383 -24.269  0.00  0.00    +0.302 C 
ENDROOT
BRANCH   2   3
ATOM      3  O   UNL     1      33.034 -12.361 -23.768  0.00  0.00    -0.419 OA
BRANCH   3   4
ATOM      4  C   UNL     1      33.442 -13.659 -24.085  0.00  0.00    +0.216 C 
ATOM      5  C   UNL     1      33.104 -14.215 -25.318  0.00  0.00    +0.176 C 
ATOM      6  C   UNL     1      34.187 -14.399 -23.167  0.00  0.00    +0.176 C 
ATOM      7  C   UNL     1      34.257 -16.251 -24.717  0.00  0.00    -0.016 C 
ATOM      8  C   UNL     1      33.512 -15.511 -25.635  0.00  0.00    +0.036 C 
ATOM      9  C   UNL     1      34.594 -15.696 -23.483  0.00  0.00    +0.036 C 
ATOM     10  C   UNL     1      34.693 -17.637 -25.056  0.00  0.00    +0.031 C 
BRANCH   5  11
ATOM     11  O   UNL     1      32.376 -13.502 -26.223  0.00  0.00    -0.468 OA
ATOM     12  C   UNL     1      32.971 -13.274 -27.498  0.00  0.00    +0.253 C 
ENDBRANCH   5  11
BRANCH   6  13
ATOM     13  O   UNL     1      34.524 -13.869 -21.958  0.00  0.00    -0.468 OA
ATOM     14  C   UNL     1      34.372 -14.710 -20.816  0.00  0.00    +0.253 C 
ENDBRANCH   6  13
ENDBRANCH   3   4
ENDBRANCH   2   3
BRANCH   2  15
ATOM     15  C   UNL     1      33.680 -10.105 -23.473  0.00  0.00    +0.044 C 
BRANCH  15  16
ATOM     16  N   UNL     1      32.247  -9.950 -23.231  0.00  0.00    +0.399 N 
ATOM     17  H   UNL     1      31.768 -10.779 -23.584  0.00  0.00    -0.079 HD
BRANCH  16  18
ATOM     18  C   UNL     1      31.731  -8.781 -23.943  0.00  0.00    -0.044 C 
BRANCH  18  19
ATOM     19  C   UNL     1      31.040  -7.829 -22.981  0.00  0.00    +0.120 C 
BRANCH  19  20
ATOM     20  O   UNL     1      31.621  -6.538 -23.118  0.00  0.00    -0.353 OA
ATOM     21  C   UNL     1      31.920  -5.964 -21.853  0.00  0.00    +0.174 C 
ENDBRANCH  19  20
ENDBRANCH  18  19
ENDBRANCH  16  18
BRANCH  16  22
ATOM     22  C   UNL     1      31.978  -9.834 -21.799  0.00  0.00    -0.044 C 
BRANCH  22  23
ATOM     23  C   UNL     1      31.181 -11.030 -21.303  0.00  0.00    +0.120 C 
BRANCH  23  24
ATOM     24  O   UNL     1      30.839 -10.819 -19.940  0.00  0.00    -0.353 OA
ATOM     25  C   UNL     1      31.885 -10.170 -19.234  0.00  0.00    +0.174 C 
ENDBRANCH  23  24
ENDBRANCH  22  23
ENDBRANCH  16  22
ENDBRANCH  15  16
BRANCH  15  26
ATOM     26  C   UNL     1      34.264  -8.879 -24.188  0.00  0.00    -0.010 C 
ATOM     27  C   UNL     1      34.853  -7.823 -23.257  0.00  0.00    -0.002 C 
ENDBRANCH  15  26
ENDBRANCH   2  15
TORSDOF 13
ENDMDL
MODEL 7
REMARK VINA RESULT:      -6.9      3.358      7.671
REMARK  Name = 9885653
REMARK  13 active torsions:
REMARK  status: ('A' for Active; 'I' for Inactive)
REMARK    1  A    between atoms: C_2  and  O_3
REMARK    2  A    between atoms: C_2  and  C_15
REMARK    3  A    between atoms: O_3  and  C_4
REMARK    4  A    between atoms: C_5  and  O_11
REMARK    5  A    between atoms: C_6  and  O_13
REMARK    6  A    between atoms: C_15  and  N_16
REMARK    7  A    between atoms: C_15  and  C_26
REMARK    8  A    between atoms: N_16  and  C_18
REMARK    9  A    between atoms: N_16  and  C_22
REMARK   10  A    between atoms: C_18  and  C_19
REMARK   11  A    between atoms: C_19  and  O_20
REMARK   12  A    between atoms: C_22  and  C_23
REMARK   13  A    between atoms: C_23  and  O_24
REMARK                            x       y       z     vdW  Elec       q    Type
REMARK                         _______ _______ _______ _____ _____    ______ ____
ROOT
ATOM      1  O   UNL     1      32.113 -13.745 -23.408  0.00  0.00    -0.252 OA
ATOM      2  C   UNL     1      33.137 -13.116 -23.642  0.00  0.00    +0.302 C 
ENDROOT
BRANCH   2   3
ATOM      3  O   UNL     1      34.334 -13.644 -24.124  0.00  0.00    -0.419 OA
BRANCH   3   4
ATOM      4  C   UNL     1      34.431 -15.026 -23.947  0.00  0.00    +0.216 C 
ATOM      5  C   UNL     1      34.260 -15.882 -25.035  0.00  0.00    +0.176 C 
ATOM      6  C   UNL     1      34.697 -15.550 -22.683  0.00  0.00    +0.176 C 
ATOM      7  C   UNL     1      34.624 -17.786 -23.595  0.00  0.00    -0.016 C 
ATOM      8  C   UNL     1      34.356 -17.262 -24.860  0.00  0.00    +0.036 C 
ATOM      9  C   UNL     1      34.794 -16.931 -22.507  0.00  0.00    +0.036 C 
ATOM     10  C   UNL     1      34.728 -19.263 -23.407  0.00  0.00    +0.031 C 
BRANCH   5  11
ATOM     11  O   UNL     1      33.997 -15.381 -26.276  0.00  0.00    -0.468 OA
ATOM     12  C   UNL     1      32.630 -15.143 -26.603  0.00  0.00    +0.253 C 
ENDBRANCH   5  11
BRANCH   6  13
ATOM     13  O   UNL     1      34.867 -14.727 -21.612  0.00  0.00    -0.468 OA
ATOM     14  C   UNL     1      33.962 -14.887 -20.521  0.00  0.00    +0.253 C 
ENDBRANCH   6  13
ENDBRANCH   3   4
ENDBRANCH   2   3
BRANCH   2  15
ATOM     15  C   UNL     1      33.318 -11.619 -23.441  0.00  0.00    +0.044 C 
BRANCH  15  16
ATOM     16  N   UNL     1      32.092 -11.086 -22.851  0.00  0.00    +0.399 N 
ATOM     17  H   UNL     1      31.296 -11.572 -23.264  0.00  0.00    -0.079 HD
BRANCH  16  18
ATOM     18  C   UNL     1      31.964  -9.658 -23.141  0.00  0.00    -0.044 C 
BRANCH  18  19
ATOM     19  C   UNL     1      32.696  -8.830 -22.098  0.00  0.00    +0.120 C 
BRANCH  19  20
ATOM     20  O   UNL     1      31.783  -7.896 -21.533  0.00  0.00    -0.353 OA
ATOM     21  C   UNL     1      32.335  -7.253 -20.392  0.00  0.00    +0.174 C 
ENDBRANCH  19  20
ENDBRANCH  18  19
ENDBRANCH  16  18
BRANCH  16  22
ATOM     22  C   UNL     1      32.077 -11.316 -21.407  0.00  0.00    -0.044 C 
BRANCH  22  23
ATOM     23  C   UNL     1      30.649 -11.414 -20.894  0.00  0.00    +0.120 C 
BRANCH  23  24
ATOM     24  O   UNL     1      30.524 -10.610 -19.729  0.00  0.00    -0.353 OA
ATOM     25  C   UNL     1      31.710 -10.635 -18.948  0.00  0.00    +0.174 C 
ENDBRANCH  23  24
ENDBRANCH  22  23
ENDBRANCH  16  22
ENDBRANCH  15  16
BRANCH  15  26
ATOM     26  C   UNL     1      33.669 -10.902 -24.751  0.00  0.00    -0.010 C 
ATOM     27  C   UNL     1      35.033 -10.218 -24.755  0.00  0.00    -0.002 C 
ENDBRANCH  15  26
ENDBRANCH   2  15
TORSDOF 13
ENDMDL
MODEL 8
REMARK VINA RESULT:      -6.9      4.242      8.619
REMARK  Name = 9885653
REMARK  13 active torsions:
REMARK  status: ('A' for Active; 'I' for Inactive)
REMARK    1  A    between atoms: C_2  and  O_3
REMARK    2  A    between atoms: C_2  and  C_15
REMARK    3  A    between atoms: O_3  and  C_4
REMARK    4  A    between atoms: C_5  and  O_11
REMARK    5  A    between atoms: C_6  and  O_13
REMARK    6  A    between atoms: C_15  and  N_16
REMARK    7  A    between atoms: C_15  and  C_26
REMARK    8  A    between atoms: N_16  and  C_18
REMARK    9  A    between atoms: N_16  and  C_22
REMARK   10  A    between atoms: C_18  and  C_19
REMARK   11  A    between atoms: C_19  and  O_20
REMARK   12  A    between atoms: C_22  and  C_23
REMARK   13  A    between atoms: C_23  and  O_24
REMARK                            x       y       z     vdW  Elec       q    Type
REMARK                         _______ _______ _______ _____ _____    ______ ____
ROOT
ATOM      1  O   UNL     1      34.642 -11.544 -25.232  0.00  0.00    -0.252 OA
ATOM      2  C   UNL     1      33.861 -11.415 -24.297  0.00  0.00    +0.302 C 
ENDROOT
BRANCH   2   3
ATOM      3  O   UNL     1      33.008 -12.398 -23.798  0.00  0.00    -0.419 OA
BRANCH   3   4
ATOM      4  C   UNL     1      33.434 -13.694 -24.098  0.00  0.00    +0.216 C 
ATOM      5  C   UNL     1      34.177 -14.417 -23.165  0.00  0.00    +0.176 C 
ATOM      6  C   UNL     1      33.117 -14.264 -25.330  0.00  0.00    +0.176 C 
ATOM      7  C   UNL     1      34.285 -16.282 -24.697  0.00  0.00    -0.016 C 
ATOM      8  C   UNL     1      34.603 -15.711 -23.464  0.00  0.00    +0.036 C 
ATOM      9  C   UNL     1      33.543 -15.559 -25.630  0.00  0.00    +0.036 C 
ATOM     10  C   UNL     1      34.740 -17.667 -25.016  0.00  0.00    +0.031 C 
BRANCH   5  11
ATOM     11  O   UNL     1      34.494 -13.871 -21.957  0.00  0.00    -0.468 OA
ATOM     12  C   UNL     1      34.490 -14.743 -20.830  0.00  0.00    +0.253 C 
ENDBRANCH   5  11
BRANCH   6  13
ATOM     13  O   UNL     1      32.392 -13.570 -26.250  0.00  0.00    -0.468 OA
ATOM     14  C   UNL     1      33.028 -13.283 -27.495  0.00  0.00    +0.253 C 
ENDBRANCH   6  13
ENDBRANCH   3   4
ENDBRANCH   2   3
BRANCH   2  15
ATOM     15  C   UNL     1      33.651 -10.143 -23.491  0.00  0.00    +0.044 C 
BRANCH  15  16
ATOM     16  N   UNL     1      32.223 -10.011 -23.209  0.00  0.00    +0.399 N 
ATOM     17  H   UNL     1      31.739 -10.816 -23.607  0.00  0.00    -0.079 HD
BRANCH  16  18
ATOM     18  C   UNL     1      31.689  -8.798 -23.829  0.00  0.00    -0.044 C 
BRANCH  18  19
ATOM     19  C   UNL     1      31.168  -7.840 -22.771  0.00  0.00    +0.120 C 
BRANCH  19  20
ATOM     20  O   UNL     1      31.683  -6.541 -23.037  0.00  0.00    -0.353 OA
ATOM     21  C   UNL     1      31.386  -6.124 -24.363  0.00  0.00    +0.174 C 
ENDBRANCH  19  20
ENDBRANCH  18  19
ENDBRANCH  16  18
BRANCH  16  22
ATOM     22  C   UNL     1      31.985  -9.994 -21.767  0.00  0.00    -0.044 C 
BRANCH  22  23
ATOM     23  C   UNL     1      31.171 -11.205 -21.343  0.00  0.00    +0.120 C 
BRANCH  23  24
ATOM     24  O   UNL     1      31.575 -11.595 -20.037  0.00  0.00    -0.353 OA
ATOM     25  C   UNL     1      31.591 -10.491 -19.144  0.00  0.00    +0.174 C 
ENDBRANCH  23  24
ENDBRANCH  22  23
ENDBRANCH  16  22
ENDBRANCH  15  16
BRANCH  15  26
ATOM     26  C   UNL     1      34.197  -8.906 -24.217  0.00  0.00    -0.010 C 
ATOM     27  C   UNL     1      34.851  -7.872 -23.306  0.00  0.00    -0.002 C 
ENDBRANCH  15  26
ENDBRANCH   2  15
TORSDOF 13
ENDMDL
MODEL 9
REMARK VINA RESULT:      -6.9      6.133      9.434
REMARK  Name = 9885653
REMARK  13 active torsions:
REMARK  status: ('A' for Active; 'I' for Inactive)
REMARK    1  A    between atoms: C_2  and  O_3
REMARK    2  A    between atoms: C_2  and  C_15
REMARK    3  A    between atoms: O_3  and  C_4
REMARK    4  A    between atoms: C_5  and  O_11
REMARK    5  A    between atoms: C_6  and  O_13
REMARK    6  A    between atoms: C_15  and  N_16
REMARK    7  A    between atoms: C_15  and  C_26
REMARK    8  A    between atoms: N_16  and  C_18
REMARK    9  A    between atoms: N_16  and  C_22
REMARK   10  A    between atoms: C_18  and  C_19
REMARK   11  A    between atoms: C_19  and  O_20
REMARK   12  A    between atoms: C_22  and  C_23
REMARK   13  A    between atoms: C_23  and  O_24
REMARK                            x       y       z     vdW  Elec       q    Type
REMARK                         _______ _______ _______ _____ _____    ______ ____
ROOT
ATOM      1  O   UNL     1      36.524 -21.521 -16.108  0.00  0.00    -0.252 OA
ATOM      2  C   UNL     1      35.985 -22.615 -16.007  0.00  0.00    +0.302 C 
ENDROOT
BRANCH   2   3
ATOM      3  O   UNL     1      35.422 -23.353 -17.048  0.00  0.00    -0.419 OA
BRANCH   3   4
ATOM      4  C   UNL     1      34.711 -22.563 -17.954  0.00  0.00    +0.216 C 
ATOM      5  C   UNL     1      35.394 -21.802 -18.902  0.00  0.00    +0.176 C 
ATOM      6  C   UNL     1      33.317 -22.534 -17.909  0.00  0.00    +0.176 C 
ATOM      7  C   UNL     1      33.290 -20.985 -19.763  0.00  0.00    -0.016 C 
ATOM      8  C   UNL     1      34.684 -21.013 -19.807  0.00  0.00    +0.036 C 
ATOM      9  C   UNL     1      32.607 -21.745 -18.815  0.00  0.00    +0.036 C 
ATOM     10  C   UNL     1      32.531 -20.142 -20.731  0.00  0.00    +0.031 C 
BRANCH   5  11
ATOM     11  O   UNL     1      36.756 -21.821 -18.955  0.00  0.00    -0.468 OA
ATOM     12  C   UNL     1      37.381 -20.930 -19.876  0.00  0.00    +0.253 C 
ENDBRANCH   5  11
BRANCH   6  13
ATOM     13  O   UNL     1      32.637 -23.272 -16.989  0.00  0.00    -0.468 OA
ATOM     14  C   UNL     1      31.331 -22.822 -16.634  0.00  0.00    +0.253 C 
ENDBRANCH   6  13
ENDBRANCH   3   4
ENDBRANCH   2   3
BRANCH   2  15
ATOM     15  C   UNL     1      35.806 -23.396 -14.714  0.00  0.00    +0.044 C 
BRANCH  15  16
ATOM     16  N   UNL     1      37.106 -23.940 -14.326  0.00  0.00    +0.399 N 
ATOM     17  H   UNL     1      37.825 -23.251 -14.547  0.00  0.00    -0.079 HD
BRANCH  16  18
ATOM     18  C   UNL     1      37.392 -25.164 -15.075  0.00  0.00    -0.044 C 
BRANCH  18  19
ATOM     19  C   UNL     1      37.975 -26.229 -14.161  0.00  0.00    +0.120 C 
BRANCH  19  20
ATOM     20  O   UNL     1      39.181 -26.715 -14.736  0.00  0.00    -0.353 OA
ATOM     21  C   UNL     1      40.252 -25.798 -14.556  0.00  0.00    +0.174 C 
ENDBRANCH  19  20
ENDBRANCH  18  19
ENDBRANCH  16  18
BRANCH  16  22
ATOM     22  C   UNL     1      37.143 -24.202 -12.888  0.00  0.00    -0.044 C 
BRANCH  22  23
ATOM     23  C   UNL     1      37.559 -22.955 -12.125  0.00  0.00    +0.120 C 
BRANCH  23  24
ATOM     24  O   UNL     1      37.057 -23.040 -10.798  0.00  0.00    -0.353 OA
ATOM     25  C   UNL     1      36.001 -23.984 -10.699  0.00  0.00    +0.174 C 
ENDBRANCH  23  24
ENDBRANCH  22  23
ENDBRANCH  16  22
ENDBRANCH  15  16
BRANCH  15  26
ATOM     26  C   UNL     1      34.752 -24.502 -14.852  0.00  0.00    -0.010 C 
ATOM     27  C   UNL     1      33.592 -24.400 -13.867  0.00  0.00    -0.002 C 
ENDBRANCH  15  26
ENDBRANCH   2  15
TORSDOF 13
ENDMDL
