MODEL 1
REMARK VINA RESULT:     -12.0      0.000      0.000
REMARK  Name = 10409068
REMARK  6 active torsions:
REMARK  status: ('A' for Active; 'I' for Inactive)
REMARK    1  A    between atoms: N_1  and  C_16
REMARK    2  A    between atoms: C_8  and  C_29
REMARK    3  A    between atoms: C_13  and  C_22
REMARK    4  A    between atoms: N_21  and  C_24
REMARK    5  A    between atoms: N_28  and  C_31
REMARK    6  A    between atoms: C_31  and  C_32
REMARK                            x       y       z     vdW  Elec       q    Type
REMARK                         _______ _______ _______ _____ _____    ______ ____
ROOT
ATOM      1  N   UNL     1      34.046 -18.481 -21.453  0.00  0.00    -0.297 N 
ATOM      2  N   UNL     1      34.119 -16.453 -24.549  0.00  0.00    -0.185 N 
ATOM      3  N   UNL     1      34.468 -18.979 -23.682  0.00  0.00    -0.206 NA
ATOM      4  N   UNL     1      34.430 -17.380 -25.486  0.00  0.00    -0.151 NA
ATOM      5  C   UNL     1      33.976 -16.735 -23.214  0.00  0.00    +0.102 C 
ATOM      6  C   UNL     1      33.660 -15.563 -22.562  0.00  0.00    +0.002 C 
ATOM      7  C   UNL     1      34.166 -18.093 -22.765  0.00  0.00    +0.149 C 
ATOM      8  C   UNL     1      33.610 -14.539 -23.542  0.00  0.00    +0.067 C 
ATOM      9  C   UNL     1      33.898 -15.118 -24.760  0.00  0.00    +0.094 C 
ATOM     10  C   UNL     1      33.413 -15.374 -21.117  0.00  0.00    +0.033 C 
ATOM     11  C   UNL     1      34.586 -18.581 -25.002  0.00  0.00    +0.219 C 
ATOM     12  H   UNL     1      33.415 -17.969 -20.897  0.00  0.00    +0.154 HD
ENDROOT
BRANCH   1  16
ATOM     13  C   UNL     1      34.655 -21.605 -19.602  0.00  0.00    +0.055 C 
ATOM     14  C   UNL     1      33.992 -20.552 -20.234  0.00  0.00    +0.019 C 
ATOM     15  C   UNL     1      36.050 -21.629 -19.565  0.00  0.00    +0.004 C 
ATOM     16  C   UNL     1      34.724 -19.524 -20.827  0.00  0.00    +0.045 C 
ATOM     17  C   UNL     1      36.118 -19.548 -20.791  0.00  0.00    -0.008 C 
ATOM     18  C   UNL     1      36.781 -20.601 -20.160  0.00  0.00    -0.003 C 
ATOM     19  C   UNL     1      36.927 -18.460 -21.419  0.00  0.00    +0.032 C 
BRANCH  13  22
ATOM     20  O   UNL     1      33.834 -23.801 -19.512  0.00  0.00    -0.270 OA
ATOM     21  N   UNL     1      33.223 -22.376 -17.789  0.00  0.00    -0.302 N 
ATOM     22  C   UNL     1      33.893 -22.677 -18.982  0.00  0.00    +0.246 C 
ATOM     23  H   UNL     1      33.310 -21.467 -17.421  0.00  0.00    +0.150 HD
BRANCH  21  24
ATOM     24  C   UNL     1      32.417 -23.327 -17.076  0.00  0.00    +0.072 C 
ATOM     25  C   UNL     1      31.107 -22.930 -16.462  0.00  0.00    +0.021 C 
ATOM     26  C   UNL     1      32.278 -23.260 -15.584  0.00  0.00    +0.021 C 
ENDBRANCH  21  24
ENDBRANCH  13  22
ENDBRANCH   1  16
BRANCH   8  29
ATOM     27  O   UNL     1      32.368 -12.766 -22.640  0.00  0.00    -0.270 OA
ATOM     28  N   UNL     1      34.134 -12.213 -24.033  0.00  0.00    -0.301 N 
ATOM     29  C   UNL     1      33.321 -13.145 -23.360  0.00  0.00    +0.247 C 
ATOM     30  H   UNL     1      34.871 -12.557 -24.588  0.00  0.00    +0.150 HD
BRANCH  28  31
ATOM     31  C   UNL     1      33.953 -10.790 -23.962  0.00  0.00    +0.090 C 
BRANCH  31  32
ATOM     32  C   UNL     1      35.089 -10.025 -24.632  0.00  0.00    +0.021 C 
ATOM     33  C   UNL     1      35.382 -10.522 -26.040  0.00  0.00    +0.002 C 
ENDBRANCH  31  32
ENDBRANCH  28  31
ENDBRANCH   8  29
TORSDOF 6
ENDMDL
MODEL 2
REMARK VINA RESULT:     -11.3      3.150     10.978
REMARK  Name = 10409068
REMARK  6 active torsions:
REMARK  status: ('A' for Active; 'I' for Inactive)
REMARK    1  A    between atoms: N_1  and  C_16
REMARK    2  A    between atoms: C_8  and  C_29
REMARK    3  A    between atoms: C_13  and  C_22
REMARK    4  A    between atoms: N_21  and  C_24
REMARK    5  A    between atoms: N_28  and  C_31
REMARK    6  A    between atoms: C_31  and  C_32
REMARK                            x       y       z     vdW  Elec       q    Type
REMARK                         _______ _______ _______ _____ _____    ______ ____
ROOT
ATOM      1  N   UNL     1      33.917 -12.424 -23.423  0.00  0.00    -0.297 N 
ATOM      2  N   UNL     1      33.816 -15.534 -25.427  0.00  0.00    -0.185 N 
ATOM      3  N   UNL     1      33.317 -12.894 -25.617  0.00  0.00    -0.206 NA
ATOM      4  N   UNL     1      33.373 -15.083 -26.625  0.00  0.00    -0.151 NA
ATOM      5  C   UNL     1      34.019 -14.728 -24.336  0.00  0.00    +0.102 C 
ATOM      6  C   UNL     1      34.469 -15.518 -23.300  0.00  0.00    +0.002 C 
ATOM      7  C   UNL     1      33.747 -13.316 -24.454  0.00  0.00    +0.149 C 
ATOM      8  C   UNL     1      34.540 -16.847 -23.788  0.00  0.00    +0.067 C 
ATOM      9  C   UNL     1      34.131 -16.827 -25.104  0.00  0.00    +0.094 C 
ATOM     10  C   UNL     1      34.820 -15.092 -21.929  0.00  0.00    +0.033 C 
ATOM     11  C   UNL     1      33.150 -13.799 -26.650  0.00  0.00    +0.219 C 
ATOM     12  H   UNL     1      34.621 -12.634 -22.768  0.00  0.00    +0.154 HD
ENDROOT
BRANCH   1  16
ATOM     13  C   UNL     1      32.948  -8.874 -23.563  0.00  0.00    +0.055 C 
ATOM     14  C   UNL     1      33.657 -10.058 -23.767  0.00  0.00    +0.019 C 
ATOM     15  C   UNL     1      31.779  -8.883 -22.802  0.00  0.00    +0.004 C 
ATOM     16  C   UNL     1      33.197 -11.251 -23.209  0.00  0.00    +0.045 C 
ATOM     17  C   UNL     1      32.028 -11.261 -22.449  0.00  0.00    -0.008 C 
ATOM     18  C   UNL     1      31.319 -10.077 -22.245  0.00  0.00    -0.003 C 
ATOM     19  C   UNL     1      31.512 -12.524 -21.840  0.00  0.00    +0.032 C 
BRANCH  13  22
ATOM     20  O   UNL     1      34.626  -7.489 -24.442  0.00  0.00    -0.270 OA
ATOM     21  N   UNL     1      32.487  -6.607 -24.323  0.00  0.00    -0.302 N 
ATOM     22  C   UNL     1      33.427  -7.630 -24.143  0.00  0.00    +0.246 C 
ATOM     23  H   UNL     1      31.553  -6.781 -24.066  0.00  0.00    +0.150 HD
BRANCH  21  24
ATOM     24  C   UNL     1      32.817  -5.318 -24.865  0.00  0.00    +0.072 C 
ATOM     25  C   UNL     1      31.780  -4.470 -25.538  0.00  0.00    +0.021 C 
ATOM     26  C   UNL     1      32.880  -5.094 -26.347  0.00  0.00    +0.021 C 
ENDBRANCH  21  24
ENDBRANCH  13  22
ENDBRANCH   1  16
BRANCH   8  29
ATOM     27  O   UNL     1      36.016 -18.626 -23.384  0.00  0.00    -0.270 OA
ATOM     28  N   UNL     1      34.111 -18.518 -22.070  0.00  0.00    -0.301 N 
ATOM     29  C   UNL     1      34.952 -18.031 -23.089  0.00  0.00    +0.247 C 
ATOM     30  H   UNL     1      33.286 -18.018 -21.873  0.00  0.00    +0.150 HD
BRANCH  28  31
ATOM     31  C   UNL     1      34.382 -19.700 -21.300  0.00  0.00    +0.090 C 
BRANCH  31  32
ATOM     32  C   UNL     1      33.134 -20.248 -20.619  0.00  0.00    +0.021 C 
ATOM     33  C   UNL     1      33.454 -21.279 -19.546  0.00  0.00    +0.002 C 
ENDBRANCH  31  32
ENDBRANCH  28  31
ENDBRANCH   8  29
TORSDOF 6
ENDMDL
MODEL 3
REMARK VINA RESULT:     -11.0      1.317      9.702
REMARK  Name = 10409068
REMARK  6 active torsions:
REMARK  status: ('A' for Active; 'I' for Inactive)
REMARK    1  A    between atoms: N_1  and  C_16
REMARK    2  A    between atoms: C_8  and  C_29
REMARK    3  A    between atoms: C_13  and  C_22
REMARK    4  A    between atoms: N_21  and  C_24
REMARK    5  A    between atoms: N_28  and  C_31
REMARK    6  A    between atoms: C_31  and  C_32
REMARK                            x       y       z     vdW  Elec       q    Type
REMARK                         _______ _______ _______ _____ _____    ______ ____
ROOT
ATOM      1  N   UNL     1      34.190 -18.027 -21.858  0.00  0.00    -0.297 N 
ATOM      2  N   UNL     1      36.269 -20.577 -20.163  0.00  0.00    -0.185 N 
ATOM      3  N   UNL     1      36.482 -18.316 -21.611  0.00  0.00    -0.206 NA
ATOM      4  N   UNL     1      37.524 -20.131 -20.413  0.00  0.00    -0.151 NA
ATOM      5  C   UNL     1      35.132 -19.946 -20.599  0.00  0.00    +0.102 C 
ATOM      6  C   UNL     1      34.046 -20.672 -20.163  0.00  0.00    +0.002 C 
ATOM      7  C   UNL     1      35.263 -18.735 -21.374  0.00  0.00    +0.149 C 
ATOM      8  C   UNL     1      34.550 -21.781 -19.436  0.00  0.00    +0.067 C 
ATOM      9  C   UNL     1      35.925 -21.697 -19.453  0.00  0.00    +0.094 C 
ATOM     10  C   UNL     1      32.616 -20.380 -20.392  0.00  0.00    +0.033 C 
ATOM     11  C   UNL     1      37.557 -19.034 -21.118  0.00  0.00    +0.219 C 
ATOM     12  H   UNL     1      33.360 -18.067 -21.331  0.00  0.00    +0.154 HD
ENDROOT
BRANCH   1  16
ATOM     13  C   UNL     1      33.833 -15.107 -24.072  0.00  0.00    +0.055 C 
ATOM     14  C   UNL     1      33.872 -15.894 -22.921  0.00  0.00    +0.019 C 
ATOM     15  C   UNL     1      34.078 -15.682 -25.319  0.00  0.00    +0.004 C 
ATOM     16  C   UNL     1      34.156 -17.256 -23.018  0.00  0.00    +0.045 C 
ATOM     17  C   UNL     1      34.401 -17.832 -24.264  0.00  0.00    -0.008 C 
ATOM     18  C   UNL     1      34.363 -17.044 -25.415  0.00  0.00    -0.003 C 
ATOM     19  C   UNL     1      34.708 -19.288 -24.397  0.00  0.00    +0.032 C 
BRANCH  13  22
ATOM     20  O   UNL     1      32.835 -13.248 -23.045  0.00  0.00    -0.270 OA
ATOM     21  N   UNL     1      34.057 -12.856 -24.975  0.00  0.00    -0.302 N 
ATOM     22  C   UNL     1      33.537 -13.686 -23.973  0.00  0.00    +0.246 C 
ATOM     23  H   UNL     1      34.606 -13.265 -25.682  0.00  0.00    +0.150 HD
BRANCH  21  24
ATOM     24  C   UNL     1      33.831 -11.438 -25.020  0.00  0.00    +0.072 C 
ATOM     25  C   UNL     1      34.912 -10.492 -25.449  0.00  0.00    +0.021 C 
ATOM     26  C   UNL     1      34.465 -10.520 -24.017  0.00  0.00    +0.021 C 
ENDBRANCH  21  24
ENDBRANCH  13  22
ENDBRANCH   1  16
BRANCH   8  29
ATOM     27  O   UNL     1      33.781 -23.990 -19.252  0.00  0.00    -0.270 OA
ATOM     28  N   UNL     1      33.109 -22.500 -17.610  0.00  0.00    -0.301 N 
ATOM     29  C   UNL     1      33.813 -22.827 -18.785  0.00  0.00    +0.247 C 
ATOM     30  H   UNL     1      33.163 -21.574 -17.281  0.00  0.00    +0.150 HD
BRANCH  28  31
ATOM     31  C   UNL     1      32.314 -23.435 -16.863  0.00  0.00    +0.090 C 
BRANCH  31  32
ATOM     32  C   UNL     1      30.968 -22.852 -16.449  0.00  0.00    +0.021 C 
ATOM     33  C   UNL     1      30.777 -22.826 -14.939  0.00  0.00    +0.002 C 
ENDBRANCH  31  32
ENDBRANCH  28  31
ENDBRANCH   8  29
TORSDOF 6
ENDMDL
MODEL 4
REMARK VINA RESULT:     -10.9      3.389      7.029
REMARK  Name = 10409068
REMARK  6 active torsions:
REMARK  status: ('A' for Active; 'I' for Inactive)
REMARK    1  A    between atoms: N_1  and  C_16
REMARK    2  A    between atoms: C_8  and  C_29
REMARK    3  A    between atoms: C_13  and  C_22
REMARK    4  A    between atoms: N_21  and  C_24
REMARK    5  A    between atoms: N_28  and  C_31
REMARK    6  A    between atoms: C_31  and  C_32
REMARK                            x       y       z     vdW  Elec       q    Type
REMARK                         _______ _______ _______ _____ _____    ______ ____
ROOT
ATOM      1  N   UNL     1      32.932 -12.644 -24.054  0.00  0.00    -0.297 N 
ATOM      2  N   UNL     1      34.183  -9.161 -24.024  0.00  0.00    -0.185 N 
ATOM      3  N   UNL     1      34.652 -11.553 -25.169  0.00  0.00    -0.206 NA
ATOM      4  N   UNL     1      35.205  -9.221 -24.911  0.00  0.00    -0.151 NA
ATOM      5  C   UNL     1      33.395 -10.234 -23.692  0.00  0.00    +0.102 C 
ATOM      6  C   UNL     1      32.464  -9.812 -22.770  0.00  0.00    +0.002 C 
ATOM      7  C   UNL     1      33.660 -11.509 -24.315  0.00  0.00    +0.149 C 
ATOM      8  C   UNL     1      32.700  -8.432 -22.539  0.00  0.00    +0.067 C 
ATOM      9  C   UNL     1      33.768  -8.058 -23.326  0.00  0.00    +0.094 C 
ATOM     10  C   UNL     1      31.406 -10.616 -22.124  0.00  0.00    +0.033 C 
ATOM     11  C   UNL     1      35.380 -10.405 -25.428  0.00  0.00    +0.219 C 
ATOM     12  H   UNL     1      31.987 -12.517 -23.807  0.00  0.00    +0.154 HD
ENDROOT
BRANCH   1  16
ATOM     13  C   UNL     1      34.357 -15.862 -22.972  0.00  0.00    +0.055 C 
ATOM     14  C   UNL     1      33.892 -14.547 -22.941  0.00  0.00    +0.019 C 
ATOM     15  C   UNL     1      34.320 -16.588 -24.162  0.00  0.00    +0.004 C 
ATOM     16  C   UNL     1      33.391 -13.958 -24.102  0.00  0.00    +0.045 C 
ATOM     17  C   UNL     1      33.353 -14.684 -25.293  0.00  0.00    -0.008 C 
ATOM     18  C   UNL     1      33.817 -15.999 -25.323  0.00  0.00    -0.003 C 
ATOM     19  C   UNL     1      32.821 -14.078 -26.551  0.00  0.00    +0.032 C 
BRANCH  13  22
ATOM     20  O   UNL     1      34.988 -15.820 -20.712  0.00  0.00    -0.270 OA
ATOM     21  N   UNL     1      35.273 -17.819 -21.849  0.00  0.00    -0.302 N 
ATOM     22  C   UNL     1      34.881 -16.477 -21.762  0.00  0.00    +0.246 C 
ATOM     23  H   UNL     1      35.163 -18.284 -22.709  0.00  0.00    +0.150 HD
BRANCH  21  24
ATOM     24  C   UNL     1      35.826 -18.552 -20.743  0.00  0.00    +0.072 C 
ATOM     25  C   UNL     1      37.029 -19.430 -20.918  0.00  0.00    +0.021 C 
ATOM     26  C   UNL     1      35.685 -20.043 -20.654  0.00  0.00    +0.021 C 
ENDBRANCH  21  24
ENDBRANCH  13  22
ENDBRANCH   1  16
BRANCH   8  29
ATOM     27  O   UNL     1      31.991  -7.717 -20.421  0.00  0.00    -0.270 OA
ATOM     28  N   UNL     1      31.283  -6.475 -22.243  0.00  0.00    -0.301 N 
ATOM     29  C   UNL     1      31.993  -7.543 -21.662  0.00  0.00    +0.247 C 
ATOM     30  H   UNL     1      31.314  -6.377 -23.223  0.00  0.00    +0.150 HD
BRANCH  28  31
ATOM     31  C   UNL     1      30.516  -5.518 -21.495  0.00  0.00    +0.090 C 
BRANCH  31  32
ATOM     32  C   UNL     1      30.513  -4.140 -22.145  0.00  0.00    +0.021 C 
ATOM     33  C   UNL     1      31.296  -4.103 -23.450  0.00  0.00    +0.002 C 
ENDBRANCH  31  32
ENDBRANCH  28  31
ENDBRANCH   8  29
TORSDOF 6
ENDMDL
MODEL 5
REMARK VINA RESULT:     -10.8      3.241      6.262
REMARK  Name = 10409068
REMARK  6 active torsions:
REMARK  status: ('A' for Active; 'I' for Inactive)
REMARK    1  A    between atoms: N_1  and  C_16
REMARK    2  A    between atoms: C_8  and  C_29
REMARK    3  A    between atoms: C_13  and  C_22
REMARK    4  A    between atoms: N_21  and  C_24
REMARK    5  A    between atoms: N_28  and  C_31
REMARK    6  A    between atoms: C_31  and  C_32
REMARK                            x       y       z     vdW  Elec       q    Type
REMARK                         _______ _______ _______ _____ _____    ______ ____
ROOT
ATOM      1  N   UNL     1      34.158 -13.535 -23.685  0.00  0.00    -0.297 N 
ATOM      2  N   UNL     1      31.968 -11.100 -21.960  0.00  0.00    -0.185 N 
ATOM      3  N   UNL     1      32.651 -13.705 -21.925  0.00  0.00    -0.206 NA
ATOM      4  N   UNL     1      31.362 -11.876 -21.029  0.00  0.00    -0.151 NA
ATOM      5  C   UNL     1      32.891 -11.568 -22.861  0.00  0.00    +0.102 C 
ATOM      6  C   UNL     1      33.293 -10.511 -23.647  0.00  0.00    +0.002 C 
ATOM      7  C   UNL     1      33.246 -12.966 -22.829  0.00  0.00    +0.149 C 
ATOM      8  C   UNL     1      32.587  -9.365 -23.201  0.00  0.00    +0.067 C 
ATOM      9  C   UNL     1      31.775  -9.759 -22.159  0.00  0.00    +0.094 C 
ATOM     10  C   UNL     1      34.273 -10.533 -24.753  0.00  0.00    +0.033 C 
ATOM     11  C   UNL     1      31.736 -13.125 -21.066  0.00  0.00    +0.219 C 
ATOM     12  H   UNL     1      34.883 -12.954 -24.009  0.00  0.00    +0.154 HD
ENDROOT
BRANCH   1  16
ATOM     13  C   UNL     1      34.744 -17.168 -23.790  0.00  0.00    +0.055 C 
ATOM     14  C   UNL     1      34.730 -15.846 -23.347  0.00  0.00    +0.019 C 
ATOM     15  C   UNL     1      34.190 -17.496 -25.027  0.00  0.00    +0.004 C 
ATOM     16  C   UNL     1      34.163 -14.851 -24.143  0.00  0.00    +0.045 C 
ATOM     17  C   UNL     1      33.608 -15.177 -25.380  0.00  0.00    -0.008 C 
ATOM     18  C   UNL     1      33.622 -16.500 -25.822  0.00  0.00    -0.003 C 
ATOM     19  C   UNL     1      32.993 -14.131 -26.253  0.00  0.00    +0.032 C 
BRANCH  13  22
ATOM     20  O   UNL     1      36.567 -18.256 -22.789  0.00  0.00    -0.270 OA
ATOM     21  N   UNL     1      34.463 -19.147 -22.398  0.00  0.00    -0.302 N 
ATOM     22  C   UNL     1      35.336 -18.207 -22.962  0.00  0.00    +0.246 C 
ATOM     23  H   UNL     1      33.499 -19.053 -22.572  0.00  0.00    +0.150 HD
BRANCH  21  24
ATOM     24  C   UNL     1      34.905 -20.240 -21.576  0.00  0.00    +0.072 C 
ATOM     25  C   UNL     1      34.287 -20.502 -20.235  0.00  0.00    +0.021 C 
ATOM     26  C   UNL     1      35.698 -19.997 -20.326  0.00  0.00    +0.021 C 
ENDBRANCH  21  24
ENDBRANCH  13  22
ENDBRANCH   1  16
BRANCH   8  29
ATOM     27  O   UNL     1      33.763  -7.462 -23.906  0.00  0.00    -0.270 OA
ATOM     28  N   UNL     1      31.450  -7.345 -23.945  0.00  0.00    -0.301 N 
ATOM     29  C   UNL     1      32.661  -8.022 -23.704  0.00  0.00    +0.247 C 
ATOM     30  H   UNL     1      30.608  -7.825 -23.772  0.00  0.00    +0.150 HD
BRANCH  28  31
ATOM     31  C   UNL     1      31.367  -5.994 -24.427  0.00  0.00    +0.090 C 
BRANCH  31  32
ATOM     32  C   UNL     1      31.392  -4.971 -23.298  0.00  0.00    +0.021 C 
ATOM     33  C   UNL     1      30.539  -5.388 -22.108  0.00  0.00    +0.002 C 
ENDBRANCH  31  32
ENDBRANCH  28  31
ENDBRANCH   8  29
TORSDOF 6
ENDMDL
MODEL 6
REMARK VINA RESULT:     -10.6      3.209      6.624
REMARK  Name = 10409068
REMARK  6 active torsions:
REMARK  status: ('A' for Active; 'I' for Inactive)
REMARK    1  A    between atoms: N_1  and  C_16
REMARK    2  A    between atoms: C_8  and  C_29
REMARK    3  A    between atoms: C_13  and  C_22
REMARK    4  A    between atoms: N_21  and  C_24
REMARK    5  A    between atoms: N_28  and  C_31
REMARK    6  A    between atoms: C_31  and  C_32
REMARK                            x       y       z     vdW  Elec       q    Type
REMARK                         _______ _______ _______ _____ _____    ______ ____
ROOT
ATOM      1  N   UNL     1      34.187 -12.913 -23.727  0.00  0.00    -0.297 N 
ATOM      2  N   UNL     1      31.993 -10.173 -22.551  0.00  0.00    -0.185 N 
ATOM      3  N   UNL     1      32.309 -12.842 -22.362  0.00  0.00    -0.206 NA
ATOM      4  N   UNL     1      31.096 -10.840 -21.786  0.00  0.00    -0.151 NA
ATOM      5  C   UNL     1      33.029 -10.779 -23.215  0.00  0.00    +0.102 C 
ATOM      6  C   UNL     1      33.734  -9.805 -23.887  0.00  0.00    +0.002 C 
ATOM      7  C   UNL     1      33.185 -12.210 -23.104  0.00  0.00    +0.149 C 
ATOM      8  C   UNL     1      33.098  -8.567 -23.615  0.00  0.00    +0.067 C 
ATOM      9  C   UNL     1      32.026  -8.825 -22.788  0.00  0.00    +0.094 C 
ATOM     10  C   UNL     1      34.929  -9.982 -24.737  0.00  0.00    +0.033 C 
ATOM     11  C   UNL     1      31.303 -12.126 -21.737  0.00  0.00    +0.219 C 
ATOM     12  H   UNL     1      35.035 -12.437 -23.874  0.00  0.00    +0.154 HD
ENDROOT
BRANCH   1  16
ATOM     13  C   UNL     1      34.543 -16.577 -23.774  0.00  0.00    +0.055 C 
ATOM     14  C   UNL     1      34.595 -15.252 -23.344  0.00  0.00    +0.019 C 
ATOM     15  C   UNL     1      34.021 -16.884 -25.031  0.00  0.00    +0.004 C 
ATOM     16  C   UNL     1      34.126 -14.231 -24.172  0.00  0.00    +0.045 C 
ATOM     17  C   UNL     1      33.605 -14.537 -25.429  0.00  0.00    -0.008 C 
ATOM     18  C   UNL     1      33.552 -15.863 -25.859  0.00  0.00    -0.003 C 
ATOM     19  C   UNL     1      33.096 -13.464 -26.337  0.00  0.00    +0.032 C 
BRANCH  13  22
ATOM     20  O   UNL     1      36.073 -18.260 -23.196  0.00  0.00    -0.270 OA
ATOM     21  N   UNL     1      34.267 -17.944 -21.778  0.00  0.00    -0.302 N 
ATOM     22  C   UNL     1      35.031 -17.642 -22.912  0.00  0.00    +0.246 C 
ATOM     23  H   UNL     1      33.453 -17.418 -21.609  0.00  0.00    +0.150 HD
BRANCH  21  24
ATOM     24  C   UNL     1      34.614 -18.983 -20.848  0.00  0.00    +0.072 C 
ATOM     25  C   UNL     1      34.877 -20.385 -21.311  0.00  0.00    +0.021 C 
ATOM     26  C   UNL     1      33.644 -20.078 -20.512  0.00  0.00    +0.021 C 
ENDBRANCH  21  24
ENDBRANCH  13  22
ENDBRANCH   1  16
BRANCH   8  29
ATOM     27  O   UNL     1      34.648  -6.868 -24.078  0.00  0.00    -0.270 OA
ATOM     28  N   UNL     1      32.423  -6.418 -24.541  0.00  0.00    -0.301 N 
ATOM     29  C   UNL     1      33.457  -7.259 -24.086  0.00  0.00    +0.247 C 
ATOM     30  H   UNL     1      31.503  -6.769 -24.529  0.00  0.00    +0.150 HD
BRANCH  28  31
ATOM     31  C   UNL     1      32.628  -5.080 -25.021  0.00  0.00    +0.090 C 
BRANCH  31  32
ATOM     32  C   UNL     1      32.863  -5.033 -26.527  0.00  0.00    +0.021 C 
ATOM     33  C   UNL     1      34.321  -4.789 -26.887  0.00  0.00    +0.002 C 
ENDBRANCH  31  32
ENDBRANCH  28  31
ENDBRANCH   8  29
TORSDOF 6
ENDMDL
MODEL 7
REMARK VINA RESULT:     -10.6      3.399      7.070
REMARK  Name = 10409068
REMARK  6 active torsions:
REMARK  status: ('A' for Active; 'I' for Inactive)
REMARK    1  A    between atoms: N_1  and  C_16
REMARK    2  A    between atoms: C_8  and  C_29
REMARK    3  A    between atoms: C_13  and  C_22
REMARK    4  A    between atoms: N_21  and  C_24
REMARK    5  A    between atoms: N_28  and  C_31
REMARK    6  A    between atoms: C_31  and  C_32
REMARK                            x       y       z     vdW  Elec       q    Type
REMARK                         _______ _______ _______ _____ _____    ______ ____
ROOT
ATOM      1  N   UNL     1      33.591 -22.923 -17.491  0.00  0.00    -0.297 N 
ATOM      2  N   UNL     1      36.235 -20.972 -19.195  0.00  0.00    -0.185 N 
ATOM      3  N   UNL     1      35.876 -22.684 -17.146  0.00  0.00    -0.206 NA
ATOM      4  N   UNL     1      37.335 -21.300 -18.476  0.00  0.00    -0.151 NA
ATOM      5  C   UNL     1      34.980 -21.460 -18.935  0.00  0.00    +0.102 C 
ATOM      6  C   UNL     1      34.112 -20.918 -19.858  0.00  0.00    +0.002 C 
ATOM      7  C   UNL     1      34.803 -22.376 -17.834  0.00  0.00    +0.149 C 
ATOM      8  C   UNL     1      34.875 -20.074 -20.704  0.00  0.00    +0.067 C 
ATOM      9  C   UNL     1      36.182 -20.126 -20.270  0.00  0.00    +0.094 C 
ATOM     10  C   UNL     1      32.657 -21.152 -19.972  0.00  0.00    +0.033 C 
ATOM     11  C   UNL     1      37.093 -22.130 -17.500  0.00  0.00    +0.219 C 
ATOM     12  H   UNL     1      32.944 -23.058 -18.220  0.00  0.00    +0.154 HD
ENDROOT
BRANCH   1  16
ATOM     13  C   UNL     1      33.742 -24.142 -14.020  0.00  0.00    +0.055 C 
ATOM     14  C   UNL     1      34.134 -23.754 -15.301  0.00  0.00    +0.019 C 
ATOM     15  C   UNL     1      32.397 -24.082 -13.653  0.00  0.00    +0.004 C 
ATOM     16  C   UNL     1      33.182 -23.306 -16.216  0.00  0.00    +0.045 C 
ATOM     17  C   UNL     1      31.837 -23.246 -15.850  0.00  0.00    -0.008 C 
ATOM     18  C   UNL     1      31.444 -23.633 -14.569  0.00  0.00    -0.003 C 
ATOM     19  C   UNL     1      30.795 -22.770 -16.810  0.00  0.00    +0.032 C 
BRANCH  13  22
ATOM     20  O   UNL     1      34.543 -24.488 -11.841  0.00  0.00    -0.270 OA
ATOM     21  N   UNL     1      35.905 -25.173 -13.587  0.00  0.00    -0.302 N 
ATOM     22  C   UNL     1      34.734 -24.610 -13.065  0.00  0.00    +0.246 C 
ATOM     23  H   UNL     1      35.996 -25.241 -14.564  0.00  0.00    +0.150 HD
BRANCH  21  24
ATOM     24  C   UNL     1      36.981 -25.658 -12.766  0.00  0.00    +0.072 C 
ATOM     25  C   UNL     1      38.038 -24.732 -12.243  0.00  0.00    +0.021 C 
ATOM     26  C   UNL     1      38.381 -25.745 -13.297  0.00  0.00    +0.021 C 
ENDBRANCH  21  24
ENDBRANCH  13  22
ENDBRANCH   1  16
BRANCH   8  29
ATOM     27  O   UNL     1      33.630 -18.330 -21.660  0.00  0.00    -0.270 OA
ATOM     28  N   UNL     1      34.889 -19.638 -23.099  0.00  0.00    -0.301 N 
ATOM     29  C   UNL     1      34.424 -19.287 -21.817  0.00  0.00    +0.247 C 
ATOM     30  H   UNL     1      35.511 -20.397 -23.174  0.00  0.00    +0.150 HD
BRANCH  28  31
ATOM     31  C   UNL     1      34.509 -18.957 -24.305  0.00  0.00    +0.090 C 
BRANCH  31  32
ATOM     32  C   UNL     1      35.096 -17.552 -24.388  0.00  0.00    +0.021 C 
ATOM     33  C   UNL     1      34.191 -16.580 -25.130  0.00  0.00    +0.002 C 
ENDBRANCH  31  32
ENDBRANCH  28  31
ENDBRANCH   8  29
TORSDOF 6
ENDMDL
MODEL 8
REMARK VINA RESULT:     -10.6      3.354      6.980
REMARK  Name = 10409068
REMARK  6 active torsions:
REMARK  status: ('A' for Active; 'I' for Inactive)
REMARK    1  A    between atoms: N_1  and  C_16
REMARK    2  A    between atoms: C_8  and  C_29
REMARK    3  A    between atoms: C_13  and  C_22
REMARK    4  A    between atoms: N_21  and  C_24
REMARK    5  A    between atoms: N_28  and  C_31
REMARK    6  A    between atoms: C_31  and  C_32
REMARK                            x       y       z     vdW  Elec       q    Type
REMARK                         _______ _______ _______ _____ _____    ______ ____
ROOT
ATOM      1  N   UNL     1      33.619 -22.830 -17.496  0.00  0.00    -0.297 N 
ATOM      2  N   UNL     1      36.381 -21.005 -19.151  0.00  0.00    -0.185 N 
ATOM      3  N   UNL     1      35.909 -22.718 -17.127  0.00  0.00    -0.206 NA
ATOM      4  N   UNL     1      37.455 -21.400 -18.426  0.00  0.00    -0.151 NA
ATOM      5  C   UNL     1      35.099 -21.428 -18.910  0.00  0.00    +0.102 C 
ATOM      6  C   UNL     1      34.271 -20.830 -19.834  0.00  0.00    +0.002 C 
ATOM      7  C   UNL     1      34.862 -22.346 -17.822  0.00  0.00    +0.149 C 
ATOM      8  C   UNL     1      35.087 -20.018 -20.663  0.00  0.00    +0.067 C 
ATOM      9  C   UNL     1      36.385 -20.145 -20.217  0.00  0.00    +0.094 C 
ATOM     10  C   UNL     1      32.807 -20.983 -19.965  0.00  0.00    +0.033 C 
ATOM     11  C   UNL     1      37.159 -22.227 -17.462  0.00  0.00    +0.219 C 
ATOM     12  H   UNL     1      32.973 -22.922 -18.234  0.00  0.00    +0.154 HD
ENDROOT
BRANCH   1  16
ATOM     13  C   UNL     1      33.686 -23.952 -13.990  0.00  0.00    +0.055 C 
ATOM     14  C   UNL     1      34.112 -23.573 -15.263  0.00  0.00    +0.019 C 
ATOM     15  C   UNL     1      32.325 -23.962 -13.683  0.00  0.00    +0.004 C 
ATOM     16  C   UNL     1      33.176 -23.205 -16.230  0.00  0.00    +0.045 C 
ATOM     17  C   UNL     1      31.815 -23.214 -15.924  0.00  0.00    -0.008 C 
ATOM     18  C   UNL     1      31.390 -23.592 -14.650  0.00  0.00    -0.003 C 
ATOM     19  C   UNL     1      30.791 -22.824 -16.940  0.00  0.00    +0.032 C 
BRANCH  13  22
ATOM     20  O   UNL     1      34.534 -23.960 -11.802  0.00  0.00    -0.270 OA
ATOM     21  N   UNL     1      35.741 -25.121 -13.405  0.00  0.00    -0.302 N 
ATOM     22  C   UNL     1      34.660 -24.337 -12.981  0.00  0.00    +0.246 C 
ATOM     23  H   UNL     1      35.783 -25.386 -14.352  0.00  0.00    +0.150 HD
BRANCH  21  24
ATOM     24  C   UNL     1      36.790 -25.559 -12.526  0.00  0.00    +0.072 C 
ATOM     25  C   UNL     1      37.922 -24.648 -12.154  0.00  0.00    +0.021 C 
ATOM     26  C   UNL     1      38.171 -25.830 -13.044  0.00  0.00    +0.021 C 
ENDBRANCH  21  24
ENDBRANCH  13  22
ENDBRANCH   1  16
BRANCH   8  29
ATOM     27  O   UNL     1      34.420 -19.694 -22.888  0.00  0.00    -0.270 OA
ATOM     28  N   UNL     1      34.635 -17.803 -21.568  0.00  0.00    -0.301 N 
ATOM     29  C   UNL     1      34.691 -19.196 -21.771  0.00  0.00    +0.247 C 
ATOM     30  H   UNL     1      34.857 -17.457 -20.673  0.00  0.00    +0.150 HD
BRANCH  28  31
ATOM     31  C   UNL     1      34.276 -16.856 -22.586  0.00  0.00    +0.090 C 
BRANCH  31  32
ATOM     32  C   UNL     1      34.442 -15.414 -22.122  0.00  0.00    +0.021 C 
ATOM     33  C   UNL     1      34.485 -15.285 -20.606  0.00  0.00    +0.002 C 
ENDBRANCH  31  32
ENDBRANCH  28  31
ENDBRANCH   8  29
TORSDOF 6
ENDMDL
MODEL 9
REMARK VINA RESULT:      -9.9      4.266      7.993
REMARK  Name = 10409068
REMARK  6 active torsions:
REMARK  status: ('A' for Active; 'I' for Inactive)
REMARK    1  A    between atoms: N_1  and  C_16
REMARK    2  A    between atoms: C_8  and  C_29
REMARK    3  A    between atoms: C_13  and  C_22
REMARK    4  A    between atoms: N_21  and  C_24
REMARK    5  A    between atoms: N_28  and  C_31
REMARK    6  A    between atoms: C_31  and  C_32
REMARK                            x       y       z     vdW  Elec       q    Type
REMARK                         _______ _______ _______ _____ _____    ______ ____
ROOT
ATOM      1  N   UNL     1      32.373 -11.445 -23.015  0.00  0.00    -0.297 N 
ATOM      2  N   UNL     1      34.171  -8.441 -24.217  0.00  0.00    -0.185 N 
ATOM      3  N   UNL     1      34.262 -11.130 -24.330  0.00  0.00    -0.206 NA
ATOM      4  N   UNL     1      35.181  -8.986 -24.936  0.00  0.00    -0.151 NA
ATOM      5  C   UNL     1      33.216  -9.177 -23.562  0.00  0.00    +0.102 C 
ATOM      6  C   UNL     1      32.354  -8.301 -22.940  0.00  0.00    +0.002 C 
ATOM      7  C   UNL     1      33.279 -10.617 -23.632  0.00  0.00    +0.149 C 
ATOM      8  C   UNL     1      32.807  -6.990 -23.234  0.00  0.00    +0.067 C 
ATOM      9  C   UNL     1      33.931  -7.107 -24.023  0.00  0.00    +0.094 C 
ATOM     10  C   UNL     1      31.172  -8.632 -22.117  0.00  0.00    +0.033 C 
ATOM     11  C   UNL     1      35.168 -10.290 -24.950  0.00  0.00    +0.219 C 
ATOM     12  H   UNL     1      31.459 -11.098 -22.905  0.00  0.00    +0.154 HD
ENDROOT
BRANCH   1  16
ATOM     13  C   UNL     1      33.418 -14.974 -22.904  0.00  0.00    +0.055 C 
ATOM     14  C   UNL     1      33.170 -13.685 -23.376  0.00  0.00    +0.019 C 
ATOM     15  C   UNL     1      33.113 -15.305 -21.584  0.00  0.00    +0.004 C 
ATOM     16  C   UNL     1      32.615 -12.727 -22.527  0.00  0.00    +0.045 C 
ATOM     17  C   UNL     1      32.310 -13.057 -21.207  0.00  0.00    -0.008 C 
ATOM     18  C   UNL     1      32.559 -14.346 -20.735  0.00  0.00    -0.003 C 
ATOM     19  C   UNL     1      31.715 -12.051 -20.276  0.00  0.00    +0.032 C 
BRANCH  13  22
ATOM     20  O   UNL     1      33.891 -15.866 -25.023  0.00  0.00    -0.270 OA
ATOM     21  N   UNL     1      34.646 -17.058 -23.184  0.00  0.00    -0.302 N 
ATOM     22  C   UNL     1      33.996 -15.974 -23.788  0.00  0.00    +0.246 C 
ATOM     23  H   UNL     1      34.696 -17.085 -22.202  0.00  0.00    +0.150 HD
BRANCH  21  24
ATOM     24  C   UNL     1      35.246 -18.131 -23.928  0.00  0.00    +0.072 C 
ATOM     25  C   UNL     1      34.411 -19.069 -24.749  0.00  0.00    +0.021 C 
ATOM     26  C   UNL     1      35.080 -19.559 -23.498  0.00  0.00    +0.021 C 
ENDBRANCH  21  24
ENDBRANCH  13  22
ENDBRANCH   1  16
BRANCH   8  29
ATOM     27  O   UNL     1      32.093  -5.465 -21.600  0.00  0.00    -0.270 OA
ATOM     28  N   UNL     1      31.842  -4.831 -23.814  0.00  0.00    -0.301 N 
ATOM     29  C   UNL     1      32.242  -5.738 -22.814  0.00  0.00    +0.247 C 
ATOM     30  H   UNL     1      31.979  -5.089 -24.754  0.00  0.00    +0.150 HD
BRANCH  28  31
ATOM     31  C   UNL     1      31.245  -3.552 -23.546  0.00  0.00    +0.090 C 
BRANCH  31  32
ATOM     32  C   UNL     1      31.608  -2.510 -24.597  0.00  0.00    +0.021 C 
ATOM     33  C   UNL     1      31.886  -3.123 -25.962  0.00  0.00    +0.002 C 
ENDBRANCH  31  32
ENDBRANCH  28  31
ENDBRANCH   8  29
TORSDOF 6
ENDMDL
