MODEL 1
REMARK VINA RESULT:      -7.3      0.000      0.000
REMARK  Name = 637775
REMARK  6 active torsions:
REMARK  status: ('A' for Active; 'I' for Inactive)
REMARK    1  A    between atoms: C_1  and  C_13
REMARK    2  A    between atoms: C_2  and  O_7
REMARK    3  A    between atoms: C_3  and  O_9
REMARK    4  A    between atoms: C_4  and  O_11
REMARK    5  A    between atoms: C_14  and  C_16
REMARK    6  A    between atoms: C_16  and  O_17
REMARK                            x       y       z     vdW  Elec       q    Type
REMARK                         _______ _______ _______ _____ _____    ______ ____
ROOT
ATOM      1  C   UNL     1      36.835 -24.836 -14.339  0.00  0.00    +0.006 C 
ATOM      2  C   UNL     1      35.242 -24.633 -12.534  0.00  0.00    +0.175 C 
ATOM      3  C   UNL     1      34.728 -23.710 -14.706  0.00  0.00    +0.175 C 
ATOM      4  C   UNL     1      34.369 -23.951 -13.381  0.00  0.00    +0.202 C 
ATOM      5  C   UNL     1      36.475 -25.076 -13.013  0.00  0.00    +0.040 C 
ATOM      6  C   UNL     1      35.961 -24.153 -15.185  0.00  0.00    +0.040 C 
ENDROOT
BRANCH   2   7
ATOM      7  O   UNL     1      34.902 -24.875 -11.237  0.00  0.00    -0.468 OA
ATOM      8  C   UNL     1      35.725 -24.286 -10.230  0.00  0.00    +0.253 C 
ENDBRANCH   2   7
BRANCH   3   9
ATOM      9  O   UNL     1      33.884 -23.045 -15.544  0.00  0.00    -0.468 OA
ATOM     10  C   UNL     1      34.027 -23.296 -16.940  0.00  0.00    +0.253 C 
ENDBRANCH   3   9
BRANCH   4  11
ATOM     11  O   UNL     1      33.164 -23.519 -12.912  0.00  0.00    -0.501 OA
ATOM     12  H   UNL     1      32.396 -24.042 -13.041  0.00  0.00    +0.292 HD
ENDBRANCH   4  11
BRANCH   1  13
ATOM     13  C   UNL     1      38.120 -25.296 -14.839  0.00  0.00    +0.007 C 
ATOM     14  C   UNL     1      39.159 -25.699 -14.072  0.00  0.00    +0.082 C 
BRANCH  14  16
ATOM     15  O   UNL     1      41.338 -26.725 -14.153  0.00  0.00    -0.245 OA
ATOM     16  C   UNL     1      40.412 -26.155 -14.706  0.00  0.00    +0.338 C 
BRANCH  16  17
ATOM     17  O   UNL     1      40.375 -25.836 -16.021  0.00  0.00    -0.477 OA
ATOM     18  H   UNL     1      39.576 -25.534 -16.406  0.00  0.00    +0.295 HD
ENDBRANCH  16  17
ENDBRANCH  14  16
ENDBRANCH   1  13
TORSDOF 6
ENDMDL
MODEL 2
REMARK VINA RESULT:      -7.3      0.334      3.221
REMARK  Name = 637775
REMARK  6 active torsions:
REMARK  status: ('A' for Active; 'I' for Inactive)
REMARK    1  A    between atoms: C_1  and  C_13
REMARK    2  A    between atoms: C_2  and  O_7
REMARK    3  A    between atoms: C_3  and  O_9
REMARK    4  A    between atoms: C_4  and  O_11
REMARK    5  A    between atoms: C_14  and  C_16
REMARK    6  A    between atoms: C_16  and  O_17
REMARK                            x       y       z     vdW  Elec       q    Type
REMARK                         _______ _______ _______ _____ _____    ______ ____
ROOT
ATOM      1  C   UNL     1      36.682 -25.069 -14.350  0.00  0.00    +0.006 C 
ATOM      2  C   UNL     1      34.518 -24.118 -14.849  0.00  0.00    +0.175 C 
ATOM      3  C   UNL     1      35.165 -24.507 -12.554  0.00  0.00    +0.175 C 
ATOM      4  C   UNL     1      34.229 -24.060 -13.485  0.00  0.00    +0.202 C 
ATOM      5  C   UNL     1      35.745 -24.621 -15.280  0.00  0.00    +0.040 C 
ATOM      6  C   UNL     1      36.392 -25.011 -12.986  0.00  0.00    +0.040 C 
ENDROOT
BRANCH   2   7
ATOM      7  O   UNL     1      33.611 -23.683 -15.768  0.00  0.00    -0.468 OA
ATOM      8  C   UNL     1      34.129 -23.133 -16.979  0.00  0.00    +0.253 C 
ENDBRANCH   2   7
BRANCH   3   9
ATOM      9  O   UNL     1      34.895 -24.457 -11.219  0.00  0.00    -0.468 OA
ATOM     10  C   UNL     1      35.956 -24.049 -10.359  0.00  0.00    +0.253 C 
ENDBRANCH   3   9
BRANCH   4  11
ATOM     11  O   UNL     1      33.030 -23.567 -13.063  0.00  0.00    -0.501 OA
ATOM     12  H   UNL     1      32.666 -22.806 -13.471  0.00  0.00    +0.292 HD
ENDBRANCH   4  11
BRANCH   1  13
ATOM     13  C   UNL     1      37.961 -25.595 -14.799  0.00  0.00    +0.007 C 
ATOM     14  C   UNL     1      39.133 -25.475 -14.136  0.00  0.00    +0.082 C 
BRANCH  14  16
ATOM     15  O   UNL     1      41.240 -26.641 -14.075  0.00  0.00    -0.245 OA
ATOM     16  C   UNL     1      40.364 -26.064 -14.697  0.00  0.00    +0.338 C 
BRANCH  16  17
ATOM     17  O   UNL     1      40.371 -25.862 -16.036  0.00  0.00    -0.477 OA
ATOM     18  H   UNL     1      40.693 -26.530 -16.608  0.00  0.00    +0.295 HD
ENDBRANCH  16  17
ENDBRANCH  14  16
ENDBRANCH   1  13
TORSDOF 6
ENDMDL
MODEL 3
REMARK VINA RESULT:      -7.1      3.272      4.935
REMARK  Name = 637775
REMARK  6 active torsions:
REMARK  status: ('A' for Active; 'I' for Inactive)
REMARK    1  A    between atoms: C_1  and  C_13
REMARK    2  A    between atoms: C_2  and  O_7
REMARK    3  A    between atoms: C_3  and  O_9
REMARK    4  A    between atoms: C_4  and  O_11
REMARK    5  A    between atoms: C_14  and  C_16
REMARK    6  A    between atoms: C_16  and  O_17
REMARK                            x       y       z     vdW  Elec       q    Type
REMARK                         _______ _______ _______ _____ _____    ______ ____
ROOT
ATOM      1  C   UNL     1      33.927 -23.827 -14.479  0.00  0.00    +0.006 C 
ATOM      2  C   UNL     1      32.126 -23.368 -16.024  0.00  0.00    +0.175 C 
ATOM      3  C   UNL     1      34.419 -23.063 -16.719  0.00  0.00    +0.175 C 
ATOM      4  C   UNL     1      33.056 -23.013 -17.002  0.00  0.00    +0.202 C 
ATOM      5  C   UNL     1      32.562 -23.776 -14.763  0.00  0.00    +0.040 C 
ATOM      6  C   UNL     1      34.855 -23.471 -15.458  0.00  0.00    +0.040 C 
ENDROOT
BRANCH   2   7
ATOM      7  O   UNL     1      30.790 -23.322 -16.289  0.00  0.00    -0.468 OA
ATOM      8  C   UNL     1      29.924 -23.015 -15.197  0.00  0.00    +0.253 C 
ENDBRANCH   2   7
BRANCH   3   9
ATOM      9  O   UNL     1      35.338 -22.719 -17.665  0.00  0.00    -0.468 OA
ATOM     10  C   UNL     1      36.515 -22.055 -17.213  0.00  0.00    +0.253 C 
ENDBRANCH   3   9
BRANCH   4  11
ATOM     11  O   UNL     1      32.630 -22.615 -18.234  0.00  0.00    -0.501 OA
ATOM     12  H   UNL     1      32.073 -23.174 -18.741  0.00  0.00    +0.292 HD
ENDBRANCH   4  11
BRANCH   1  13
ATOM     13  C   UNL     1      34.381 -24.251 -13.165  0.00  0.00    +0.007 C 
ATOM     14  C   UNL     1      35.551 -23.893 -12.589  0.00  0.00    +0.082 C 
BRANCH  14  16
ATOM     15  O   UNL     1      35.195 -25.086 -10.527  0.00  0.00    -0.245 OA
ATOM     16  C   UNL     1      35.893 -24.386 -11.240  0.00  0.00    +0.338 C 
BRANCH  16  17
ATOM     17  O   UNL     1      37.125 -23.932 -10.912  0.00  0.00    -0.477 OA
ATOM     18  H   UNL     1      37.403 -23.940 -10.017  0.00  0.00    +0.295 HD
ENDBRANCH  16  17
ENDBRANCH  14  16
ENDBRANCH   1  13
TORSDOF 6
ENDMDL
MODEL 4
REMARK VINA RESULT:      -7.1      3.297      5.010
REMARK  Name = 637775
REMARK  6 active torsions:
REMARK  status: ('A' for Active; 'I' for Inactive)
REMARK    1  A    between atoms: C_1  and  C_13
REMARK    2  A    between atoms: C_2  and  O_7
REMARK    3  A    between atoms: C_3  and  O_9
REMARK    4  A    between atoms: C_4  and  O_11
REMARK    5  A    between atoms: C_14  and  C_16
REMARK    6  A    between atoms: C_16  and  O_17
REMARK                            x       y       z     vdW  Elec       q    Type
REMARK                         _______ _______ _______ _____ _____    ______ ____
ROOT
ATOM      1  C   UNL     1      33.922 -23.863 -14.440  0.00  0.00    +0.006 C 
ATOM      2  C   UNL     1      34.394 -23.064 -16.671  0.00  0.00    +0.175 C 
ATOM      3  C   UNL     1      32.109 -23.435 -15.979  0.00  0.00    +0.175 C 
ATOM      4  C   UNL     1      33.027 -23.045 -16.953  0.00  0.00    +0.202 C 
ATOM      5  C   UNL     1      34.840 -23.473 -15.414  0.00  0.00    +0.040 C 
ATOM      6  C   UNL     1      32.556 -23.844 -14.723  0.00  0.00    +0.040 C 
ENDROOT
BRANCH   2   7
ATOM      7  O   UNL     1      35.301 -22.684 -17.614  0.00  0.00    -0.468 OA
ATOM      8  C   UNL     1      36.520 -22.110 -17.145  0.00  0.00    +0.253 C 
ENDBRANCH   2   7
BRANCH   3   9
ATOM      9  O   UNL     1      30.772 -23.421 -16.242  0.00  0.00    -0.468 OA
ATOM     10  C   UNL     1      29.927 -22.820 -15.264  0.00  0.00    +0.253 C 
ENDBRANCH   3   9
BRANCH   4  11
ATOM     11  O   UNL     1      32.590 -22.645 -18.180  0.00  0.00    -0.501 OA
ATOM     12  H   UNL     1      33.067 -22.889 -18.950  0.00  0.00    +0.292 HD
ENDBRANCH   4  11
BRANCH   1  13
ATOM     13  C   UNL     1      34.388 -24.290 -13.131  0.00  0.00    +0.007 C 
ATOM     14  C   UNL     1      35.533 -23.884 -12.537  0.00  0.00    +0.082 C 
BRANCH  14  16
ATOM     15  O   UNL     1      35.211 -25.116 -10.491  0.00  0.00    -0.245 OA
ATOM     16  C   UNL     1      35.889 -24.386 -11.195  0.00  0.00    +0.338 C 
BRANCH  16  17
ATOM     17  O   UNL     1      37.108 -23.901 -10.859  0.00  0.00    -0.477 OA
ATOM     18  H   UNL     1      37.271 -22.979 -10.897  0.00  0.00    +0.295 HD
ENDBRANCH  16  17
ENDBRANCH  14  16
ENDBRANCH   1  13
TORSDOF 6
ENDMDL
MODEL 5
REMARK VINA RESULT:      -7.1     11.433     14.948
REMARK  Name = 637775
REMARK  6 active torsions:
REMARK  status: ('A' for Active; 'I' for Inactive)
REMARK    1  A    between atoms: C_1  and  C_13
REMARK    2  A    between atoms: C_2  and  O_7
REMARK    3  A    between atoms: C_3  and  O_9
REMARK    4  A    between atoms: C_4  and  O_11
REMARK    5  A    between atoms: C_14  and  C_16
REMARK    6  A    between atoms: C_16  and  O_17
REMARK                            x       y       z     vdW  Elec       q    Type
REMARK                         _______ _______ _______ _____ _____    ______ ____
ROOT
ATOM      1  C   UNL     1      33.289 -14.846 -23.011  0.00  0.00    +0.006 C 
ATOM      2  C   UNL     1      34.650 -16.750 -23.611  0.00  0.00    +0.175 C 
ATOM      3  C   UNL     1      33.675 -15.371 -25.338  0.00  0.00    +0.175 C 
ATOM      4  C   UNL     1      34.454 -16.464 -24.962  0.00  0.00    +0.202 C 
ATOM      5  C   UNL     1      34.068 -15.940 -22.635  0.00  0.00    +0.040 C 
ATOM      6  C   UNL     1      33.094 -14.561 -24.363  0.00  0.00    +0.040 C 
ENDROOT
BRANCH   2   7
ATOM      7  O   UNL     1      35.409 -17.816 -23.231  0.00  0.00    -0.468 OA
ATOM      8  C   UNL     1      34.715 -19.007 -22.862  0.00  0.00    +0.253 C 
ENDBRANCH   2   7
BRANCH   3   9
ATOM      9  O   UNL     1      33.476 -15.081 -26.655  0.00  0.00    -0.468 OA
ATOM     10  C   UNL     1      33.191 -13.723 -26.982  0.00  0.00    +0.253 C 
ENDBRANCH   3   9
BRANCH   4  11
ATOM     11  O   UNL     1      35.023 -17.255 -25.915  0.00  0.00    -0.501 OA
ATOM     12  H   UNL     1      35.441 -16.866 -26.659  0.00  0.00    +0.292 HD
ENDBRANCH   4  11
BRANCH   1  13
ATOM     13  C   UNL     1      32.682 -14.002 -21.995  0.00  0.00    +0.007 C 
ATOM     14  C   UNL     1      32.092 -12.806 -22.221  0.00  0.00    +0.082 C 
BRANCH  14  16
ATOM     15  O   UNL     1      31.932 -11.987 -19.961  0.00  0.00    -0.245 OA
ATOM     16  C   UNL     1      31.502 -12.048 -21.100  0.00  0.00    +0.338 C 
BRANCH  16  17
ATOM     17  O   UNL     1      30.387 -11.420 -21.541  0.00  0.00    -0.477 OA
ATOM     18  H   UNL     1      29.566 -11.872 -21.547  0.00  0.00    +0.295 HD
ENDBRANCH  16  17
ENDBRANCH  14  16
ENDBRANCH   1  13
TORSDOF 6
ENDMDL
MODEL 6
REMARK VINA RESULT:      -7.1     11.388     15.218
REMARK  Name = 637775
REMARK  6 active torsions:
REMARK  status: ('A' for Active; 'I' for Inactive)
REMARK    1  A    between atoms: C_1  and  C_13
REMARK    2  A    between atoms: C_2  and  O_7
REMARK    3  A    between atoms: C_3  and  O_9
REMARK    4  A    between atoms: C_4  and  O_11
REMARK    5  A    between atoms: C_14  and  C_16
REMARK    6  A    between atoms: C_16  and  O_17
REMARK                            x       y       z     vdW  Elec       q    Type
REMARK                         _______ _______ _______ _____ _____    ______ ____
ROOT
ATOM      1  C   UNL     1      33.334 -14.844 -23.015  0.00  0.00    +0.006 C 
ATOM      2  C   UNL     1      33.698 -15.373 -25.344  0.00  0.00    +0.175 C 
ATOM      3  C   UNL     1      34.650 -16.777 -23.624  0.00  0.00    +0.175 C 
ATOM      4  C   UNL     1      34.454 -16.486 -24.973  0.00  0.00    +0.202 C 
ATOM      5  C   UNL     1      33.138 -14.554 -24.365  0.00  0.00    +0.040 C 
ATOM      6  C   UNL     1      34.090 -15.957 -22.645  0.00  0.00    +0.040 C 
ENDROOT
BRANCH   2   7
ATOM      7  O   UNL     1      33.499 -15.078 -26.659  0.00  0.00    -0.468 OA
ATOM      8  C   UNL     1      33.201 -13.720 -26.980  0.00  0.00    +0.253 C 
ENDBRANCH   2   7
BRANCH   3   9
ATOM      9  O   UNL     1      35.387 -17.861 -23.248  0.00  0.00    -0.468 OA
ATOM     10  C   UNL     1      34.670 -18.995 -22.767  0.00  0.00    +0.253 C 
ENDBRANCH   3   9
BRANCH   4  11
ATOM     11  O   UNL     1      35.002 -17.287 -25.930  0.00  0.00    -0.501 OA
ATOM     12  H   UNL     1      35.720 -16.977 -26.447  0.00  0.00    +0.292 HD
ENDBRANCH   4  11
BRANCH   1  13
ATOM     13  C   UNL     1      32.750 -13.990 -21.994  0.00  0.00    +0.007 C 
ATOM     14  C   UNL     1      32.056 -12.853 -22.228  0.00  0.00    +0.082 C 
BRANCH  14  16
ATOM     15  O   UNL     1      31.942 -12.041 -19.962  0.00  0.00    -0.245 OA
ATOM     16  C   UNL     1      31.504 -12.078 -21.099  0.00  0.00    +0.338 C 
BRANCH  16  17
ATOM     17  O   UNL     1      30.415 -11.399 -21.531  0.00  0.00    -0.477 OA
ATOM     18  H   UNL     1      30.517 -10.676 -22.119  0.00  0.00    +0.295 HD
ENDBRANCH  16  17
ENDBRANCH  14  16
ENDBRANCH   1  13
TORSDOF 6
ENDMDL
MODEL 7
REMARK VINA RESULT:      -7.0      7.687     11.105
REMARK  Name = 637775
REMARK  6 active torsions:
REMARK  status: ('A' for Active; 'I' for Inactive)
REMARK    1  A    between atoms: C_1  and  C_13
REMARK    2  A    between atoms: C_2  and  O_7
REMARK    3  A    between atoms: C_3  and  O_9
REMARK    4  A    between atoms: C_4  and  O_11
REMARK    5  A    between atoms: C_14  and  C_16
REMARK    6  A    between atoms: C_16  and  O_17
REMARK                            x       y       z     vdW  Elec       q    Type
REMARK                         _______ _______ _______ _____ _____    ______ ____
ROOT
ATOM      1  C   UNL     1      34.882 -18.917 -21.358  0.00  0.00    +0.006 C 
ATOM      2  C   UNL     1      34.940 -17.768 -23.483  0.00  0.00    +0.175 C 
ATOM      3  C   UNL     1      34.947 -16.502 -21.426  0.00  0.00    +0.175 C 
ATOM      4  C   UNL     1      34.964 -16.541 -22.819  0.00  0.00    +0.202 C 
ATOM      5  C   UNL     1      34.900 -18.955 -22.752  0.00  0.00    +0.040 C 
ATOM      6  C   UNL     1      34.907 -17.689 -20.695  0.00  0.00    +0.040 C 
ENDROOT
BRANCH   2   7
ATOM      7  O   UNL     1      34.957 -17.820 -24.844  0.00  0.00    -0.468 OA
ATOM      8  C   UNL     1      34.057 -18.733 -25.469  0.00  0.00    +0.253 C 
ENDBRANCH   2   7
BRANCH   3   9
ATOM      9  O   UNL     1      34.970 -15.310 -20.765  0.00  0.00    -0.468 OA
ATOM     10  C   UNL     1      33.718 -14.659 -20.561  0.00  0.00    +0.253 C 
ENDBRANCH   3   9
BRANCH   4  11
ATOM     11  O   UNL     1      35.004 -15.381 -23.533  0.00  0.00    -0.501 OA
ATOM     12  H   UNL     1      34.251 -15.102 -24.016  0.00  0.00    +0.292 HD
ENDBRANCH   4  11
BRANCH   1  13
ATOM     13  C   UNL     1      34.840 -20.154 -20.596  0.00  0.00    +0.007 C 
ATOM     14  C   UNL     1      33.720 -20.733 -20.106  0.00  0.00    +0.082 C 
BRANCH  14  16
ATOM     15  O   UNL     1      34.772 -22.749 -19.310  0.00  0.00    -0.245 OA
ATOM     16  C   UNL     1      33.811 -22.000 -19.353  0.00  0.00    +0.338 C 
BRANCH  16  17
ATOM     17  O   UNL     1      32.640 -22.204 -18.705  0.00  0.00    -0.477 OA
ATOM     18  H   UNL     1      32.128 -22.966 -18.894  0.00  0.00    +0.295 HD
ENDBRANCH  16  17
ENDBRANCH  14  16
ENDBRANCH   1  13
TORSDOF 6
ENDMDL
MODEL 8
REMARK VINA RESULT:      -7.0      7.677     10.849
REMARK  Name = 637775
REMARK  6 active torsions:
REMARK  status: ('A' for Active; 'I' for Inactive)
REMARK    1  A    between atoms: C_1  and  C_13
REMARK    2  A    between atoms: C_2  and  O_7
REMARK    3  A    between atoms: C_3  and  O_9
REMARK    4  A    between atoms: C_4  and  O_11
REMARK    5  A    between atoms: C_14  and  C_16
REMARK    6  A    between atoms: C_16  and  O_17
REMARK                            x       y       z     vdW  Elec       q    Type
REMARK                         _______ _______ _______ _____ _____    ______ ____
ROOT
ATOM      1  C   UNL     1      34.819 -18.888 -21.308  0.00  0.00    +0.006 C 
ATOM      2  C   UNL     1      34.904 -16.476 -21.412  0.00  0.00    +0.175 C 
ATOM      3  C   UNL     1      34.929 -17.773 -23.449  0.00  0.00    +0.175 C 
ATOM      4  C   UNL     1      34.948 -16.537 -22.805  0.00  0.00    +0.202 C 
ATOM      5  C   UNL     1      34.838 -17.651 -20.664  0.00  0.00    +0.040 C 
ATOM      6  C   UNL     1      34.863 -18.949 -22.701  0.00  0.00    +0.040 C 
ENDROOT
BRANCH   2   7
ATOM      7  O   UNL     1      34.921 -15.274 -20.770  0.00  0.00    -0.468 OA
ATOM      8  C   UNL     1      33.662 -14.642 -20.543  0.00  0.00    +0.253 C 
ENDBRANCH   2   7
BRANCH   3   9
ATOM      9  O   UNL     1      34.972 -17.847 -24.809  0.00  0.00    -0.468 OA
ATOM     10  C   UNL     1      34.119 -18.804 -25.433  0.00  0.00    +0.253 C 
ENDBRANCH   3   9
BRANCH   4  11
ATOM     11  O   UNL     1      35.011 -15.388 -23.536  0.00  0.00    -0.501 OA
ATOM     12  H   UNL     1      35.068 -15.430 -24.471  0.00  0.00    +0.292 HD
ENDBRANCH   4  11
BRANCH   1  13
ATOM     13  C   UNL     1      34.751 -20.114 -20.528  0.00  0.00    +0.007 C 
ATOM     14  C   UNL     1      33.613 -20.739 -20.152  0.00  0.00    +0.082 C 
BRANCH  14  16
ATOM     15  O   UNL     1      34.612 -22.774 -19.335  0.00  0.00    -0.245 OA
ATOM     16  C   UNL     1      33.681 -21.988 -19.367  0.00  0.00    +0.338 C 
BRANCH  16  17
ATOM     17  O   UNL     1      32.526 -22.128 -18.675  0.00  0.00    -0.477 OA
ATOM     18  H   UNL     1      32.550 -22.294 -17.753  0.00  0.00    +0.295 HD
ENDBRANCH  16  17
ENDBRANCH  14  16
ENDBRANCH   1  13
TORSDOF 6
ENDMDL
MODEL 9
REMARK VINA RESULT:      -7.0      3.440      7.243
REMARK  Name = 637775
REMARK  6 active torsions:
REMARK  status: ('A' for Active; 'I' for Inactive)
REMARK    1  A    between atoms: C_1  and  C_13
REMARK    2  A    between atoms: C_2  and  O_7
REMARK    3  A    between atoms: C_3  and  O_9
REMARK    4  A    between atoms: C_4  and  O_11
REMARK    5  A    between atoms: C_14  and  C_16
REMARK    6  A    between atoms: C_16  and  O_17
REMARK                            x       y       z     vdW  Elec       q    Type
REMARK                         _______ _______ _______ _____ _____    ______ ____
ROOT
ATOM      1  C   UNL     1      31.887 -23.491 -15.765  0.00  0.00    +0.006 C 
ATOM      2  C   UNL     1      33.964 -24.160 -14.728  0.00  0.00    +0.175 C 
ATOM      3  C   UNL     1      33.977 -23.201 -16.945  0.00  0.00    +0.175 C 
ATOM      4  C   UNL     1      34.664 -23.743 -15.860  0.00  0.00    +0.202 C 
ATOM      5  C   UNL     1      32.576 -24.034 -14.681  0.00  0.00    +0.040 C 
ATOM      6  C   UNL     1      32.588 -23.074 -16.897  0.00  0.00    +0.040 C 
ENDROOT
BRANCH   2   7
ATOM      7  O   UNL     1      34.625 -24.691 -13.661  0.00  0.00    -0.468 OA
ATOM      8  C   UNL     1      34.920 -23.811 -12.578  0.00  0.00    +0.253 C 
ENDBRANCH   2   7
BRANCH   3   9
ATOM      9  O   UNL     1      34.649 -22.790 -18.057  0.00  0.00    -0.468 OA
ATOM     10  C   UNL     1      33.863 -22.336 -19.157  0.00  0.00    +0.253 C 
ENDBRANCH   3   9
BRANCH   4  11
ATOM     11  O   UNL     1      36.021 -23.866 -15.906  0.00  0.00    -0.501 OA
ATOM     12  H   UNL     1      36.562 -23.100 -15.910  0.00  0.00    +0.292 HD
ENDBRANCH   4  11
BRANCH   1  13
ATOM     13  C   UNL     1      30.440 -23.360 -15.717  0.00  0.00    +0.007 C 
ATOM     14  C   UNL     1      29.675 -22.778 -16.669  0.00  0.00    +0.082 C 
BRANCH  14  16
ATOM     15  O   UNL     1      27.598 -22.028 -15.705  0.00  0.00    -0.245 OA
ATOM     16  C   UNL     1      28.209 -22.717 -16.504  0.00  0.00    +0.338 C 
BRANCH  16  17
ATOM     17  O   UNL     1      27.637 -23.561 -17.395  0.00  0.00    -0.477 OA
ATOM     18  H   UNL     1      28.003 -23.653 -18.253  0.00  0.00    +0.295 HD
ENDBRANCH  16  17
ENDBRANCH  14  16
ENDBRANCH   1  13
TORSDOF 6
ENDMDL
