MODEL 1
REMARK VINA RESULT:     -10.4      0.000      0.000
REMARK  Name = 688859
REMARK  2 active torsions:
REMARK  status: ('A' for Active; 'I' for Inactive)
REMARK    1  A    between atoms: C_3  and  C_12
REMARK    2  A    between atoms: C_17  and  O_18
REMARK                            x       y       z     vdW  Elec       q    Type
REMARK                         _______ _______ _______ _____ _____    ______ ____
ROOT
ATOM      1  O   UNL     1      34.544 -17.546 -21.276  0.00  0.00    -0.474 OA
ATOM      2  O   UNL     1      34.678 -18.052 -25.345  0.00  0.00    -0.291 OA
ATOM      3  C   UNL     1      34.129 -18.783 -21.876  0.00  0.00    +0.196 C 
ATOM      4  C   UNL     1      34.892 -19.048 -23.173  0.00  0.00    +0.117 C 
ATOM      5  C   UNL     1      34.645 -17.910 -24.128  0.00  0.00    +0.180 C 
ATOM      6  C   UNL     1      34.430 -16.583 -23.514  0.00  0.00    +0.069 C 
ATOM      7  C   UNL     1      34.414 -16.473 -22.121  0.00  0.00    +0.142 C 
ATOM      8  C   UNL     1      34.288 -15.446 -24.313  0.00  0.00    +0.006 C 
ATOM      9  C   UNL     1      34.289 -15.218 -21.524  0.00  0.00    +0.037 C 
ATOM     10  C   UNL     1      34.143 -14.195 -23.711  0.00  0.00    +0.000 C 
ATOM     11  C   UNL     1      34.149 -14.081 -22.321  0.00  0.00    +0.003 C 
ENDROOT
BRANCH   3  12
ATOM     12  C   UNL     1      34.350 -19.898 -20.876  0.00  0.00    +0.018 C 
ATOM     13  C   UNL     1      33.258 -20.504 -20.255  0.00  0.00    +0.002 C 
ATOM     14  C   UNL     1      35.646 -20.319 -20.577  0.00  0.00    +0.002 C 
ATOM     15  C   UNL     1      33.462 -21.531 -19.334  0.00  0.00    +0.036 C 
ATOM     16  C   UNL     1      35.850 -21.346 -19.655  0.00  0.00    +0.036 C 
ATOM     17  C   UNL     1      34.758 -21.953 -19.034  0.00  0.00    +0.134 C 
BRANCH  17  18
ATOM     18  O   UNL     1      34.956 -22.955 -18.135  0.00  0.00    -0.506 OA
ATOM     19  H   UNL     1      35.785 -23.389 -18.091  0.00  0.00    +0.292 HD
ENDBRANCH  17  18
ENDBRANCH   3  12
TORSDOF 2
ENDMDL
MODEL 2
REMARK VINA RESULT:     -10.4      0.039      1.140
REMARK  Name = 688859
REMARK  2 active torsions:
REMARK  status: ('A' for Active; 'I' for Inactive)
REMARK    1  A    between atoms: C_3  and  C_12
REMARK    2  A    between atoms: C_17  and  O_18
REMARK                            x       y       z     vdW  Elec       q    Type
REMARK                         _______ _______ _______ _____ _____    ______ ____
ROOT
ATOM      1  O   UNL     1      34.553 -17.531 -21.303  0.00  0.00    -0.474 OA
ATOM      2  O   UNL     1      34.640 -18.064 -25.369  0.00  0.00    -0.291 OA
ATOM      3  C   UNL     1      34.130 -18.772 -21.889  0.00  0.00    +0.196 C 
ATOM      4  C   UNL     1      34.877 -19.045 -23.193  0.00  0.00    +0.117 C 
ATOM      5  C   UNL     1      34.621 -17.913 -24.153  0.00  0.00    +0.180 C 
ATOM      6  C   UNL     1      34.414 -16.582 -23.545  0.00  0.00    +0.069 C 
ATOM      7  C   UNL     1      34.414 -16.463 -22.153  0.00  0.00    +0.142 C 
ATOM      8  C   UNL     1      34.264 -15.451 -24.350  0.00  0.00    +0.006 C 
ATOM      9  C   UNL     1      34.298 -15.204 -21.563  0.00  0.00    +0.037 C 
ATOM     10  C   UNL     1      34.127 -14.196 -23.755  0.00  0.00    +0.000 C 
ATOM     11  C   UNL     1      34.149 -14.072 -22.366  0.00  0.00    +0.003 C 
ENDROOT
BRANCH   3  12
ATOM     12  C   UNL     1      34.362 -19.880 -20.885  0.00  0.00    +0.018 C 
ATOM     13  C   UNL     1      35.662 -20.291 -20.589  0.00  0.00    +0.002 C 
ATOM     14  C   UNL     1      33.277 -20.489 -20.255  0.00  0.00    +0.002 C 
ATOM     15  C   UNL     1      35.876 -21.311 -19.663  0.00  0.00    +0.036 C 
ATOM     16  C   UNL     1      33.491 -21.510 -19.329  0.00  0.00    +0.036 C 
ATOM     17  C   UNL     1      34.791 -21.922 -19.033  0.00  0.00    +0.134 C 
BRANCH  17  18
ATOM     18  O   UNL     1      35.002 -22.918 -18.130  0.00  0.00    -0.506 OA
ATOM     19  H   UNL     1      34.359 -23.098 -17.473  0.00  0.00    +0.292 HD
ENDBRANCH  17  18
ENDBRANCH   3  12
TORSDOF 2
ENDMDL
MODEL 3
REMARK VINA RESULT:      -9.9      1.976      6.450
REMARK  Name = 688859
REMARK  2 active torsions:
REMARK  status: ('A' for Active; 'I' for Inactive)
REMARK    1  A    between atoms: C_3  and  C_12
REMARK    2  A    between atoms: C_17  and  O_18
REMARK                            x       y       z     vdW  Elec       q    Type
REMARK                         _______ _______ _______ _____ _____    ______ ____
ROOT
ATOM      1  O   UNL     1      33.703 -18.471 -21.110  0.00  0.00    -0.474 OA
ATOM      2  O   UNL     1      37.705 -19.375 -21.060  0.00  0.00    -0.291 OA
ATOM      3  C   UNL     1      34.690 -17.429 -21.049  0.00  0.00    +0.196 C 
ATOM      4  C   UNL     1      35.981 -17.854 -21.747  0.00  0.00    +0.117 C 
ATOM      5  C   UNL     1      36.511 -19.099 -21.084  0.00  0.00    +0.180 C 
ATOM      6  C   UNL     1      35.498 -20.015 -20.521  0.00  0.00    +0.069 C 
ATOM      7  C   UNL     1      34.148 -19.659 -20.586  0.00  0.00    +0.142 C 
ATOM      8  C   UNL     1      35.878 -21.241 -19.971  0.00  0.00    +0.006 C 
ATOM      9  C   UNL     1      33.173 -20.546 -20.129  0.00  0.00    +0.037 C 
ATOM     10  C   UNL     1      34.900 -22.116 -19.496  0.00  0.00    +0.000 C 
ATOM     11  C   UNL     1      33.551 -21.772 -19.580  0.00  0.00    +0.003 C 
ENDROOT
BRANCH   3  12
ATOM     12  C   UNL     1      34.111 -16.184 -21.684  0.00  0.00    +0.018 C 
ATOM     13  C   UNL     1      34.693 -15.655 -22.836  0.00  0.00    +0.002 C 
ATOM     14  C   UNL     1      32.995 -15.567 -21.119  0.00  0.00    +0.002 C 
ATOM     15  C   UNL     1      34.159 -14.507 -23.422  0.00  0.00    +0.036 C 
ATOM     16  C   UNL     1      32.462 -14.419 -21.705  0.00  0.00    +0.036 C 
ATOM     17  C   UNL     1      33.044 -13.889 -22.857  0.00  0.00    +0.134 C 
BRANCH  17  18
ATOM     18  O   UNL     1      32.524 -12.769 -23.430  0.00  0.00    -0.506 OA
ATOM     19  H   UNL     1      32.406 -11.992 -22.920  0.00  0.00    +0.292 HD
ENDBRANCH  17  18
ENDBRANCH   3  12
TORSDOF 2
ENDMDL
MODEL 4
REMARK VINA RESULT:      -9.9      1.971      6.369
REMARK  Name = 688859
REMARK  2 active torsions:
REMARK  status: ('A' for Active; 'I' for Inactive)
REMARK    1  A    between atoms: C_3  and  C_12
REMARK    2  A    between atoms: C_17  and  O_18
REMARK                            x       y       z     vdW  Elec       q    Type
REMARK                         _______ _______ _______ _____ _____    ______ ____
ROOT
ATOM      1  O   UNL     1      33.701 -18.493 -21.109  0.00  0.00    -0.474 OA
ATOM      2  O   UNL     1      37.703 -19.392 -21.049  0.00  0.00    -0.291 OA
ATOM      3  C   UNL     1      34.686 -17.450 -21.050  0.00  0.00    +0.196 C 
ATOM      4  C   UNL     1      35.979 -17.876 -21.744  0.00  0.00    +0.117 C 
ATOM      5  C   UNL     1      36.509 -19.117 -21.076  0.00  0.00    +0.180 C 
ATOM      6  C   UNL     1      35.496 -20.033 -20.512  0.00  0.00    +0.069 C 
ATOM      7  C   UNL     1      34.146 -19.678 -20.581  0.00  0.00    +0.142 C 
ATOM      8  C   UNL     1      35.877 -21.256 -19.957  0.00  0.00    +0.006 C 
ATOM      9  C   UNL     1      33.171 -20.565 -20.122  0.00  0.00    +0.037 C 
ATOM     10  C   UNL     1      34.899 -22.131 -19.481  0.00  0.00    +0.000 C 
ATOM     11  C   UNL     1      33.549 -21.789 -19.569  0.00  0.00    +0.003 C 
ENDROOT
BRANCH   3  12
ATOM     12  C   UNL     1      34.107 -16.207 -21.691  0.00  0.00    +0.018 C 
ATOM     13  C   UNL     1      32.995 -15.585 -21.123  0.00  0.00    +0.002 C 
ATOM     14  C   UNL     1      34.685 -15.685 -22.847  0.00  0.00    +0.002 C 
ATOM     15  C   UNL     1      32.462 -14.439 -21.713  0.00  0.00    +0.036 C 
ATOM     16  C   UNL     1      34.150 -14.539 -23.438  0.00  0.00    +0.036 C 
ATOM     17  C   UNL     1      33.038 -13.916 -22.870  0.00  0.00    +0.134 C 
BRANCH  17  18
ATOM     18  O   UNL     1      32.517 -12.799 -23.445  0.00  0.00    -0.506 OA
ATOM     19  H   UNL     1      32.359 -12.776 -24.369  0.00  0.00    +0.292 HD
ENDBRANCH  17  18
ENDBRANCH   3  12
TORSDOF 2
ENDMDL
MODEL 5
REMARK VINA RESULT:      -9.8      1.101      1.226
REMARK  Name = 688859
REMARK  2 active torsions:
REMARK  status: ('A' for Active; 'I' for Inactive)
REMARK    1  A    between atoms: C_3  and  C_12
REMARK    2  A    between atoms: C_17  and  O_18
REMARK                            x       y       z     vdW  Elec       q    Type
REMARK                         _______ _______ _______ _____ _____    ______ ____
ROOT
ATOM      1  O   UNL     1      34.238 -16.900 -21.172  0.00  0.00    -0.474 OA
ATOM      2  O   UNL     1      34.982 -16.653 -25.198  0.00  0.00    -0.291 OA
ATOM      3  C   UNL     1      34.387 -18.088 -21.964  0.00  0.00    +0.196 C 
ATOM      4  C   UNL     1      35.326 -17.845 -23.145  0.00  0.00    +0.117 C 
ATOM      5  C   UNL     1      34.769 -16.733 -23.994  0.00  0.00    +0.180 C 
ATOM      6  C   UNL     1      34.004 -15.691 -23.277  0.00  0.00    +0.069 C 
ATOM      7  C   UNL     1      33.801 -15.823 -21.901  0.00  0.00    +0.142 C 
ATOM      8  C   UNL     1      33.527 -14.568 -23.957  0.00  0.00    +0.006 C 
ATOM      9  C   UNL     1      33.147 -14.812 -21.195  0.00  0.00    +0.037 C 
ATOM     10  C   UNL     1      32.857 -13.569 -23.250  0.00  0.00    +0.000 C 
ATOM     11  C   UNL     1      32.672 -13.688 -21.872  0.00  0.00    +0.003 C 
ENDROOT
BRANCH   3  12
ATOM     12  C   UNL     1      34.908 -19.195 -21.073  0.00  0.00    +0.018 C 
ATOM     13  C   UNL     1      34.025 -20.140 -20.549  0.00  0.00    +0.002 C 
ATOM     14  C   UNL     1      36.268 -19.271 -20.776  0.00  0.00    +0.002 C 
ATOM     15  C   UNL     1      34.505 -21.161 -19.729  0.00  0.00    +0.036 C 
ATOM     16  C   UNL     1      36.748 -20.291 -19.955  0.00  0.00    +0.036 C 
ATOM     17  C   UNL     1      35.865 -21.237 -19.431  0.00  0.00    +0.134 C 
BRANCH  17  18
ATOM     18  O   UNL     1      36.332 -22.233 -18.630  0.00  0.00    -0.506 OA
ATOM     19  H   UNL     1      37.253 -22.395 -18.571  0.00  0.00    +0.292 HD
ENDBRANCH  17  18
ENDBRANCH   3  12
TORSDOF 2
ENDMDL
MODEL 6
REMARK VINA RESULT:      -9.6      3.214      7.362
REMARK  Name = 688859
REMARK  2 active torsions:
REMARK  status: ('A' for Active; 'I' for Inactive)
REMARK    1  A    between atoms: C_3  and  C_12
REMARK    2  A    between atoms: C_17  and  O_18
REMARK                            x       y       z     vdW  Elec       q    Type
REMARK                         _______ _______ _______ _____ _____    ______ ____
ROOT
ATOM      1  O   UNL     1      33.911 -14.822 -22.319  0.00  0.00    -0.474 OA
ATOM      2  O   UNL     1      34.188 -16.641 -25.986  0.00  0.00    -0.291 OA
ATOM      3  C   UNL     1      34.009 -14.041 -23.520  0.00  0.00    +0.196 C 
ATOM      4  C   UNL     1      33.387 -14.776 -24.705  0.00  0.00    +0.117 C 
ATOM      5  C   UNL     1      34.096 -16.092 -24.894  0.00  0.00    +0.180 C 
ATOM      6  C   UNL     1      34.617 -16.729 -23.666  0.00  0.00    +0.069 C 
ATOM      7  C   UNL     1      34.475 -16.066 -22.444  0.00  0.00    +0.142 C 
ATOM      8  C   UNL     1      35.206 -17.994 -23.719  0.00  0.00    +0.006 C 
ATOM      9  C   UNL     1      34.893 -16.687 -21.265  0.00  0.00    +0.037 C 
ATOM     10  C   UNL     1      35.640 -18.601 -22.540  0.00  0.00    +0.000 C 
ATOM     11  C   UNL     1      35.480 -17.952 -21.316  0.00  0.00    +0.003 C 
ENDROOT
BRANCH   3  12
ATOM     12  C   UNL     1      33.325 -12.712 -23.283  0.00  0.00    +0.018 C 
ATOM     13  C   UNL     1      32.243 -12.632 -22.406  0.00  0.00    +0.002 C 
ATOM     14  C   UNL     1      33.777 -11.568 -23.940  0.00  0.00    +0.002 C 
ATOM     15  C   UNL     1      31.612 -11.407 -22.187  0.00  0.00    +0.036 C 
ATOM     16  C   UNL     1      33.146 -10.343 -23.721  0.00  0.00    +0.036 C 
ATOM     17  C   UNL     1      32.063 -10.263 -22.845  0.00  0.00    +0.134 C 
BRANCH  17  18
ATOM     18  O   UNL     1      31.447  -9.068 -22.630  0.00  0.00    -0.506 OA
ATOM     19  H   UNL     1      31.717  -8.309 -23.109  0.00  0.00    +0.292 HD
ENDBRANCH  17  18
ENDBRANCH   3  12
TORSDOF 2
ENDMDL
MODEL 7
REMARK VINA RESULT:      -9.6      3.154      7.360
REMARK  Name = 688859
REMARK  2 active torsions:
REMARK  status: ('A' for Active; 'I' for Inactive)
REMARK    1  A    between atoms: C_3  and  C_12
REMARK    2  A    between atoms: C_17  and  O_18
REMARK                            x       y       z     vdW  Elec       q    Type
REMARK                         _______ _______ _______ _____ _____    ______ ____
ROOT
ATOM      1  O   UNL     1      33.946 -14.916 -22.254  0.00  0.00    -0.474 OA
ATOM      2  O   UNL     1      34.314 -16.716 -25.922  0.00  0.00    -0.291 OA
ATOM      3  C   UNL     1      34.064 -14.128 -23.450  0.00  0.00    +0.196 C 
ATOM      4  C   UNL     1      33.473 -14.864 -24.651  0.00  0.00    +0.117 C 
ATOM      5  C   UNL     1      34.195 -16.173 -24.830  0.00  0.00    +0.180 C 
ATOM      6  C   UNL     1      34.695 -16.811 -23.595  0.00  0.00    +0.069 C 
ATOM      7  C   UNL     1      34.522 -16.155 -22.372  0.00  0.00    +0.142 C 
ATOM      8  C   UNL     1      35.294 -18.072 -23.640  0.00  0.00    +0.006 C 
ATOM      9  C   UNL     1      34.919 -16.778 -21.188  0.00  0.00    +0.037 C 
ATOM     10  C   UNL     1      35.708 -18.681 -22.455  0.00  0.00    +0.000 C 
ATOM     11  C   UNL     1      35.516 -18.038 -21.231  0.00  0.00    +0.003 C 
ENDROOT
BRANCH   3  12
ATOM     12  C   UNL     1      33.365 -12.805 -23.222  0.00  0.00    +0.018 C 
ATOM     13  C   UNL     1      33.781 -11.670 -23.916  0.00  0.00    +0.002 C 
ATOM     14  C   UNL     1      32.305 -12.723 -22.319  0.00  0.00    +0.002 C 
ATOM     15  C   UNL     1      33.136 -10.451 -23.707  0.00  0.00    +0.036 C 
ATOM     16  C   UNL     1      31.661 -11.503 -22.109  0.00  0.00    +0.036 C 
ATOM     17  C   UNL     1      32.077 -10.367 -22.804  0.00  0.00    +0.134 C 
BRANCH  17  18
ATOM     18  O   UNL     1      31.448  -9.177 -22.600  0.00  0.00    -0.506 OA
ATOM     19  H   UNL     1      31.434  -8.794 -21.745  0.00  0.00    +0.292 HD
ENDBRANCH  17  18
ENDBRANCH   3  12
TORSDOF 2
ENDMDL
MODEL 8
REMARK VINA RESULT:      -9.4      3.151      7.492
REMARK  Name = 688859
REMARK  2 active torsions:
REMARK  status: ('A' for Active; 'I' for Inactive)
REMARK    1  A    between atoms: C_3  and  C_12
REMARK    2  A    between atoms: C_17  and  O_18
REMARK                            x       y       z     vdW  Elec       q    Type
REMARK                         _______ _______ _______ _____ _____    ______ ____
ROOT
ATOM      1  O   UNL     1      33.719 -14.826 -23.790  0.00  0.00    -0.474 OA
ATOM      2  O   UNL     1      35.144 -16.609 -20.382  0.00  0.00    -0.291 OA
ATOM      3  C   UNL     1      33.246 -14.419 -22.497  0.00  0.00    +0.196 C 
ATOM      4  C   UNL     1      34.324 -14.614 -21.432  0.00  0.00    +0.117 C 
ATOM      5  C   UNL     1      34.722 -16.067 -21.396  0.00  0.00    +0.180 C 
ATOM      6  C   UNL     1      34.643 -16.792 -22.681  0.00  0.00    +0.069 C 
ATOM      7  C   UNL     1      34.166 -16.122 -23.812  0.00  0.00    +0.142 C 
ATOM      8  C   UNL     1      35.079 -18.115 -22.777  0.00  0.00    +0.006 C 
ATOM      9  C   UNL     1      34.157 -16.768 -25.049  0.00  0.00    +0.037 C 
ATOM     10  C   UNL     1      35.049 -18.763 -24.012  0.00  0.00    +0.000 C 
ATOM     11  C   UNL     1      34.595 -18.090 -25.147  0.00  0.00    +0.003 C 
ENDROOT
BRANCH   3  12
ATOM     12  C   UNL     1      32.816 -12.970 -22.578  0.00  0.00    +0.018 C 
ATOM     13  C   UNL     1      31.840 -12.483 -21.708  0.00  0.00    +0.002 C 
ATOM     14  C   UNL     1      33.395 -12.123 -23.522  0.00  0.00    +0.002 C 
ATOM     15  C   UNL     1      31.445 -11.148 -21.783  0.00  0.00    +0.036 C 
ATOM     16  C   UNL     1      32.999 -10.787 -23.597  0.00  0.00    +0.036 C 
ATOM     17  C   UNL     1      32.023 -10.300 -22.727  0.00  0.00    +0.134 C 
BRANCH  17  18
ATOM     18  O   UNL     1      31.636  -8.997 -22.799  0.00  0.00    -0.506 OA
ATOM     19  H   UNL     1      31.621  -8.469 -22.025  0.00  0.00    +0.292 HD
ENDBRANCH  17  18
ENDBRANCH   3  12
TORSDOF 2
ENDMDL
MODEL 9
REMARK VINA RESULT:      -9.3      1.351      2.696
REMARK  Name = 688859
REMARK  2 active torsions:
REMARK  status: ('A' for Active; 'I' for Inactive)
REMARK    1  A    between atoms: C_3  and  C_12
REMARK    2  A    between atoms: C_17  and  O_18
REMARK                            x       y       z     vdW  Elec       q    Type
REMARK                         _______ _______ _______ _____ _____    ______ ____
ROOT
ATOM      1  O   UNL     1      34.378 -19.276 -22.559  0.00  0.00    -0.474 OA
ATOM      2  O   UNL     1      34.825 -15.421 -21.230  0.00  0.00    -0.291 OA
ATOM      3  C   UNL     1      35.009 -19.003 -21.298  0.00  0.00    +0.196 C 
ATOM      4  C   UNL     1      34.454 -17.724 -20.673  0.00  0.00    +0.117 C 
ATOM      5  C   UNL     1      34.686 -16.575 -21.618  0.00  0.00    +0.180 C 
ATOM      6  C   UNL     1      34.664 -16.906 -23.058  0.00  0.00    +0.069 C 
ATOM      7  C   UNL     1      34.489 -18.237 -23.447  0.00  0.00    +0.142 C 
ATOM      8  C   UNL     1      34.773 -15.898 -24.019  0.00  0.00    +0.006 C 
ATOM      9  C   UNL     1      34.389 -18.556 -24.802  0.00  0.00    +0.037 C 
ATOM     10  C   UNL     1      34.693 -16.226 -25.373  0.00  0.00    +0.000 C 
ATOM     11  C   UNL     1      34.496 -17.551 -25.763  0.00  0.00    +0.003 C 
ENDROOT
BRANCH   3  12
ATOM     12  C   UNL     1      34.793 -20.193 -20.388  0.00  0.00    +0.018 C 
ATOM     13  C   UNL     1      35.889 -20.849 -19.827  0.00  0.00    +0.002 C 
ATOM     14  C   UNL     1      33.499 -20.633 -20.109  0.00  0.00    +0.002 C 
ATOM     15  C   UNL     1      35.691 -21.945 -18.988  0.00  0.00    +0.036 C 
ATOM     16  C   UNL     1      33.301 -21.730 -19.271  0.00  0.00    +0.036 C 
ATOM     17  C   UNL     1      34.397 -22.386 -18.710  0.00  0.00    +0.134 C 
BRANCH  17  18
ATOM     18  O   UNL     1      34.204 -23.456 -17.891  0.00  0.00    -0.506 OA
ATOM     19  H   UNL     1      33.458 -24.009 -18.010  0.00  0.00    +0.292 HD
ENDBRANCH  17  18
ENDBRANCH   3  12
TORSDOF 2
ENDMDL
