MODEL 1
REMARK VINA RESULT:      -5.8      0.000      0.000
REMARK  Name = 445025
REMARK  10 active torsions:
REMARK  status: ('A' for Active; 'I' for Inactive)
REMARK    1  A    between atoms: C_1  and  N_2
REMARK    2  A    between atoms: C_1  and  C_6
REMARK    3  A    between atoms: C_1  and  C_12
REMARK    4  A    between atoms: C_6  and  N_8
REMARK    5  A    between atoms: C_12  and  C_13
REMARK    6  A    between atoms: C_13  and  C_14
REMARK    7  A    between atoms: C_14  and  C_15
REMARK    8  A    between atoms: C_15  and  C_16
REMARK    9  A    between atoms: C_16  and  C_18
REMARK   10  A    between atoms: C_18  and  O_19
REMARK                            x       y       z     vdW  Elec       q    Type
REMARK                         _______ _______ _______ _____ _____    ______ ____
ROOT
ATOM      1  C   UNL     1      34.980 -18.278 -22.119  0.00  0.00    -0.086 C 
ENDROOT
BRANCH   1   2
ATOM      2  N   UNL     1      36.095 -18.170 -23.066  0.00  0.00    +0.380 N 
ATOM      3  H   UNL     1      35.770 -18.407 -24.003  0.00  0.00    -0.089 HD
ATOM      4  H   UNL     1      36.838 -18.813 -22.792  0.00  0.00    -0.089 HD
ATOM      5  H   UNL     1      36.453 -17.215 -23.062  0.00  0.00    -0.089 HD
ENDBRANCH   1   2
BRANCH   1   6
ATOM      6  C   UNL     1      34.997 -19.648 -21.391  0.00  0.00    -0.086 C 
ATOM      7  C   UNL     1      33.663 -19.980 -20.714  0.00  0.00    -0.026 C 
BRANCH   6   8
ATOM      8  N   UNL     1      36.048 -19.660 -20.366  0.00  0.00    +0.380 N 
ATOM      9  H   UNL     1      36.384 -18.710 -20.212  0.00  0.00    -0.089 HD
ATOM     10  H   UNL     1      36.820 -20.248 -20.679  0.00  0.00    -0.089 HD
ATOM     11  H   UNL     1      35.669 -20.032 -19.495  0.00  0.00    -0.089 HD
ENDBRANCH   6   8
ENDBRANCH   1   6
BRANCH   1  12
ATOM     12  C   UNL     1      34.975 -17.055 -21.171  0.00  0.00    -0.024 C 
BRANCH  12  13
ATOM     13  C   UNL     1      33.785 -16.088 -21.242  0.00  0.00    -0.002 C 
BRANCH  13  14
ATOM     14  C   UNL     1      34.099 -14.725 -21.861  0.00  0.00    +0.000 C 
BRANCH  14  15
ATOM     15  C   UNL     1      34.602 -14.876 -23.301  0.00  0.00    +0.012 C 
BRANCH  15  16
ATOM     16  C   UNL     1      33.478 -15.218 -24.280  0.00  0.00    +0.109 C 
BRANCH  16  18
ATOM     17  O   UNL     1      34.638 -16.989 -25.490  0.00  0.00    -0.250 OA
ATOM     18  C   UNL     1      33.959 -15.974 -25.495  0.00  0.00    +0.314 C 
BRANCH  18  19
ATOM     19  O   UNL     1      33.499 -15.380 -26.626  0.00  0.00    -0.480 OA
ATOM     20  H   UNL     1      33.492 -15.854 -27.435  0.00  0.00    +0.295 HD
ENDBRANCH  18  19
ENDBRANCH  16  18
ENDBRANCH  15  16
ENDBRANCH  14  15
ENDBRANCH  13  14
ENDBRANCH  12  13
ENDBRANCH   1  12
TORSDOF 10
ENDMDL
MODEL 2
REMARK VINA RESULT:      -5.7      7.263      9.190
REMARK  Name = 445025
REMARK  10 active torsions:
REMARK  status: ('A' for Active; 'I' for Inactive)
REMARK    1  A    between atoms: C_1  and  N_2
REMARK    2  A    between atoms: C_1  and  C_6
REMARK    3  A    between atoms: C_1  and  C_12
REMARK    4  A    between atoms: C_6  and  N_8
REMARK    5  A    between atoms: C_12  and  C_13
REMARK    6  A    between atoms: C_13  and  C_14
REMARK    7  A    between atoms: C_14  and  C_15
REMARK    8  A    between atoms: C_15  and  C_16
REMARK    9  A    between atoms: C_16  and  C_18
REMARK   10  A    between atoms: C_18  and  O_19
REMARK                            x       y       z     vdW  Elec       q    Type
REMARK                         _______ _______ _______ _____ _____    ______ ____
ROOT
ATOM      1  C   UNL     1      34.037 -22.567 -19.233  0.00  0.00    -0.086 C 
ENDROOT
BRANCH   1   2
ATOM      2  N   UNL     1      32.967 -21.739 -19.798  0.00  0.00    +0.380 N 
ATOM      3  H   UNL     1      32.491 -21.240 -19.047  0.00  0.00    -0.089 HD
ATOM      4  H   UNL     1      32.298 -22.334 -20.287  0.00  0.00    -0.089 HD
ATOM      5  H   UNL     1      33.367 -21.067 -20.453  0.00  0.00    -0.089 HD
ENDBRANCH   1   2
BRANCH   1   6
ATOM      6  C   UNL     1      35.419 -21.882 -19.395  0.00  0.00    -0.086 C 
ATOM      7  C   UNL     1      36.210 -21.814 -18.084  0.00  0.00    -0.026 C 
BRANCH   6   8
ATOM      8  N   UNL     1      35.248 -20.514 -19.899  0.00  0.00    +0.380 N 
ATOM      9  H   UNL     1      34.301 -20.193 -19.697  0.00  0.00    -0.089 HD
ATOM     10  H   UNL     1      35.403 -20.502 -20.907  0.00  0.00    -0.089 HD
ATOM     11  H   UNL     1      35.921 -19.897 -19.445  0.00  0.00    -0.089 HD
ENDBRANCH   6   8
ENDBRANCH   1   6
BRANCH   1  12
ATOM     12  C   UNL     1      33.688 -22.954 -17.775  0.00  0.00    -0.024 C 
BRANCH  12  13
ATOM     13  C   UNL     1      32.242 -22.752 -17.298  0.00  0.00    -0.002 C 
BRANCH  13  14
ATOM     14  C   UNL     1      31.927 -23.356 -15.929  0.00  0.00    +0.000 C 
BRANCH  14  15
ATOM     15  C   UNL     1      30.514 -22.975 -15.470  0.00  0.00    +0.012 C 
BRANCH  15  16
ATOM     16  C   UNL     1      29.457 -23.971 -15.947  0.00  0.00    +0.109 C 
BRANCH  16  18
ATOM     17  O   UNL     1      27.630 -23.983 -17.561  0.00  0.00    -0.250 OA
ATOM     18  C   UNL     1      28.483 -23.375 -16.934  0.00  0.00    +0.314 C 
BRANCH  18  19
ATOM     19  O   UNL     1      28.663 -22.031 -17.014  0.00  0.00    -0.480 OA
ATOM     20  H   UNL     1      28.184 -21.460 -16.445  0.00  0.00    +0.295 HD
ENDBRANCH  18  19
ENDBRANCH  16  18
ENDBRANCH  15  16
ENDBRANCH  14  15
ENDBRANCH  13  14
ENDBRANCH  12  13
ENDBRANCH   1  12
TORSDOF 10
ENDMDL
MODEL 3
REMARK VINA RESULT:      -5.7      4.225      6.380
REMARK  Name = 445025
REMARK  10 active torsions:
REMARK  status: ('A' for Active; 'I' for Inactive)
REMARK    1  A    between atoms: C_1  and  N_2
REMARK    2  A    between atoms: C_1  and  C_6
REMARK    3  A    between atoms: C_1  and  C_12
REMARK    4  A    between atoms: C_6  and  N_8
REMARK    5  A    between atoms: C_12  and  C_13
REMARK    6  A    between atoms: C_13  and  C_14
REMARK    7  A    between atoms: C_14  and  C_15
REMARK    8  A    between atoms: C_15  and  C_16
REMARK    9  A    between atoms: C_16  and  C_18
REMARK   10  A    between atoms: C_18  and  O_19
REMARK                            x       y       z     vdW  Elec       q    Type
REMARK                         _______ _______ _______ _____ _____    ______ ____
ROOT
ATOM      1  C   UNL     1      34.574 -16.658 -21.841  0.00  0.00    -0.086 C 
ENDROOT
BRANCH   1   2
ATOM      2  N   UNL     1      34.670 -15.804 -20.653  0.00  0.00    +0.380 N 
ATOM      3  H   UNL     1      33.801 -15.861 -20.122  0.00  0.00    -0.089 HD
ATOM      4  H   UNL     1      34.829 -14.838 -20.940  0.00  0.00    -0.089 HD
ATOM      5  H   UNL     1      35.446 -16.117 -20.071  0.00  0.00    -0.089 HD
ENDBRANCH   1   2
BRANCH   1   6
ATOM      6  C   UNL     1      34.987 -15.884 -23.121  0.00  0.00    -0.086 C 
ATOM      7  C   UNL     1      33.868 -14.990 -23.665  0.00  0.00    -0.026 C 
BRANCH   6   8
ATOM      8  N   UNL     1      35.376 -16.828 -24.176  0.00  0.00    +0.380 N 
ATOM      9  H   UNL     1      35.282 -17.782 -23.831  0.00  0.00    -0.089 HD
ATOM     10  H   UNL     1      36.345 -16.656 -24.445  0.00  0.00    -0.089 HD
ATOM     11  H   UNL     1      34.771 -16.699 -24.988  0.00  0.00    -0.089 HD
ENDBRANCH   6   8
ENDBRANCH   1   6
BRANCH   1  12
ATOM     12  C   UNL     1      35.363 -17.970 -21.610  0.00  0.00    -0.024 C 
BRANCH  12  13
ATOM     13  C   UNL     1      34.599 -19.299 -21.695  0.00  0.00    -0.002 C 
BRANCH  13  14
ATOM     14  C   UNL     1      33.322 -19.362 -20.855  0.00  0.00    +0.000 C 
BRANCH  14  15
ATOM     15  C   UNL     1      33.197 -20.713 -20.142  0.00  0.00    +0.012 C 
BRANCH  15  16
ATOM     16  C   UNL     1      34.548 -21.253 -19.673  0.00  0.00    +0.109 C 
BRANCH  16  18
ATOM     17  O   UNL     1      33.895 -23.594 -19.473  0.00  0.00    -0.250 OA
ATOM     18  C   UNL     1      34.449 -22.607 -19.014  0.00  0.00    +0.314 C 
BRANCH  18  19
ATOM     19  O   UNL     1      35.103 -22.596 -17.823  0.00  0.00    -0.480 OA
ATOM     20  H   UNL     1      34.678 -22.261 -17.058  0.00  0.00    +0.295 HD
ENDBRANCH  18  19
ENDBRANCH  16  18
ENDBRANCH  15  16
ENDBRANCH  14  15
ENDBRANCH  13  14
ENDBRANCH  12  13
ENDBRANCH   1  12
TORSDOF 10
ENDMDL
MODEL 4
REMARK VINA RESULT:      -5.7      1.852      2.617
REMARK  Name = 445025
REMARK  10 active torsions:
REMARK  status: ('A' for Active; 'I' for Inactive)
REMARK    1  A    between atoms: C_1  and  N_2
REMARK    2  A    between atoms: C_1  and  C_6
REMARK    3  A    between atoms: C_1  and  C_12
REMARK    4  A    between atoms: C_6  and  N_8
REMARK    5  A    between atoms: C_12  and  C_13
REMARK    6  A    between atoms: C_13  and  C_14
REMARK    7  A    between atoms: C_14  and  C_15
REMARK    8  A    between atoms: C_15  and  C_16
REMARK    9  A    between atoms: C_16  and  C_18
REMARK   10  A    between atoms: C_18  and  O_19
REMARK                            x       y       z     vdW  Elec       q    Type
REMARK                         _______ _______ _______ _____ _____    ______ ____
ROOT
ATOM      1  C   UNL     1      35.169 -18.460 -21.493  0.00  0.00    -0.086 C 
ENDROOT
BRANCH   1   2
ATOM      2  N   UNL     1      34.111 -17.463 -21.300  0.00  0.00    +0.380 N 
ATOM      3  H   UNL     1      33.930 -17.349 -20.302  0.00  0.00    -0.089 HD
ATOM      4  H   UNL     1      33.259 -17.776 -21.765  0.00  0.00    -0.089 HD
ATOM      5  H   UNL     1      34.407 -16.572 -21.696  0.00  0.00    -0.089 HD
ENDBRANCH   1   2
BRANCH   1   6
ATOM      6  C   UNL     1      34.692 -19.872 -21.062  0.00  0.00    -0.086 C 
ATOM      7  C   UNL     1      33.236 -19.890 -20.584  0.00  0.00    -0.026 C 
BRANCH   6   8
ATOM      8  N   UNL     1      35.538 -20.380 -19.976  0.00  0.00    +0.380 N 
ATOM      9  H   UNL     1      35.099 -20.175 -19.078  0.00  0.00    -0.089 HD
ATOM     10  H   UNL     1      36.452 -19.928 -20.019  0.00  0.00    -0.089 HD
ATOM     11  H   UNL     1      35.653 -21.388 -20.076  0.00  0.00    -0.089 HD
ENDBRANCH   6   8
ENDBRANCH   1   6
BRANCH   1  12
ATOM     12  C   UNL     1      35.700 -18.386 -22.946  0.00  0.00    -0.024 C 
BRANCH  12  13
ATOM     13  C   UNL     1      34.957 -19.177 -24.031  0.00  0.00    -0.002 C 
BRANCH  13  14
ATOM     14  C   UNL     1      34.217 -18.320 -25.059  0.00  0.00    +0.000 C 
BRANCH  14  15
ATOM     15  C   UNL     1      34.837 -16.922 -25.161  0.00  0.00    +0.012 C 
BRANCH  15  16
ATOM     16  C   UNL     1      33.788 -15.812 -25.092  0.00  0.00    +0.109 C 
BRANCH  16  18
ATOM     17  O   UNL     1      34.847 -14.980 -23.058  0.00  0.00    -0.250 OA
ATOM     18  C   UNL     1      33.957 -14.911 -23.892  0.00  0.00    +0.314 C 
BRANCH  18  19
ATOM     19  O   UNL     1      32.981 -13.967 -23.876  0.00  0.00    -0.480 OA
ATOM     20  H   UNL     1      33.186 -13.085 -23.633  0.00  0.00    +0.295 HD
ENDBRANCH  18  19
ENDBRANCH  16  18
ENDBRANCH  15  16
ENDBRANCH  14  15
ENDBRANCH  13  14
ENDBRANCH  12  13
ENDBRANCH   1  12
TORSDOF 10
ENDMDL
MODEL 5
REMARK VINA RESULT:      -5.6      3.051      4.910
REMARK  Name = 445025
REMARK  10 active torsions:
REMARK  status: ('A' for Active; 'I' for Inactive)
REMARK    1  A    between atoms: C_1  and  N_2
REMARK    2  A    between atoms: C_1  and  C_6
REMARK    3  A    between atoms: C_1  and  C_12
REMARK    4  A    between atoms: C_6  and  N_8
REMARK    5  A    between atoms: C_12  and  C_13
REMARK    6  A    between atoms: C_13  and  C_14
REMARK    7  A    between atoms: C_14  and  C_15
REMARK    8  A    between atoms: C_15  and  C_16
REMARK    9  A    between atoms: C_16  and  C_18
REMARK   10  A    between atoms: C_18  and  O_19
REMARK                            x       y       z     vdW  Elec       q    Type
REMARK                         _______ _______ _______ _____ _____    ______ ____
ROOT
ATOM      1  C   UNL     1      34.393 -14.991 -23.157  0.00  0.00    -0.086 C 
ENDROOT
BRANCH   1   2
ATOM      2  N   UNL     1      34.266 -13.535 -23.280  0.00  0.00    +0.380 N 
ATOM      3  H   UNL     1      34.340 -13.269 -24.262  0.00  0.00    -0.089 HD
ATOM      4  H   UNL     1      35.011 -13.082 -22.749  0.00  0.00    -0.089 HD
ATOM      5  H   UNL     1      33.361 -13.241 -22.914  0.00  0.00    -0.089 HD
ENDBRANCH   1   2
BRANCH   1   6
ATOM      6  C   UNL     1      33.726 -15.503 -21.854  0.00  0.00    -0.086 C 
ATOM      7  C   UNL     1      32.627 -14.567 -21.339  0.00  0.00    -0.026 C 
BRANCH   6   8
ATOM      8  N   UNL     1      34.734 -15.652 -20.797  0.00  0.00    +0.380 N 
ATOM      9  H   UNL     1      35.434 -16.334 -21.089  0.00  0.00    -0.089 HD
ATOM     10  H   UNL     1      34.282 -15.973 -19.941  0.00  0.00    -0.089 HD
ATOM     11  H   UNL     1      35.185 -14.753 -20.626  0.00  0.00    -0.089 HD
ENDBRANCH   6   8
ENDBRANCH   1   6
BRANCH   1  12
ATOM     12  C   UNL     1      33.875 -15.673 -24.446  0.00  0.00    -0.024 C 
BRANCH  12  13
ATOM     13  C   UNL     1      34.791 -16.685 -25.150  0.00  0.00    -0.002 C 
BRANCH  13  14
ATOM     14  C   UNL     1      34.583 -18.141 -24.729  0.00  0.00    +0.000 C 
BRANCH  14  15
ATOM     15  C   UNL     1      35.408 -18.477 -23.481  0.00  0.00    +0.012 C 
BRANCH  15  16
ATOM     16  C   UNL     1      34.665 -19.409 -22.524  0.00  0.00    +0.109 C 
BRANCH  16  18
ATOM     17  O   UNL     1      35.889 -18.424 -20.658  0.00  0.00    -0.250 OA
ATOM     18  C   UNL     1      35.102 -19.255 -21.087  0.00  0.00    +0.314 C 
BRANCH  18  19
ATOM     19  O   UNL     1      34.466 -20.164 -20.304  0.00  0.00    -0.480 OA
ATOM     20  H   UNL     1      33.537 -20.114 -20.189  0.00  0.00    +0.295 HD
ENDBRANCH  18  19
ENDBRANCH  16  18
ENDBRANCH  15  16
ENDBRANCH  14  15
ENDBRANCH  13  14
ENDBRANCH  12  13
ENDBRANCH   1  12
TORSDOF 10
ENDMDL
MODEL 6
REMARK VINA RESULT:      -5.5      2.000      2.795
REMARK  Name = 445025
REMARK  10 active torsions:
REMARK  status: ('A' for Active; 'I' for Inactive)
REMARK    1  A    between atoms: C_1  and  N_2
REMARK    2  A    between atoms: C_1  and  C_6
REMARK    3  A    between atoms: C_1  and  C_12
REMARK    4  A    between atoms: C_6  and  N_8
REMARK    5  A    between atoms: C_12  and  C_13
REMARK    6  A    between atoms: C_13  and  C_14
REMARK    7  A    between atoms: C_14  and  C_15
REMARK    8  A    between atoms: C_15  and  C_16
REMARK    9  A    between atoms: C_16  and  C_18
REMARK   10  A    between atoms: C_18  and  O_19
REMARK                            x       y       z     vdW  Elec       q    Type
REMARK                         _______ _______ _______ _____ _____    ______ ____
ROOT
ATOM      1  C   UNL     1      33.984 -20.056 -20.241  0.00  0.00    -0.086 C 
ENDROOT
BRANCH   1   2
ATOM      2  N   UNL     1      32.808 -20.911 -20.433  0.00  0.00    +0.380 N 
ATOM      3  H   UNL     1      31.987 -20.454 -20.035  0.00  0.00    -0.089 HD
ATOM      4  H   UNL     1      32.958 -21.805 -19.966  0.00  0.00    -0.089 HD
ATOM      5  H   UNL     1      32.660 -21.068 -21.429  0.00  0.00    -0.089 HD
ENDBRANCH   1   2
BRANCH   1   6
ATOM      6  C   UNL     1      35.282 -20.900 -20.159  0.00  0.00    -0.086 C 
ATOM      7  C   UNL     1      35.216 -21.994 -19.087  0.00  0.00    -0.026 C 
BRANCH   6   8
ATOM      8  N   UNL     1      36.429 -20.034 -19.862  0.00  0.00    +0.380 N 
ATOM      9  H   UNL     1      36.095 -19.117 -19.566  0.00  0.00    -0.089 HD
ATOM     10  H   UNL     1      37.004 -19.933 -20.699  0.00  0.00    -0.089 HD
ATOM     11  H   UNL     1      36.986 -20.450 -19.116  0.00  0.00    -0.089 HD
ENDBRANCH   6   8
ENDBRANCH   1   6
BRANCH   1  12
ATOM     12  C   UNL     1      34.012 -18.951 -21.326  0.00  0.00    -0.024 C 
BRANCH  12  13
ATOM     13  C   UNL     1      34.568 -19.310 -22.711  0.00  0.00    -0.002 C 
BRANCH  13  14
ATOM     14  C   UNL     1      35.669 -18.379 -23.224  0.00  0.00    +0.000 C 
BRANCH  14  15
ATOM     15  C   UNL     1      35.089 -17.030 -23.665  0.00  0.00    +0.012 C 
BRANCH  15  16
ATOM     16  C   UNL     1      34.595 -17.053 -25.112  0.00  0.00    +0.109 C 
BRANCH  16  18
ATOM     17  O   UNL     1      33.429 -15.514 -26.602  0.00  0.00    -0.250 OA
ATOM     18  C   UNL     1      33.774 -15.839 -25.477  0.00  0.00    +0.314 C 
BRANCH  18  19
ATOM     19  O   UNL     1      33.432 -15.153 -24.356  0.00  0.00    -0.480 OA
ATOM     20  H   UNL     1      34.019 -15.124 -23.626  0.00  0.00    +0.295 HD
ENDBRANCH  18  19
ENDBRANCH  16  18
ENDBRANCH  15  16
ENDBRANCH  14  15
ENDBRANCH  13  14
ENDBRANCH  12  13
ENDBRANCH   1  12
TORSDOF 10
ENDMDL
MODEL 7
REMARK VINA RESULT:      -5.5      2.665      3.537
REMARK  Name = 445025
REMARK  10 active torsions:
REMARK  status: ('A' for Active; 'I' for Inactive)
REMARK    1  A    between atoms: C_1  and  N_2
REMARK    2  A    between atoms: C_1  and  C_6
REMARK    3  A    between atoms: C_1  and  C_12
REMARK    4  A    between atoms: C_6  and  N_8
REMARK    5  A    between atoms: C_12  and  C_13
REMARK    6  A    between atoms: C_13  and  C_14
REMARK    7  A    between atoms: C_14  and  C_15
REMARK    8  A    between atoms: C_15  and  C_16
REMARK    9  A    between atoms: C_16  and  C_18
REMARK   10  A    between atoms: C_18  and  O_19
REMARK                            x       y       z     vdW  Elec       q    Type
REMARK                         _______ _______ _______ _____ _____    ______ ____
ROOT
ATOM      1  C   UNL     1      35.061 -20.080 -21.019  0.00  0.00    -0.086 C 
ENDROOT
BRANCH   1   2
ATOM      2  N   UNL     1      36.091 -19.215 -20.434  0.00  0.00    +0.380 N 
ATOM      3  H   UNL     1      36.248 -18.413 -21.044  0.00  0.00    -0.089 HD
ATOM      4  H   UNL     1      36.960 -19.741 -20.336  0.00  0.00    -0.089 HD
ATOM      5  H   UNL     1      35.784 -18.892 -19.518  0.00  0.00    -0.089 HD
ENDBRANCH   1   2
BRANCH   1   6
ATOM      6  C   UNL     1      34.080 -20.594 -19.933  0.00  0.00    -0.086 C 
ATOM      7  C   UNL     1      34.495 -21.947 -19.345  0.00  0.00    -0.026 C 
BRANCH   6   8
ATOM      8  N   UNL     1      32.732 -20.732 -20.497  0.00  0.00    +0.380 N 
ATOM      9  H   UNL     1      32.384 -21.674 -20.321  0.00  0.00    -0.089 HD
ATOM     10  H   UNL     1      32.766 -20.563 -21.502  0.00  0.00    -0.089 HD
ATOM     11  H   UNL     1      32.109 -20.053 -20.060  0.00  0.00    -0.089 HD
ENDBRANCH   6   8
ENDBRANCH   1   6
BRANCH   1  12
ATOM     12  C   UNL     1      34.375 -19.354 -22.201  0.00  0.00    -0.024 C 
BRANCH  12  13
ATOM     13  C   UNL     1      35.253 -18.880 -23.369  0.00  0.00    -0.002 C 
BRANCH  13  14
ATOM     14  C   UNL     1      34.775 -17.599 -24.055  0.00  0.00    +0.000 C 
BRANCH  14  15
ATOM     15  C   UNL     1      35.227 -16.356 -23.280  0.00  0.00    +0.012 C 
BRANCH  15  16
ATOM     16  C   UNL     1      34.092 -15.729 -22.470  0.00  0.00    +0.109 C 
BRANCH  16  18
ATOM     17  O   UNL     1      35.124 -16.439 -20.378  0.00  0.00    -0.250 OA
ATOM     18  C   UNL     1      34.371 -15.696 -20.987  0.00  0.00    +0.314 C 
BRANCH  18  19
ATOM     19  O   UNL     1      33.680 -14.682 -20.404  0.00  0.00    -0.480 OA
ATOM     20  H   UNL     1      33.098 -14.155 -20.918  0.00  0.00    +0.295 HD
ENDBRANCH  18  19
ENDBRANCH  16  18
ENDBRANCH  15  16
ENDBRANCH  14  15
ENDBRANCH  13  14
ENDBRANCH  12  13
ENDBRANCH   1  12
TORSDOF 10
ENDMDL
MODEL 8
REMARK VINA RESULT:      -5.5      3.827      6.161
REMARK  Name = 445025
REMARK  10 active torsions:
REMARK  status: ('A' for Active; 'I' for Inactive)
REMARK    1  A    between atoms: C_1  and  N_2
REMARK    2  A    between atoms: C_1  and  C_6
REMARK    3  A    between atoms: C_1  and  C_12
REMARK    4  A    between atoms: C_6  and  N_8
REMARK    5  A    between atoms: C_12  and  C_13
REMARK    6  A    between atoms: C_13  and  C_14
REMARK    7  A    between atoms: C_14  and  C_15
REMARK    8  A    between atoms: C_15  and  C_16
REMARK    9  A    between atoms: C_16  and  C_18
REMARK   10  A    between atoms: C_18  and  O_19
REMARK                            x       y       z     vdW  Elec       q    Type
REMARK                         _______ _______ _______ _____ _____    ______ ____
ROOT
ATOM      1  C   UNL     1      34.449 -18.215 -21.816  0.00  0.00    -0.086 C 
ENDROOT
BRANCH   1   2
ATOM      2  N   UNL     1      35.325 -17.851 -20.697  0.00  0.00    +0.380 N 
ATOM      3  H   UNL     1      36.242 -18.276 -20.831  0.00  0.00    -0.089 HD
ATOM      4  H   UNL     1      34.919 -18.187 -19.824  0.00  0.00    -0.089 HD
ATOM      5  H   UNL     1      35.422 -16.837 -20.658  0.00  0.00    -0.089 HD
ENDBRANCH   1   2
BRANCH   1   6
ATOM      6  C   UNL     1      35.172 -18.029 -23.175  0.00  0.00    -0.086 C 
ATOM      7  C   UNL     1      34.714 -19.033 -24.238  0.00  0.00    -0.026 C 
BRANCH   6   8
ATOM      8  N   UNL     1      36.623 -18.177 -22.999  0.00  0.00    +0.380 N 
ATOM      9  H   UNL     1      36.837 -19.140 -22.742  0.00  0.00    -0.089 HD
ATOM     10  H   UNL     1      36.941 -17.548 -22.261  0.00  0.00    -0.089 HD
ATOM     11  H   UNL     1      37.097 -17.944 -23.871  0.00  0.00    -0.089 HD
ENDBRANCH   6   8
ENDBRANCH   1   6
BRANCH   1  12
ATOM     12  C   UNL     1      33.874 -19.635 -21.592  0.00  0.00    -0.024 C 
BRANCH  12  13
ATOM     13  C   UNL     1      32.816 -19.824 -20.496  0.00  0.00    -0.002 C 
BRANCH  13  14
ATOM     14  C   UNL     1      33.082 -20.986 -19.538  0.00  0.00    +0.000 C 
BRANCH  14  15
ATOM     15  C   UNL     1      34.302 -21.800 -19.984  0.00  0.00    +0.012 C 
BRANCH  15  16
ATOM     16  C   UNL     1      35.297 -22.032 -18.846  0.00  0.00    +0.109 C 
BRANCH  16  18
ATOM     17  O   UNL     1      36.781 -20.334 -19.774  0.00  0.00    -0.250 OA
ATOM     18  C   UNL     1      36.430 -21.033 -18.837  0.00  0.00    +0.314 C 
BRANCH  18  19
ATOM     19  O   UNL     1      37.002 -20.988 -17.606  0.00  0.00    -0.480 OA
ATOM     20  H   UNL     1      37.228 -20.163 -17.224  0.00  0.00    +0.295 HD
ENDBRANCH  18  19
ENDBRANCH  16  18
ENDBRANCH  15  16
ENDBRANCH  14  15
ENDBRANCH  13  14
ENDBRANCH  12  13
ENDBRANCH   1  12
TORSDOF 10
ENDMDL
MODEL 9
REMARK VINA RESULT:      -5.5      5.076      7.585
REMARK  Name = 445025
REMARK  10 active torsions:
REMARK  status: ('A' for Active; 'I' for Inactive)
REMARK    1  A    between atoms: C_1  and  N_2
REMARK    2  A    between atoms: C_1  and  C_6
REMARK    3  A    between atoms: C_1  and  C_12
REMARK    4  A    between atoms: C_6  and  N_8
REMARK    5  A    between atoms: C_12  and  C_13
REMARK    6  A    between atoms: C_13  and  C_14
REMARK    7  A    between atoms: C_14  and  C_15
REMARK    8  A    between atoms: C_15  and  C_16
REMARK    9  A    between atoms: C_16  and  C_18
REMARK   10  A    between atoms: C_18  and  O_19
REMARK                            x       y       z     vdW  Elec       q    Type
REMARK                         _______ _______ _______ _____ _____    ______ ____
ROOT
ATOM      1  C   UNL     1      34.507 -18.189 -21.469  0.00  0.00    -0.086 C 
ENDROOT
BRANCH   1   2
ATOM      2  N   UNL     1      35.816 -18.271 -20.812  0.00  0.00    +0.380 N 
ATOM      3  H   UNL     1      36.548 -18.329 -21.519  0.00  0.00    -0.089 HD
ATOM      4  H   UNL     1      35.849 -19.103 -20.222  0.00  0.00    -0.089 HD
ATOM      5  H   UNL     1      35.961 -17.442 -20.238  0.00  0.00    -0.089 HD
ENDBRANCH   1   2
BRANCH   1   6
ATOM      6  C   UNL     1      34.659 -17.873 -22.980  0.00  0.00    -0.086 C 
ATOM      7  C   UNL     1      34.933 -19.121 -23.826  0.00  0.00    -0.026 C 
BRANCH   6   8
ATOM      8  N   UNL     1      35.761 -16.926 -23.188  0.00  0.00    +0.380 N 
ATOM      9  H   UNL     1      35.898 -16.776 -24.187  0.00  0.00    -0.089 HD
ATOM     10  H   UNL     1      36.616 -17.305 -22.780  0.00  0.00    -0.089 HD
ATOM     11  H   UNL     1      35.537 -16.038 -22.739  0.00  0.00    -0.089 HD
ENDBRANCH   6   8
ENDBRANCH   1   6
BRANCH   1  12
ATOM     12  C   UNL     1      33.687 -19.467 -21.167  0.00  0.00    -0.024 C 
BRANCH  12  13
ATOM     13  C   UNL     1      34.296 -20.514 -20.224  0.00  0.00    -0.002 C 
BRANCH  13  14
ATOM     14  C   UNL     1      33.278 -21.373 -19.472  0.00  0.00    +0.000 C 
BRANCH  14  15
ATOM     15  C   UNL     1      33.945 -22.610 -18.859  0.00  0.00    +0.012 C 
BRANCH  15  16
ATOM     16  C   UNL     1      33.217 -23.106 -17.609  0.00  0.00    +0.109 C 
BRANCH  16  18
ATOM     17  O   UNL     1      33.780 -23.521 -15.273  0.00  0.00    -0.250 OA
ATOM     18  C   UNL     1      34.127 -23.255 -16.414  0.00  0.00    +0.314 C 
BRANCH  18  19
ATOM     19  O   UNL     1      35.421 -23.082 -16.787  0.00  0.00    -0.480 OA
ATOM     20  H   UNL     1      36.104 -23.132 -16.148  0.00  0.00    +0.295 HD
ENDBRANCH  18  19
ENDBRANCH  16  18
ENDBRANCH  15  16
ENDBRANCH  14  15
ENDBRANCH  13  14
ENDBRANCH  12  13
ENDBRANCH   1  12
TORSDOF 10
ENDMDL
