MODEL 1
REMARK VINA RESULT:     -10.6      0.000      0.000
REMARK  Name = 15951529
REMARK  5 active torsions:
REMARK  status: ('A' for Active; 'I' for Inactive)
REMARK    1  A    between atoms: N_3  and  C_11
REMARK    2  A    between atoms: N_4  and  C_22
REMARK    3  A    between atoms: C_16  and  C_19
REMARK    4  A    between atoms: C_25  and  C_31
REMARK    5  A    between atoms: C_27  and  C_33
REMARK                            x       y       z     vdW  Elec       q    Type
REMARK                         _______ _______ _______ _____ _____    ______ ____
ROOT
ATOM      1  S   UNL     1      34.183 -15.850 -19.958  0.00  0.00    -0.017 S 
ATOM      2  O   UNL     1      33.887 -15.880 -25.004  0.00  0.00    -0.272 OA
ATOM      3  N   UNL     1      34.340 -17.664 -22.059  0.00  0.00    -0.265 N 
ATOM      4  N   UNL     1      33.805 -15.548 -22.681  0.00  0.00    -0.218 N 
ATOM      5  C   UNL     1      34.629 -17.627 -23.494  0.00  0.00    +0.133 C 
ATOM      6  C   UNL     1      34.050 -16.254 -23.847  0.00  0.00    +0.251 C 
ATOM      7  C   UNL     1      36.129 -17.541 -23.813  0.00  0.00    +0.030 C 
ATOM      8  C   UNL     1      33.907 -18.688 -24.329  0.00  0.00    +0.030 C 
ATOM      9  C   UNL     1      34.051 -16.354 -21.561  0.00  0.00    +0.152 C 
ENDROOT
BRANCH   3  11
ATOM     10  F   UNL     1      36.617 -21.359 -19.987  0.00  0.00    -0.204 F 
ATOM     11  C   UNL     1      34.310 -18.878 -21.295  0.00  0.00    +0.055 C 
ATOM     12  C   UNL     1      35.498 -19.544 -21.005  0.00  0.00    +0.045 C 
ATOM     13  C   UNL     1      33.092 -19.385 -20.847  0.00  0.00    +0.015 C 
ATOM     14  C   UNL     1      35.469 -20.725 -20.262  0.00  0.00    +0.146 C 
ATOM     15  C   UNL     1      33.064 -20.566 -20.104  0.00  0.00    +0.008 C 
ATOM     16  C   UNL     1      34.252 -21.236 -19.811  0.00  0.00    +0.081 C 
BRANCH  16  19
ATOM     17  O   UNL     1      34.078 -23.564 -19.603  0.00  0.00    -0.270 OA
ATOM     18  N   UNL     1      34.369 -22.348 -17.650  0.00  0.00    -0.299 N 
ATOM     19  C   UNL     1      34.217 -22.466 -19.036  0.00  0.00    +0.248 C 
ATOM     20  C   UNL     1      34.380 -23.478 -16.748  0.00  0.00    +0.111 C 
ATOM     21  H   UNL     1      34.474 -21.446 -17.268  0.00  0.00    +0.150 HD
ENDBRANCH  16  19
ENDBRANCH   3  11
BRANCH   4  22
ATOM     22  C   UNL     1      33.334 -14.200 -22.696  0.00  0.00    +0.060 C 
ATOM     23  C   UNL     1      33.910 -13.269 -23.559  0.00  0.00    +0.020 C 
ATOM     24  C   UNL     1      32.295 -13.814 -21.848  0.00  0.00    +0.016 C 
ATOM     25  C   UNL     1      33.450 -11.952 -23.574  0.00  0.00    +0.082 C 
ATOM     26  C   UNL     1      31.834 -12.498 -21.863  0.00  0.00    +0.012 C 
ATOM     27  C   UNL     1      32.412 -11.567 -22.726  0.00  0.00    +0.072 C 
BRANCH  25  31
ATOM     28  F   UNL     1      34.859 -10.043 -23.884  0.00  0.00    -0.166 F 
ATOM     29  F   UNL     1      34.921 -11.573 -25.421  0.00  0.00    -0.166 F 
ATOM     30  F   UNL     1      33.179 -10.283 -25.246  0.00  0.00    -0.166 F 
ATOM     31  C   UNL     1      34.092 -10.981 -24.513  0.00  0.00    +0.419 C 
ENDBRANCH  25  31
BRANCH  27  33
ATOM     32  N   UNL     1      31.524  -9.133 -22.718  0.00  0.00    -0.191 NA
ATOM     33  C   UNL     1      31.921 -10.222 -22.723  0.00  0.00    +0.100 C 
ENDBRANCH  27  33
ENDBRANCH   4  22
TORSDOF 5
ENDMDL
MODEL 2
REMARK VINA RESULT:     -10.6      1.694      2.155
REMARK  Name = 15951529
REMARK  5 active torsions:
REMARK  status: ('A' for Active; 'I' for Inactive)
REMARK    1  A    between atoms: N_3  and  C_11
REMARK    2  A    between atoms: N_4  and  C_22
REMARK    3  A    between atoms: C_16  and  C_19
REMARK    4  A    between atoms: C_25  and  C_31
REMARK    5  A    between atoms: C_27  and  C_33
REMARK                            x       y       z     vdW  Elec       q    Type
REMARK                         _______ _______ _______ _____ _____    ______ ____
ROOT
ATOM      1  S   UNL     1      34.150 -15.744 -20.138  0.00  0.00    -0.017 S 
ATOM      2  O   UNL     1      34.126 -15.968 -25.188  0.00  0.00    -0.272 OA
ATOM      3  N   UNL     1      34.306 -17.650 -22.154  0.00  0.00    -0.265 N 
ATOM      4  N   UNL     1      33.939 -15.534 -22.887  0.00  0.00    -0.218 N 
ATOM      5  C   UNL     1      34.674 -17.692 -23.571  0.00  0.00    +0.133 C 
ATOM      6  C   UNL     1      34.202 -16.302 -24.010  0.00  0.00    +0.251 C 
ATOM      7  C   UNL     1      36.191 -17.711 -23.808  0.00  0.00    +0.030 C 
ATOM      8  C   UNL     1      33.933 -18.742 -24.405  0.00  0.00    +0.030 C 
ATOM      9  C   UNL     1      34.074 -16.305 -21.725  0.00  0.00    +0.152 C 
ENDROOT
BRANCH   3  11
ATOM     10  F   UNL     1      36.234 -21.342 -19.749  0.00  0.00    -0.204 F 
ATOM     11  C   UNL     1      34.158 -18.827 -21.347  0.00  0.00    +0.055 C 
ATOM     12  C   UNL     1      35.286 -19.529 -20.931  0.00  0.00    +0.045 C 
ATOM     13  C   UNL     1      32.885 -19.263 -20.983  0.00  0.00    +0.015 C 
ATOM     14  C   UNL     1      35.143 -20.674 -20.146  0.00  0.00    +0.146 C 
ATOM     15  C   UNL     1      32.742 -20.407 -20.198  0.00  0.00    +0.008 C 
ATOM     16  C   UNL     1      33.870 -21.113 -19.779  0.00  0.00    +0.081 C 
BRANCH  16  19
ATOM     17  O   UNL     1      34.517 -23.250 -19.065  0.00  0.00    -0.270 OA
ATOM     18  N   UNL     1      32.652 -22.317 -18.051  0.00  0.00    -0.299 N 
ATOM     19  C   UNL     1      33.716 -22.305 -18.960  0.00  0.00    +0.248 C 
ATOM     20  C   UNL     1      32.381 -23.417 -17.153  0.00  0.00    +0.111 C 
ATOM     21  H   UNL     1      32.055 -21.534 -18.021  0.00  0.00    +0.150 HD
ENDBRANCH  16  19
ENDBRANCH   3  11
BRANCH   4  22
ATOM     22  C   UNL     1      33.556 -14.162 -22.982  0.00  0.00    +0.060 C 
ATOM     23  C   UNL     1      32.768 -13.587 -21.985  0.00  0.00    +0.020 C 
ATOM     24  C   UNL     1      33.971 -13.395 -24.071  0.00  0.00    +0.016 C 
ATOM     25  C   UNL     1      32.395 -12.246 -22.077  0.00  0.00    +0.082 C 
ATOM     26  C   UNL     1      33.598 -12.054 -24.163  0.00  0.00    +0.012 C 
ATOM     27  C   UNL     1      32.809 -11.480 -23.166  0.00  0.00    +0.072 C 
BRANCH  25  31
ATOM     28  F   UNL     1      31.957 -10.425 -20.588  0.00  0.00    -0.166 F 
ATOM     29  F   UNL     1      30.240 -11.514 -21.341  0.00  0.00    -0.166 F 
ATOM     30  F   UNL     1      31.545 -12.434 -19.864  0.00  0.00    -0.166 F 
ATOM     31  C   UNL     1      31.550 -11.664 -20.990  0.00  0.00    +0.419 C 
ENDBRANCH  25  31
BRANCH  27  33
ATOM     32  N   UNL     1      32.142  -8.986 -23.380  0.00  0.00    -0.191 NA
ATOM     33  C   UNL     1      32.440 -10.102 -23.284  0.00  0.00    +0.100 C 
ENDBRANCH  27  33
ENDBRANCH   4  22
TORSDOF 5
ENDMDL
MODEL 3
REMARK VINA RESULT:     -10.1      4.553     10.880
REMARK  Name = 15951529
REMARK  5 active torsions:
REMARK  status: ('A' for Active; 'I' for Inactive)
REMARK    1  A    between atoms: N_3  and  C_11
REMARK    2  A    between atoms: N_4  and  C_22
REMARK    3  A    between atoms: C_16  and  C_19
REMARK    4  A    between atoms: C_25  and  C_31
REMARK    5  A    between atoms: C_27  and  C_33
REMARK                            x       y       z     vdW  Elec       q    Type
REMARK                         _______ _______ _______ _____ _____    ______ ____
ROOT
ATOM      1  S   UNL     1      34.142 -10.624 -24.186  0.00  0.00    -0.017 S 
ATOM      2  O   UNL     1      31.451 -13.396 -20.925  0.00  0.00    -0.272 OA
ATOM      3  N   UNL     1      32.193 -10.266 -22.237  0.00  0.00    -0.265 N 
ATOM      4  N   UNL     1      32.725 -12.434 -22.648  0.00  0.00    -0.218 N 
ATOM      5  C   UNL     1      31.701 -10.987 -21.060  0.00  0.00    +0.133 C 
ATOM      6  C   UNL     1      31.917 -12.431 -21.523  0.00  0.00    +0.251 C 
ATOM      7  C   UNL     1      32.589 -10.809 -19.820  0.00  0.00    +0.030 C 
ATOM      8  C   UNL     1      30.213 -10.792 -20.754  0.00  0.00    +0.030 C 
ATOM      9  C   UNL     1      32.984 -11.122 -23.067  0.00  0.00    +0.152 C 
ENDROOT
BRANCH   3  11
ATOM     10  F   UNL     1      32.366  -5.604 -21.070  0.00  0.00    -0.204 F 
ATOM     11  C   UNL     1      31.863  -8.898 -22.514  0.00  0.00    +0.055 C 
ATOM     12  C   UNL     1      32.280  -7.894 -21.643  0.00  0.00    +0.045 C 
ATOM     13  C   UNL     1      31.127  -8.579 -23.653  0.00  0.00    +0.015 C 
ATOM     14  C   UNL     1      31.960  -6.563 -21.912  0.00  0.00    +0.146 C 
ATOM     15  C   UNL     1      30.807  -7.248 -23.922  0.00  0.00    +0.008 C 
ATOM     16  C   UNL     1      31.223  -6.240 -23.052  0.00  0.00    +0.081 C 
BRANCH  16  19
ATOM     17  O   UNL     1      30.360  -4.141 -22.465  0.00  0.00    -0.270 OA
ATOM     18  N   UNL     1      31.207  -4.372 -24.611  0.00  0.00    -0.299 N 
ATOM     19  C   UNL     1      30.887  -4.854 -23.337  0.00  0.00    +0.248 C 
ATOM     20  C   UNL     1      30.957  -3.013 -25.038  0.00  0.00    +0.111 C 
ATOM     21  H   UNL     1      31.623  -4.992 -25.253  0.00  0.00    +0.150 HD
ENDBRANCH  16  19
ENDBRANCH   3  11
BRANCH   4  22
ATOM     22  C   UNL     1      33.164 -13.646 -23.261  0.00  0.00    +0.060 C 
ATOM     23  C   UNL     1      33.823 -14.613 -22.502  0.00  0.00    +0.020 C 
ATOM     24  C   UNL     1      32.935 -13.864 -24.620  0.00  0.00    +0.016 C 
ATOM     25  C   UNL     1      34.251 -15.798 -23.102  0.00  0.00    +0.082 C 
ATOM     26  C   UNL     1      33.363 -15.048 -25.219  0.00  0.00    +0.012 C 
ATOM     27  C   UNL     1      34.022 -16.015 -24.459  0.00  0.00    +0.072 C 
BRANCH  25  31
ATOM     28  F   UNL     1      34.249 -17.971 -22.099  0.00  0.00    -0.166 F 
ATOM     29  F   UNL     1      36.164 -17.193 -22.758  0.00  0.00    -0.166 F 
ATOM     30  F   UNL     1      35.203 -16.357 -20.995  0.00  0.00    -0.166 F 
ATOM     31  C   UNL     1      34.953 -16.812 -22.256  0.00  0.00    +0.419 C 
ENDBRANCH  25  31
BRANCH  27  33
ATOM     32  N   UNL     1      34.799 -18.200 -25.614  0.00  0.00    -0.191 NA
ATOM     33  C   UNL     1      34.452 -17.222 -25.098  0.00  0.00    +0.100 C 
ENDBRANCH  27  33
ENDBRANCH   4  22
TORSDOF 5
ENDMDL
MODEL 4
REMARK VINA RESULT:      -9.7      5.201     10.943
REMARK  Name = 15951529
REMARK  5 active torsions:
REMARK  status: ('A' for Active; 'I' for Inactive)
REMARK    1  A    between atoms: N_3  and  C_11
REMARK    2  A    between atoms: N_4  and  C_22
REMARK    3  A    between atoms: C_16  and  C_19
REMARK    4  A    between atoms: C_25  and  C_31
REMARK    5  A    between atoms: C_27  and  C_33
REMARK                            x       y       z     vdW  Elec       q    Type
REMARK                         _______ _______ _______ _____ _____    ______ ____
ROOT
ATOM      1  S   UNL     1      34.147 -10.153 -23.942  0.00  0.00    -0.017 S 
ATOM      2  O   UNL     1      31.430 -13.036 -20.803  0.00  0.00    -0.272 OA
ATOM      3  N   UNL     1      32.198  -9.861 -21.982  0.00  0.00    -0.265 N 
ATOM      4  N   UNL     1      32.713 -12.014 -22.483  0.00  0.00    -0.218 N 
ATOM      5  C   UNL     1      31.698 -10.626 -20.837  0.00  0.00    +0.133 C 
ATOM      6  C   UNL     1      31.904 -12.051 -21.360  0.00  0.00    +0.251 C 
ATOM      7  C   UNL     1      32.586 -10.507 -19.590  0.00  0.00    +0.030 C 
ATOM      8  C   UNL     1      30.212 -10.432 -20.525  0.00  0.00    +0.030 C 
ATOM      9  C   UNL     1      32.983 -10.688 -22.847  0.00  0.00    +0.152 C 
ENDROOT
BRANCH   3  11
ATOM     10  F   UNL     1      30.413  -6.373 -24.772  0.00  0.00    -0.204 F 
ATOM     11  C   UNL     1      31.879  -8.479 -22.202  0.00  0.00    +0.055 C 
ATOM     12  C   UNL     1      31.290  -8.086 -23.401  0.00  0.00    +0.045 C 
ATOM     13  C   UNL     1      32.161  -7.537 -21.215  0.00  0.00    +0.015 C 
ATOM     14  C   UNL     1      30.980  -6.742 -23.615  0.00  0.00    +0.146 C 
ATOM     15  C   UNL     1      31.850  -6.194 -21.429  0.00  0.00    +0.008 C 
ATOM     16  C   UNL     1      31.260  -5.796 -22.629  0.00  0.00    +0.081 C 
BRANCH  16  19
ATOM     17  O   UNL     1      30.063  -3.835 -22.166  0.00  0.00    -0.270 OA
ATOM     18  N   UNL     1      31.672  -3.721 -23.831  0.00  0.00    -0.299 N 
ATOM     19  C   UNL     1      30.939  -4.395 -22.848  0.00  0.00    +0.248 C 
ATOM     20  C   UNL     1      31.486  -2.323 -24.149  0.00  0.00    +0.111 C 
ATOM     21  H   UNL     1      32.351  -4.226 -24.334  0.00  0.00    +0.150 HD
ENDBRANCH  16  19
ENDBRANCH   3  11
BRANCH   4  22
ATOM     22  C   UNL     1      33.144 -13.203 -23.146  0.00  0.00    +0.060 C 
ATOM     23  C   UNL     1      32.777 -13.436 -24.470  0.00  0.00    +0.020 C 
ATOM     24  C   UNL     1      33.935 -14.131 -22.468  0.00  0.00    +0.016 C 
ATOM     25  C   UNL     1      33.199 -14.598 -25.118  0.00  0.00    +0.082 C 
ATOM     26  C   UNL     1      34.358 -15.292 -23.115  0.00  0.00    +0.012 C 
ATOM     27  C   UNL     1      33.989 -15.525 -24.440  0.00  0.00    +0.072 C 
BRANCH  25  31
ATOM     28  F   UNL     1      32.262 -16.053 -26.770  0.00  0.00    -0.166 F 
ATOM     29  F   UNL     1      31.832 -13.936 -26.965  0.00  0.00    -0.166 F 
ATOM     30  F   UNL     1      33.826 -14.682 -27.410  0.00  0.00    -0.166 F 
ATOM     31  C   UNL     1      32.785 -14.814 -26.538  0.00  0.00    +0.419 C 
ENDBRANCH  25  31
BRANCH  27  33
ATOM     32  N   UNL     1      34.797 -17.696 -25.600  0.00  0.00    -0.191 NA
ATOM     33  C   UNL     1      34.435 -16.725 -25.082  0.00  0.00    +0.100 C 
ENDBRANCH  27  33
ENDBRANCH   4  22
TORSDOF 5
ENDMDL
MODEL 5
REMARK VINA RESULT:      -9.7      3.697      6.202
REMARK  Name = 15951529
REMARK  5 active torsions:
REMARK  status: ('A' for Active; 'I' for Inactive)
REMARK    1  A    between atoms: N_3  and  C_11
REMARK    2  A    between atoms: N_4  and  C_22
REMARK    3  A    between atoms: C_16  and  C_19
REMARK    4  A    between atoms: C_25  and  C_31
REMARK    5  A    between atoms: C_27  and  C_33
REMARK                            x       y       z     vdW  Elec       q    Type
REMARK                         _______ _______ _______ _____ _____    ______ ____
ROOT
ATOM      1  S   UNL     1      37.291 -20.478 -19.751  0.00  0.00    -0.017 S 
ATOM      2  O   UNL     1      32.340 -21.029 -20.610  0.00  0.00    -0.272 OA
ATOM      3  N   UNL     1      35.113 -21.833 -18.680  0.00  0.00    -0.265 N 
ATOM      4  N   UNL     1      34.601 -20.432 -20.390  0.00  0.00    -0.218 N 
ATOM      5  C   UNL     1      33.797 -22.287 -19.134  0.00  0.00    +0.133 C 
ATOM      6  C   UNL     1      33.459 -21.171 -20.128  0.00  0.00    +0.251 C 
ATOM      7  C   UNL     1      33.850 -23.579 -19.961  0.00  0.00    +0.030 C 
ATOM      8  C   UNL     1      32.712 -22.321 -18.054  0.00  0.00    +0.030 C 
ATOM      9  C   UNL     1      35.659 -20.864 -19.579  0.00  0.00    +0.152 C 
ENDROOT
BRANCH   3  11
ATOM     10  F   UNL     1      34.838 -24.164 -14.481  0.00  0.00    -0.204 F 
ATOM     11  C   UNL     1      35.721 -22.284 -17.461  0.00  0.00    +0.055 C 
ATOM     12  C   UNL     1      34.974 -23.018 -16.543  0.00  0.00    +0.045 C 
ATOM     13  C   UNL     1      37.057 -21.986 -17.200  0.00  0.00    +0.015 C 
ATOM     14  C   UNL     1      35.565 -23.457 -15.358  0.00  0.00    +0.146 C 
ATOM     15  C   UNL     1      37.648 -22.425 -16.015  0.00  0.00    +0.008 C 
ATOM     16  C   UNL     1      36.902 -23.161 -15.094  0.00  0.00    +0.081 C 
BRANCH  16  19
ATOM     17  O   UNL     1      37.789 -22.809 -12.952  0.00  0.00    -0.270 OA
ATOM     18  N   UNL     1      37.774 -24.988 -13.745  0.00  0.00    -0.299 N 
ATOM     19  C   UNL     1      37.522 -23.616 -13.860  0.00  0.00    +0.248 C 
ATOM     20  C   UNL     1      38.363 -25.597 -12.573  0.00  0.00    +0.111 C 
ATOM     21  H   UNL     1      37.538 -25.571 -14.503  0.00  0.00    +0.150 HD
ENDBRANCH  16  19
ENDBRANCH   3  11
BRANCH   4  22
ATOM     22  C   UNL     1      34.612 -19.369 -21.343  0.00  0.00    +0.060 C 
ATOM     23  C   UNL     1      34.215 -18.087 -20.964  0.00  0.00    +0.020 C 
ATOM     24  C   UNL     1      35.023 -19.612 -22.654  0.00  0.00    +0.016 C 
ATOM     25  C   UNL     1      34.227 -17.049 -21.895  0.00  0.00    +0.082 C 
ATOM     26  C   UNL     1      35.036 -18.574 -23.585  0.00  0.00    +0.012 C 
ATOM     27  C   UNL     1      34.637 -17.292 -23.205  0.00  0.00    +0.072 C 
BRANCH  25  31
ATOM     28  F   UNL     1      34.739 -14.724 -21.654  0.00  0.00    -0.166 F 
ATOM     29  F   UNL     1      32.678 -15.237 -22.097  0.00  0.00    -0.166 F 
ATOM     30  F   UNL     1      33.496 -15.642 -20.123  0.00  0.00    -0.166 F 
ATOM     31  C   UNL     1      33.794 -15.688 -21.453  0.00  0.00    +0.419 C 
ENDBRANCH  25  31
BRANCH  27  33
ATOM     32  N   UNL     1      34.674 -15.395 -24.969  0.00  0.00    -0.191 NA
ATOM     33  C   UNL     1      34.658 -16.243 -24.180  0.00  0.00    +0.100 C 
ENDBRANCH  27  33
ENDBRANCH   4  22
TORSDOF 5
ENDMDL
MODEL 6
REMARK VINA RESULT:      -9.3      4.066      6.426
REMARK  Name = 15951529
REMARK  5 active torsions:
REMARK  status: ('A' for Active; 'I' for Inactive)
REMARK    1  A    between atoms: N_3  and  C_11
REMARK    2  A    between atoms: N_4  and  C_22
REMARK    3  A    between atoms: C_16  and  C_19
REMARK    4  A    between atoms: C_25  and  C_31
REMARK    5  A    between atoms: C_27  and  C_33
REMARK                            x       y       z     vdW  Elec       q    Type
REMARK                         _______ _______ _______ _____ _____    ______ ____
ROOT
ATOM      1  S   UNL     1      37.298 -20.371 -19.721  0.00  0.00    -0.017 S 
ATOM      2  O   UNL     1      32.348 -20.938 -20.575  0.00  0.00    -0.272 OA
ATOM      3  N   UNL     1      35.138 -21.783 -18.687  0.00  0.00    -0.265 N 
ATOM      4  N   UNL     1      34.604 -20.328 -20.345  0.00  0.00    -0.218 N 
ATOM      5  C   UNL     1      33.824 -22.233 -19.151  0.00  0.00    +0.133 C 
ATOM      6  C   UNL     1      33.471 -21.087 -20.103  0.00  0.00    +0.251 C 
ATOM      7  C   UNL     1      33.885 -23.495 -20.023  0.00  0.00    +0.030 C 
ATOM      8  C   UNL     1      32.745 -22.315 -18.067  0.00  0.00    +0.030 C 
ATOM      9  C   UNL     1      35.671 -20.777 -19.555  0.00  0.00    +0.152 C 
ENDROOT
BRANCH   3  11
ATOM     10  F   UNL     1      34.902 -24.249 -14.565  0.00  0.00    -0.204 F 
ATOM     11  C   UNL     1      35.757 -22.270 -17.487  0.00  0.00    +0.055 C 
ATOM     12  C   UNL     1      35.019 -23.037 -16.589  0.00  0.00    +0.045 C 
ATOM     13  C   UNL     1      37.093 -21.974 -17.226  0.00  0.00    +0.015 C 
ATOM     14  C   UNL     1      35.620 -23.511 -15.423  0.00  0.00    +0.146 C 
ATOM     15  C   UNL     1      37.694 -22.449 -16.060  0.00  0.00    +0.008 C 
ATOM     16  C   UNL     1      36.958 -23.217 -15.158  0.00  0.00    +0.081 C 
BRANCH  16  19
ATOM     17  O   UNL     1      37.773 -22.951 -12.977  0.00  0.00    -0.270 OA
ATOM     18  N   UNL     1      37.945 -25.063 -13.918  0.00  0.00    -0.299 N 
ATOM     19  C   UNL     1      37.588 -23.710 -13.944  0.00  0.00    +0.248 C 
ATOM     20  C   UNL     1      38.558 -25.706 -12.777  0.00  0.00    +0.111 C 
ATOM     21  H   UNL     1      37.770 -25.607 -14.719  0.00  0.00    +0.150 HD
ENDBRANCH  16  19
ENDBRANCH   3  11
BRANCH   4  22
ATOM     22  C   UNL     1      34.601 -19.232 -21.260  0.00  0.00    +0.060 C 
ATOM     23  C   UNL     1      34.517 -19.468 -22.632  0.00  0.00    +0.020 C 
ATOM     24  C   UNL     1      34.681 -17.924 -20.782  0.00  0.00    +0.016 C 
ATOM     25  C   UNL     1      34.513 -18.398 -23.526  0.00  0.00    +0.082 C 
ATOM     26  C   UNL     1      34.676 -16.853 -21.676  0.00  0.00    +0.012 C 
ATOM     27  C   UNL     1      34.593 -17.091 -23.048  0.00  0.00    +0.072 C 
BRANCH  25  31
ATOM     28  F   UNL     1      33.162 -18.544 -25.496  0.00  0.00    -0.166 F 
ATOM     29  F   UNL     1      35.211 -17.882 -25.755  0.00  0.00    -0.166 F 
ATOM     30  F   UNL     1      34.796 -19.966 -25.291  0.00  0.00    -0.166 F 
ATOM     31  C   UNL     1      34.421 -18.690 -24.990  0.00  0.00    +0.419 C 
ENDBRANCH  25  31
BRANCH  27  33
ATOM     32  N   UNL     1      34.588 -15.070 -24.670  0.00  0.00    -0.191 NA
ATOM     33  C   UNL     1      34.591 -15.974 -23.945  0.00  0.00    +0.100 C 
ENDBRANCH  27  33
ENDBRANCH   4  22
TORSDOF 5
ENDMDL
MODEL 7
REMARK VINA RESULT:      -8.6      2.527      9.477
REMARK  Name = 15951529
REMARK  5 active torsions:
REMARK  status: ('A' for Active; 'I' for Inactive)
REMARK    1  A    between atoms: N_3  and  C_11
REMARK    2  A    between atoms: N_4  and  C_22
REMARK    3  A    between atoms: C_16  and  C_19
REMARK    4  A    between atoms: C_25  and  C_31
REMARK    5  A    between atoms: C_27  and  C_33
REMARK                            x       y       z     vdW  Elec       q    Type
REMARK                         _______ _______ _______ _____ _____    ______ ____
ROOT
ATOM      1  S   UNL     1      32.505 -14.876 -20.860  0.00  0.00    -0.017 S 
ATOM      2  O   UNL     1      34.877 -16.355 -25.072  0.00  0.00    -0.272 OA
ATOM      3  N   UNL     1      33.170 -13.861 -23.360  0.00  0.00    -0.265 N 
ATOM      4  N   UNL     1      33.995 -15.932 -22.937  0.00  0.00    -0.218 N 
ATOM      5  C   UNL     1      33.507 -14.391 -24.683  0.00  0.00    +0.133 C 
ATOM      6  C   UNL     1      34.232 -15.678 -24.277  0.00  0.00    +0.251 C 
ATOM      7  C   UNL     1      32.282 -14.840 -25.492  0.00  0.00    +0.030 C 
ATOM      8  C   UNL     1      34.472 -13.528 -25.502  0.00  0.00    +0.030 C 
ATOM      9  C   UNL     1      33.274 -14.878 -22.359  0.00  0.00    +0.152 C 
ENDROOT
BRANCH   3  11
ATOM     10  F   UNL     1      33.919  -9.178 -24.165  0.00  0.00    -0.204 F 
ATOM     11  C   UNL     1      32.833 -12.486 -23.128  0.00  0.00    +0.055 C 
ATOM     12  C   UNL     1      33.551 -11.478 -23.769  0.00  0.00    +0.045 C 
ATOM     13  C   UNL     1      31.789 -12.163 -22.264  0.00  0.00    +0.015 C 
ATOM     14  C   UNL     1      33.224 -10.141 -23.544  0.00  0.00    +0.146 C 
ATOM     15  C   UNL     1      31.462 -10.826 -22.038  0.00  0.00    +0.008 C 
ATOM     16  C   UNL     1      32.179  -9.815 -22.679  0.00  0.00    +0.081 C 
BRANCH  16  19
ATOM     17  O   UNL     1      31.171  -7.785 -23.277  0.00  0.00    -0.270 OA
ATOM     18  N   UNL     1      32.261  -7.859 -21.233  0.00  0.00    -0.299 N 
ATOM     19  C   UNL     1      31.834  -8.422 -22.441  0.00  0.00    +0.248 C 
ATOM     20  C   UNL     1      31.978  -6.497 -20.841  0.00  0.00    +0.111 C 
ATOM     21  H   UNL     1      32.784  -8.421 -20.616  0.00  0.00    +0.150 HD
ENDBRANCH  16  19
ENDBRANCH   3  11
BRANCH   4  22
ATOM     22  C   UNL     1      34.479 -17.111 -22.292  0.00  0.00    +0.060 C 
ATOM     23  C   UNL     1      33.587 -17.983 -21.670  0.00  0.00    +0.020 C 
ATOM     24  C   UNL     1      35.846 -17.390 -22.285  0.00  0.00    +0.016 C 
ATOM     25  C   UNL     1      34.061 -19.135 -21.041  0.00  0.00    +0.082 C 
ATOM     26  C   UNL     1      36.320 -18.542 -21.657  0.00  0.00    +0.012 C 
ATOM     27  C   UNL     1      35.427 -19.414 -21.035  0.00  0.00    +0.072 C 
BRANCH  25  31
ATOM     28  F   UNL     1      32.713 -21.108 -21.163  0.00  0.00    -0.166 F 
ATOM     29  F   UNL     1      33.531 -20.594 -19.222  0.00  0.00    -0.166 F 
ATOM     30  F   UNL     1      31.911 -19.412 -20.063  0.00  0.00    -0.166 F 
ATOM     31  C   UNL     1      33.074 -20.047 -20.385  0.00  0.00    +0.419 C 
ENDBRANCH  25  31
BRANCH  27  33
ATOM     32  N   UNL     1      36.354 -21.540 -19.880  0.00  0.00    -0.191 NA
ATOM     33  C   UNL     1      35.938 -20.589 -20.396  0.00  0.00    +0.100 C 
ENDBRANCH  27  33
ENDBRANCH   4  22
TORSDOF 5
ENDMDL
MODEL 8
REMARK VINA RESULT:      -8.4      1.876      9.327
REMARK  Name = 15951529
REMARK  5 active torsions:
REMARK  status: ('A' for Active; 'I' for Inactive)
REMARK    1  A    between atoms: N_3  and  C_11
REMARK    2  A    between atoms: N_4  and  C_22
REMARK    3  A    between atoms: C_16  and  C_19
REMARK    4  A    between atoms: C_25  and  C_31
REMARK    5  A    between atoms: C_27  and  C_33
REMARK                            x       y       z     vdW  Elec       q    Type
REMARK                         _______ _______ _______ _____ _____    ______ ____
ROOT
ATOM      1  S   UNL     1      32.374 -16.006 -21.076  0.00  0.00    -0.017 S 
ATOM      2  O   UNL     1      35.222 -18.609 -24.343  0.00  0.00    -0.272 OA
ATOM      3  N   UNL     1      33.715 -15.602 -23.478  0.00  0.00    -0.265 N 
ATOM      4  N   UNL     1      34.023 -17.655 -22.563  0.00  0.00    -0.218 N 
ATOM      5  C   UNL     1      34.205 -16.420 -24.589  0.00  0.00    +0.133 C 
ATOM      6  C   UNL     1      34.572 -17.701 -23.834  0.00  0.00    +0.251 C 
ATOM      7  C   UNL     1      33.106 -16.822 -25.583  0.00  0.00    +0.030 C 
ATOM      8  C   UNL     1      35.463 -15.888 -25.282  0.00  0.00    +0.030 C 
ATOM      9  C   UNL     1      33.416 -16.413 -22.337  0.00  0.00    +0.152 C 
ENDROOT
BRANCH   3  11
ATOM     10  F   UNL     1      34.159 -11.481 -25.919  0.00  0.00    -0.204 F 
ATOM     11  C   UNL     1      33.609 -14.172 -23.543  0.00  0.00    +0.055 C 
ATOM     12  C   UNL     1      33.941 -13.505 -24.719  0.00  0.00    +0.045 C 
ATOM     13  C   UNL     1      33.174 -13.458 -22.428  0.00  0.00    +0.015 C 
ATOM     14  C   UNL     1      33.838 -12.115 -24.783  0.00  0.00    +0.146 C 
ATOM     15  C   UNL     1      33.071 -12.068 -22.492  0.00  0.00    +0.008 C 
ATOM     16  C   UNL     1      33.403 -11.396 -23.669  0.00  0.00    +0.081 C 
BRANCH  16  19
ATOM     17  O   UNL     1      32.178  -9.398 -23.711  0.00  0.00    -0.270 OA
ATOM     18  N   UNL     1      34.489  -9.222 -23.788  0.00  0.00    -0.299 N 
ATOM     19  C   UNL     1      33.293  -9.947 -23.731  0.00  0.00    +0.248 C 
ATOM     20  C   UNL     1      34.547  -7.778 -23.830  0.00  0.00    +0.111 C 
ATOM     21  H   UNL     1      35.337  -9.722 -23.801  0.00  0.00    +0.150 HD
ENDBRANCH  16  19
ENDBRANCH   3  11
BRANCH   4  22
ATOM     22  C   UNL     1      34.131 -18.749 -21.651  0.00  0.00    +0.060 C 
ATOM     23  C   UNL     1      35.385 -19.170 -21.211  0.00  0.00    +0.020 C 
ATOM     24  C   UNL     1      32.981 -19.397 -21.200  0.00  0.00    +0.016 C 
ATOM     25  C   UNL     1      35.490 -20.238 -20.320  0.00  0.00    +0.082 C 
ATOM     26  C   UNL     1      33.085 -20.465 -20.309  0.00  0.00    +0.012 C 
ATOM     27  C   UNL     1      34.341 -20.886 -19.870  0.00  0.00    +0.072 C 
BRANCH  25  31
ATOM     28  F   UNL     1      37.185 -21.927 -20.258  0.00  0.00    -0.166 F 
ATOM     29  F   UNL     1      37.853 -19.865 -20.346  0.00  0.00    -0.166 F 
ATOM     30  F   UNL     1      36.981 -20.645 -18.513  0.00  0.00    -0.166 F 
ATOM     31  C   UNL     1      36.852 -20.661 -19.870  0.00  0.00    +0.419 C 
ENDBRANCH  25  31
BRANCH  27  33
ATOM     32  N   UNL     1      34.485 -22.873 -18.214  0.00  0.00    -0.191 NA
ATOM     33  C   UNL     1      34.421 -21.985 -18.955  0.00  0.00    +0.100 C 
ENDBRANCH  27  33
ENDBRANCH   4  22
TORSDOF 5
ENDMDL
MODEL 9
REMARK VINA RESULT:      -8.3      3.752     10.286
REMARK  Name = 15951529
REMARK  5 active torsions:
REMARK  status: ('A' for Active; 'I' for Inactive)
REMARK    1  A    between atoms: N_3  and  C_11
REMARK    2  A    between atoms: N_4  and  C_22
REMARK    3  A    between atoms: C_16  and  C_19
REMARK    4  A    between atoms: C_25  and  C_31
REMARK    5  A    between atoms: C_27  and  C_33
REMARK                            x       y       z     vdW  Elec       q    Type
REMARK                         _______ _______ _______ _____ _____    ______ ____
ROOT
ATOM      1  S   UNL     1      32.514 -21.328 -20.083  0.00  0.00    -0.017 S 
ATOM      2  O   UNL     1      36.987 -22.085 -17.853  0.00  0.00    -0.272 OA
ATOM      3  N   UNL     1      35.161 -20.527 -20.363  0.00  0.00    -0.265 N 
ATOM      4  N   UNL     1      34.758 -21.822 -18.544  0.00  0.00    -0.218 N 
ATOM      5  C   UNL     1      36.484 -21.023 -19.975  0.00  0.00    +0.133 C 
ATOM      6  C   UNL     1      36.134 -21.699 -18.646  0.00  0.00    +0.251 C 
ATOM      7  C   UNL     1      37.009 -22.141 -20.886  0.00  0.00    +0.030 C 
ATOM      8  C   UNL     1      37.531 -19.938 -19.707  0.00  0.00    +0.030 C 
ATOM      9  C   UNL     1      34.130 -21.187 -19.623  0.00  0.00    +0.152 C 
ENDROOT
BRANCH   3  11
ATOM     10  F   UNL     1      34.579 -19.091 -24.917  0.00  0.00    -0.204 F 
ATOM     11  C   UNL     1      34.967 -19.482 -21.327  0.00  0.00    +0.055 C 
ATOM     12  C   UNL     1      34.865 -19.796 -22.680  0.00  0.00    +0.045 C 
ATOM     13  C   UNL     1      34.880 -18.157 -20.904  0.00  0.00    +0.015 C 
ATOM     14  C   UNL     1      34.676 -18.779 -23.617  0.00  0.00    +0.146 C 
ATOM     15  C   UNL     1      34.690 -17.141 -21.841  0.00  0.00    +0.008 C 
ATOM     16  C   UNL     1      34.588 -17.452 -23.198  0.00  0.00    +0.081 C 
BRANCH  16  19
ATOM     17  O   UNL     1      34.923 -16.454 -25.292  0.00  0.00    -0.270 OA
ATOM     18  N   UNL     1      33.566 -15.325 -23.790  0.00  0.00    -0.299 N 
ATOM     19  C   UNL     1      34.391 -16.389 -24.171  0.00  0.00    +0.248 C 
ATOM     20  C   UNL     1      33.254 -14.207 -24.652  0.00  0.00    +0.111 C 
ATOM     21  H   UNL     1      33.177 -15.337 -22.885  0.00  0.00    +0.150 HD
ENDBRANCH  16  19
ENDBRANCH   3  11
BRANCH   4  22
ATOM     22  C   UNL     1      34.137 -22.487 -17.443  0.00  0.00    +0.060 C 
ATOM     23  C   UNL     1      32.746 -22.522 -17.343  0.00  0.00    +0.020 C 
ATOM     24  C   UNL     1      34.921 -23.104 -16.468  0.00  0.00    +0.016 C 
ATOM     25  C   UNL     1      32.140 -23.173 -16.269  0.00  0.00    +0.082 C 
ATOM     26  C   UNL     1      34.315 -23.756 -15.394  0.00  0.00    +0.012 C 
ATOM     27  C   UNL     1      32.924 -23.789 -15.295  0.00  0.00    +0.072 C 
BRANCH  25  31
ATOM     28  F   UNL     1      30.111 -24.442 -16.279  0.00  0.00    -0.166 F 
ATOM     29  F   UNL     1      30.154 -22.666 -15.035  0.00  0.00    -0.166 F 
ATOM     30  F   UNL     1      30.067 -22.472 -17.200  0.00  0.00    -0.166 F 
ATOM     31  C   UNL     1      30.646 -23.189 -16.195  0.00  0.00    +0.419 C 
ENDBRANCH  25  31
BRANCH  27  33
ATOM     32  N   UNL     1      31.841 -25.010 -13.283  0.00  0.00    -0.191 NA
ATOM     33  C   UNL     1      32.326 -24.463 -14.182  0.00  0.00    +0.100 C 
ENDBRANCH  27  33
ENDBRANCH   4  22
TORSDOF 5
ENDMDL
