MODEL 1
REMARK VINA RESULT:     -10.0      0.000      0.000
REMARK  Name = 55717
REMARK  10 active torsions:
REMARK  status: ('A' for Active; 'I' for Inactive)
REMARK    1  A    between atoms: C_1  and  O_2
REMARK    2  A    between atoms: C_1  and  C_14
REMARK    3  A    between atoms: O_2  and  C_3
REMARK    4  A    between atoms: C_4  and  C_11
REMARK    5  A    between atoms: C_14  and  C_15
REMARK    6  A    between atoms: C_15  and  C_16
REMARK    7  A    between atoms: C_16  and  C_17
REMARK    8  A    between atoms: C_17  and  C_18
REMARK    9  A    between atoms: C_18  and  C_19
REMARK   10  A    between atoms: C_19  and  C_22
REMARK                            x       y       z     vdW  Elec       q    Type
REMARK                         _______ _______ _______ _____ _____    ______ ____
ROOT
ATOM      1  C   UNL     1      33.365 -23.203 -17.840  0.00  0.00    +0.205 C 
ENDROOT
BRANCH   1   2
ATOM      2  O   UNL     1      34.537 -23.025 -18.623  0.00  0.00    -0.475 OA
BRANCH   2   3
ATOM      3  C   UNL     1      34.618 -21.875 -19.365  0.00  0.00    +0.139 C 
ATOM      4  C   UNL     1      34.781 -19.537 -20.878  0.00  0.00    +0.053 C 
ATOM      5  C   UNL     1      33.453 -21.213 -19.752  0.00  0.00    +0.037 C 
ATOM      6  C   UNL     1      35.864 -21.369 -19.734  0.00  0.00    +0.037 C 
ATOM      7  C   UNL     1      33.534 -20.044 -20.508  0.00  0.00    +0.008 C 
ATOM      8  C   UNL     1      35.945 -20.200 -20.491  0.00  0.00    +0.008 C 
BRANCH   4  11
ATOM      9  O   UNL     1      34.915 -17.164 -20.948  0.00  0.00    -0.458 OA
ATOM     10  N   UNL     1      34.894 -18.233 -22.969  0.00  0.00    -0.234 NA
ATOM     11  C   UNL     1      34.866 -18.305 -21.676  0.00  0.00    +0.220 C 
ATOM     12  C   UNL     1      34.777 -16.125 -21.905  0.00  0.00    +0.233 C 
ATOM     13  C   UNL     1      35.058 -16.799 -23.229  0.00  0.00    +0.176 C 
ENDBRANCH   4  11
ENDBRANCH   2   3
ENDBRANCH   1   2
BRANCH   1  14
ATOM     14  C   UNL     1      33.770 -23.396 -16.385  0.00  0.00    +0.047 C 
BRANCH  14  15
ATOM     15  C   UNL     1      32.586 -23.201 -15.440  0.00  0.00    +0.004 C 
BRANCH  15  16
ATOM     16  C   UNL     1      32.730 -24.063 -14.184  0.00  0.00    +0.000 C 
BRANCH  16  17
ATOM     17  C   UNL     1      31.412 -24.757 -13.832  0.00  0.00    +0.000 C 
BRANCH  17  18
ATOM     18  C   UNL     1      30.209 -23.903 -14.243  0.00  0.00    +0.008 C 
BRANCH  18  19
ATOM     19  C   UNL     1      29.173 -24.675 -15.068  0.00  0.00    +0.067 C 
BRANCH  19  22
ATOM     20  O   UNL     1      28.297 -24.160 -17.285  0.00  0.00    -0.358 OA
ATOM     21  N   UNL     1      27.519 -23.246 -17.984  0.00  0.00    -0.082 NA
ATOM     22  C   UNL     1      28.362 -23.790 -15.981  0.00  0.00    +0.154 C 
ATOM     23  C   UNL     1      27.639 -22.641 -15.791  0.00  0.00    +0.054 C 
ATOM     24  C   UNL     1      27.137 -22.348 -17.072  0.00  0.00    +0.101 C 
ATOM     25  C   UNL     1      26.284 -21.217 -17.469  0.00  0.00    +0.056 C 
ENDBRANCH  19  22
ENDBRANCH  18  19
ENDBRANCH  17  18
ENDBRANCH  16  17
ENDBRANCH  15  16
ENDBRANCH  14  15
ENDBRANCH   1  14
TORSDOF 10
ENDMDL
MODEL 2
REMARK VINA RESULT:      -9.7      5.895     12.316
REMARK  Name = 55717
REMARK  10 active torsions:
REMARK  status: ('A' for Active; 'I' for Inactive)
REMARK    1  A    between atoms: C_1  and  O_2
REMARK    2  A    between atoms: C_1  and  C_14
REMARK    3  A    between atoms: O_2  and  C_3
REMARK    4  A    between atoms: C_4  and  C_11
REMARK    5  A    between atoms: C_14  and  C_15
REMARK    6  A    between atoms: C_15  and  C_16
REMARK    7  A    between atoms: C_16  and  C_17
REMARK    8  A    between atoms: C_17  and  C_18
REMARK    9  A    between atoms: C_18  and  C_19
REMARK   10  A    between atoms: C_19  and  C_22
REMARK                            x       y       z     vdW  Elec       q    Type
REMARK                         _______ _______ _______ _____ _____    ______ ____
ROOT
ATOM      1  C   UNL     1      33.573 -12.955 -24.602  0.00  0.00    +0.205 C 
ENDROOT
BRANCH   1   2
ATOM      2  O   UNL     1      33.882 -13.057 -23.220  0.00  0.00    -0.475 OA
BRANCH   2   3
ATOM      3  C   UNL     1      34.148 -14.312 -22.735  0.00  0.00    +0.139 C 
ATOM      4  C   UNL     1      34.685 -16.866 -21.751  0.00  0.00    +0.053 C 
ATOM      5  C   UNL     1      34.436 -15.353 -23.618  0.00  0.00    +0.037 C 
ATOM      6  C   UNL     1      34.129 -14.548 -21.361  0.00  0.00    +0.037 C 
ATOM      7  C   UNL     1      34.705 -16.630 -23.127  0.00  0.00    +0.008 C 
ATOM      8  C   UNL     1      34.398 -15.825 -20.869  0.00  0.00    +0.008 C 
BRANCH   4  11
ATOM      9  O   UNL     1      33.905 -19.051 -21.229  0.00  0.00    -0.458 OA
ATOM     10  N   UNL     1      36.111 -18.638 -20.795  0.00  0.00    -0.234 NA
ATOM     11  C   UNL     1      34.969 -18.213 -21.233  0.00  0.00    +0.220 C 
ATOM     12  C   UNL     1      34.351 -20.188 -20.505  0.00  0.00    +0.233 C 
ATOM     13  C   UNL     1      35.856 -20.047 -20.481  0.00  0.00    +0.176 C 
ENDBRANCH   4  11
ENDBRANCH   2   3
ENDBRANCH   1   2
BRANCH   1  14
ATOM     14  C   UNL     1      34.193 -11.678 -25.152  0.00  0.00    +0.047 C 
BRANCH  14  15
ATOM     15  C   UNL     1      33.950 -10.488 -24.227  0.00  0.00    +0.004 C 
BRANCH  15  16
ATOM     16  C   UNL     1      35.083  -9.465 -24.328  0.00  0.00    +0.000 C 
BRANCH  16  17
ATOM     17  C   UNL     1      34.546  -8.033 -24.272  0.00  0.00    +0.000 C 
BRANCH  17  18
ATOM     18  C   UNL     1      34.441  -7.536 -22.827  0.00  0.00    +0.008 C 
BRANCH  18  19
ATOM     19  C   UNL     1      32.998  -7.280 -22.378  0.00  0.00    +0.067 C 
BRANCH  19  22
ATOM     20  O   UNL     1      32.731  -7.930 -20.043  0.00  0.00    -0.358 OA
ATOM     21  N   UNL     1      32.231  -8.933 -19.222  0.00  0.00    -0.082 NA
ATOM     22  C   UNL     1      32.515  -8.262 -21.341  0.00  0.00    +0.154 C 
ATOM     23  C   UNL     1      31.876  -9.473 -21.407  0.00  0.00    +0.054 C 
ATOM     24  C   UNL     1      31.726  -9.844 -20.059  0.00  0.00    +0.101 C 
ATOM     25  C   UNL     1      31.101 -11.064 -19.523  0.00  0.00    +0.056 C 
ENDBRANCH  19  22
ENDBRANCH  18  19
ENDBRANCH  17  18
ENDBRANCH  16  17
ENDBRANCH  15  16
ENDBRANCH  14  15
ENDBRANCH   1  14
TORSDOF 10
ENDMDL
MODEL 3
REMARK VINA RESULT:      -9.6      4.081      6.482
REMARK  Name = 55717
REMARK  10 active torsions:
REMARK  status: ('A' for Active; 'I' for Inactive)
REMARK    1  A    between atoms: C_1  and  O_2
REMARK    2  A    between atoms: C_1  and  C_14
REMARK    3  A    between atoms: O_2  and  C_3
REMARK    4  A    between atoms: C_4  and  C_11
REMARK    5  A    between atoms: C_14  and  C_15
REMARK    6  A    between atoms: C_15  and  C_16
REMARK    7  A    between atoms: C_16  and  C_17
REMARK    8  A    between atoms: C_17  and  C_18
REMARK    9  A    between atoms: C_18  and  C_19
REMARK   10  A    between atoms: C_19  and  C_22
REMARK                            x       y       z     vdW  Elec       q    Type
REMARK                         _______ _______ _______ _____ _____    ______ ____
ROOT
ATOM      1  C   UNL     1      33.241 -23.174 -17.313  0.00  0.00    +0.205 C 
ENDROOT
BRANCH   1   2
ATOM      2  O   UNL     1      34.418 -23.128 -18.107  0.00  0.00    -0.475 OA
BRANCH   2   3
ATOM      3  C   UNL     1      34.538 -22.074 -18.976  0.00  0.00    +0.139 C 
ATOM      4  C   UNL     1      34.785 -19.927 -20.740  0.00  0.00    +0.053 C 
ATOM      5  C   UNL     1      35.803 -21.621 -19.350  0.00  0.00    +0.037 C 
ATOM      6  C   UNL     1      33.397 -21.455 -19.485  0.00  0.00    +0.037 C 
ATOM      7  C   UNL     1      35.927 -20.548 -20.232  0.00  0.00    +0.008 C 
ATOM      8  C   UNL     1      33.520 -20.382 -20.366  0.00  0.00    +0.008 C 
BRANCH   4  11
ATOM      9  O   UNL     1      34.523 -19.060 -22.939  0.00  0.00    -0.458 OA
ATOM     10  N   UNL     1      35.362 -17.616 -21.379  0.00  0.00    -0.234 NA
ATOM     11  C   UNL     1      34.915 -18.796 -21.670  0.00  0.00    +0.220 C 
ATOM     12  C   UNL     1      34.932 -17.923 -23.683  0.00  0.00    +0.233 C 
ATOM     13  C   UNL     1      35.207 -16.871 -22.633  0.00  0.00    +0.176 C 
ENDBRANCH   4  11
ENDBRANCH   2   3
ENDBRANCH   1   2
BRANCH   1  14
ATOM     14  C   UNL     1      33.624 -23.550 -15.888  0.00  0.00    +0.047 C 
BRANCH  14  15
ATOM     15  C   UNL     1      35.132 -23.739 -15.740  0.00  0.00    +0.004 C 
BRANCH  15  16
ATOM     16  C   UNL     1      35.639 -23.157 -14.419  0.00  0.00    +0.000 C 
BRANCH  16  17
ATOM     17  C   UNL     1      34.944 -23.809 -13.221  0.00  0.00    +0.000 C 
BRANCH  17  18
ATOM     18  C   UNL     1      35.901 -23.948 -12.033  0.00  0.00    +0.008 C 
BRANCH  18  19
ATOM     19  C   UNL     1      36.500 -25.353 -11.899  0.00  0.00    +0.067 C 
BRANCH  19  22
ATOM     20  O   UNL     1      37.452 -26.787 -13.628  0.00  0.00    -0.358 OA
ATOM     21  N   UNL     1      38.519 -26.899 -14.510  0.00  0.00    -0.082 NA
ATOM     22  C   UNL     1      37.579 -25.639 -12.914  0.00  0.00    +0.154 C 
ATOM     23  C   UNL     1      38.714 -24.977 -13.303  0.00  0.00    +0.054 C 
ATOM     24  C   UNL     1      39.259 -25.807 -14.298  0.00  0.00    +0.101 C 
ATOM     25  C   UNL     1      40.490 -25.594 -15.076  0.00  0.00    +0.056 C 
ENDBRANCH  19  22
ENDBRANCH  18  19
ENDBRANCH  17  18
ENDBRANCH  16  17
ENDBRANCH  15  16
ENDBRANCH  14  15
ENDBRANCH   1  14
TORSDOF 10
ENDMDL
MODEL 4
REMARK VINA RESULT:      -9.5      4.349     11.135
REMARK  Name = 55717
REMARK  10 active torsions:
REMARK  status: ('A' for Active; 'I' for Inactive)
REMARK    1  A    between atoms: C_1  and  O_2
REMARK    2  A    between atoms: C_1  and  C_14
REMARK    3  A    between atoms: O_2  and  C_3
REMARK    4  A    between atoms: C_4  and  C_11
REMARK    5  A    between atoms: C_14  and  C_15
REMARK    6  A    between atoms: C_15  and  C_16
REMARK    7  A    between atoms: C_16  and  C_17
REMARK    8  A    between atoms: C_17  and  C_18
REMARK    9  A    between atoms: C_18  and  C_19
REMARK   10  A    between atoms: C_19  and  C_22
REMARK                            x       y       z     vdW  Elec       q    Type
REMARK                         _______ _______ _______ _____ _____    ______ ____
ROOT
ATOM      1  C   UNL     1      35.190 -18.966 -23.803  0.00  0.00    +0.205 C 
ENDROOT
BRANCH   1   2
ATOM      2  O   UNL     1      35.256 -18.520 -22.456  0.00  0.00    -0.475 OA
BRANCH   2   3
ATOM      3  C   UNL     1      34.882 -19.415 -21.487  0.00  0.00    +0.139 C 
ATOM      4  C   UNL     1      34.119 -21.233 -19.514  0.00  0.00    +0.053 C 
ATOM      5  C   UNL     1      33.531 -19.594 -21.189  0.00  0.00    +0.037 C 
ATOM      6  C   UNL     1      35.851 -20.145 -20.800  0.00  0.00    +0.037 C 
ATOM      7  C   UNL     1      33.150 -20.503 -20.202  0.00  0.00    +0.008 C 
ATOM      8  C   UNL     1      35.470 -21.054 -19.813  0.00  0.00    +0.008 C 
BRANCH   4  11
ATOM      9  O   UNL     1      32.378 -22.333 -18.324  0.00  0.00    -0.458 OA
ATOM     10  N   UNL     1      34.513 -22.877 -17.718  0.00  0.00    -0.234 NA
ATOM     11  C   UNL     1      33.716 -22.191 -18.473  0.00  0.00    +0.220 C 
ATOM     12  C   UNL     1      32.232 -23.119 -17.152  0.00  0.00    +0.233 C 
ATOM     13  C   UNL     1      33.603 -23.714 -16.929  0.00  0.00    +0.176 C 
ENDBRANCH   4  11
ENDBRANCH   2   3
ENDBRANCH   1   2
BRANCH   1  14
ATOM     14  C   UNL     1      34.527 -17.887 -24.647  0.00  0.00    +0.047 C 
BRANCH  14  15
ATOM     15  C   UNL     1      34.885 -16.486 -24.155  0.00  0.00    +0.004 C 
BRANCH  15  16
ATOM     16  C   UNL     1      33.745 -15.498 -24.413  0.00  0.00    +0.000 C 
BRANCH  16  17
ATOM     17  C   UNL     1      33.548 -14.554 -23.225  0.00  0.00    +0.000 C 
BRANCH  17  18
ATOM     18  C   UNL     1      32.909 -13.234 -23.666  0.00  0.00    +0.008 C 
BRANCH  18  19
ATOM     19  C   UNL     1      33.820 -12.391 -24.565  0.00  0.00    +0.067 C 
BRANCH  19  22
ATOM     20  O   UNL     1      32.941 -10.510 -23.285  0.00  0.00    -0.358 OA
ATOM     21  N   UNL     1      33.156  -9.168 -23.000  0.00  0.00    -0.082 NA
ATOM     22  C   UNL     1      33.899 -10.945 -24.143  0.00  0.00    +0.154 C 
ATOM     23  C   UNL     1      34.754  -9.916 -24.439  0.00  0.00    +0.054 C 
ATOM     24  C   UNL     1      34.243  -8.835 -23.700  0.00  0.00    +0.101 C 
ATOM     25  C   UNL     1      34.766  -7.461 -23.633  0.00  0.00    +0.056 C 
ENDBRANCH  19  22
ENDBRANCH  18  19
ENDBRANCH  17  18
ENDBRANCH  16  17
ENDBRANCH  15  16
ENDBRANCH  14  15
ENDBRANCH   1  14
TORSDOF 10
ENDMDL
MODEL 5
REMARK VINA RESULT:      -9.5      3.636      5.970
REMARK  Name = 55717
REMARK  10 active torsions:
REMARK  status: ('A' for Active; 'I' for Inactive)
REMARK    1  A    between atoms: C_1  and  O_2
REMARK    2  A    between atoms: C_1  and  C_14
REMARK    3  A    between atoms: O_2  and  C_3
REMARK    4  A    between atoms: C_4  and  C_11
REMARK    5  A    between atoms: C_14  and  C_15
REMARK    6  A    between atoms: C_15  and  C_16
REMARK    7  A    between atoms: C_16  and  C_17
REMARK    8  A    between atoms: C_17  and  C_18
REMARK    9  A    between atoms: C_18  and  C_19
REMARK   10  A    between atoms: C_19  and  C_22
REMARK                            x       y       z     vdW  Elec       q    Type
REMARK                         _______ _______ _______ _____ _____    ______ ____
ROOT
ATOM      1  C   UNL     1      33.581 -23.168 -17.357  0.00  0.00    +0.205 C 
ENDROOT
BRANCH   1   2
ATOM      2  O   UNL     1      33.781 -23.254 -18.760  0.00  0.00    -0.475 OA
BRANCH   2   3
ATOM      3  C   UNL     1      34.028 -22.081 -19.425  0.00  0.00    +0.139 C 
ATOM      4  C   UNL     1      34.528 -19.694 -20.780  0.00  0.00    +0.053 C 
ATOM      5  C   UNL     1      32.965 -21.289 -19.859  0.00  0.00    +0.037 C 
ATOM      6  C   UNL     1      35.341 -21.678 -19.668  0.00  0.00    +0.037 C 
ATOM      7  C   UNL     1      33.214 -20.096 -20.536  0.00  0.00    +0.008 C 
ATOM      8  C   UNL     1      35.591 -20.486 -20.345  0.00  0.00    +0.008 C 
BRANCH   4  11
ATOM      9  O   UNL     1      34.865 -17.341 -20.701  0.00  0.00    -0.458 OA
ATOM     10  N   UNL     1      34.947 -18.302 -22.773  0.00  0.00    -0.234 NA
ATOM     11  C   UNL     1      34.791 -18.436 -21.494  0.00  0.00    +0.220 C 
ATOM     12  C   UNL     1      34.906 -16.248 -21.605  0.00  0.00    +0.233 C 
ATOM     13  C   UNL     1      35.255 -16.878 -22.934  0.00  0.00    +0.176 C 
ENDBRANCH   4  11
ENDBRANCH   2   3
ENDBRANCH   1   2
BRANCH   1  14
ATOM     14  C   UNL     1      32.090 -23.269 -17.065  0.00  0.00    +0.047 C 
BRANCH  14  15
ATOM     15  C   UNL     1      31.823 -23.604 -15.599  0.00  0.00    +0.004 C 
BRANCH  15  16
ATOM     16  C   UNL     1      32.987 -23.164 -14.708  0.00  0.00    +0.000 C 
BRANCH  16  17
ATOM     17  C   UNL     1      33.341 -24.246 -13.684  0.00  0.00    +0.000 C 
BRANCH  17  18
ATOM     18  C   UNL     1      34.855 -24.465 -13.612  0.00  0.00    +0.008 C 
BRANCH  18  19
ATOM     19  C   UNL     1      35.460 -24.952 -14.934  0.00  0.00    +0.067 C 
BRANCH  19  22
ATOM     20  O   UNL     1      37.047 -26.801 -14.825  0.00  0.00    -0.358 OA
ATOM     21  N   UNL     1      38.397 -27.095 -14.680  0.00  0.00    -0.082 NA
ATOM     22  C   UNL     1      36.875 -25.455 -14.790  0.00  0.00    +0.154 C 
ATOM     23  C   UNL     1      38.088 -24.839 -14.625  0.00  0.00    +0.054 C 
ATOM     24  C   UNL     1      38.999 -25.908 -14.562  0.00  0.00    +0.101 C 
ATOM     25  C   UNL     1      40.459 -25.840 -14.391  0.00  0.00    +0.056 C 
ENDBRANCH  19  22
ENDBRANCH  18  19
ENDBRANCH  17  18
ENDBRANCH  16  17
ENDBRANCH  15  16
ENDBRANCH  14  15
ENDBRANCH   1  14
TORSDOF 10
ENDMDL
MODEL 6
REMARK VINA RESULT:      -9.4      5.305     11.075
REMARK  Name = 55717
REMARK  10 active torsions:
REMARK  status: ('A' for Active; 'I' for Inactive)
REMARK    1  A    between atoms: C_1  and  O_2
REMARK    2  A    between atoms: C_1  and  C_14
REMARK    3  A    between atoms: O_2  and  C_3
REMARK    4  A    between atoms: C_4  and  C_11
REMARK    5  A    between atoms: C_14  and  C_15
REMARK    6  A    between atoms: C_15  and  C_16
REMARK    7  A    between atoms: C_16  and  C_17
REMARK    8  A    between atoms: C_17  and  C_18
REMARK    9  A    between atoms: C_18  and  C_19
REMARK   10  A    between atoms: C_19  and  C_22
REMARK                            x       y       z     vdW  Elec       q    Type
REMARK                         _______ _______ _______ _____ _____    ______ ____
ROOT
ATOM      1  C   UNL     1      33.442 -14.952 -24.198  0.00  0.00    +0.205 C 
ENDROOT
BRANCH   1   2
ATOM      2  O   UNL     1      34.628 -15.730 -24.253  0.00  0.00    -0.475 OA
BRANCH   2   3
ATOM      3  C   UNL     1      34.726 -16.775 -23.370  0.00  0.00    +0.139 C 
ATOM      4  C   UNL     1      34.921 -18.901 -21.575  0.00  0.00    +0.053 C 
ATOM      5  C   UNL     1      34.661 -18.088 -23.835  0.00  0.00    +0.037 C 
ATOM      6  C   UNL     1      34.889 -16.525 -22.008  0.00  0.00    +0.037 C 
ATOM      7  C   UNL     1      34.759 -19.151 -22.938  0.00  0.00    +0.008 C 
ATOM      8  C   UNL     1      34.986 -17.587 -21.111  0.00  0.00    +0.008 C 
BRANCH   4  11
ATOM      9  O   UNL     1      33.863 -20.684 -20.410  0.00  0.00    -0.458 OA
ATOM     10  N   UNL     1      36.097 -20.404 -20.012  0.00  0.00    -0.234 NA
ATOM     11  C   UNL     1      35.024 -20.022 -20.629  0.00  0.00    +0.220 C 
ATOM     12  C   UNL     1      34.151 -21.559 -19.330  0.00  0.00    +0.233 C 
ATOM     13  C   UNL     1      35.661 -21.590 -19.268  0.00  0.00    +0.176 C 
ENDBRANCH   4  11
ENDBRANCH   2   3
ENDBRANCH   1   2
BRANCH   1  14
ATOM     14  C   UNL     1      33.795 -13.547 -23.730  0.00  0.00    +0.047 C 
BRANCH  14  15
ATOM     15  C   UNL     1      32.701 -12.955 -22.846  0.00  0.00    +0.004 C 
BRANCH  15  16
ATOM     16  C   UNL     1      32.348 -13.896 -21.692  0.00  0.00    +0.000 C 
BRANCH  16  17
ATOM     17  C   UNL     1      32.114 -13.120 -20.394  0.00  0.00    +0.000 C 
BRANCH  17  18
ATOM     18  C   UNL     1      31.428 -11.777 -20.666  0.00  0.00    +0.008 C 
BRANCH  18  19
ATOM     19  C   UNL     1      31.766 -10.703 -19.626  0.00  0.00    +0.067 C 
BRANCH  19  22
ATOM     20  O   UNL     1      32.164  -8.311 -19.365  0.00  0.00    -0.358 OA
ATOM     21  N   UNL     1      32.366  -7.137 -20.079  0.00  0.00    -0.082 NA
ATOM     22  C   UNL     1      32.000  -9.342 -20.233  0.00  0.00    +0.154 C 
ATOM     23  C   UNL     1      32.091  -8.880 -21.520  0.00  0.00    +0.054 C 
ATOM     24  C   UNL     1      32.319  -7.502 -21.364  0.00  0.00    +0.101 C 
ATOM     25  C   UNL     1      32.499  -6.492 -22.419  0.00  0.00    +0.056 C 
ENDBRANCH  19  22
ENDBRANCH  18  19
ENDBRANCH  17  18
ENDBRANCH  16  17
ENDBRANCH  15  16
ENDBRANCH  14  15
ENDBRANCH   1  14
TORSDOF 10
ENDMDL
MODEL 7
REMARK VINA RESULT:      -9.4      4.522      6.585
REMARK  Name = 55717
REMARK  10 active torsions:
REMARK  status: ('A' for Active; 'I' for Inactive)
REMARK    1  A    between atoms: C_1  and  O_2
REMARK    2  A    between atoms: C_1  and  C_14
REMARK    3  A    between atoms: O_2  and  C_3
REMARK    4  A    between atoms: C_4  and  C_11
REMARK    5  A    between atoms: C_14  and  C_15
REMARK    6  A    between atoms: C_15  and  C_16
REMARK    7  A    between atoms: C_16  and  C_17
REMARK    8  A    between atoms: C_17  and  C_18
REMARK    9  A    between atoms: C_18  and  C_19
REMARK   10  A    between atoms: C_19  and  C_22
REMARK                            x       y       z     vdW  Elec       q    Type
REMARK                         _______ _______ _______ _____ _____    ______ ____
ROOT
ATOM      1  C   UNL     1      35.348 -20.537 -20.539  0.00  0.00    +0.205 C 
ENDROOT
BRANCH   1   2
ATOM      2  O   UNL     1      36.002 -19.286 -20.697  0.00  0.00    -0.475 OA
BRANCH   2   3
ATOM      3  C   UNL     1      35.505 -18.445 -21.660  0.00  0.00    +0.139 C 
ATOM      4  C   UNL     1      34.491 -16.734 -23.616  0.00  0.00    +0.053 C 
ATOM      5  C   UNL     1      35.088 -17.160 -21.314  0.00  0.00    +0.037 C 
ATOM      6  C   UNL     1      35.415 -18.875 -22.983  0.00  0.00    +0.037 C 
ATOM      7  C   UNL     1      34.582 -16.304 -22.292  0.00  0.00    +0.008 C 
ATOM      8  C   UNL     1      34.908 -18.020 -23.961  0.00  0.00    +0.008 C 
BRANCH   4  11
ATOM      9  O   UNL     1      33.545 -14.627 -24.185  0.00  0.00    -0.458 OA
ATOM     10  N   UNL     1      33.850 -16.095 -25.910  0.00  0.00    -0.234 NA
ATOM     11  C   UNL     1      33.956 -15.832 -24.647  0.00  0.00    +0.220 C 
ATOM     12  C   UNL     1      32.887 -14.028 -25.289  0.00  0.00    +0.233 C 
ATOM     13  C   UNL     1      33.337 -14.844 -26.479  0.00  0.00    +0.176 C 
ENDBRANCH   4  11
ENDBRANCH   2   3
ENDBRANCH   1   2
BRANCH   1  14
ATOM     14  C   UNL     1      33.861 -20.293 -20.325  0.00  0.00    +0.047 C 
BRANCH  14  15
ATOM     15  C   UNL     1      33.215 -21.416 -19.517  0.00  0.00    +0.004 C 
BRANCH  15  16
ATOM     16  C   UNL     1      34.255 -22.174 -18.689  0.00  0.00    +0.000 C 
BRANCH  16  17
ATOM     17  C   UNL     1      33.587 -23.165 -17.732  0.00  0.00    +0.000 C 
BRANCH  17  18
ATOM     18  C   UNL     1      34.300 -23.192 -16.376  0.00  0.00    +0.008 C 
BRANCH  18  19
ATOM     19  C   UNL     1      35.803 -22.909 -16.476  0.00  0.00    +0.067 C 
BRANCH  19  22
ATOM     20  O   UNL     1      37.322 -22.707 -14.580  0.00  0.00    -0.358 OA
ATOM     21  N   UNL     1      37.997 -23.446 -13.616  0.00  0.00    -0.082 NA
ATOM     22  C   UNL     1      36.603 -23.546 -15.367  0.00  0.00    +0.154 C 
ATOM     23  C   UNL     1      36.782 -24.838 -14.949  0.00  0.00    +0.054 C 
ATOM     24  C   UNL     1      37.659 -24.716 -13.857  0.00  0.00    +0.101 C 
ATOM     25  C   UNL     1      38.200 -25.791 -13.010  0.00  0.00    +0.056 C 
ENDBRANCH  19  22
ENDBRANCH  18  19
ENDBRANCH  17  18
ENDBRANCH  16  17
ENDBRANCH  15  16
ENDBRANCH  14  15
ENDBRANCH   1  14
TORSDOF 10
ENDMDL
MODEL 8
REMARK VINA RESULT:      -9.3      1.752      8.459
REMARK  Name = 55717
REMARK  10 active torsions:
REMARK  status: ('A' for Active; 'I' for Inactive)
REMARK    1  A    between atoms: C_1  and  O_2
REMARK    2  A    between atoms: C_1  and  C_14
REMARK    3  A    between atoms: O_2  and  C_3
REMARK    4  A    between atoms: C_4  and  C_11
REMARK    5  A    between atoms: C_14  and  C_15
REMARK    6  A    between atoms: C_15  and  C_16
REMARK    7  A    between atoms: C_16  and  C_17
REMARK    8  A    between atoms: C_17  and  C_18
REMARK    9  A    between atoms: C_18  and  C_19
REMARK   10  A    between atoms: C_19  and  C_22
REMARK                            x       y       z     vdW  Elec       q    Type
REMARK                         _______ _______ _______ _____ _____    ______ ____
ROOT
ATOM      1  C   UNL     1      36.346 -22.688 -15.600  0.00  0.00    +0.205 C 
ENDROOT
BRANCH   1   2
ATOM      2  O   UNL     1      35.507 -23.793 -15.905  0.00  0.00    -0.475 OA
BRANCH   2   3
ATOM      3  C   UNL     1      34.160 -23.548 -15.975  0.00  0.00    +0.139 C 
ATOM      4  C   UNL     1      31.419 -23.046 -16.117  0.00  0.00    +0.053 C 
ATOM      5  C   UNL     1      33.574 -23.217 -17.197  0.00  0.00    +0.037 C 
ATOM      6  C   UNL     1      33.375 -23.628 -14.825  0.00  0.00    +0.037 C 
ATOM      7  C   UNL     1      32.204 -22.967 -17.269  0.00  0.00    +0.008 C 
ATOM      8  C   UNL     1      32.006 -23.377 -14.896  0.00  0.00    +0.008 C 
BRANCH   4  11
ATOM      9  O   UNL     1      29.398 -22.457 -15.011  0.00  0.00    -0.458 OA
ATOM     10  N   UNL     1      29.243 -22.837 -17.260  0.00  0.00    -0.234 NA
ATOM     11  C   UNL     1      29.975 -22.781 -16.193  0.00  0.00    +0.220 C 
ATOM     12  C   UNL     1      28.005 -22.460 -15.283  0.00  0.00    +0.233 C 
ATOM     13  C   UNL     1      27.919 -22.415 -16.791  0.00  0.00    +0.176 C 
ENDBRANCH   4  11
ENDBRANCH   2   3
ENDBRANCH   1   2
BRANCH   1  14
ATOM     14  C   UNL     1      37.268 -22.427 -16.782  0.00  0.00    +0.047 C 
BRANCH  14  15
ATOM     15  C   UNL     1      36.811 -21.221 -17.599  0.00  0.00    +0.004 C 
BRANCH  15  16
ATOM     16  C   UNL     1      36.187 -21.652 -18.927  0.00  0.00    +0.000 C 
BRANCH  16  17
ATOM     17  C   UNL     1      36.444 -20.617 -20.024  0.00  0.00    +0.000 C 
BRANCH  17  18
ATOM     18  C   UNL     1      35.130 -20.074 -20.594  0.00  0.00    +0.008 C 
BRANCH  18  19
ATOM     19  C   UNL     1      35.311 -19.312 -21.912  0.00  0.00    +0.067 C 
BRANCH  19  22
ATOM     20  O   UNL     1      35.205 -17.290 -20.553  0.00  0.00    -0.358 OA
ATOM     21  N   UNL     1      34.918 -15.932 -20.608  0.00  0.00    -0.082 NA
ATOM     22  C   UNL     1      35.041 -17.834 -21.786  0.00  0.00    +0.154 C 
ATOM     23  C   UNL     1      34.648 -16.863 -22.670  0.00  0.00    +0.054 C 
ATOM     24  C   UNL     1      34.588 -15.700 -21.882  0.00  0.00    +0.101 C 
ATOM     25  C   UNL     1      34.219 -14.340 -22.307  0.00  0.00    +0.056 C 
ENDBRANCH  19  22
ENDBRANCH  18  19
ENDBRANCH  17  18
ENDBRANCH  16  17
ENDBRANCH  15  16
ENDBRANCH  14  15
ENDBRANCH   1  14
TORSDOF 10
ENDMDL
MODEL 9
REMARK VINA RESULT:      -9.3      3.757      9.576
REMARK  Name = 55717
REMARK  10 active torsions:
REMARK  status: ('A' for Active; 'I' for Inactive)
REMARK    1  A    between atoms: C_1  and  O_2
REMARK    2  A    between atoms: C_1  and  C_14
REMARK    3  A    between atoms: O_2  and  C_3
REMARK    4  A    between atoms: C_4  and  C_11
REMARK    5  A    between atoms: C_14  and  C_15
REMARK    6  A    between atoms: C_15  and  C_16
REMARK    7  A    between atoms: C_16  and  C_17
REMARK    8  A    between atoms: C_17  and  C_18
REMARK    9  A    between atoms: C_18  and  C_19
REMARK   10  A    between atoms: C_19  and  C_22
REMARK                            x       y       z     vdW  Elec       q    Type
REMARK                         _______ _______ _______ _____ _____    ______ ____
ROOT
ATOM      1  C   UNL     1      34.719 -19.220 -23.948  0.00  0.00    +0.205 C 
ENDROOT
BRANCH   1   2
ATOM      2  O   UNL     1      34.997 -18.747 -22.638  0.00  0.00    -0.475 OA
BRANCH   2   3
ATOM      3  C   UNL     1      34.727 -19.600 -21.600  0.00  0.00    +0.139 C 
ATOM      4  C   UNL     1      34.176 -21.335 -19.485  0.00  0.00    +0.053 C 
ATOM      5  C   UNL     1      33.409 -19.806 -21.192  0.00  0.00    +0.037 C 
ATOM      6  C   UNL     1      35.769 -20.262 -20.951  0.00  0.00    +0.037 C 
ATOM      7  C   UNL     1      33.133 -20.673 -20.136  0.00  0.00    +0.008 C 
ATOM      8  C   UNL     1      35.494 -21.129 -19.894  0.00  0.00    +0.008 C 
BRANCH   4  11
ATOM      9  O   UNL     1      32.569 -22.493 -18.170  0.00  0.00    -0.458 OA
ATOM     10  N   UNL     1      34.758 -22.810 -17.597  0.00  0.00    -0.234 NA
ATOM     11  C   UNL     1      33.885 -22.249 -18.371  0.00  0.00    +0.220 C 
ATOM     12  C   UNL     1      32.521 -23.206 -16.944  0.00  0.00    +0.233 C 
ATOM     13  C   UNL     1      33.945 -23.664 -16.725  0.00  0.00    +0.176 C 
ENDBRANCH   4  11
ENDBRANCH   2   3
ENDBRANCH   1   2
BRANCH   1  14
ATOM     14  C   UNL     1      34.243 -18.054 -24.803  0.00  0.00    +0.047 C 
BRANCH  14  15
ATOM     15  C   UNL     1      35.027 -16.779 -24.504  0.00  0.00    +0.004 C 
BRANCH  15  16
ATOM     16  C   UNL     1      34.121 -15.694 -23.916  0.00  0.00    +0.000 C 
BRANCH  16  17
ATOM     17  C   UNL     1      34.585 -15.283 -22.516  0.00  0.00    +0.000 C 
BRANCH  17  18
ATOM     18  C   UNL     1      33.409 -14.800 -21.662  0.00  0.00    +0.008 C 
BRANCH  18  19
ATOM     19  C   UNL     1      32.439 -13.891 -22.427  0.00  0.00    +0.067 C 
BRANCH  19  22
ATOM     20  O   UNL     1      31.591 -11.606 -22.333  0.00  0.00    -0.358 OA
ATOM     21  N   UNL     1      31.213 -10.600 -21.453  0.00  0.00    -0.082 NA
ATOM     22  C   UNL     1      31.989 -12.694 -21.626  0.00  0.00    +0.154 C 
ATOM     23  C   UNL     1      31.884 -12.437 -20.284  0.00  0.00    +0.054 C 
ATOM     24  C   UNL     1      31.396 -11.119 -20.236  0.00  0.00    +0.101 C 
ATOM     25  C   UNL     1      31.089 -10.314 -19.042  0.00  0.00    +0.056 C 
ENDBRANCH  19  22
ENDBRANCH  18  19
ENDBRANCH  17  18
ENDBRANCH  16  17
ENDBRANCH  15  16
ENDBRANCH  14  15
ENDBRANCH   1  14
TORSDOF 10
ENDMDL
