MODEL 1
REMARK VINA RESULT:     -12.1      0.000      0.000
REMARK  Name = 24963046
REMARK  6 active torsions:
REMARK  status: ('A' for Active; 'I' for Inactive)
REMARK    1  A    between atoms: N_1  and  C_27
REMARK    2  A    between atoms: C_4  and  C_16
REMARK    3  A    between atoms: C_13  and  C_22
REMARK    4  A    between atoms: N_21  and  C_24
REMARK    5  A    between atoms: C_27  and  C_28
REMARK    6  A    between atoms: C_28  and  N_30
REMARK                            x       y       z     vdW  Elec       q    Type
REMARK                         _______ _______ _______ _____ _____    ______ ____
ROOT
ATOM      1  N   UNL     1      35.905 -22.484 -17.336  0.00  0.00    -0.270 N 
ATOM      2  N   UNL     1      36.368 -20.885 -18.957  0.00  0.00    -0.338 NA
ATOM      3  N   UNL     1      34.195 -21.916 -18.796  0.00  0.00    -0.170 NA
ATOM      4  C   UNL     1      35.094 -18.592 -22.197  0.00  0.00    -0.000 C 
ATOM      5  C   UNL     1      34.213 -19.481 -21.589  0.00  0.00    +0.004 C 
ATOM      6  C   UNL     1      34.639 -20.256 -20.496  0.00  0.00    +0.050 C 
ATOM      7  C   UNL     1      35.468 -21.729 -18.411  0.00  0.00    +0.145 C 
ATOM      8  C   UNL     1      36.394 -18.477 -21.716  0.00  0.00    +0.003 C 
ATOM      9  C   UNL     1      35.950 -20.149 -20.002  0.00  0.00    +0.146 C 
ATOM     10  C   UNL     1      36.809 -19.251 -20.629  0.00  0.00    +0.033 C 
ATOM     11  C   UNL     1      33.809 -21.163 -19.844  0.00  0.00    +0.114 C 
ATOM     12  H   UNL     1      35.268 -23.108 -16.917  0.00  0.00    +0.159 HD
ENDROOT
BRANCH   4  16
ATOM     13  C   UNL     1      33.899 -15.668 -24.182  0.00  0.00    +0.053 C 
ATOM     14  C   UNL     1      34.319 -16.458 -23.112  0.00  0.00    +0.004 C 
ATOM     15  C   UNL     1      33.821 -16.214 -25.462  0.00  0.00    +0.004 C 
ATOM     16  C   UNL     1      34.661 -17.793 -23.322  0.00  0.00    -0.004 C 
ATOM     17  C   UNL     1      34.582 -18.339 -24.604  0.00  0.00    -0.022 C 
ATOM     18  C   UNL     1      34.162 -17.550 -25.674  0.00  0.00    -0.004 C 
ATOM     19  C   UNL     1      34.941 -19.767 -24.869  0.00  0.00    +0.031 C 
BRANCH  13  22
ATOM     20  O   UNL     1      33.010 -13.917 -22.897  0.00  0.00    -0.270 OA
ATOM     21  N   UNL     1      33.808 -13.378 -25.005  0.00  0.00    -0.302 N 
ATOM     22  C   UNL     1      33.543 -14.275 -23.963  0.00  0.00    +0.246 C 
ATOM     23  H   UNL     1      34.231 -13.725 -25.824  0.00  0.00    +0.150 HD
BRANCH  21  24
ATOM     24  C   UNL     1      33.492 -11.978 -24.941  0.00  0.00    +0.072 C 
ATOM     25  C   UNL     1      34.194 -11.066 -23.978  0.00  0.00    +0.021 C 
ATOM     26  C   UNL     1      34.450 -10.943 -25.452  0.00  0.00    +0.021 C 
ENDBRANCH  21  24
ENDBRANCH  13  22
ENDBRANCH   4  16
BRANCH   1  27
ATOM     27  C   UNL     1      37.240 -22.409 -16.793  0.00  0.00    +0.075 C 
BRANCH  27  28
ATOM     28  C   UNL     1      37.247 -22.957 -15.371  0.00  0.00    -0.055 C 
BRANCH  28  30
ATOM     29  O   UNL     1      37.907 -26.903 -14.102  0.00  0.00    -0.358 OA
ATOM     30  N   UNL     1      37.592 -24.377 -15.376  0.00  0.00    +0.391 N 
ATOM     31  C   UNL     1      36.432 -25.197 -14.999  0.00  0.00    -0.045 C 
ATOM     32  C   UNL     1      38.715 -24.645 -14.468  0.00  0.00    -0.045 C 
ATOM     33  C   UNL     1      36.819 -26.673 -14.999  0.00  0.00    +0.119 C 
ATOM     34  C   UNL     1      39.049 -26.134 -14.482  0.00  0.00    +0.119 C 
ATOM     35  H   UNL     1      37.872 -24.627 -16.325  0.00  0.00    -0.079 HD
ENDBRANCH  28  30
ENDBRANCH  27  28
ENDBRANCH   1  27
TORSDOF 6
ENDMDL
MODEL 2
REMARK VINA RESULT:     -11.9      1.355      1.540
REMARK  Name = 24963046
REMARK  6 active torsions:
REMARK  status: ('A' for Active; 'I' for Inactive)
REMARK    1  A    between atoms: N_1  and  C_27
REMARK    2  A    between atoms: C_4  and  C_16
REMARK    3  A    between atoms: C_13  and  C_22
REMARK    4  A    between atoms: N_21  and  C_24
REMARK    5  A    between atoms: C_27  and  C_28
REMARK    6  A    between atoms: C_28  and  N_30
REMARK                            x       y       z     vdW  Elec       q    Type
REMARK                         _______ _______ _______ _____ _____    ______ ____
ROOT
ATOM      1  N   UNL     1      35.402 -22.826 -17.222  0.00  0.00    -0.270 N 
ATOM      2  N   UNL     1      36.030 -21.222 -18.783  0.00  0.00    -0.338 NA
ATOM      3  N   UNL     1      33.776 -22.070 -18.694  0.00  0.00    -0.170 NA
ATOM      4  C   UNL     1      35.022 -18.733 -21.970  0.00  0.00    -0.000 C 
ATOM      5  C   UNL     1      34.056 -19.562 -21.407  0.00  0.00    +0.004 C 
ATOM      6  C   UNL     1      34.393 -20.403 -20.332  0.00  0.00    +0.050 C 
ATOM      7  C   UNL     1      35.052 -22.003 -18.281  0.00  0.00    +0.145 C 
ATOM      8  C   UNL     1      36.316 -18.742 -21.462  0.00  0.00    +0.003 C 
ATOM      9  C   UNL     1      35.697 -20.422 -19.811  0.00  0.00    +0.146 C 
ATOM     10  C   UNL     1      36.642 -19.582 -20.393  0.00  0.00    +0.033 C 
ATOM     11  C   UNL     1      33.476 -21.256 -19.725  0.00  0.00    +0.114 C 
ATOM     12  H   UNL     1      34.706 -23.406 -16.835  0.00  0.00    +0.159 HD
ENDROOT
BRANCH   4  16
ATOM     13  C   UNL     1      34.027 -15.680 -23.870  0.00  0.00    +0.053 C 
ATOM     14  C   UNL     1      34.359 -16.534 -22.818  0.00  0.00    +0.004 C 
ATOM     15  C   UNL     1      34.016 -16.158 -25.180  0.00  0.00    +0.004 C 
ATOM     16  C   UNL     1      34.680 -17.866 -23.077  0.00  0.00    -0.004 C 
ATOM     17  C   UNL     1      34.669 -18.344 -24.388  0.00  0.00    -0.022 C 
ATOM     18  C   UNL     1      34.338 -17.490 -25.439  0.00  0.00    -0.004 C 
ATOM     19  C   UNL     1      35.008 -19.766 -24.704  0.00  0.00    +0.031 C 
BRANCH  13  22
ATOM     20  O   UNL     1      33.869 -13.416 -24.468  0.00  0.00    -0.270 OA
ATOM     21  N   UNL     1      33.189 -13.990 -22.329  0.00  0.00    -0.302 N 
ATOM     22  C   UNL     1      33.692 -14.290 -23.601  0.00  0.00    +0.246 C 
ATOM     23  H   UNL     1      33.072 -14.728 -21.687  0.00  0.00    +0.150 HD
BRANCH  21  24
ATOM     24  C   UNL     1      32.834 -12.661 -21.913  0.00  0.00    +0.072 C 
ATOM     25  C   UNL     1      31.458 -12.113 -22.152  0.00  0.00    +0.021 C 
ATOM     26  C   UNL     1      31.909 -12.432 -20.756  0.00  0.00    +0.021 C 
ENDBRANCH  21  24
ENDBRANCH  13  22
ENDBRANCH   4  16
BRANCH   1  27
ATOM     27  C   UNL     1      36.727 -22.879 -16.653  0.00  0.00    +0.075 C 
BRANCH  27  28
ATOM     28  C   UNL     1      36.629 -23.066 -15.144  0.00  0.00    -0.055 C 
BRANCH  28  30
ATOM     29  O   UNL     1      37.591 -26.686 -13.250  0.00  0.00    -0.358 OA
ATOM     30  N   UNL     1      37.352 -24.268 -14.732  0.00  0.00    +0.391 N 
ATOM     31  C   UNL     1      36.609 -25.478 -15.112  0.00  0.00    -0.045 C 
ATOM     32  C   UNL     1      37.596 -24.260 -13.284  0.00  0.00    -0.045 C 
ATOM     33  C   UNL     1      37.375 -26.718 -14.662  0.00  0.00    +0.119 C 
ATOM     34  C   UNL     1      38.341 -25.529 -12.878  0.00  0.00    +0.119 C 
ATOM     35  H   UNL     1      38.250 -24.273 -15.216  0.00  0.00    -0.079 HD
ENDBRANCH  28  30
ENDBRANCH  27  28
ENDBRANCH   1  27
TORSDOF 6
ENDMDL
MODEL 3
REMARK VINA RESULT:     -11.7      3.125     11.660
REMARK  Name = 24963046
REMARK  6 active torsions:
REMARK  status: ('A' for Active; 'I' for Inactive)
REMARK    1  A    between atoms: N_1  and  C_27
REMARK    2  A    between atoms: C_4  and  C_16
REMARK    3  A    between atoms: C_13  and  C_22
REMARK    4  A    between atoms: N_21  and  C_24
REMARK    5  A    between atoms: C_27  and  C_28
REMARK    6  A    between atoms: C_28  and  N_30
REMARK                            x       y       z     vdW  Elec       q    Type
REMARK                         _______ _______ _______ _____ _____    ______ ____
ROOT
ATOM      1  N   UNL     1      33.384 -14.025 -25.926  0.00  0.00    -0.270 N 
ATOM      2  N   UNL     1      33.797 -15.002 -23.858  0.00  0.00    -0.338 NA
ATOM      3  N   UNL     1      34.081 -16.237 -25.908  0.00  0.00    -0.170 NA
ATOM      4  C   UNL     1      34.957 -18.330 -21.633  0.00  0.00    -0.000 C 
ATOM      5  C   UNL     1      34.911 -18.407 -23.022  0.00  0.00    +0.004 C 
ATOM      6  C   UNL     1      34.520 -17.287 -23.776  0.00  0.00    +0.050 C 
ATOM      7  C   UNL     1      33.772 -15.139 -25.200  0.00  0.00    +0.145 C 
ATOM      8  C   UNL     1      34.615 -17.140 -21.000  0.00  0.00    +0.003 C 
ATOM      9  C   UNL     1      34.172 -16.079 -23.147  0.00  0.00    +0.146 C 
ATOM     10  C   UNL     1      34.228 -16.031 -21.757  0.00  0.00    +0.033 C 
ATOM     11  C   UNL     1      34.453 -17.298 -25.165  0.00  0.00    +0.114 C 
ATOM     12  H   UNL     1      33.358 -14.097 -26.908  0.00  0.00    +0.159 HD
ENDROOT
BRANCH   4  16
ATOM     13  C   UNL     1      34.738 -21.369 -19.479  0.00  0.00    +0.053 C 
ATOM     14  C   UNL     1      34.375 -20.255 -20.236  0.00  0.00    +0.004 C 
ATOM     15  C   UNL     1      36.083 -21.710 -19.342  0.00  0.00    +0.004 C 
ATOM     16  C   UNL     1      35.357 -19.481 -20.854  0.00  0.00    -0.004 C 
ATOM     17  C   UNL     1      36.703 -19.823 -20.715  0.00  0.00    -0.022 C 
ATOM     18  C   UNL     1      37.066 -20.937 -19.960  0.00  0.00    -0.004 C 
ATOM     19  C   UNL     1      37.785 -19.018 -21.364  0.00  0.00    +0.031 C 
BRANCH  13  22
ATOM     20  O   UNL     1      32.592 -22.310 -19.354  0.00  0.00    -0.270 OA
ATOM     21  N   UNL     1      34.047 -22.768 -17.610  0.00  0.00    -0.302 N 
ATOM     22  C   UNL     1      33.714 -22.176 -18.835  0.00  0.00    +0.246 C 
ATOM     23  H   UNL     1      34.953 -22.623 -17.252  0.00  0.00    +0.150 HD
BRANCH  21  24
ATOM     24  C   UNL     1      33.133 -23.573 -16.848  0.00  0.00    +0.072 C 
ATOM     25  C   UNL     1      33.049 -23.454 -15.355  0.00  0.00    +0.021 C 
ATOM     26  C   UNL     1      31.915 -22.974 -16.212  0.00  0.00    +0.021 C 
ENDBRANCH  21  24
ENDBRANCH  13  22
ENDBRANCH   4  16
BRANCH   1  27
ATOM     27  C   UNL     1      33.019 -12.764 -25.326  0.00  0.00    +0.075 C 
BRANCH  27  28
ATOM     28  C   UNL     1      34.212 -11.817 -25.357  0.00  0.00    -0.055 C 
BRANCH  28  30
ATOM     29  O   UNL     1      33.833  -8.545 -22.756  0.00  0.00    -0.358 OA
ATOM     30  N   UNL     1      33.840 -10.513 -24.812  0.00  0.00    +0.391 N 
ATOM     31  C   UNL     1      35.036  -9.713 -24.510  0.00  0.00    -0.045 C 
ATOM     32  C   UNL     1      33.018 -10.667 -23.604  0.00  0.00    -0.045 C 
ATOM     33  C   UNL     1      34.623  -8.363 -23.932  0.00  0.00    +0.119 C 
ATOM     34  C   UNL     1      32.652  -9.293 -23.048  0.00  0.00    +0.119 C 
ATOM     35  H   UNL     1      33.292 -10.023 -25.520  0.00  0.00    -0.079 HD
ENDBRANCH  28  30
ENDBRANCH  27  28
ENDBRANCH   1  27
TORSDOF 6
ENDMDL
MODEL 4
REMARK VINA RESULT:     -11.0      3.322     12.039
REMARK  Name = 24963046
REMARK  6 active torsions:
REMARK  status: ('A' for Active; 'I' for Inactive)
REMARK    1  A    between atoms: N_1  and  C_27
REMARK    2  A    between atoms: C_4  and  C_16
REMARK    3  A    between atoms: C_13  and  C_22
REMARK    4  A    between atoms: N_21  and  C_24
REMARK    5  A    between atoms: C_27  and  C_28
REMARK    6  A    between atoms: C_28  and  N_30
REMARK                            x       y       z     vdW  Elec       q    Type
REMARK                         _______ _______ _______ _____ _____    ______ ____
ROOT
ATOM      1  N   UNL     1      33.317 -12.605 -24.562  0.00  0.00    -0.270 N 
ATOM      2  N   UNL     1      33.911 -13.999 -22.799  0.00  0.00    -0.338 NA
ATOM      3  N   UNL     1      33.756 -14.829 -25.057  0.00  0.00    -0.170 NA
ATOM      4  C   UNL     1      34.996 -17.783 -21.429  0.00  0.00    -0.000 C 
ATOM      5  C   UNL     1      34.743 -17.582 -22.783  0.00  0.00    +0.004 C 
ATOM      6  C   UNL     1      34.376 -16.308 -23.248  0.00  0.00    +0.050 C 
ATOM      7  C   UNL     1      33.677 -13.868 -24.121  0.00  0.00    +0.145 C 
ATOM      8  C   UNL     1      34.885 -16.715 -20.545  0.00  0.00    +0.003 C 
ATOM      9  C   UNL     1      34.260 -15.222 -22.365  0.00  0.00    +0.146 C 
ATOM     10  C   UNL     1      34.521 -15.450 -21.016  0.00  0.00    +0.033 C 
ATOM     11  C   UNL     1      34.109 -16.041 -24.588  0.00  0.00    +0.114 C 
ATOM     12  H   UNL     1      33.142 -12.481 -25.523  0.00  0.00    +0.159 HD
ENDROOT
BRANCH   4  16
ATOM     13  C   UNL     1      34.744 -21.164 -19.874  0.00  0.00    +0.053 C 
ATOM     14  C   UNL     1      34.404 -19.897 -20.348  0.00  0.00    +0.004 C 
ATOM     15  C   UNL     1      36.053 -21.627 -19.999  0.00  0.00    +0.004 C 
ATOM     16  C   UNL     1      35.373 -19.092 -20.945  0.00  0.00    -0.004 C 
ATOM     17  C   UNL     1      36.684 -19.555 -21.070  0.00  0.00    -0.022 C 
ATOM     18  C   UNL     1      37.024 -20.823 -20.597  0.00  0.00    -0.004 C 
ATOM     19  C   UNL     1      37.750 -18.721 -21.705  0.00  0.00    +0.031 C 
BRANCH  13  22
ATOM     20  O   UNL     1      32.609 -22.134 -19.769  0.00  0.00    -0.270 OA
ATOM     21  N   UNL     1      34.079 -22.632 -18.049  0.00  0.00    -0.302 N 
ATOM     22  C   UNL     1      33.733 -22.005 -19.251  0.00  0.00    +0.246 C 
ATOM     23  H   UNL     1      34.986 -22.489 -17.691  0.00  0.00    +0.150 HD
BRANCH  21  24
ATOM     24  C   UNL     1      33.179 -23.474 -17.309  0.00  0.00    +0.072 C 
ATOM     25  C   UNL     1      33.115 -23.416 -15.811  0.00  0.00    +0.021 C 
ATOM     26  C   UNL     1      31.966 -22.907 -16.633  0.00  0.00    +0.021 C 
ENDBRANCH  21  24
ENDBRANCH  13  22
ENDBRANCH   4  16
BRANCH   1  27
ATOM     27  C   UNL     1      33.186 -11.460 -23.693  0.00  0.00    +0.075 C 
BRANCH  27  28
ATOM     28  C   UNL     1      34.033 -10.312 -24.227  0.00  0.00    -0.055 C 
BRANCH  28  30
ATOM     29  O   UNL     1      32.391  -6.884 -22.447  0.00  0.00    -0.358 OA
ATOM     30  N   UNL     1      33.336  -9.040 -24.047  0.00  0.00    +0.391 N 
ATOM     31  C   UNL     1      34.250  -8.015 -23.522  0.00  0.00    -0.045 C 
ATOM     32  C   UNL     1      32.185  -9.197 -23.148  0.00  0.00    -0.045 C 
ATOM     33  C   UNL     1      33.499  -6.701 -23.331  0.00  0.00    +0.119 C 
ATOM     34  C   UNL     1      31.482  -7.855 -22.967  0.00  0.00    +0.119 C 
ATOM     35  H   UNL     1      32.998  -8.737 -24.961  0.00  0.00    -0.079 HD
ENDBRANCH  28  30
ENDBRANCH  27  28
ENDBRANCH   1  27
TORSDOF 6
ENDMDL
MODEL 5
REMARK VINA RESULT:     -11.0      4.092     12.935
REMARK  Name = 24963046
REMARK  6 active torsions:
REMARK  status: ('A' for Active; 'I' for Inactive)
REMARK    1  A    between atoms: N_1  and  C_27
REMARK    2  A    between atoms: C_4  and  C_16
REMARK    3  A    between atoms: C_13  and  C_22
REMARK    4  A    between atoms: N_21  and  C_24
REMARK    5  A    between atoms: C_27  and  C_28
REMARK    6  A    between atoms: C_28  and  N_30
REMARK                            x       y       z     vdW  Elec       q    Type
REMARK                         _______ _______ _______ _____ _____    ______ ____
ROOT
ATOM      1  N   UNL     1      31.492  -9.503 -21.771  0.00  0.00    -0.270 N 
ATOM      2  N   UNL     1      32.603 -11.184 -22.929  0.00  0.00    -0.338 NA
ATOM      3  N   UNL     1      31.465 -11.632 -20.853  0.00  0.00    -0.170 NA
ATOM      4  C   UNL     1      33.761 -15.178 -23.215  0.00  0.00    -0.000 C 
ATOM      5  C   UNL     1      33.002 -14.753 -22.129  0.00  0.00    +0.004 C 
ATOM      6  C   UNL     1      32.610 -13.406 -22.029  0.00  0.00    +0.050 C 
ATOM      7  C   UNL     1      31.870 -10.833 -21.853  0.00  0.00    +0.145 C 
ATOM      8  C   UNL     1      34.125 -14.263 -24.198  0.00  0.00    +0.003 C 
ATOM      9  C   UNL     1      32.972 -12.473 -23.015  0.00  0.00    +0.146 C 
ATOM     10  C   UNL     1      33.731 -12.927 -24.091  0.00  0.00    +0.033 C 
ATOM     11  C   UNL     1      31.852 -12.918 -20.969  0.00  0.00    +0.114 C 
ATOM     12  H   UNL     1      30.955  -9.219 -20.996  0.00  0.00    +0.159 HD
ENDROOT
BRANCH   4  16
ATOM     13  C   UNL     1      34.885 -18.598 -22.239  0.00  0.00    +0.053 C 
ATOM     14  C   UNL     1      34.491 -17.263 -22.160  0.00  0.00    +0.004 C 
ATOM     15  C   UNL     1      34.955 -19.233 -23.478  0.00  0.00    +0.004 C 
ATOM     16  C   UNL     1      34.167 -16.562 -23.322  0.00  0.00    -0.004 C 
ATOM     17  C   UNL     1      34.238 -17.197 -24.562  0.00  0.00    -0.022 C 
ATOM     18  C   UNL     1      34.631 -18.533 -24.640  0.00  0.00    -0.004 C 
ATOM     19  C   UNL     1      33.898 -16.478 -25.829  0.00  0.00    +0.031 C 
BRANCH  13  22
ATOM     20  O   UNL     1      36.250 -19.052 -20.384  0.00  0.00    -0.270 OA
ATOM     21  N   UNL     1      34.356 -20.360 -20.643  0.00  0.00    -0.302 N 
ATOM     22  C   UNL     1      35.223 -19.330 -21.028  0.00  0.00    +0.246 C 
ATOM     23  H   UNL     1      33.558 -20.531 -21.196  0.00  0.00    +0.150 HD
BRANCH  21  24
ATOM     24  C   UNL     1      34.570 -21.181 -19.484  0.00  0.00    +0.072 C 
ATOM     25  C   UNL     1      33.474 -22.040 -18.926  0.00  0.00    +0.021 C 
ATOM     26  C   UNL     1      34.658 -22.674 -19.596  0.00  0.00    +0.021 C 
ENDBRANCH  21  24
ENDBRANCH  13  22
ENDBRANCH   4  16
BRANCH   1  27
ATOM     27  C   UNL     1      31.840  -8.509 -22.758  0.00  0.00    +0.075 C 
BRANCH  27  28
ATOM     28  C   UNL     1      32.647  -7.395 -22.102  0.00  0.00    -0.055 C 
BRANCH  28  30
ATOM     29  O   UNL     1      30.644  -4.345 -24.176  0.00  0.00    -0.358 OA
ATOM     30  N   UNL     1      32.346  -6.111 -22.731  0.00  0.00    +0.391 N 
ATOM     31  C   UNL     1      31.176  -5.483 -22.099  0.00  0.00    -0.045 C 
ATOM     32  C   UNL     1      32.112  -6.277 -24.172  0.00  0.00    -0.045 C 
ATOM     33  C   UNL     1      30.874  -4.151 -22.779  0.00  0.00    +0.119 C 
ATOM     34  C   UNL     1      31.789  -4.925 -24.803  0.00  0.00    +0.119 C 
ATOM     35  H   UNL     1      33.154  -5.502 -22.599  0.00  0.00    -0.079 HD
ENDBRANCH  28  30
ENDBRANCH  27  28
ENDBRANCH   1  27
TORSDOF 6
ENDMDL
MODEL 6
REMARK VINA RESULT:     -11.0      5.202      9.834
REMARK  Name = 24963046
REMARK  6 active torsions:
REMARK  status: ('A' for Active; 'I' for Inactive)
REMARK    1  A    between atoms: N_1  and  C_27
REMARK    2  A    between atoms: C_4  and  C_16
REMARK    3  A    between atoms: C_13  and  C_22
REMARK    4  A    between atoms: N_21  and  C_24
REMARK    5  A    between atoms: C_27  and  C_28
REMARK    6  A    between atoms: C_28  and  N_30
REMARK                            x       y       z     vdW  Elec       q    Type
REMARK                         _______ _______ _______ _____ _____    ______ ____
ROOT
ATOM      1  N   UNL     1      33.616 -15.696 -23.490  0.00  0.00    -0.270 N 
ATOM      2  N   UNL     1      33.864 -13.417 -23.876  0.00  0.00    -0.338 NA
ATOM      3  N   UNL     1      32.277 -14.251 -22.265  0.00  0.00    -0.170 NA
ATOM      4  C   UNL     1      32.744  -9.494 -23.025  0.00  0.00    -0.000 C 
ATOM      5  C   UNL     1      32.131 -10.549 -22.356  0.00  0.00    +0.004 C 
ATOM      6  C   UNL     1      32.506 -11.874 -22.641  0.00  0.00    +0.050 C 
ATOM      7  C   UNL     1      33.233 -14.397 -23.196  0.00  0.00    +0.145 C 
ATOM      8  C   UNL     1      33.726  -9.760 -23.972  0.00  0.00    +0.003 C 
ATOM      9  C   UNL     1      33.497 -12.155 -23.596  0.00  0.00    +0.146 C 
ATOM     10  C   UNL     1      34.094 -11.079 -24.249  0.00  0.00    +0.033 C 
ATOM     11  C   UNL     1      31.934 -12.973 -22.009  0.00  0.00    +0.114 C 
ATOM     12  H   UNL     1      33.172 -16.431 -23.007  0.00  0.00    +0.159 HD
ENDROOT
BRANCH   4  16
ATOM     13  C   UNL     1      31.777  -5.927 -23.540  0.00  0.00    +0.053 C 
ATOM     14  C   UNL     1      32.148  -7.248 -23.795  0.00  0.00    +0.004 C 
ATOM     15  C   UNL     1      31.619  -5.489 -22.226  0.00  0.00    +0.004 C 
ATOM     16  C   UNL     1      32.361  -8.130 -22.736  0.00  0.00    -0.004 C 
ATOM     17  C   UNL     1      32.202  -7.690 -21.421  0.00  0.00    -0.022 C 
ATOM     18  C   UNL     1      31.831  -6.370 -21.166  0.00  0.00    -0.004 C 
ATOM     19  C   UNL     1      32.421  -8.607 -20.259  0.00  0.00    +0.031 C 
BRANCH  13  22
ATOM     20  O   UNL     1      30.508  -4.340 -24.713  0.00  0.00    -0.270 OA
ATOM     21  N   UNL     1      32.556  -4.929 -25.620  0.00  0.00    -0.302 N 
ATOM     22  C   UNL     1      31.555  -5.007 -24.644  0.00  0.00    +0.246 C 
ATOM     23  H   UNL     1      33.363  -5.485 -25.508  0.00  0.00    +0.150 HD
BRANCH  21  24
ATOM     24  C   UNL     1      32.467  -4.082 -26.777  0.00  0.00    +0.072 C 
ATOM     25  C   UNL     1      33.676  -3.377 -27.319  0.00  0.00    +0.021 C 
ATOM     26  C   UNL     1      33.052  -4.501 -28.093  0.00  0.00    +0.021 C 
ENDBRANCH  21  24
ENDBRANCH  13  22
ENDBRANCH   4  16
BRANCH   1  27
ATOM     27  C   UNL     1      34.628 -16.033 -24.462  0.00  0.00    +0.075 C 
BRANCH  27  28
ATOM     28  C   UNL     1      34.934 -17.524 -24.387  0.00  0.00    -0.055 C 
BRANCH  28  30
ATOM     29  O   UNL     1      35.441 -19.883 -20.953  0.00  0.00    -0.358 OA
ATOM     30  N   UNL     1      34.896 -17.981 -22.999  0.00  0.00    +0.391 N 
ATOM     31  C   UNL     1      36.257 -18.182 -22.479  0.00  0.00    -0.045 C 
ATOM     32  C   UNL     1      34.122 -19.224 -22.880  0.00  0.00    -0.045 C 
ATOM     33  C   UNL     1      36.192 -18.670 -21.035  0.00  0.00    +0.119 C 
ATOM     34  C   UNL     1      34.107 -19.687 -21.426  0.00  0.00    +0.119 C 
ATOM     35  H   UNL     1      34.440 -17.257 -22.444  0.00  0.00    -0.079 HD
ENDBRANCH  28  30
ENDBRANCH  27  28
ENDBRANCH   1  27
TORSDOF 6
ENDMDL
MODEL 7
REMARK VINA RESULT:     -10.9      4.703     13.954
REMARK  Name = 24963046
REMARK  6 active torsions:
REMARK  status: ('A' for Active; 'I' for Inactive)
REMARK    1  A    between atoms: N_1  and  C_27
REMARK    2  A    between atoms: C_4  and  C_16
REMARK    3  A    between atoms: C_13  and  C_22
REMARK    4  A    between atoms: N_21  and  C_24
REMARK    5  A    between atoms: C_27  and  C_28
REMARK    6  A    between atoms: C_28  and  N_30
REMARK                            x       y       z     vdW  Elec       q    Type
REMARK                         _______ _______ _______ _____ _____    ______ ____
ROOT
ATOM      1  N   UNL     1      31.473  -7.764 -22.512  0.00  0.00    -0.270 N 
ATOM      2  N   UNL     1      32.643  -9.498 -23.526  0.00  0.00    -0.338 NA
ATOM      3  N   UNL     1      31.192  -9.896 -21.643  0.00  0.00    -0.170 NA
ATOM      4  C   UNL     1      33.601 -13.550 -23.709  0.00  0.00    -0.000 C 
ATOM      5  C   UNL     1      32.718 -13.090 -22.736  0.00  0.00    +0.004 C 
ATOM      6  C   UNL     1      32.393 -11.724 -22.671  0.00  0.00    +0.050 C 
ATOM      7  C   UNL     1      31.782  -9.113 -22.561  0.00  0.00    +0.145 C 
ATOM      8  C   UNL     1      34.155 -12.650 -24.613  0.00  0.00    +0.003 C 
ATOM      9  C   UNL     1      32.947 -10.806 -23.579  0.00  0.00    +0.146 C 
ATOM     10  C   UNL     1      33.826 -11.294 -24.542  0.00  0.00    +0.033 C 
ATOM     11  C   UNL     1      31.518 -11.201 -21.724  0.00  0.00    +0.114 C 
ATOM     12  H   UNL     1      30.846  -7.456 -21.817  0.00  0.00    +0.159 HD
ENDROOT
BRANCH   4  16
ATOM     13  C   UNL     1      34.727 -16.952 -22.673  0.00  0.00    +0.053 C 
ATOM     14  C   UNL     1      34.395 -15.598 -22.629  0.00  0.00    +0.004 C 
ATOM     15  C   UNL     1      34.602 -17.663 -23.866  0.00  0.00    +0.004 C 
ATOM     16  C   UNL     1      33.939 -14.954 -23.779  0.00  0.00    -0.004 C 
ATOM     17  C   UNL     1      33.815 -15.665 -24.973  0.00  0.00    -0.022 C 
ATOM     18  C   UNL     1      34.146 -17.020 -25.016  0.00  0.00    -0.004 C 
ATOM     19  C   UNL     1      33.329 -15.009 -26.226  0.00  0.00    +0.031 C 
BRANCH  13  22
ATOM     20  O   UNL     1      35.416 -16.983 -20.429  0.00  0.00    -0.270 OA
ATOM     21  N   UNL     1      35.424 -19.004 -21.562  0.00  0.00    -0.302 N 
ATOM     22  C   UNL     1      35.203 -17.624 -21.474  0.00  0.00    +0.246 C 
ATOM     23  H   UNL     1      35.235 -19.454 -22.418  0.00  0.00    +0.150 HD
BRANCH  21  24
ATOM     24  C   UNL     1      35.912 -19.797 -20.467  0.00  0.00    +0.072 C 
ATOM     25  C   UNL     1      35.074 -20.885 -19.862  0.00  0.00    +0.021 C 
ATOM     26  C   UNL     1      36.296 -21.234 -20.661  0.00  0.00    +0.021 C 
ENDBRANCH  21  24
ENDBRANCH  13  22
ENDBRANCH   4  16
BRANCH   1  27
ATOM     27  C   UNL     1      32.016  -6.784 -23.422  0.00  0.00    +0.075 C 
BRANCH  27  28
ATOM     28  C   UNL     1      30.929  -6.320 -24.383  0.00  0.00    -0.055 C 
BRANCH  28  30
ATOM     29  O   UNL     1      32.035  -2.275 -24.208  0.00  0.00    -0.358 OA
ATOM     30  N   UNL     1      30.861  -4.860 -24.408  0.00  0.00    +0.391 N 
ATOM     31  C   UNL     1      31.709  -4.316 -25.479  0.00  0.00    -0.045 C 
ATOM     32  C   UNL     1      31.263  -4.297 -23.112  0.00  0.00    -0.045 C 
ATOM     33  C   UNL     1      31.631  -2.793 -25.477  0.00  0.00    +0.119 C 
ATOM     34  C   UNL     1      31.195  -2.773 -23.166  0.00  0.00    +0.119 C 
ATOM     35  H   UNL     1      29.893  -4.596 -24.593  0.00  0.00    -0.079 HD
ENDBRANCH  28  30
ENDBRANCH  27  28
ENDBRANCH   1  27
TORSDOF 6
ENDMDL
MODEL 8
REMARK VINA RESULT:     -10.7      4.048     13.199
REMARK  Name = 24963046
REMARK  6 active torsions:
REMARK  status: ('A' for Active; 'I' for Inactive)
REMARK    1  A    between atoms: N_1  and  C_27
REMARK    2  A    between atoms: C_4  and  C_16
REMARK    3  A    between atoms: C_13  and  C_22
REMARK    4  A    between atoms: N_21  and  C_24
REMARK    5  A    between atoms: C_27  and  C_28
REMARK    6  A    between atoms: C_28  and  N_30
REMARK                            x       y       z     vdW  Elec       q    Type
REMARK                         _______ _______ _______ _____ _____    ______ ____
ROOT
ATOM      1  N   UNL     1      32.453  -8.878 -23.426  0.00  0.00    -0.270 N 
ATOM      2  N   UNL     1      32.350 -11.096 -22.739  0.00  0.00    -0.338 NA
ATOM      3  N   UNL     1      33.820 -10.401 -24.518  0.00  0.00    -0.170 NA
ATOM      4  C   UNL     1      33.650 -15.036 -23.136  0.00  0.00    -0.000 C 
ATOM      5  C   UNL     1      34.175 -14.047 -23.962  0.00  0.00    +0.004 C 
ATOM      6  C   UNL     1      33.739 -12.717 -23.832  0.00  0.00    +0.050 C 
ATOM      7  C   UNL     1      32.895 -10.183 -23.570  0.00  0.00    +0.145 C 
ATOM      8  C   UNL     1      32.695 -14.698 -22.183  0.00  0.00    +0.003 C 
ATOM      9  C   UNL     1      32.774 -12.364 -22.873  0.00  0.00    +0.146 C 
ATOM     10  C   UNL     1      32.266 -13.373 -22.059  0.00  0.00    +0.033 C 
ATOM     11  C   UNL     1      34.223 -11.682 -24.625  0.00  0.00    +0.114 C 
ATOM     12  H   UNL     1      32.836  -8.190 -24.019  0.00  0.00    +0.159 HD
ENDROOT
BRANCH   4  16
ATOM     13  C   UNL     1      34.824 -18.456 -22.218  0.00  0.00    +0.053 C 
ATOM     14  C   UNL     1      34.393 -17.134 -22.116  0.00  0.00    +0.004 C 
ATOM     15  C   UNL     1      34.956 -19.051 -23.472  0.00  0.00    +0.004 C 
ATOM     16  C   UNL     1      34.095 -16.406 -23.267  0.00  0.00    -0.004 C 
ATOM     17  C   UNL     1      34.227 -17.002 -24.522  0.00  0.00    -0.022 C 
ATOM     18  C   UNL     1      34.657 -18.324 -24.625  0.00  0.00    -0.004 C 
ATOM     19  C   UNL     1      33.916 -16.253 -25.779  0.00  0.00    +0.031 C 
BRANCH  13  22
ATOM     20  O   UNL     1      36.215 -19.048 -20.423  0.00  0.00    -0.270 OA
ATOM     21  N   UNL     1      34.180 -20.144 -20.585  0.00  0.00    -0.302 N 
ATOM     22  C   UNL     1      35.135 -19.216 -21.017  0.00  0.00    +0.246 C 
ATOM     23  H   UNL     1      33.344 -20.229 -21.100  0.00  0.00    +0.150 HD
BRANCH  21  24
ATOM     24  C   UNL     1      34.357 -20.979 -19.429  0.00  0.00    +0.072 C 
ATOM     25  C   UNL     1      33.945 -22.421 -19.442  0.00  0.00    +0.021 C 
ATOM     26  C   UNL     1      35.400 -22.055 -19.402  0.00  0.00    +0.021 C 
ENDBRANCH  21  24
ENDBRANCH  13  22
ENDBRANCH   4  16
BRANCH   1  27
ATOM     27  C   UNL     1      31.466  -8.467 -22.457  0.00  0.00    +0.075 C 
BRANCH  27  28
ATOM     28  C   UNL     1      31.931  -7.196 -21.758  0.00  0.00    -0.055 C 
BRANCH  28  30
ATOM     29  O   UNL     1      30.438  -4.138 -24.214  0.00  0.00    -0.358 OA
ATOM     30  N   UNL     1      31.865  -6.059 -22.674  0.00  0.00    +0.391 N 
ATOM     31  C   UNL     1      31.186  -4.919 -22.042  0.00  0.00    -0.045 C 
ATOM     32  C   UNL     1      31.177  -6.430 -23.918  0.00  0.00    -0.045 C 
ATOM     33  C   UNL     1      31.119  -3.750 -23.019  0.00  0.00    +0.119 C 
ATOM     34  C   UNL     1      31.112  -5.224 -24.852  0.00  0.00    +0.119 C 
ATOM     35  H   UNL     1      32.822  -5.784 -22.898  0.00  0.00    -0.079 HD
ENDBRANCH  28  30
ENDBRANCH  27  28
ENDBRANCH   1  27
TORSDOF 6
ENDMDL
MODEL 9
REMARK VINA RESULT:     -10.3      2.399      2.865
REMARK  Name = 24963046
REMARK  6 active torsions:
REMARK  status: ('A' for Active; 'I' for Inactive)
REMARK    1  A    between atoms: N_1  and  C_27
REMARK    2  A    between atoms: C_4  and  C_16
REMARK    3  A    between atoms: C_13  and  C_22
REMARK    4  A    between atoms: N_21  and  C_24
REMARK    5  A    between atoms: C_27  and  C_28
REMARK    6  A    between atoms: C_28  and  N_30
REMARK                            x       y       z     vdW  Elec       q    Type
REMARK                         _______ _______ _______ _____ _____    ______ ____
ROOT
ATOM      1  N   UNL     1      34.041 -23.360 -17.278  0.00  0.00    -0.270 N 
ATOM      2  N   UNL     1      35.070 -21.804 -18.664  0.00  0.00    -0.338 NA
ATOM      3  N   UNL     1      32.695 -22.199 -18.767  0.00  0.00    -0.170 NA
ATOM      4  C   UNL     1      34.777 -18.944 -21.682  0.00  0.00    -0.000 C 
ATOM      5  C   UNL     1      33.635 -19.606 -21.242  0.00  0.00    +0.004 C 
ATOM      6  C   UNL     1      33.730 -20.572 -20.225  0.00  0.00    +0.050 C 
ATOM      7  C   UNL     1      33.929 -22.412 -18.282  0.00  0.00    +0.145 C 
ATOM      8  C   UNL     1      36.008 -19.243 -21.108  0.00  0.00    +0.003 C 
ATOM      9  C   UNL     1      34.968 -20.883 -19.638  0.00  0.00    +0.146 C 
ATOM     10  C   UNL     1      36.093 -20.204 -20.096  0.00  0.00    +0.033 C 
ATOM     11  C   UNL     1      32.628 -21.270 -19.741  0.00  0.00    +0.114 C 
ATOM     12  H   UNL     1      33.223 -23.820 -16.979  0.00  0.00    +0.159 HD
ENDROOT
BRANCH   4  16
ATOM     13  C   UNL     1      34.368 -15.644 -23.373  0.00  0.00    +0.053 C 
ATOM     14  C   UNL     1      34.461 -16.619 -22.381  0.00  0.00    +0.004 C 
ATOM     15  C   UNL     1      34.499 -16.000 -24.715  0.00  0.00    +0.004 C 
ATOM     16  C   UNL     1      34.684 -17.951 -22.729  0.00  0.00    -0.004 C 
ATOM     17  C   UNL     1      34.814 -18.307 -24.072  0.00  0.00    -0.022 C 
ATOM     18  C   UNL     1      34.722 -17.332 -25.065  0.00  0.00    -0.004 C 
ATOM     19  C   UNL     1      35.054 -19.725 -24.485  0.00  0.00    +0.031 C 
BRANCH  13  22
ATOM     20  O   UNL     1      33.725 -13.956 -21.875  0.00  0.00    -0.270 OA
ATOM     21  N   UNL     1      34.377 -13.290 -23.996  0.00  0.00    -0.302 N 
ATOM     22  C   UNL     1      34.136 -14.255 -23.010  0.00  0.00    +0.246 C 
ATOM     23  H   UNL     1      34.702 -13.591 -24.876  0.00  0.00    +0.150 HD
BRANCH  21  24
ATOM     24  C   UNL     1      34.172 -11.882 -23.790  0.00  0.00    +0.072 C 
ATOM     25  C   UNL     1      33.694 -10.995 -24.901  0.00  0.00    +0.021 C 
ATOM     26  C   UNL     1      32.792 -11.298 -23.741  0.00  0.00    +0.021 C 
ENDBRANCH  21  24
ENDBRANCH  13  22
ENDBRANCH   4  16
BRANCH   1  27
ATOM     27  C   UNL     1      35.290 -23.713 -16.645  0.00  0.00    +0.075 C 
BRANCH  27  28
ATOM     28  C   UNL     1      35.041 -24.072 -15.185  0.00  0.00    -0.055 C 
BRANCH  28  30
ATOM     29  O   UNL     1      31.376 -23.725 -13.169  0.00  0.00    -0.358 OA
ATOM     30  N   UNL     1      33.607 -24.078 -14.901  0.00  0.00    +0.391 N 
ATOM     31  C   UNL     1      33.149 -22.739 -14.501  0.00  0.00    -0.045 C 
ATOM     32  C   UNL     1      33.288 -25.054 -13.850  0.00  0.00    -0.045 C 
ATOM     33  C   UNL     1      31.655 -22.773 -14.198  0.00  0.00    +0.119 C 
ATOM     34  C   UNL     1      31.789 -25.034 -13.564  0.00  0.00    +0.119 C 
ATOM     35  H   UNL     1      33.121 -24.346 -15.756  0.00  0.00    -0.079 HD
ENDBRANCH  28  30
ENDBRANCH  27  28
ENDBRANCH   1  27
TORSDOF 6
ENDMDL
