MODEL 1
REMARK VINA RESULT:      -8.4      0.000      0.000
REMARK  Name = 25272413
REMARK  4 active torsions:
REMARK  status: ('A' for Active; 'I' for Inactive)
REMARK    1  A    between atoms: C_3  and  C_12
REMARK    2  A    between atoms: C_12  and  CA_13
REMARK    3  A    between atoms: CA_13  and  N_14
REMARK    4  A    between atoms: CA_13  and  C_20
REMARK                            x       y       z     vdW  Elec       q    Type
REMARK                         _______ _______ _______ _____ _____    ______ ____
ROOT
ATOM      1  F   UNL     1      32.340 -20.055 -20.987  0.00  0.00    -0.204 F 
ATOM      2  N   UNL     1      36.916 -19.776 -20.407  0.00  0.00    -0.312 N 
ATOM      3  C   UNL     1      35.167 -18.886 -21.444  0.00  0.00    -0.006 C 
ATOM      4  C   UNL     1      34.705 -19.967 -20.642  0.00  0.00    +0.038 C 
ATOM      5  C   UNL     1      35.822 -20.507 -20.002  0.00  0.00    +0.050 C 
ATOM      6  C   UNL     1      36.530 -18.794 -21.280  0.00  0.00    +0.058 C 
ATOM      7  C   UNL     1      33.441 -20.539 -20.397  0.00  0.00    +0.141 C 
ATOM      8  C   UNL     1      35.738 -21.597 -19.126  0.00  0.00    +0.015 C 
ATOM      9  C   UNL     1      33.342 -21.628 -19.524  0.00  0.00    +0.030 C 
ATOM     10  C   UNL     1      34.473 -22.146 -18.900  0.00  0.00    +0.004 C 
ATOM     11  H   UNL     1      37.842 -19.935 -20.113  0.00  0.00    +0.152 HD
ENDROOT
BRANCH   3  12
ATOM     12  C   UNL     1      34.342 -18.013 -22.304  0.00  0.00    +0.017 C 
BRANCH  12  13
ATOM     13  CA  UNL     1      35.141 -17.301 -23.420  0.00  0.00    +0.045 C 
BRANCH  13  14
ATOM     14  N   UNL     1      34.972 -15.825 -23.247  0.00  0.00    +0.389 N 
ATOM     15  H1  UNL     1      34.543 -15.635 -22.341  0.00  0.00    -0.088 HD
ATOM     16  H2  UNL     1      34.373 -15.462 -23.989  0.00  0.00    -0.088 HD
ATOM     17  H3  UNL     1      35.883 -15.370 -23.293  0.00  0.00    -0.088 HD
ENDBRANCH  13  14
BRANCH  13  20
ATOM     18  O   UNL     1      34.331 -18.979 -24.872  0.00  0.00    -0.248 OA
ATOM     19  OXT UNL     1      34.760 -16.903 -25.730  0.00  0.00    -0.248 OA
ATOM     20  C   UNL     1      34.704 -17.773 -24.815  0.00  0.00    +0.345 C 
ENDBRANCH  13  20
ENDBRANCH  12  13
ENDBRANCH   3  12
TORSDOF 4
ENDMDL
MODEL 2
REMARK VINA RESULT:      -8.0      1.649      1.904
REMARK  Name = 25272413
REMARK  4 active torsions:
REMARK  status: ('A' for Active; 'I' for Inactive)
REMARK    1  A    between atoms: C_3  and  C_12
REMARK    2  A    between atoms: C_12  and  CA_13
REMARK    3  A    between atoms: CA_13  and  N_14
REMARK    4  A    between atoms: CA_13  and  C_20
REMARK                            x       y       z     vdW  Elec       q    Type
REMARK                         _______ _______ _______ _____ _____    ______ ____
ROOT
ATOM      1  F   UNL     1      32.249 -19.948 -20.771  0.00  0.00    -0.204 F 
ATOM      2  N   UNL     1      36.854 -19.779 -20.411  0.00  0.00    -0.312 N 
ATOM      3  C   UNL     1      35.069 -18.780 -21.273  0.00  0.00    -0.006 C 
ATOM      4  C   UNL     1      34.631 -19.921 -20.544  0.00  0.00    +0.038 C 
ATOM      5  C   UNL     1      35.770 -20.529 -20.013  0.00  0.00    +0.050 C 
ATOM      6  C   UNL     1      36.440 -18.720 -21.174  0.00  0.00    +0.058 C 
ATOM      7  C   UNL     1      33.371 -20.496 -20.284  0.00  0.00    +0.141 C 
ATOM      8  C   UNL     1      35.712 -21.690 -19.232  0.00  0.00    +0.015 C 
ATOM      9  C   UNL     1      33.298 -21.656 -19.504  0.00  0.00    +0.030 C 
ATOM     10  C   UNL     1      34.451 -22.241 -18.988  0.00  0.00    +0.004 C 
ATOM     11  H   UNL     1      37.790 -19.976 -20.181  0.00  0.00    +0.152 HD
ENDROOT
BRANCH   3  12
ATOM     12  C   UNL     1      34.216 -17.825 -22.010  0.00  0.00    +0.017 C 
BRANCH  12  13
ATOM     13  CA  UNL     1      34.276 -16.381 -21.459  0.00  0.00    +0.045 C 
BRANCH  13  14
ATOM     14  N   UNL     1      32.943 -16.054 -20.863  0.00  0.00    +0.389 N 
ATOM     15  H1  UNL     1      32.570 -15.214 -21.304  0.00  0.00    -0.088 HD
ATOM     16  H2  UNL     1      33.049 -15.894 -19.861  0.00  0.00    -0.088 HD
ATOM     17  H3  UNL     1      32.302 -16.833 -21.016  0.00  0.00    -0.088 HD
ENDBRANCH  13  14
BRANCH  13  20
ATOM     18  O   UNL     1      35.394 -15.863 -23.475  0.00  0.00    -0.248 OA
ATOM     19  OXT UNL     1      34.254 -14.200 -22.397  0.00  0.00    -0.248 OA
ATOM     20  C   UNL     1      34.682 -15.378 -22.549  0.00  0.00    +0.345 C 
ENDBRANCH  13  20
ENDBRANCH  12  13
ENDBRANCH   3  12
TORSDOF 4
ENDMDL
MODEL 3
REMARK VINA RESULT:      -8.0      2.443      3.008
REMARK  Name = 25272413
REMARK  4 active torsions:
REMARK  status: ('A' for Active; 'I' for Inactive)
REMARK    1  A    between atoms: C_3  and  C_12
REMARK    2  A    between atoms: C_12  and  CA_13
REMARK    3  A    between atoms: CA_13  and  N_14
REMARK    4  A    between atoms: CA_13  and  C_20
REMARK                            x       y       z     vdW  Elec       q    Type
REMARK                         _______ _______ _______ _____ _____    ______ ____
ROOT
ATOM      1  F   UNL     1      37.234 -20.207 -20.062  0.00  0.00    -0.204 F 
ATOM      2  N   UNL     1      32.652 -20.367 -20.650  0.00  0.00    -0.312 N 
ATOM      3  C   UNL     1      34.523 -19.355 -21.285  0.00  0.00    -0.006 C 
ATOM      4  C   UNL     1      34.859 -20.343 -20.317  0.00  0.00    +0.038 C 
ATOM      5  C   UNL     1      33.667 -20.963 -19.936  0.00  0.00    +0.050 C 
ATOM      6  C   UNL     1      33.160 -19.393 -21.468  0.00  0.00    +0.058 C 
ATOM      7  C   UNL     1      36.065 -20.771 -19.728  0.00  0.00    +0.141 C 
ATOM      8  C   UNL     1      33.622 -21.994 -18.990  0.00  0.00    +0.015 C 
ATOM      9  C   UNL     1      36.034 -21.801 -18.781  0.00  0.00    +0.030 C 
ATOM     10  C   UNL     1      34.831 -22.402 -18.420  0.00  0.00    +0.004 C 
ATOM     11  H   UNL     1      31.700 -20.605 -20.582  0.00  0.00    +0.152 HD
ENDROOT
BRANCH   3  12
ATOM     12  C   UNL     1      35.460 -18.445 -21.975  0.00  0.00    +0.017 C 
BRANCH  12  13
ATOM     13  CA  UNL     1      34.763 -17.294 -22.737  0.00  0.00    +0.045 C 
BRANCH  13  14
ATOM     14  N   UNL     1      35.364 -17.209 -24.106  0.00  0.00    +0.389 N 
ATOM     15  H1  UNL     1      34.918 -17.894 -24.716  0.00  0.00    -0.088 HD
ATOM     16  H2  UNL     1      36.364 -17.404 -24.050  0.00  0.00    -0.088 HD
ATOM     17  H3  UNL     1      35.220 -16.273 -24.483  0.00  0.00    -0.088 HD
ENDBRANCH  13  14
BRANCH  13  20
ATOM     18  O   UNL     1      34.835 -14.933 -22.705  0.00  0.00    -0.248 OA
ATOM     19  OXT UNL     1      34.983 -16.060 -20.721  0.00  0.00    -0.248 OA
ATOM     20  C   UNL     1      34.874 -15.965 -21.976  0.00  0.00    +0.345 C 
ENDBRANCH  13  20
ENDBRANCH  12  13
ENDBRANCH   3  12
TORSDOF 4
ENDMDL
MODEL 4
REMARK VINA RESULT:      -7.8      3.174      5.687
REMARK  Name = 25272413
REMARK  4 active torsions:
REMARK  status: ('A' for Active; 'I' for Inactive)
REMARK    1  A    between atoms: C_3  and  C_12
REMARK    2  A    between atoms: C_12  and  CA_13
REMARK    3  A    between atoms: CA_13  and  N_14
REMARK    4  A    between atoms: CA_13  and  C_20
REMARK                            x       y       z     vdW  Elec       q    Type
REMARK                         _______ _______ _______ _____ _____    ______ ____
ROOT
ATOM      1  F   UNL     1      34.991 -16.084 -20.184  0.00  0.00    -0.204 F 
ATOM      2  N   UNL     1      34.780 -18.014 -24.378  0.00  0.00    -0.312 N 
ATOM      3  C   UNL     1      35.243 -18.382 -22.239  0.00  0.00    -0.006 C 
ATOM      4  C   UNL     1      34.861 -17.019 -22.382  0.00  0.00    +0.038 C 
ATOM      5  C   UNL     1      34.576 -16.814 -23.734  0.00  0.00    +0.050 C 
ATOM      6  C   UNL     1      35.185 -18.968 -23.482  0.00  0.00    +0.058 C 
ATOM      7  C   UNL     1      34.730 -15.936 -21.490  0.00  0.00    +0.141 C 
ATOM      8  C   UNL     1      34.165 -15.575 -24.240  0.00  0.00    +0.015 C 
ATOM      9  C   UNL     1      34.320 -14.693 -21.982  0.00  0.00    +0.030 C 
ATOM     10  C   UNL     1      34.042 -14.517 -23.335  0.00  0.00    +0.004 C 
ATOM     11  H   UNL     1      34.655 -18.164 -25.343  0.00  0.00    +0.152 HD
ENDROOT
BRANCH   3  12
ATOM     12  C   UNL     1      35.635 -19.060 -20.986  0.00  0.00    +0.017 C 
BRANCH  12  13
ATOM     13  CA  UNL     1      34.918 -20.410 -20.756  0.00  0.00    +0.045 C 
BRANCH  13  14
ATOM     14  N   UNL     1      33.488 -20.127 -20.415  0.00  0.00    +0.389 N 
ATOM     15  H1  UNL     1      33.404 -19.960 -19.412  0.00  0.00    -0.088 HD
ATOM     16  H2  UNL     1      32.912 -20.927 -20.675  0.00  0.00    -0.088 HD
ATOM     17  H3  UNL     1      33.174 -19.301 -20.925  0.00  0.00    -0.088 HD
ENDBRANCH  13  14
BRANCH  13  20
ATOM     18  O   UNL     1      36.543 -20.638 -19.057  0.00  0.00    -0.248 OA
ATOM     19  OXT UNL     1      35.180 -22.417 -19.514  0.00  0.00    -0.248 OA
ATOM     20  C   UNL     1      35.616 -21.242 -19.670  0.00  0.00    +0.345 C 
ENDBRANCH  13  20
ENDBRANCH  12  13
ENDBRANCH   3  12
TORSDOF 4
ENDMDL
MODEL 5
REMARK VINA RESULT:      -7.8      2.622      5.415
REMARK  Name = 25272413
REMARK  4 active torsions:
REMARK  status: ('A' for Active; 'I' for Inactive)
REMARK    1  A    between atoms: C_3  and  C_12
REMARK    2  A    between atoms: C_12  and  CA_13
REMARK    3  A    between atoms: CA_13  and  N_14
REMARK    4  A    between atoms: CA_13  and  C_20
REMARK                            x       y       z     vdW  Elec       q    Type
REMARK                         _______ _______ _______ _____ _____    ______ ____
ROOT
ATOM      1  F   UNL     1      34.672 -19.779 -24.621  0.00  0.00    -0.204 F 
ATOM      2  N   UNL     1      34.973 -16.374 -21.510  0.00  0.00    -0.312 N 
ATOM      3  C   UNL     1      35.053 -18.574 -21.798  0.00  0.00    -0.006 C 
ATOM      4  C   UNL     1      34.816 -17.969 -23.064  0.00  0.00    +0.038 C 
ATOM      5  C   UNL     1      34.771 -16.589 -22.855  0.00  0.00    +0.050 C 
ATOM      6  C   UNL     1      35.144 -17.569 -20.863  0.00  0.00    +0.058 C 
ATOM      7  C   UNL     1      34.636 -18.463 -24.371  0.00  0.00    +0.141 C 
ATOM      8  C   UNL     1      34.553 -15.675 -23.893  0.00  0.00    +0.015 C 
ATOM      9  C   UNL     1      34.417 -17.561 -25.418  0.00  0.00    +0.030 C 
ATOM     10  C   UNL     1      34.377 -16.189 -25.181  0.00  0.00    +0.004 C 
ATOM     11  H   UNL     1      34.992 -15.491 -21.077  0.00  0.00    +0.152 HD
ENDROOT
BRANCH   3  12
ATOM     12  C   UNL     1      35.180 -20.020 -21.523  0.00  0.00    +0.017 C 
BRANCH  12  13
ATOM     13  CA  UNL     1      34.728 -20.427 -20.101  0.00  0.00    +0.045 C 
BRANCH  13  14
ATOM     14  N   UNL     1      35.671 -21.471 -19.593  0.00  0.00    +0.389 N 
ATOM     15  H1  UNL     1      35.561 -22.325 -20.141  0.00  0.00    -0.088 HD
ATOM     16  H2  UNL     1      35.465 -21.668 -18.614  0.00  0.00    -0.088 HD
ATOM     17  H3  UNL     1      36.630 -21.134 -19.679  0.00  0.00    -0.088 HD
ENDBRANCH  13  14
BRANCH  13  20
ATOM     18  O   UNL     1      33.113 -22.103 -19.700  0.00  0.00    -0.248 OA
ATOM     19  OXT UNL     1      32.409 -20.064 -20.461  0.00  0.00    -0.248 OA
ATOM     20  C   UNL     1      33.270 -20.911 -20.090  0.00  0.00    +0.345 C 
ENDBRANCH  13  20
ENDBRANCH  12  13
ENDBRANCH   3  12
TORSDOF 4
ENDMDL
MODEL 6
REMARK VINA RESULT:      -7.8      4.736      6.557
REMARK  Name = 25272413
REMARK  4 active torsions:
REMARK  status: ('A' for Active; 'I' for Inactive)
REMARK    1  A    between atoms: C_3  and  C_12
REMARK    2  A    between atoms: C_12  and  CA_13
REMARK    3  A    between atoms: CA_13  and  N_14
REMARK    4  A    between atoms: CA_13  and  C_20
REMARK                            x       y       z     vdW  Elec       q    Type
REMARK                         _______ _______ _______ _____ _____    ______ ____
ROOT
ATOM      1  F   UNL     1      37.298 -19.802 -20.321  0.00  0.00    -0.204 F 
ATOM      2  N   UNL     1      33.033 -21.443 -19.633  0.00  0.00    -0.312 N 
ATOM      3  C   UNL     1      35.168 -21.663 -19.069  0.00  0.00    -0.006 C 
ATOM      4  C   UNL     1      35.065 -20.602 -20.012  0.00  0.00    +0.038 C 
ATOM      5  C   UNL     1      33.715 -20.485 -20.349  0.00  0.00    +0.050 C 
ATOM      6  C   UNL     1      33.903 -22.160 -18.856  0.00  0.00    +0.058 C 
ATOM      7  C   UNL     1      35.993 -19.728 -20.613  0.00  0.00    +0.141 C 
ATOM      8  C   UNL     1      33.245 -19.534 -21.262  0.00  0.00    +0.015 C 
ATOM      9  C   UNL     1      35.537 -18.772 -21.527  0.00  0.00    +0.030 C 
ATOM     10  C   UNL     1      34.184 -18.678 -21.845  0.00  0.00    +0.004 C 
ATOM     11  H   UNL     1      32.061 -21.591 -19.673  0.00  0.00    +0.152 HD
ENDROOT
BRANCH   3  12
ATOM     12  C   UNL     1      36.405 -22.153 -18.426  0.00  0.00    +0.017 C 
BRANCH  12  13
ATOM     13  CA  UNL     1      36.538 -21.748 -16.939  0.00  0.00    +0.045 C 
BRANCH  13  14
ATOM     14  N   UNL     1      37.571 -20.670 -16.840  0.00  0.00    +0.389 N 
ATOM     15  H1  UNL     1      38.437 -21.060 -16.468  0.00  0.00    -0.088 HD
ATOM     16  H2  UNL     1      37.235 -19.934 -16.219  0.00  0.00    -0.088 HD
ATOM     17  H3  UNL     1      37.745 -20.279 -17.766  0.00  0.00    -0.088 HD
ENDBRANCH  13  14
BRANCH  13  20
ATOM     18  O   UNL     1      38.031 -22.922 -15.534  0.00  0.00    -0.248 OA
ATOM     19  OXT UNL     1      35.974 -23.830 -15.947  0.00  0.00    -0.248 OA
ATOM     20  C   UNL     1      36.879 -22.957 -16.055  0.00  0.00    +0.345 C 
ENDBRANCH  13  20
ENDBRANCH  12  13
ENDBRANCH   3  12
TORSDOF 4
ENDMDL
MODEL 7
REMARK VINA RESULT:      -7.7      6.018      8.304
REMARK  Name = 25272413
REMARK  4 active torsions:
REMARK  status: ('A' for Active; 'I' for Inactive)
REMARK    1  A    between atoms: C_3  and  C_12
REMARK    2  A    between atoms: C_12  and  CA_13
REMARK    3  A    between atoms: CA_13  and  N_14
REMARK    4  A    between atoms: CA_13  and  C_20
REMARK                            x       y       z     vdW  Elec       q    Type
REMARK                         _______ _______ _______ _____ _____    ______ ____
ROOT
ATOM      1  F   UNL     1      37.194 -21.916 -17.747  0.00  0.00    -0.204 F 
ATOM      2  N   UNL     1      32.654 -22.750 -17.980  0.00  0.00    -0.312 N 
ATOM      3  C   UNL     1      34.493 -23.071 -16.779  0.00  0.00    -0.006 C 
ATOM      4  C   UNL     1      34.842 -22.311 -17.930  0.00  0.00    +0.038 C 
ATOM      5  C   UNL     1      33.670 -22.123 -18.666  0.00  0.00    +0.050 C 
ATOM      6  C   UNL     1      33.143 -23.327 -16.838  0.00  0.00    +0.058 C 
ATOM      7  C   UNL     1      36.045 -21.762 -18.418  0.00  0.00    +0.141 C 
ATOM      8  C   UNL     1      33.642 -21.411 -19.871  0.00  0.00    +0.015 C 
ATOM      9  C   UNL     1      36.031 -21.048 -19.621  0.00  0.00    +0.030 C 
ATOM     10  C   UNL     1      34.847 -20.876 -20.334  0.00  0.00    +0.004 C 
ATOM     11  H   UNL     1      31.714 -22.779 -18.268  0.00  0.00    +0.152 HD
ENDROOT
BRANCH   3  12
ATOM     12  C   UNL     1      35.407 -23.515 -15.707  0.00  0.00    +0.017 C 
BRANCH  12  13
ATOM     13  CA  UNL     1      35.080 -24.920 -15.149  0.00  0.00    +0.045 C 
BRANCH  13  14
ATOM     14  N   UNL     1      34.485 -24.754 -13.786  0.00  0.00    +0.389 N 
ATOM     15  H1  UNL     1      33.499 -24.506 -13.872  0.00  0.00    -0.088 HD
ATOM     16  H2  UNL     1      34.979 -24.013 -13.288  0.00  0.00    -0.088 HD
ATOM     17  H3  UNL     1      34.572 -25.628 -13.268  0.00  0.00    -0.088 HD
ENDBRANCH  13  14
BRANCH  13  20
ATOM     18  O   UNL     1      37.258 -25.418 -14.383  0.00  0.00    -0.248 OA
ATOM     19  OXT UNL     1      36.258 -26.858 -15.852  0.00  0.00    -0.248 OA
ATOM     20  C   UNL     1      36.322 -25.823 -15.130  0.00  0.00    +0.345 C 
ENDBRANCH  13  20
ENDBRANCH  12  13
ENDBRANCH   3  12
TORSDOF 4
ENDMDL
MODEL 8
REMARK VINA RESULT:      -7.7      3.407      4.740
REMARK  Name = 25272413
REMARK  4 active torsions:
REMARK  status: ('A' for Active; 'I' for Inactive)
REMARK    1  A    between atoms: C_3  and  C_12
REMARK    2  A    between atoms: C_12  and  CA_13
REMARK    3  A    between atoms: CA_13  and  N_14
REMARK    4  A    between atoms: CA_13  and  C_20
REMARK                            x       y       z     vdW  Elec       q    Type
REMARK                         _______ _______ _______ _____ _____    ______ ____
ROOT
ATOM      1  F   UNL     1      34.966 -16.334 -20.493  0.00  0.00    -0.204 F 
ATOM      2  N   UNL     1      34.541 -17.444 -24.959  0.00  0.00    -0.312 N 
ATOM      3  C   UNL     1      34.587 -15.764 -23.509  0.00  0.00    -0.006 C 
ATOM      4  C   UNL     1      34.752 -16.979 -22.787  0.00  0.00    +0.038 C 
ATOM      5  C   UNL     1      34.719 -18.017 -23.720  0.00  0.00    +0.050 C 
ATOM      6  C   UNL     1      34.459 -16.082 -24.841  0.00  0.00    +0.058 C 
ATOM      7  C   UNL     1      34.927 -17.296 -21.425  0.00  0.00    +0.141 C 
ATOM      8  C   UNL     1      34.853 -19.363 -23.357  0.00  0.00    +0.015 C 
ATOM      9  C   UNL     1      35.062 -18.637 -21.048  0.00  0.00    +0.030 C 
ATOM     10  C   UNL     1      35.026 -19.652 -22.001  0.00  0.00    +0.004 C 
ATOM     11  H   UNL     1      34.480 -17.941 -25.807  0.00  0.00    +0.152 HD
ENDROOT
BRANCH   3  12
ATOM     12  C   UNL     1      34.556 -14.400 -22.943  0.00  0.00    +0.017 C 
BRANCH  12  13
ATOM     13  CA  UNL     1      33.417 -13.517 -23.503  0.00  0.00    +0.045 C 
BRANCH  13  14
ATOM     14  N   UNL     1      34.012 -12.222 -23.960  0.00  0.00    +0.389 N 
ATOM     15  H1  UNL     1      34.059 -12.210 -24.979  0.00  0.00    -0.088 HD
ATOM     16  H2  UNL     1      34.951 -12.125 -23.574  0.00  0.00    -0.088 HD
ATOM     17  H3  UNL     1      33.430 -11.449 -23.637  0.00  0.00    -0.088 HD
ENDBRANCH  13  14
BRANCH  13  20
ATOM     18  O   UNL     1      31.818 -12.140 -22.441  0.00  0.00    -0.248 OA
ATOM     19  OXT UNL     1      32.005 -14.319 -21.771  0.00  0.00    -0.248 OA
ATOM     20  C   UNL     1      32.304 -13.307 -22.465  0.00  0.00    +0.345 C 
ENDBRANCH  13  20
ENDBRANCH  12  13
ENDBRANCH   3  12
TORSDOF 4
ENDMDL
MODEL 9
REMARK VINA RESULT:      -7.6      3.959      5.095
REMARK  Name = 25272413
REMARK  4 active torsions:
REMARK  status: ('A' for Active; 'I' for Inactive)
REMARK    1  A    between atoms: C_3  and  C_12
REMARK    2  A    between atoms: C_12  and  CA_13
REMARK    3  A    between atoms: CA_13  and  N_14
REMARK    4  A    between atoms: CA_13  and  C_20
REMARK                            x       y       z     vdW  Elec       q    Type
REMARK                         _______ _______ _______ _____ _____    ______ ____
ROOT
ATOM      1  F   UNL     1      34.219 -15.913 -25.188  0.00  0.00    -0.204 F 
ATOM      2  N   UNL     1      34.994 -17.484 -20.911  0.00  0.00    -0.312 N 
ATOM      3  C   UNL     1      34.563 -15.675 -22.123  0.00  0.00    -0.006 C 
ATOM      4  C   UNL     1      34.628 -16.793 -23.001  0.00  0.00    +0.038 C 
ATOM      5  C   UNL     1      34.899 -17.915 -22.215  0.00  0.00    +0.050 C 
ATOM      6  C   UNL     1      34.793 -16.131 -20.845  0.00  0.00    +0.058 C 
ATOM      7  C   UNL     1      34.481 -16.959 -24.393  0.00  0.00    +0.141 C 
ATOM      8  C   UNL     1      35.033 -19.200 -22.755  0.00  0.00    +0.015 C 
ATOM      9  C   UNL     1      34.611 -18.238 -24.945  0.00  0.00    +0.030 C 
ATOM     10  C   UNL     1      34.883 -19.339 -24.137  0.00  0.00    +0.004 C 
ATOM     11  H   UNL     1      35.180 -18.064 -20.138  0.00  0.00    +0.152 HD
ENDROOT
BRANCH   3  12
ATOM     12  C   UNL     1      34.297 -14.272 -22.501  0.00  0.00    +0.017 C 
BRANCH  12  13
ATOM     13  CA  UNL     1      32.802 -13.963 -22.744  0.00  0.00    +0.045 C 
BRANCH  13  14
ATOM     14  N   UNL     1      32.656 -13.428 -24.134  0.00  0.00    +0.389 N 
ATOM     15  H1  UNL     1      32.088 -12.581 -24.116  0.00  0.00    -0.088 HD
ATOM     16  H2  UNL     1      32.203 -14.128 -24.722  0.00  0.00    -0.088 HD
ATOM     17  H3  UNL     1      33.578 -13.210 -24.514  0.00  0.00    -0.088 HD
ENDBRANCH  13  14
BRANCH  13  20
ATOM     18  O   UNL     1      31.718 -11.945 -22.165  0.00  0.00    -0.248 OA
ATOM     19  OXT UNL     1      32.382 -13.352 -20.488  0.00  0.00    -0.248 OA
ATOM     20  C   UNL     1      32.249 -12.991 -21.691  0.00  0.00    +0.345 C 
ENDBRANCH  13  20
ENDBRANCH  12  13
ENDBRANCH   3  12
TORSDOF 4
ENDMDL
