MODEL 1
REMARK VINA RESULT:      -9.9      0.000      0.000
REMARK  Name = 6433107
REMARK  6 active torsions:
REMARK  status: ('A' for Active; 'I' for Inactive)
REMARK    1  A    between atoms: C_1  and  C_21
REMARK    2  A    between atoms: C_2  and  N_7
REMARK    3  A    between atoms: C_3  and  C_19
REMARK    4  A    between atoms: N_7  and  C_13
REMARK    5  A    between atoms: C_21  and  C_23
REMARK    6  A    between atoms: C_23  and  O_24
REMARK                            x       y       z     vdW  Elec       q    Type
REMARK                         _______ _______ _______ _____ _____    ______ ____
ROOT
ATOM      1  C   UNL     1      34.336 -15.757 -22.776  0.00  0.00    +0.002 C 
ATOM      2  C   UNL     1      34.952 -17.008 -22.845  0.00  0.00    +0.045 C 
ATOM      3  C   UNL     1      33.806 -15.888 -25.130  0.00  0.00    -0.022 C 
ATOM      4  C   UNL     1      33.763 -15.198 -23.918  0.00  0.00    -0.007 C 
ATOM      5  C   UNL     1      34.995 -17.697 -24.057  0.00  0.00    +0.014 C 
ATOM      6  C   UNL     1      34.423 -17.138 -25.199  0.00  0.00    -0.003 C 
ENDROOT
BRANCH   2   7
ATOM      7  N   UNL     1      35.536 -17.590 -21.700  0.00  0.00    -0.309 N 
ATOM      8  H   UNL     1      36.206 -17.015 -21.261  0.00  0.00    +0.152 HD
BRANCH   7  13
ATOM      9  F   UNL     1      32.997 -18.510 -21.037  0.00  0.00    -0.200 F 
ATOM     10  F   UNL     1      37.693 -19.221 -21.049  0.00  0.00    -0.200 F 
ATOM     11  F   UNL     1      37.325 -21.620 -19.810  0.00  0.00    -0.202 F 
ATOM     12  F   UNL     1      32.643 -20.910 -19.797  0.00  0.00    -0.202 F 
ATOM     13  C   UNL     1      35.350 -18.829 -21.061  0.00  0.00    +0.108 C 
ATOM     14  C   UNL     1      34.063 -19.266 -20.740  0.00  0.00    +0.183 C 
ATOM     15  C   UNL     1      36.451 -19.628 -20.746  0.00  0.00    +0.183 C 
ATOM     16  C   UNL     1      36.268 -20.857 -20.112  0.00  0.00    +0.171 C 
ATOM     17  C   UNL     1      33.879 -20.495 -20.105  0.00  0.00    +0.171 C 
ATOM     18  C   UNL     1      34.981 -21.290 -19.792  0.00  0.00    +0.064 C 
ENDBRANCH   7  13
ENDBRANCH   2   7
BRANCH   3  19
ATOM     19  C   UNL     1      33.195 -15.290 -26.351  0.00  0.00    +0.026 C 
ATOM     20  C   UNL     1      33.082 -13.770 -26.258  0.00  0.00    +0.005 C 
ENDBRANCH   3  19
BRANCH   1  21
ATOM     21  C   UNL     1      34.275 -14.997 -21.491  0.00  0.00    +0.137 C 
BRANCH  21  23
ATOM     22  O   UNL     1      32.497 -13.440 -20.900  0.00  0.00    -0.250 OA
ATOM     23  C   UNL     1      32.869 -14.588 -21.100  0.00  0.00    +0.318 C 
BRANCH  23  24
ATOM     24  O   UNL     1      32.044 -15.662 -20.991  0.00  0.00    -0.480 OA
ATOM     25  H   UNL     1      31.244 -15.591 -20.507  0.00  0.00    +0.295 HD
ENDBRANCH  23  24
ENDBRANCH  21  23
ENDBRANCH   1  21
TORSDOF 6
ENDMDL
MODEL 2
REMARK VINA RESULT:      -9.9      0.052      2.220
REMARK  Name = 6433107
REMARK  6 active torsions:
REMARK  status: ('A' for Active; 'I' for Inactive)
REMARK    1  A    between atoms: C_1  and  C_21
REMARK    2  A    between atoms: C_2  and  N_7
REMARK    3  A    between atoms: C_3  and  C_19
REMARK    4  A    between atoms: N_7  and  C_13
REMARK    5  A    between atoms: C_21  and  C_23
REMARK    6  A    between atoms: C_23  and  O_24
REMARK                            x       y       z     vdW  Elec       q    Type
REMARK                         _______ _______ _______ _____ _____    ______ ____
ROOT
ATOM      1  C   UNL     1      34.347 -15.790 -22.726  0.00  0.00    +0.002 C 
ATOM      2  C   UNL     1      34.984 -17.028 -22.814  0.00  0.00    +0.045 C 
ATOM      3  C   UNL     1      33.832 -15.887 -25.085  0.00  0.00    -0.022 C 
ATOM      4  C   UNL     1      33.770 -15.220 -23.861  0.00  0.00    -0.007 C 
ATOM      5  C   UNL     1      35.045 -17.695 -24.038  0.00  0.00    +0.014 C 
ATOM      6  C   UNL     1      34.470 -17.124 -25.173  0.00  0.00    -0.003 C 
ENDROOT
BRANCH   2   7
ATOM      7  N   UNL     1      35.572 -17.621 -21.676  0.00  0.00    -0.309 N 
ATOM      8  H   UNL     1      36.256 -17.058 -21.244  0.00  0.00    +0.152 HD
BRANCH   7  13
ATOM      9  F   UNL     1      37.713 -19.267 -21.008  0.00  0.00    -0.200 F 
ATOM     10  F   UNL     1      33.022 -18.522 -21.028  0.00  0.00    -0.200 F 
ATOM     11  F   UNL     1      32.644 -20.922 -19.793  0.00  0.00    -0.202 F 
ATOM     12  F   UNL     1      37.321 -21.664 -19.775  0.00  0.00    -0.202 F 
ATOM     13  C   UNL     1      35.373 -18.859 -21.037  0.00  0.00    +0.108 C 
ATOM     14  C   UNL     1      36.467 -19.664 -20.714  0.00  0.00    +0.183 C 
ATOM     15  C   UNL     1      34.082 -19.286 -20.724  0.00  0.00    +0.183 C 
ATOM     16  C   UNL     1      33.883 -20.514 -20.092  0.00  0.00    +0.171 C 
ATOM     17  C   UNL     1      36.269 -20.892 -20.082  0.00  0.00    +0.171 C 
ATOM     18  C   UNL     1      34.978 -21.317 -19.770  0.00  0.00    +0.064 C 
ENDBRANCH   7  13
ENDBRANCH   2   7
BRANCH   3  19
ATOM     19  C   UNL     1      33.217 -15.277 -26.298  0.00  0.00    +0.026 C 
ATOM     20  C   UNL     1      33.090 -13.760 -26.184  0.00  0.00    +0.005 C 
ENDBRANCH   3  19
BRANCH   1  21
ATOM     21  C   UNL     1      34.266 -15.054 -21.428  0.00  0.00    +0.137 C 
BRANCH  21  23
ATOM     22  O   UNL     1      32.506 -13.443 -20.938  0.00  0.00    -0.250 OA
ATOM     23  C   UNL     1      32.862 -14.605 -21.078  0.00  0.00    +0.318 C 
BRANCH  23  24
ATOM     24  O   UNL     1      32.018 -15.659 -20.929  0.00  0.00    -0.480 OA
ATOM     25  H   UNL     1      32.352 -16.535 -20.958  0.00  0.00    +0.295 HD
ENDBRANCH  23  24
ENDBRANCH  21  23
ENDBRANCH   1  21
TORSDOF 6
ENDMDL
MODEL 3
REMARK VINA RESULT:      -9.6      2.074      3.090
REMARK  Name = 6433107
REMARK  6 active torsions:
REMARK  status: ('A' for Active; 'I' for Inactive)
REMARK    1  A    between atoms: C_1  and  C_21
REMARK    2  A    between atoms: C_2  and  N_7
REMARK    3  A    between atoms: C_3  and  C_19
REMARK    4  A    between atoms: N_7  and  C_13
REMARK    5  A    between atoms: C_21  and  C_23
REMARK    6  A    between atoms: C_23  and  O_24
REMARK                            x       y       z     vdW  Elec       q    Type
REMARK                         _______ _______ _______ _____ _____    ______ ____
ROOT
ATOM      1  C   UNL     1      34.646 -16.030 -23.208  0.00  0.00    +0.002 C 
ATOM      2  C   UNL     1      34.896 -16.550 -21.938  0.00  0.00    +0.045 C 
ATOM      3  C   UNL     1      33.394 -14.214 -22.220  0.00  0.00    -0.022 C 
ATOM      4  C   UNL     1      33.896 -14.862 -23.349  0.00  0.00    -0.007 C 
ATOM      5  C   UNL     1      34.395 -15.902 -20.809  0.00  0.00    +0.014 C 
ATOM      6  C   UNL     1      33.643 -14.735 -20.950  0.00  0.00    -0.003 C 
ENDROOT
BRANCH   2   7
ATOM      7  N   UNL     1      35.653 -17.730 -21.776  0.00  0.00    -0.309 N 
ATOM      8  H   UNL     1      36.529 -17.704 -22.227  0.00  0.00    +0.152 HD
BRANCH   7  13
ATOM      9  F   UNL     1      33.061 -18.649 -21.364  0.00  0.00    -0.200 F 
ATOM     10  F   UNL     1      37.731 -19.293 -20.789  0.00  0.00    -0.200 F 
ATOM     11  F   UNL     1      37.239 -21.627 -19.471  0.00  0.00    -0.202 F 
ATOM     12  F   UNL     1      32.582 -20.984 -20.044  0.00  0.00    -0.202 F 
ATOM     13  C   UNL     1      35.403 -18.936 -21.096  0.00  0.00    +0.108 C 
ATOM     14  C   UNL     1      34.091 -19.373 -20.904  0.00  0.00    +0.183 C 
ATOM     15  C   UNL     1      36.466 -19.700 -20.611  0.00  0.00    +0.183 C 
ATOM     16  C   UNL     1      36.219 -20.896 -19.936  0.00  0.00    +0.171 C 
ATOM     17  C   UNL     1      33.843 -20.568 -20.228  0.00  0.00    +0.171 C 
ATOM     18  C   UNL     1      34.907 -21.330 -19.745  0.00  0.00    +0.064 C 
ENDBRANCH   7  13
ENDBRANCH   2   7
BRANCH   3  19
ATOM     19  C   UNL     1      32.592 -12.968 -22.370  0.00  0.00    +0.026 C 
ATOM     20  C   UNL     1      31.874 -12.580 -21.080  0.00  0.00    +0.005 C 
ENDBRANCH   3  19
BRANCH   1  21
ATOM     21  C   UNL     1      35.171 -16.703 -24.435  0.00  0.00    +0.137 C 
BRANCH  21  23
ATOM     22  O   UNL     1      34.310 -18.980 -24.491  0.00  0.00    -0.250 OA
ATOM     23  C   UNL     1      34.292 -17.836 -24.923  0.00  0.00    +0.318 C 
BRANCH  23  24
ATOM     24  O   UNL     1      33.459 -17.435 -25.919  0.00  0.00    -0.480 OA
ATOM     25  H   UNL     1      32.981 -18.071 -26.415  0.00  0.00    +0.295 HD
ENDBRANCH  23  24
ENDBRANCH  21  23
ENDBRANCH   1  21
TORSDOF 6
ENDMDL
MODEL 4
REMARK VINA RESULT:      -9.6      2.056      3.760
REMARK  Name = 6433107
REMARK  6 active torsions:
REMARK  status: ('A' for Active; 'I' for Inactive)
REMARK    1  A    between atoms: C_1  and  C_21
REMARK    2  A    between atoms: C_2  and  N_7
REMARK    3  A    between atoms: C_3  and  C_19
REMARK    4  A    between atoms: N_7  and  C_13
REMARK    5  A    between atoms: C_21  and  C_23
REMARK    6  A    between atoms: C_23  and  O_24
REMARK                            x       y       z     vdW  Elec       q    Type
REMARK                         _______ _______ _______ _____ _____    ______ ____
ROOT
ATOM      1  C   UNL     1      34.646 -16.017 -23.198  0.00  0.00    +0.002 C 
ATOM      2  C   UNL     1      34.898 -16.520 -21.921  0.00  0.00    +0.045 C 
ATOM      3  C   UNL     1      33.368 -14.207 -22.234  0.00  0.00    -0.022 C 
ATOM      4  C   UNL     1      33.882 -14.861 -23.354  0.00  0.00    -0.007 C 
ATOM      5  C   UNL     1      34.386 -15.866 -20.801  0.00  0.00    +0.014 C 
ATOM      6  C   UNL     1      33.620 -14.710 -20.957  0.00  0.00    -0.003 C 
ENDROOT
BRANCH   2   7
ATOM      7  N   UNL     1      35.670 -17.688 -21.743  0.00  0.00    -0.309 N 
ATOM      8  H   UNL     1      36.560 -17.644 -22.164  0.00  0.00    +0.152 HD
BRANCH   7  13
ATOM      9  F   UNL     1      37.745 -19.284 -20.803  0.00  0.00    -0.200 F 
ATOM     10  F   UNL     1      33.075 -18.596 -21.324  0.00  0.00    -0.200 F 
ATOM     11  F   UNL     1      32.592 -20.955 -20.048  0.00  0.00    -0.202 F 
ATOM     12  F   UNL     1      37.249 -21.641 -19.528  0.00  0.00    -0.202 F 
ATOM     13  C   UNL     1      35.417 -18.905 -21.083  0.00  0.00    +0.108 C 
ATOM     14  C   UNL     1      36.479 -19.685 -20.622  0.00  0.00    +0.183 C 
ATOM     15  C   UNL     1      34.104 -19.336 -20.887  0.00  0.00    +0.183 C 
ATOM     16  C   UNL     1      33.852 -20.543 -20.234  0.00  0.00    +0.171 C 
ATOM     17  C   UNL     1      36.228 -20.893 -19.969  0.00  0.00    +0.171 C 
ATOM     18  C   UNL     1      34.915 -21.321 -19.774  0.00  0.00    +0.064 C 
ENDBRANCH   7  13
ENDBRANCH   2   7
BRANCH   3  19
ATOM     19  C   UNL     1      32.551 -12.972 -22.401  0.00  0.00    +0.026 C 
ATOM     20  C   UNL     1      31.857 -12.556 -21.106  0.00  0.00    +0.005 C 
ENDBRANCH   3  19
BRANCH   1  21
ATOM     21  C   UNL     1      35.183 -16.698 -24.415  0.00  0.00    +0.137 C 
BRANCH  21  23
ATOM     22  O   UNL     1      33.403 -17.441 -25.901  0.00  0.00    -0.250 OA
ATOM     23  C   UNL     1      34.217 -17.693 -25.024  0.00  0.00    +0.318 C 
BRANCH  23  24
ATOM     24  O   UNL     1      34.354 -18.929 -24.475  0.00  0.00    -0.480 OA
ATOM     25  H   UNL     1      34.054 -19.685 -24.942  0.00  0.00    +0.295 HD
ENDBRANCH  23  24
ENDBRANCH  21  23
ENDBRANCH   1  21
TORSDOF 6
ENDMDL
MODEL 5
REMARK VINA RESULT:      -9.5      2.920      4.642
REMARK  Name = 6433107
REMARK  6 active torsions:
REMARK  status: ('A' for Active; 'I' for Inactive)
REMARK    1  A    between atoms: C_1  and  C_21
REMARK    2  A    between atoms: C_2  and  N_7
REMARK    3  A    between atoms: C_3  and  C_19
REMARK    4  A    between atoms: N_7  and  C_13
REMARK    5  A    between atoms: C_21  and  C_23
REMARK    6  A    between atoms: C_23  and  O_24
REMARK                            x       y       z     vdW  Elec       q    Type
REMARK                         _______ _______ _______ _____ _____    ______ ____
ROOT
ATOM      1  C   UNL     1      33.421 -13.107 -23.244  0.00  0.00    +0.002 C 
ATOM      2  C   UNL     1      33.797 -14.162 -22.413  0.00  0.00    +0.045 C 
ATOM      3  C   UNL     1      31.854 -12.346 -21.570  0.00  0.00    -0.022 C 
ATOM      4  C   UNL     1      32.450 -12.198 -22.823  0.00  0.00    -0.007 C 
ATOM      5  C   UNL     1      33.201 -14.309 -21.161  0.00  0.00    +0.014 C 
ATOM      6  C   UNL     1      32.229 -13.402 -20.739  0.00  0.00    -0.003 C 
ENDROOT
BRANCH   2   7
ATOM      7  N   UNL     1      34.778 -15.091 -22.823  0.00  0.00    -0.309 N 
ATOM      8  H   UNL     1      35.599 -14.672 -23.171  0.00  0.00    +0.152 HD
BRANCH   7  13
ATOM      9  F   UNL     1      34.502 -16.531 -25.187  0.00  0.00    -0.200 F 
ATOM     10  F   UNL     1      35.126 -16.546 -20.478  0.00  0.00    -0.200 F 
ATOM     11  F   UNL     1      35.189 -19.270 -20.503  0.00  0.00    -0.202 F 
ATOM     12  F   UNL     1      34.567 -19.255 -25.197  0.00  0.00    -0.202 F 
ATOM     13  C   UNL     1      34.813 -16.497 -22.832  0.00  0.00    +0.108 C 
ATOM     14  C   UNL     1      34.671 -17.194 -24.034  0.00  0.00    +0.183 C 
ATOM     15  C   UNL     1      34.989 -17.202 -21.640  0.00  0.00    +0.183 C 
ATOM     16  C   UNL     1      35.022 -18.597 -21.647  0.00  0.00    +0.171 C 
ATOM     17  C   UNL     1      34.704 -18.589 -24.042  0.00  0.00    +0.171 C 
ATOM     18  C   UNL     1      34.880 -19.290 -22.850  0.00  0.00    +0.064 C 
ENDBRANCH   7  13
ENDBRANCH   2   7
BRANCH   3  19
ATOM     19  C   UNL     1      30.816 -11.376 -21.119  0.00  0.00    +0.026 C 
ATOM     20  C   UNL     1      31.114 -10.808 -19.734  0.00  0.00    +0.005 C 
ENDBRANCH   3  19
BRANCH   1  21
ATOM     21  C   UNL     1      34.043 -12.925 -24.591  0.00  0.00    +0.137 C 
BRANCH  21  23
ATOM     22  O   UNL     1      32.433 -14.438 -25.614  0.00  0.00    -0.250 OA
ATOM     23  C   UNL     1      33.215 -13.504 -25.720  0.00  0.00    +0.318 C 
BRANCH  23  24
ATOM     24  O   UNL     1      33.441 -12.858 -26.893  0.00  0.00    -0.480 OA
ATOM     25  H   UNL     1      34.034 -12.132 -26.922  0.00  0.00    +0.295 HD
ENDBRANCH  23  24
ENDBRANCH  21  23
ENDBRANCH   1  21
TORSDOF 6
ENDMDL
MODEL 6
REMARK VINA RESULT:      -9.5      2.921      4.718
REMARK  Name = 6433107
REMARK  6 active torsions:
REMARK  status: ('A' for Active; 'I' for Inactive)
REMARK    1  A    between atoms: C_1  and  C_21
REMARK    2  A    between atoms: C_2  and  N_7
REMARK    3  A    between atoms: C_3  and  C_19
REMARK    4  A    between atoms: N_7  and  C_13
REMARK    5  A    between atoms: C_21  and  C_23
REMARK    6  A    between atoms: C_23  and  O_24
REMARK                            x       y       z     vdW  Elec       q    Type
REMARK                         _______ _______ _______ _____ _____    ______ ____
ROOT
ATOM      1  C   UNL     1      33.408 -13.099 -23.238  0.00  0.00    +0.002 C 
ATOM      2  C   UNL     1      33.788 -14.157 -22.411  0.00  0.00    +0.045 C 
ATOM      3  C   UNL     1      31.845 -12.344 -21.557  0.00  0.00    -0.022 C 
ATOM      4  C   UNL     1      32.438 -12.193 -22.811  0.00  0.00    -0.007 C 
ATOM      5  C   UNL     1      33.196 -14.308 -21.157  0.00  0.00    +0.014 C 
ATOM      6  C   UNL     1      32.224 -13.403 -20.730  0.00  0.00    -0.003 C 
ENDROOT
BRANCH   2   7
ATOM      7  N   UNL     1      34.769 -15.083 -22.827  0.00  0.00    -0.309 N 
ATOM      8  H   UNL     1      35.588 -14.663 -23.177  0.00  0.00    +0.152 HD
BRANCH   7  13
ATOM      9  F   UNL     1      35.128 -16.543 -20.487  0.00  0.00    -0.200 F 
ATOM     10  F   UNL     1      34.484 -16.518 -25.192  0.00  0.00    -0.200 F 
ATOM     11  F   UNL     1      34.559 -19.242 -25.209  0.00  0.00    -0.202 F 
ATOM     12  F   UNL     1      35.202 -19.266 -20.517  0.00  0.00    -0.202 F 
ATOM     13  C   UNL     1      34.805 -16.490 -22.839  0.00  0.00    +0.108 C 
ATOM     14  C   UNL     1      34.987 -17.196 -21.648  0.00  0.00    +0.183 C 
ATOM     15  C   UNL     1      34.660 -17.184 -24.041  0.00  0.00    +0.183 C 
ATOM     16  C   UNL     1      34.698 -18.579 -24.055  0.00  0.00    +0.171 C 
ATOM     17  C   UNL     1      35.026 -18.591 -21.661  0.00  0.00    +0.171 C 
ATOM     18  C   UNL     1      34.880 -19.282 -22.864  0.00  0.00    +0.064 C 
ENDBRANCH   7  13
ENDBRANCH   2   7
BRANCH   3  19
ATOM     19  C   UNL     1      30.808 -11.377 -21.101  0.00  0.00    +0.026 C 
ATOM     20  C   UNL     1      31.103 -10.821 -19.710  0.00  0.00    +0.005 C 
ENDBRANCH   3  19
BRANCH   1  21
ATOM     21  C   UNL     1      34.026 -12.913 -24.586  0.00  0.00    +0.137 C 
BRANCH  21  23
ATOM     22  O   UNL     1      32.424 -14.440 -25.602  0.00  0.00    -0.250 OA
ATOM     23  C   UNL     1      33.202 -13.502 -25.713  0.00  0.00    +0.318 C 
BRANCH  23  24
ATOM     24  O   UNL     1      33.427 -12.862 -26.890  0.00  0.00    -0.480 OA
ATOM     25  H   UNL     1      34.306 -12.711 -27.181  0.00  0.00    +0.295 HD
ENDBRANCH  23  24
ENDBRANCH  21  23
ENDBRANCH   1  21
TORSDOF 6
ENDMDL
MODEL 7
REMARK VINA RESULT:      -9.4      4.027      5.900
REMARK  Name = 6433107
REMARK  6 active torsions:
REMARK  status: ('A' for Active; 'I' for Inactive)
REMARK    1  A    between atoms: C_1  and  C_21
REMARK    2  A    between atoms: C_2  and  N_7
REMARK    3  A    between atoms: C_3  and  C_19
REMARK    4  A    between atoms: N_7  and  C_13
REMARK    5  A    between atoms: C_21  and  C_23
REMARK    6  A    between atoms: C_23  and  O_24
REMARK                            x       y       z     vdW  Elec       q    Type
REMARK                         _______ _______ _______ _____ _____    ______ ____
ROOT
ATOM      1  C   UNL     1      31.897 -10.956 -22.410  0.00  0.00    +0.002 C 
ATOM      2  C   UNL     1      32.689 -11.927 -23.024  0.00  0.00    +0.045 C 
ATOM      3  C   UNL     1      33.182  -9.221 -23.496  0.00  0.00    -0.022 C 
ATOM      4  C   UNL     1      32.143  -9.603 -22.646  0.00  0.00    -0.007 C 
ATOM      5  C   UNL     1      33.727 -11.545 -23.873  0.00  0.00    +0.014 C 
ATOM      6  C   UNL     1      33.974 -10.192 -24.109  0.00  0.00    -0.003 C 
ENDROOT
BRANCH   2   7
ATOM      7  N   UNL     1      32.454 -13.300 -22.797  0.00  0.00    -0.309 N 
ATOM      8  H   UNL     1      31.533 -13.503 -22.514  0.00  0.00    +0.152 HD
BRANCH   7  13
ATOM      9  F   UNL     1      33.657 -14.416 -20.551  0.00  0.00    -0.200 F 
ATOM     10  F   UNL     1      32.947 -14.523 -25.246  0.00  0.00    -0.200 F 
ATOM     11  F   UNL     1      34.548 -16.721 -25.430  0.00  0.00    -0.202 F 
ATOM     12  F   UNL     1      35.256 -16.613 -20.749  0.00  0.00    -0.202 F 
ATOM     13  C   UNL     1      33.279 -14.436 -22.895  0.00  0.00    +0.108 C 
ATOM     14  C   UNL     1      33.870 -14.974 -21.751  0.00  0.00    +0.183 C 
ATOM     15  C   UNL     1      33.509 -15.029 -24.138  0.00  0.00    +0.183 C 
ATOM     16  C   UNL     1      34.328 -16.154 -24.237  0.00  0.00    +0.171 C 
ATOM     17  C   UNL     1      34.689 -16.099 -21.849  0.00  0.00    +0.171 C 
ATOM     18  C   UNL     1      34.917 -16.690 -23.092  0.00  0.00    +0.064 C 
ENDBRANCH   7  13
ENDBRANCH   2   7
BRANCH   3  19
ATOM     19  C   UNL     1      33.446  -7.776 -23.747  0.00  0.00    +0.026 C 
ATOM     20  C   UNL     1      34.916  -7.412 -23.555  0.00  0.00    +0.005 C 
ENDBRANCH   3  19
BRANCH   1  21
ATOM     21  C   UNL     1      30.778 -11.337 -21.496  0.00  0.00    +0.137 C 
BRANCH  21  23
ATOM     22  O   UNL     1      30.731 -10.374 -19.259  0.00  0.00    -0.250 OA
ATOM     23  C   UNL     1      31.139 -11.233 -20.028  0.00  0.00    +0.318 C 
BRANCH  23  24
ATOM     24  O   UNL     1      31.988 -12.223 -19.646  0.00  0.00    -0.480 OA
ATOM     25  H   UNL     1      32.130 -12.961 -20.207  0.00  0.00    +0.295 HD
ENDBRANCH  23  24
ENDBRANCH  21  23
ENDBRANCH   1  21
TORSDOF 6
ENDMDL
MODEL 8
REMARK VINA RESULT:      -9.4      3.999      5.797
REMARK  Name = 6433107
REMARK  6 active torsions:
REMARK  status: ('A' for Active; 'I' for Inactive)
REMARK    1  A    between atoms: C_1  and  C_21
REMARK    2  A    between atoms: C_2  and  N_7
REMARK    3  A    between atoms: C_3  and  C_19
REMARK    4  A    between atoms: N_7  and  C_13
REMARK    5  A    between atoms: C_21  and  C_23
REMARK    6  A    between atoms: C_23  and  O_24
REMARK                            x       y       z     vdW  Elec       q    Type
REMARK                         _______ _______ _______ _____ _____    ______ ____
ROOT
ATOM      1  C   UNL     1      31.940 -10.994 -22.453  0.00  0.00    +0.002 C 
ATOM      2  C   UNL     1      32.732 -11.970 -23.059  0.00  0.00    +0.045 C 
ATOM      3  C   UNL     1      33.231  -9.268 -23.548  0.00  0.00    -0.022 C 
ATOM      4  C   UNL     1      32.189  -9.643 -22.698  0.00  0.00    -0.007 C 
ATOM      5  C   UNL     1      33.773 -11.595 -23.909  0.00  0.00    +0.014 C 
ATOM      6  C   UNL     1      34.023 -10.245 -24.153  0.00  0.00    -0.003 C 
ENDROOT
BRANCH   2   7
ATOM      7  N   UNL     1      32.494 -13.342 -22.823  0.00  0.00    -0.309 N 
ATOM      8  H   UNL     1      31.573 -13.541 -22.539  0.00  0.00    +0.152 HD
BRANCH   7  13
ATOM      9  F   UNL     1      32.997 -14.574 -25.266  0.00  0.00    -0.200 F 
ATOM     10  F   UNL     1      33.686 -14.451 -20.568  0.00  0.00    -0.200 F 
ATOM     11  F   UNL     1      35.275 -16.657 -20.751  0.00  0.00    -0.202 F 
ATOM     12  F   UNL     1      34.587 -16.780 -25.435  0.00  0.00    -0.202 F 
ATOM     13  C   UNL     1      33.317 -14.480 -22.914  0.00  0.00    +0.108 C 
ATOM     14  C   UNL     1      33.551 -15.077 -24.154  0.00  0.00    +0.183 C 
ATOM     15  C   UNL     1      33.902 -15.015 -21.765  0.00  0.00    +0.183 C 
ATOM     16  C   UNL     1      34.716 -16.144 -21.854  0.00  0.00    +0.171 C 
ATOM     17  C   UNL     1      34.365 -16.207 -24.244  0.00  0.00    +0.171 C 
ATOM     18  C   UNL     1      34.948 -16.740 -23.094  0.00  0.00    +0.064 C 
ENDBRANCH   7  13
ENDBRANCH   2   7
BRANCH   3  19
ATOM     19  C   UNL     1      33.497  -7.826 -23.808  0.00  0.00    +0.026 C 
ATOM     20  C   UNL     1      34.925  -7.424 -23.444  0.00  0.00    +0.005 C 
ENDBRANCH   3  19
BRANCH   1  21
ATOM     21  C   UNL     1      30.819 -11.367 -21.539  0.00  0.00    +0.137 C 
BRANCH  21  23
ATOM     22  O   UNL     1      30.786 -10.388 -19.309  0.00  0.00    -0.250 OA
ATOM     23  C   UNL     1      31.178 -11.261 -20.071  0.00  0.00    +0.318 C 
BRANCH  23  24
ATOM     24  O   UNL     1      32.006 -12.265 -19.682  0.00  0.00    -0.480 OA
ATOM     25  H   UNL     1      32.651 -12.599 -20.276  0.00  0.00    +0.295 HD
ENDBRANCH  23  24
ENDBRANCH  21  23
ENDBRANCH   1  21
TORSDOF 6
ENDMDL
MODEL 9
REMARK VINA RESULT:      -9.4      5.007      8.056
REMARK  Name = 6433107
REMARK  6 active torsions:
REMARK  status: ('A' for Active; 'I' for Inactive)
REMARK    1  A    between atoms: C_1  and  C_21
REMARK    2  A    between atoms: C_2  and  N_7
REMARK    3  A    between atoms: C_3  and  C_19
REMARK    4  A    between atoms: N_7  and  C_13
REMARK    5  A    between atoms: C_21  and  C_23
REMARK    6  A    between atoms: C_23  and  O_24
REMARK                            x       y       z     vdW  Elec       q    Type
REMARK                         _______ _______ _______ _____ _____    ______ ____
ROOT
ATOM      1  C   UNL     1      33.464 -14.401 -23.376  0.00  0.00    +0.002 C 
ATOM      2  C   UNL     1      32.688 -13.844 -22.358  0.00  0.00    +0.045 C 
ATOM      3  C   UNL     1      34.208 -16.131 -21.861  0.00  0.00    -0.022 C 
ATOM      4  C   UNL     1      34.223 -15.545 -23.127  0.00  0.00    -0.007 C 
ATOM      5  C   UNL     1      32.673 -14.430 -21.093  0.00  0.00    +0.014 C 
ATOM      6  C   UNL     1      33.433 -15.573 -20.844  0.00  0.00    -0.003 C 
ENDROOT
BRANCH   2   7
ATOM      7  N   UNL     1      31.913 -12.687 -22.591  0.00  0.00    -0.309 N 
ATOM      8  H   UNL     1      31.118 -12.849 -23.151  0.00  0.00    +0.152 HD
BRANCH   7  13
ATOM      9  F   UNL     1      31.047 -11.840 -20.088  0.00  0.00    -0.200 F 
ATOM     10  F   UNL     1      33.069 -10.779 -24.252  0.00  0.00    -0.200 F 
ATOM     11  F   UNL     1      33.336  -8.187 -23.454  0.00  0.00    -0.202 F 
ATOM     12  F   UNL     1      31.319  -9.245 -19.302  0.00  0.00    -0.202 F 
ATOM     13  C   UNL     1      32.054 -11.348 -22.182  0.00  0.00    +0.108 C 
ATOM     14  C   UNL     1      31.610 -10.952 -20.919  0.00  0.00    +0.183 C 
ATOM     15  C   UNL     1      32.638 -10.412 -23.037  0.00  0.00    +0.183 C 
ATOM     16  C   UNL     1      32.776  -9.084 -22.632  0.00  0.00    +0.171 C 
ATOM     17  C   UNL     1      31.747  -9.623 -20.514  0.00  0.00    +0.171 C 
ATOM     18  C   UNL     1      32.331  -8.690 -21.370  0.00  0.00    +0.064 C 
ENDBRANCH   7  13
ENDBRANCH   2   7
BRANCH   3  19
ATOM     19  C   UNL     1      35.020 -17.352 -21.595  0.00  0.00    +0.026 C 
ATOM     20  C   UNL     1      34.155 -18.555 -21.225  0.00  0.00    +0.005 C 
ENDBRANCH   3  19
BRANCH   1  21
ATOM     21  C   UNL     1      33.498 -13.794 -24.741  0.00  0.00    +0.137 C 
BRANCH  21  23
ATOM     22  O   UNL     1      33.883 -15.730 -26.168  0.00  0.00    -0.250 OA
ATOM     23  C   UNL     1      33.181 -14.781 -25.846  0.00  0.00    +0.318 C 
BRANCH  23  24
ATOM     24  O   UNL     1      32.004 -14.490 -26.459  0.00  0.00    -0.480 OA
ATOM     25  H   UNL     1      31.708 -13.602 -26.508  0.00  0.00    +0.295 HD
ENDBRANCH  23  24
ENDBRANCH  21  23
ENDBRANCH   1  21
TORSDOF 6
ENDMDL
