MODEL 1
REMARK VINA RESULT:      -8.6      0.000      0.000
REMARK  Name = 5287684
REMARK  10 active torsions:
REMARK  status: ('A' for Active; 'I' for Inactive)
REMARK    1  A    between atoms: N_2  and  C_5
REMARK    2  A    between atoms: C_3  and  C_17
REMARK    3  A    between atoms: C_5  and  C_7
REMARK    4  A    between atoms: C_17  and  O_18
REMARK    5  A    between atoms: C_17  and  C_20
REMARK    6  A    between atoms: C_20  and  N_21
REMARK    7  A    between atoms: C_20  and  C_25
REMARK    8  A    between atoms: C_25  and  C_26
REMARK    9  A    between atoms: C_26  and  S_27
REMARK   10  A    between atoms: S_27  and  C_28
REMARK                            x       y       z     vdW  Elec       q    Type
REMARK                         _______ _______ _______ _____ _____    ______ ____
ROOT
ATOM      1  O   UNL     1      32.698 -16.489 -21.038  0.00  0.00    -0.273 OA
ATOM      2  N   UNL     1      34.381 -16.522 -22.638  0.00  0.00    -0.300 N 
ATOM      3  C   UNL     1      33.554 -15.914 -21.708  0.00  0.00    +0.247 C 
ATOM      4  H   UNL     1      35.034 -15.965 -23.119  0.00  0.00    +0.150 HD
ENDROOT
BRANCH   2   5
ATOM      5  C   UNL     1      34.330 -17.936 -22.937  0.00  0.00    +0.094 C 
ATOM      6  C   UNL     1      34.690 -18.188 -24.400  0.00  0.00    +0.026 C 
BRANCH   5   7
ATOM      7  C   UNL     1      35.195 -18.731 -21.983  0.00  0.00    -0.005 C 
ATOM      8  C   UNL     1      34.644 -19.677 -21.117  0.00  0.00    -0.002 C 
ATOM      9  C   UNL     1      35.506 -20.387 -20.248  0.00  0.00    -0.000 C 
ATOM     10  C   UNL     1      36.558 -18.470 -22.012  0.00  0.00    -0.003 C 
ATOM     11  C   UNL     1      33.265 -19.943 -21.084  0.00  0.00    -0.000 C 
ATOM     12  C   UNL     1      36.885 -20.122 -20.282  0.00  0.00    -0.000 C 
ATOM     13  C   UNL     1      37.407 -19.169 -21.157  0.00  0.00    -0.000 C 
ATOM     14  C   UNL     1      34.966 -21.343 -19.373  0.00  0.00    -0.000 C 
ATOM     15  C   UNL     1      32.745 -20.895 -20.208  0.00  0.00    -0.000 C 
ATOM     16  C   UNL     1      33.593 -21.594 -19.354  0.00  0.00    -0.000 C 
ENDBRANCH   5   7
ENDBRANCH   2   5
BRANCH   3  17
ATOM     17  C   UNL     1      33.799 -14.410 -21.598  0.00  0.00    +0.166 C 
BRANCH  17  18
ATOM     18  O   UNL     1      34.750 -14.031 -22.582  0.00  0.00    -0.377 OA
ATOM     19  H   UNL     1      35.247 -14.813 -22.870  0.00  0.00    +0.211 HD
ENDBRANCH  17  18
BRANCH  17  20
ATOM     20  C   UNL     1      32.494 -13.589 -21.712  0.00  0.00    -0.028 C 
BRANCH  20  21
ATOM     21  N   UNL     1      32.268 -12.914 -20.429  0.00  0.00    +0.384 N 
ATOM     22  H   UNL     1      33.133 -12.908 -19.890  0.00  0.00    -0.089 HD
ATOM     23  H   UNL     1      31.545 -13.411 -19.906  0.00  0.00    -0.089 HD
ATOM     24  H   UNL     1      31.966 -11.954 -20.598  0.00  0.00    -0.089 HD
ENDBRANCH  20  21
BRANCH  20  25
ATOM     25  C   UNL     1      32.523 -12.567 -22.873  0.00  0.00    -0.007 C 
BRANCH  25  26
ATOM     26  C   UNL     1      32.031 -11.152 -22.544  0.00  0.00    +0.056 C 
BRANCH  26  27
ATOM     27  S   UNL     1      32.999  -9.845 -23.352  0.00  0.00    -0.140 S 
BRANCH  27  28
ATOM     28  C   UNL     1      34.110 -10.897 -24.312  0.00  0.00    +0.058 C 
ATOM     29  C   UNL     1      35.133 -10.058 -25.052  0.00  0.00    +0.013 C 
ENDBRANCH  27  28
ENDBRANCH  26  27
ENDBRANCH  25  26
ENDBRANCH  20  25
ENDBRANCH  17  20
ENDBRANCH   3  17
TORSDOF 10
ENDMDL
MODEL 2
REMARK VINA RESULT:      -8.5      1.721      1.862
REMARK  Name = 5287684
REMARK  10 active torsions:
REMARK  status: ('A' for Active; 'I' for Inactive)
REMARK    1  A    between atoms: N_2  and  C_5
REMARK    2  A    between atoms: C_3  and  C_17
REMARK    3  A    between atoms: C_5  and  C_7
REMARK    4  A    between atoms: C_17  and  O_18
REMARK    5  A    between atoms: C_17  and  C_20
REMARK    6  A    between atoms: C_20  and  N_21
REMARK    7  A    between atoms: C_20  and  C_25
REMARK    8  A    between atoms: C_25  and  C_26
REMARK    9  A    between atoms: C_26  and  S_27
REMARK   10  A    between atoms: S_27  and  C_28
REMARK                            x       y       z     vdW  Elec       q    Type
REMARK                         _______ _______ _______ _____ _____    ______ ____
ROOT
ATOM      1  O   UNL     1      32.076 -16.432 -20.975  0.00  0.00    -0.273 OA
ATOM      2  N   UNL     1      34.302 -16.604 -21.616  0.00  0.00    -0.300 N 
ATOM      3  C   UNL     1      33.208 -15.959 -21.062  0.00  0.00    +0.247 C 
ATOM      4  H   UNL     1      35.165 -16.131 -21.633  0.00  0.00    +0.150 HD
ENDROOT
BRANCH   2   5
ATOM      5  C   UNL     1      34.238 -17.937 -22.170  0.00  0.00    +0.094 C 
ATOM      6  C   UNL     1      34.580 -17.918 -23.659  0.00  0.00    +0.026 C 
BRANCH   5   7
ATOM      7  C   UNL     1      35.107 -18.899 -21.388  0.00  0.00    -0.005 C 
ATOM      8  C   UNL     1      34.551 -19.927 -20.625  0.00  0.00    -0.002 C 
ATOM      9  C   UNL     1      35.419 -20.794 -19.918  0.00  0.00    -0.000 C 
ATOM     10  C   UNL     1      36.480 -18.706 -21.469  0.00  0.00    -0.003 C 
ATOM     11  C   UNL     1      33.163 -20.126 -20.541  0.00  0.00    -0.000 C 
ATOM     12  C   UNL     1      36.807 -20.595 -20.002  0.00  0.00    -0.000 C 
ATOM     13  C   UNL     1      37.333 -19.558 -20.773  0.00  0.00    -0.000 C 
ATOM     14  C   UNL     1      34.873 -21.833 -19.147  0.00  0.00    -0.000 C 
ATOM     15  C   UNL     1      32.639 -21.163 -19.770  0.00  0.00    -0.000 C 
ATOM     16  C   UNL     1      33.492 -22.015 -19.074  0.00  0.00    -0.000 C 
ENDBRANCH   5   7
ENDBRANCH   2   5
BRANCH   3  17
ATOM     17  C   UNL     1      33.542 -14.553 -20.568  0.00  0.00    +0.166 C 
BRANCH  17  18
ATOM     18  O   UNL     1      34.950 -14.445 -20.422  0.00  0.00    -0.377 OA
ATOM     19  H   UNL     1      35.161 -13.664 -19.886  0.00  0.00    +0.211 HD
ENDBRANCH  17  18
BRANCH  17  20
ATOM     20  C   UNL     1      32.973 -13.451 -21.491  0.00  0.00    -0.028 C 
BRANCH  20  21
ATOM     21  N   UNL     1      32.344 -14.105 -22.645  0.00  0.00    +0.384 N 
ATOM     22  H   UNL     1      32.512 -13.550 -23.484  0.00  0.00    -0.089 HD
ATOM     23  H   UNL     1      31.339 -14.183 -22.485  0.00  0.00    -0.089 HD
ATOM     24  H   UNL     1      32.743 -15.035 -22.768  0.00  0.00    -0.089 HD
ENDBRANCH  20  21
BRANCH  20  25
ATOM     25  C   UNL     1      31.970 -12.519 -20.773  0.00  0.00    -0.007 C 
BRANCH  25  26
ATOM     26  C   UNL     1      31.131 -11.603 -21.673  0.00  0.00    +0.056 C 
BRANCH  26  27
ATOM     27  S   UNL     1      31.946 -10.026 -22.058  0.00  0.00    -0.140 S 
BRANCH  27  28
ATOM     28  C   UNL     1      31.925  -9.309 -20.400  0.00  0.00    +0.058 C 
ATOM     29  C   UNL     1      32.652  -7.978 -20.385  0.00  0.00    +0.013 C 
ENDBRANCH  27  28
ENDBRANCH  26  27
ENDBRANCH  25  26
ENDBRANCH  20  25
ENDBRANCH  17  20
ENDBRANCH   3  17
TORSDOF 10
ENDMDL
MODEL 3
REMARK VINA RESULT:      -8.5      1.828      1.962
REMARK  Name = 5287684
REMARK  10 active torsions:
REMARK  status: ('A' for Active; 'I' for Inactive)
REMARK    1  A    between atoms: N_2  and  C_5
REMARK    2  A    between atoms: C_3  and  C_17
REMARK    3  A    between atoms: C_5  and  C_7
REMARK    4  A    between atoms: C_17  and  O_18
REMARK    5  A    between atoms: C_17  and  C_20
REMARK    6  A    between atoms: C_20  and  N_21
REMARK    7  A    between atoms: C_20  and  C_25
REMARK    8  A    between atoms: C_25  and  C_26
REMARK    9  A    between atoms: C_26  and  S_27
REMARK   10  A    between atoms: S_27  and  C_28
REMARK                            x       y       z     vdW  Elec       q    Type
REMARK                         _______ _______ _______ _____ _____    ______ ____
ROOT
ATOM      1  O   UNL     1      32.200 -16.911 -20.753  0.00  0.00    -0.273 OA
ATOM      2  N   UNL     1      34.294 -16.862 -21.754  0.00  0.00    -0.300 N 
ATOM      3  C   UNL     1      33.235 -16.317 -21.048  0.00  0.00    +0.247 C 
ATOM      4  H   UNL     1      35.078 -16.295 -21.936  0.00  0.00    +0.150 HD
ENDROOT
BRANCH   2   5
ATOM      5  C   UNL     1      34.306 -18.224 -22.238  0.00  0.00    +0.094 C 
ATOM      6  C   UNL     1      34.721 -18.269 -23.707  0.00  0.00    +0.026 C 
BRANCH   5   7
ATOM      7  C   UNL     1      35.169 -19.110 -21.365  0.00  0.00    -0.005 C 
ATOM      8  C   UNL     1      34.611 -20.109 -20.564  0.00  0.00    -0.002 C 
ATOM      9  C   UNL     1      35.472 -20.904 -19.771  0.00  0.00    -0.000 C 
ATOM     10  C   UNL     1      36.537 -18.878 -21.401  0.00  0.00    -0.003 C 
ATOM     11  C   UNL     1      33.227 -20.346 -20.526  0.00  0.00    -0.000 C 
ATOM     12  C   UNL     1      36.856 -20.666 -19.811  0.00  0.00    -0.000 C 
ATOM     13  C   UNL     1      37.384 -19.660 -20.620  0.00  0.00    -0.000 C 
ATOM     14  C   UNL     1      34.925 -21.912 -18.962  0.00  0.00    -0.000 C 
ATOM     15  C   UNL     1      32.701 -21.352 -19.715  0.00  0.00    -0.000 C 
ATOM     16  C   UNL     1      33.548 -22.134 -18.935  0.00  0.00    -0.000 C 
ENDBRANCH   5   7
ENDBRANCH   2   5
BRANCH   3  17
ATOM     17  C   UNL     1      33.469 -14.855 -20.672  0.00  0.00    +0.166 C 
BRANCH  17  18
ATOM     18  O   UNL     1      34.868 -14.628 -20.577  0.00  0.00    -0.377 OA
ATOM     19  H   UNL     1      35.085 -13.772 -20.980  0.00  0.00    +0.211 HD
ENDBRANCH  17  18
BRANCH  17  20
ATOM     20  C   UNL     1      32.793 -13.875 -21.658  0.00  0.00    -0.028 C 
BRANCH  20  21
ATOM     21  N   UNL     1      32.173 -12.798 -20.877  0.00  0.00    +0.384 N 
ATOM     22  H   UNL     1      31.250 -12.589 -21.257  0.00  0.00    -0.089 HD
ATOM     23  H   UNL     1      32.758 -11.963 -20.926  0.00  0.00    -0.089 HD
ATOM     24  H   UNL     1      32.083 -13.093 -19.905  0.00  0.00    -0.089 HD
ENDBRANCH  20  21
BRANCH  20  25
ATOM     25  C   UNL     1      33.774 -13.300 -22.707  0.00  0.00    -0.007 C 
BRANCH  25  26
ATOM     26  C   UNL     1      33.291 -13.306 -24.162  0.00  0.00    +0.056 C 
BRANCH  26  27
ATOM     27  S   UNL     1      33.497 -14.913 -24.984  0.00  0.00    -0.140 S 
BRANCH  27  28
ATOM     28  C   UNL     1      32.708 -14.505 -26.558  0.00  0.00    +0.058 C 
ATOM     29  C   UNL     1      33.444 -13.373 -27.246  0.00  0.00    +0.013 C 
ENDBRANCH  27  28
ENDBRANCH  26  27
ENDBRANCH  25  26
ENDBRANCH  20  25
ENDBRANCH  17  20
ENDBRANCH   3  17
TORSDOF 10
ENDMDL
MODEL 4
REMARK VINA RESULT:      -8.4      2.927      8.937
REMARK  Name = 5287684
REMARK  10 active torsions:
REMARK  status: ('A' for Active; 'I' for Inactive)
REMARK    1  A    between atoms: N_2  and  C_5
REMARK    2  A    between atoms: C_3  and  C_17
REMARK    3  A    between atoms: C_5  and  C_7
REMARK    4  A    between atoms: C_17  and  O_18
REMARK    5  A    between atoms: C_17  and  C_20
REMARK    6  A    between atoms: C_20  and  N_21
REMARK    7  A    between atoms: C_20  and  C_25
REMARK    8  A    between atoms: C_25  and  C_26
REMARK    9  A    between atoms: C_26  and  S_27
REMARK   10  A    between atoms: S_27  and  C_28
REMARK                            x       y       z     vdW  Elec       q    Type
REMARK                         _______ _______ _______ _____ _____    ______ ____
ROOT
ATOM      1  O   UNL     1      35.102 -15.918 -24.361  0.00  0.00    -0.273 OA
ATOM      2  N   UNL     1      34.024 -14.412 -22.960  0.00  0.00    -0.300 N 
ATOM      3  C   UNL     1      34.703 -15.586 -23.246  0.00  0.00    +0.247 C 
ATOM      4  H   UNL     1      33.750 -14.245 -22.029  0.00  0.00    +0.150 HD
ENDROOT
BRANCH   2   5
ATOM      5  C   UNL     1      33.699 -13.421 -23.961  0.00  0.00    +0.094 C 
ATOM      6  C   UNL     1      32.847 -14.037 -25.070  0.00  0.00    +0.026 C 
BRANCH   5   7
ATOM      7  C   UNL     1      33.047 -12.205 -23.339  0.00  0.00    -0.005 C 
ATOM      8  C   UNL     1      33.518 -10.916 -23.595  0.00  0.00    -0.002 C 
ATOM      9  C   UNL     1      32.864  -9.820 -22.982  0.00  0.00    -0.000 C 
ATOM     10  C   UNL     1      31.963 -12.437 -22.503  0.00  0.00    -0.003 C 
ATOM     11  C   UNL     1      34.614 -10.678 -24.439  0.00  0.00    -0.000 C 
ATOM     12  C   UNL     1      31.767 -10.059 -22.138  0.00  0.00    -0.000 C 
ATOM     13  C   UNL     1      31.320 -11.359 -21.900  0.00  0.00    -0.000 C 
ATOM     14  C   UNL     1      33.326  -8.518 -23.231  0.00  0.00    -0.000 C 
ATOM     15  C   UNL     1      35.060  -9.377 -24.675  0.00  0.00    -0.000 C 
ATOM     16  C   UNL     1      34.417  -8.299 -24.073  0.00  0.00    -0.000 C 
ENDBRANCH   5   7
ENDBRANCH   2   5
BRANCH   3  17
ATOM     17  C   UNL     1      34.901 -16.466 -22.014  0.00  0.00    +0.166 C 
BRANCH  17  18
ATOM     18  O   UNL     1      33.923 -16.118 -21.044  0.00  0.00    -0.377 OA
ATOM     19  H   UNL     1      33.340 -16.877 -20.887  0.00  0.00    +0.211 HD
ENDBRANCH  17  18
BRANCH  17  20
ATOM     20  C   UNL     1      34.863 -17.974 -22.353  0.00  0.00    -0.028 C 
BRANCH  20  21
ATOM     21  N   UNL     1      36.047 -18.288 -23.163  0.00  0.00    +0.384 N 
ATOM     22  H   UNL     1      36.180 -19.298 -23.193  0.00  0.00    -0.089 HD
ATOM     23  H   UNL     1      36.869 -17.849 -22.746  0.00  0.00    -0.089 HD
ATOM     24  H   UNL     1      35.915 -17.933 -24.110  0.00  0.00    -0.089 HD
ENDBRANCH  20  21
BRANCH  20  25
ATOM     25  C   UNL     1      34.801 -18.875 -21.097  0.00  0.00    -0.007 C 
BRANCH  25  26
ATOM     26  C   UNL     1      33.527 -19.711 -20.925  0.00  0.00    +0.056 C 
BRANCH  26  27
ATOM     27  S   UNL     1      33.751 -21.153 -19.843  0.00  0.00    -0.140 S 
BRANCH  27  28
ATOM     28  C   UNL     1      35.552 -21.273 -19.937  0.00  0.00    +0.058 C 
ATOM     29  C   UNL     1      36.127 -21.708 -18.603  0.00  0.00    +0.013 C 
ENDBRANCH  27  28
ENDBRANCH  26  27
ENDBRANCH  25  26
ENDBRANCH  20  25
ENDBRANCH  17  20
ENDBRANCH   3  17
TORSDOF 10
ENDMDL
MODEL 5
REMARK VINA RESULT:      -8.4      4.112     10.761
REMARK  Name = 5287684
REMARK  10 active torsions:
REMARK  status: ('A' for Active; 'I' for Inactive)
REMARK    1  A    between atoms: N_2  and  C_5
REMARK    2  A    between atoms: C_3  and  C_17
REMARK    3  A    between atoms: C_5  and  C_7
REMARK    4  A    between atoms: C_17  and  O_18
REMARK    5  A    between atoms: C_17  and  C_20
REMARK    6  A    between atoms: C_20  and  N_21
REMARK    7  A    between atoms: C_20  and  C_25
REMARK    8  A    between atoms: C_25  and  C_26
REMARK    9  A    between atoms: C_26  and  S_27
REMARK   10  A    between atoms: S_27  and  C_28
REMARK                            x       y       z     vdW  Elec       q    Type
REMARK                         _______ _______ _______ _____ _____    ______ ____
ROOT
ATOM      1  O   UNL     1      30.831  -9.588 -23.044  0.00  0.00    -0.273 OA
ATOM      2  N   UNL     1      32.055  -8.968 -21.170  0.00  0.00    -0.300 N 
ATOM      3  C   UNL     1      31.423  -9.875 -22.006  0.00  0.00    +0.247 C 
ATOM      4  H   UNL     1      32.501  -9.308 -20.361  0.00  0.00    +0.150 HD
ENDROOT
BRANCH   2   5
ATOM      5  C   UNL     1      32.090  -7.546 -21.428  0.00  0.00    +0.094 C 
ATOM      6  C   UNL     1      32.537  -6.785 -20.181  0.00  0.00    +0.026 C 
BRANCH   5   7
ATOM      7  C   UNL     1      32.942  -7.228 -22.637  0.00  0.00    -0.005 C 
ATOM      8  C   UNL     1      32.515  -6.324 -23.612  0.00  0.00    -0.002 C 
ATOM      9  C   UNL     1      33.359  -6.069 -24.719  0.00  0.00    -0.000 C 
ATOM     10  C   UNL     1      34.165  -7.879 -22.728  0.00  0.00    -0.003 C 
ATOM     11  C   UNL     1      31.279  -5.664 -23.524  0.00  0.00    -0.000 C 
ATOM     12  C   UNL     1      34.596  -6.729 -24.806  0.00  0.00    -0.000 C 
ATOM     13  C   UNL     1      34.995  -7.628 -23.817  0.00  0.00    -0.000 C 
ATOM     14  C   UNL     1      32.942  -5.162 -25.706  0.00  0.00    -0.000 C 
ATOM     15  C   UNL     1      30.880  -4.765 -24.514  0.00  0.00    -0.000 C 
ATOM     16  C   UNL     1      31.710  -4.514 -25.603  0.00  0.00    -0.000 C 
ENDBRANCH   5   7
ENDBRANCH   2   5
BRANCH   3  17
ATOM     17  C   UNL     1      31.518 -11.311 -21.494  0.00  0.00    +0.166 C 
BRANCH  17  18
ATOM     18  O   UNL     1      30.241 -11.707 -21.012  0.00  0.00    -0.377 OA
ATOM     19  H   UNL     1      30.201 -12.675 -20.960  0.00  0.00    +0.211 HD
ENDBRANCH  17  18
BRANCH  17  20
ATOM     20  C   UNL     1      32.056 -12.287 -22.564  0.00  0.00    -0.028 C 
BRANCH  20  21
ATOM     21  N   UNL     1      33.087 -11.586 -23.341  0.00  0.00    +0.384 N 
ATOM     22  H   UNL     1      33.393 -12.179 -24.112  0.00  0.00    -0.089 HD
ATOM     23  H   UNL     1      33.883 -11.376 -22.737  0.00  0.00    -0.089 HD
ATOM     24  H   UNL     1      32.702 -10.718 -23.711  0.00  0.00    -0.089 HD
ENDBRANCH  20  21
BRANCH  20  25
ATOM     25  C   UNL     1      32.617 -13.596 -21.962  0.00  0.00    -0.007 C 
BRANCH  25  26
ATOM     26  C   UNL     1      33.942 -14.099 -22.547  0.00  0.00    +0.056 C 
BRANCH  26  27
ATOM     27  S   UNL     1      33.731 -15.158 -24.009  0.00  0.00    -0.140 S 
BRANCH  27  28
ATOM     28  C   UNL     1      35.048 -16.346 -23.664  0.00  0.00    +0.058 C 
ATOM     29  C   UNL     1      34.850 -17.612 -24.475  0.00  0.00    +0.013 C 
ENDBRANCH  27  28
ENDBRANCH  26  27
ENDBRANCH  25  26
ENDBRANCH  20  25
ENDBRANCH  17  20
ENDBRANCH   3  17
TORSDOF 10
ENDMDL
MODEL 6
REMARK VINA RESULT:      -8.3      4.470      8.710
REMARK  Name = 5287684
REMARK  10 active torsions:
REMARK  status: ('A' for Active; 'I' for Inactive)
REMARK    1  A    between atoms: N_2  and  C_5
REMARK    2  A    between atoms: C_3  and  C_17
REMARK    3  A    between atoms: C_5  and  C_7
REMARK    4  A    between atoms: C_17  and  O_18
REMARK    5  A    between atoms: C_17  and  C_20
REMARK    6  A    between atoms: C_20  and  N_21
REMARK    7  A    between atoms: C_20  and  C_25
REMARK    8  A    between atoms: C_25  and  C_26
REMARK    9  A    between atoms: C_26  and  S_27
REMARK   10  A    between atoms: S_27  and  C_28
REMARK                            x       y       z     vdW  Elec       q    Type
REMARK                         _______ _______ _______ _____ _____    ______ ____
ROOT
ATOM      1  O   UNL     1      35.842 -21.239 -20.625  0.00  0.00    -0.273 OA
ATOM      2  N   UNL     1      34.653 -19.248 -20.514  0.00  0.00    -0.300 N 
ATOM      3  C   UNL     1      34.860 -20.594 -20.263  0.00  0.00    +0.247 C 
ATOM      4  H   UNL     1      33.828 -18.829 -20.176  0.00  0.00    +0.150 HD
ENDROOT
BRANCH   2   5
ATOM      5  C   UNL     1      35.588 -18.426 -21.249  0.00  0.00    +0.094 C 
ATOM      6  C   UNL     1      36.977 -19.065 -21.252  0.00  0.00    +0.026 C 
BRANCH   5   7
ATOM      7  C   UNL     1      35.084 -18.133 -22.645  0.00  0.00    -0.005 C 
ATOM      8  C   UNL     1      34.684 -16.849 -23.020  0.00  0.00    -0.002 C 
ATOM      9  C   UNL     1      34.221 -16.640 -24.342  0.00  0.00    -0.000 C 
ATOM     10  C   UNL     1      35.038 -19.203 -23.530  0.00  0.00    -0.003 C 
ATOM     11  C   UNL     1      34.728 -15.765 -22.128  0.00  0.00    -0.000 C 
ATOM     12  C   UNL     1      34.177 -17.725 -25.233  0.00  0.00    -0.000 C 
ATOM     13  C   UNL     1      34.583 -18.997 -24.829  0.00  0.00    -0.000 C 
ATOM     14  C   UNL     1      33.817 -15.354 -24.733  0.00  0.00    -0.000 C 
ATOM     15  C   UNL     1      34.322 -14.494 -22.534  0.00  0.00    -0.000 C 
ATOM     16  C   UNL     1      33.868 -14.288 -23.833  0.00  0.00    -0.000 C 
ENDBRANCH   5   7
ENDBRANCH   2   5
BRANCH   3  17
ATOM     17  C   UNL     1      33.710 -21.231 -19.484  0.00  0.00    +0.166 C 
BRANCH  17  18
ATOM     18  O   UNL     1      32.658 -21.529 -20.390  0.00  0.00    -0.377 OA
ATOM     19  H   UNL     1      32.208 -20.708 -20.645  0.00  0.00    +0.211 HD
ENDBRANCH  17  18
BRANCH  17  20
ATOM     20  C   UNL     1      34.155 -22.478 -18.688  0.00  0.00    -0.028 C 
BRANCH  20  21
ATOM     21  N   UNL     1      35.420 -22.161 -18.014  0.00  0.00    +0.384 N 
ATOM     22  H   UNL     1      35.261 -22.084 -17.010  0.00  0.00    -0.089 HD
ATOM     23  H   UNL     1      35.781 -21.275 -18.370  0.00  0.00    -0.089 HD
ATOM     24  H   UNL     1      36.097 -22.902 -18.196  0.00  0.00    -0.089 HD
ENDBRANCH  20  21
BRANCH  20  25
ATOM     25  C   UNL     1      33.093 -22.955 -17.668  0.00  0.00    -0.007 C 
BRANCH  25  26
ATOM     26  C   UNL     1      33.627 -23.487 -16.332  0.00  0.00    +0.056 C 
BRANCH  26  27
ATOM     27  S   UNL     1      32.427 -23.361 -14.974  0.00  0.00    -0.140 S 
BRANCH  27  28
ATOM     28  C   UNL     1      30.937 -23.107 -15.964  0.00  0.00    +0.058 C 
ATOM     29  C   UNL     1      29.740 -22.849 -15.070  0.00  0.00    +0.013 C 
ENDBRANCH  27  28
ENDBRANCH  26  27
ENDBRANCH  25  26
ENDBRANCH  20  25
ENDBRANCH  17  20
ENDBRANCH   3  17
TORSDOF 10
ENDMDL
MODEL 7
REMARK VINA RESULT:      -8.3      4.917      8.908
REMARK  Name = 5287684
REMARK  10 active torsions:
REMARK  status: ('A' for Active; 'I' for Inactive)
REMARK    1  A    between atoms: N_2  and  C_5
REMARK    2  A    between atoms: C_3  and  C_17
REMARK    3  A    between atoms: C_5  and  C_7
REMARK    4  A    between atoms: C_17  and  O_18
REMARK    5  A    between atoms: C_17  and  C_20
REMARK    6  A    between atoms: C_20  and  N_21
REMARK    7  A    between atoms: C_20  and  C_25
REMARK    8  A    between atoms: C_25  and  C_26
REMARK    9  A    between atoms: C_26  and  S_27
REMARK   10  A    between atoms: S_27  and  C_28
REMARK                            x       y       z     vdW  Elec       q    Type
REMARK                         _______ _______ _______ _____ _____    ______ ____
ROOT
ATOM      1  O   UNL     1      35.990 -21.453 -18.833  0.00  0.00    -0.273 OA
ATOM      2  N   UNL     1      34.602 -20.342 -20.327  0.00  0.00    -0.300 N 
ATOM      3  C   UNL     1      34.918 -21.345 -19.425  0.00  0.00    +0.247 C 
ATOM      4  H   UNL     1      33.711 -20.351 -20.745  0.00  0.00    +0.150 HD
ENDROOT
BRANCH   2   5
ATOM      5  C   UNL     1      35.518 -19.282 -20.684  0.00  0.00    +0.094 C 
ATOM      6  C   UNL     1      36.957 -19.796 -20.694  0.00  0.00    +0.026 C 
BRANCH   5   7
ATOM      7  C   UNL     1      35.126 -18.636 -21.995  0.00  0.00    -0.005 C 
ATOM      8  C   UNL     1      34.832 -17.273 -22.076  0.00  0.00    -0.002 C 
ATOM      9  C   UNL     1      34.472 -16.729 -23.332  0.00  0.00    -0.000 C 
ATOM     10  C   UNL     1      35.071 -19.464 -23.108  0.00  0.00    -0.003 C 
ATOM     11  C   UNL     1      34.886 -16.432 -20.952  0.00  0.00    -0.000 C 
ATOM     12  C   UNL     1      34.419 -17.571 -24.455  0.00  0.00    -0.000 C 
ATOM     13  C   UNL     1      34.717 -18.929 -24.343  0.00  0.00    -0.000 C 
ATOM     14  C   UNL     1      34.175 -15.360 -23.428  0.00  0.00    -0.000 C 
ATOM     15  C   UNL     1      34.588 -15.074 -21.066  0.00  0.00    -0.000 C 
ATOM     16  C   UNL     1      34.234 -14.539 -22.301  0.00  0.00    -0.000 C 
ENDBRANCH   5   7
ENDBRANCH   2   5
BRANCH   3  17
ATOM     17  C   UNL     1      33.782 -22.349 -19.241  0.00  0.00    +0.166 C 
BRANCH  17  18
ATOM     18  O   UNL     1      34.202 -23.609 -19.744  0.00  0.00    -0.377 OA
ATOM     19  H   UNL     1      34.218 -23.581 -20.714  0.00  0.00    +0.211 HD
ENDBRANCH  17  18
BRANCH  17  20
ATOM     20  C   UNL     1      33.309 -22.445 -17.773  0.00  0.00    -0.028 C 
BRANCH  20  21
ATOM     21  N   UNL     1      31.850 -22.610 -17.775  0.00  0.00    +0.384 N 
ATOM     22  H   UNL     1      31.566 -23.122 -18.609  0.00  0.00    -0.089 HD
ATOM     23  H   UNL     1      31.404 -21.691 -17.772  0.00  0.00    -0.089 HD
ATOM     24  H   UNL     1      31.565 -23.128 -16.944  0.00  0.00    -0.089 HD
ENDBRANCH  20  21
BRANCH  20  25
ATOM     25  C   UNL     1      33.990 -23.593 -16.991  0.00  0.00    -0.007 C 
BRANCH  25  26
ATOM     26  C   UNL     1      34.879 -23.176 -15.812  0.00  0.00    +0.056 C 
BRANCH  26  27
ATOM     27  S   UNL     1      35.711 -24.574 -15.006  0.00  0.00    -0.140 S 
BRANCH  27  28
ATOM     28  C   UNL     1      37.393 -23.914 -15.007  0.00  0.00    +0.058 C 
ATOM     29  C   UNL     1      37.495 -22.715 -15.930  0.00  0.00    +0.013 C 
ENDBRANCH  27  28
ENDBRANCH  26  27
ENDBRANCH  25  26
ENDBRANCH  20  25
ENDBRANCH  17  20
ENDBRANCH   3  17
TORSDOF 10
ENDMDL
MODEL 8
REMARK VINA RESULT:      -8.2      4.286      8.385
REMARK  Name = 5287684
REMARK  10 active torsions:
REMARK  status: ('A' for Active; 'I' for Inactive)
REMARK    1  A    between atoms: N_2  and  C_5
REMARK    2  A    between atoms: C_3  and  C_17
REMARK    3  A    between atoms: C_5  and  C_7
REMARK    4  A    between atoms: C_17  and  O_18
REMARK    5  A    between atoms: C_17  and  C_20
REMARK    6  A    between atoms: C_20  and  N_21
REMARK    7  A    between atoms: C_20  and  C_25
REMARK    8  A    between atoms: C_25  and  C_26
REMARK    9  A    between atoms: C_26  and  S_27
REMARK   10  A    between atoms: S_27  and  C_28
REMARK                            x       y       z     vdW  Elec       q    Type
REMARK                         _______ _______ _______ _____ _____    ______ ____
ROOT
ATOM      1  O   UNL     1      36.087 -20.220 -20.947  0.00  0.00    -0.273 OA
ATOM      2  N   UNL     1      34.312 -19.364 -22.175  0.00  0.00    -0.300 N 
ATOM      3  C   UNL     1      34.884 -20.014 -21.094  0.00  0.00    +0.247 C 
ATOM      4  H   UNL     1      33.334 -19.252 -22.191  0.00  0.00    +0.150 HD
ENDROOT
BRANCH   2   5
ATOM      5  C   UNL     1      35.081 -18.843 -23.283  0.00  0.00    +0.094 C 
ATOM      6  C   UNL     1      35.086 -19.833 -24.447  0.00  0.00    +0.026 C 
BRANCH   5   7
ATOM      7  C   UNL     1      34.593 -17.470 -23.693  0.00  0.00    -0.005 C 
ATOM      8  C   UNL     1      34.456 -16.438 -22.762  0.00  0.00    -0.002 C 
ATOM      9  C   UNL     1      33.995 -15.177 -23.210  0.00  0.00    -0.000 C 
ATOM     10  C   UNL     1      34.289 -17.291 -25.036  0.00  0.00    -0.003 C 
ATOM     11  C   UNL     1      34.762 -16.615 -21.403  0.00  0.00    -0.000 C 
ATOM     12  C   UNL     1      33.689 -15.000 -24.569  0.00  0.00    -0.000 C 
ATOM     13  C   UNL     1      33.835 -16.050 -25.475  0.00  0.00    -0.000 C 
ATOM     14  C   UNL     1      33.853 -14.130 -22.285  0.00  0.00    -0.000 C 
ATOM     15  C   UNL     1      34.615 -15.564 -20.498  0.00  0.00    -0.000 C 
ATOM     16  C   UNL     1      34.162 -14.324 -20.938  0.00  0.00    -0.000 C 
ENDBRANCH   5   7
ENDBRANCH   2   5
BRANCH   3  17
ATOM     17  C   UNL     1      33.847 -20.482 -20.074  0.00  0.00    +0.166 C 
BRANCH  17  18
ATOM     18  O   UNL     1      32.577 -20.534 -20.707  0.00  0.00    -0.377 OA
ATOM     19  H   UNL     1      32.560 -21.270 -21.339  0.00  0.00    +0.211 HD
ENDBRANCH  17  18
BRANCH  17  20
ATOM     20  C   UNL     1      34.223 -21.835 -19.428  0.00  0.00    -0.028 C 
BRANCH  20  21
ATOM     21  N   UNL     1      35.479 -21.653 -18.689  0.00  0.00    +0.384 N 
ATOM     22  H   UNL     1      36.230 -21.434 -19.343  0.00  0.00    -0.089 HD
ATOM     23  H   UNL     1      35.705 -22.513 -18.187  0.00  0.00    -0.089 HD
ATOM     24  H   UNL     1      35.373 -20.888 -18.023  0.00  0.00    -0.089 HD
ENDBRANCH  20  21
BRANCH  20  25
ATOM     25  C   UNL     1      33.116 -22.391 -18.502  0.00  0.00    -0.007 C 
BRANCH  25  26
ATOM     26  C   UNL     1      33.535 -23.510 -17.540  0.00  0.00    +0.056 C 
BRANCH  26  27
ATOM     27  S   UNL     1      32.881 -23.299 -15.859  0.00  0.00    -0.140 S 
BRANCH  27  28
ATOM     28  C   UNL     1      31.146 -23.029 -16.285  0.00  0.00    +0.058 C 
ATOM     29  C   UNL     1      30.294 -22.958 -15.033  0.00  0.00    +0.013 C 
ENDBRANCH  27  28
ENDBRANCH  26  27
ENDBRANCH  25  26
ENDBRANCH  20  25
ENDBRANCH  17  20
ENDBRANCH   3  17
TORSDOF 10
ENDMDL
MODEL 9
REMARK VINA RESULT:      -8.1      2.685      9.017
REMARK  Name = 5287684
REMARK  10 active torsions:
REMARK  status: ('A' for Active; 'I' for Inactive)
REMARK    1  A    between atoms: N_2  and  C_5
REMARK    2  A    between atoms: C_3  and  C_17
REMARK    3  A    between atoms: C_5  and  C_7
REMARK    4  A    between atoms: C_17  and  O_18
REMARK    5  A    between atoms: C_17  and  C_20
REMARK    6  A    between atoms: C_20  and  N_21
REMARK    7  A    between atoms: C_20  and  C_25
REMARK    8  A    between atoms: C_25  and  C_26
REMARK    9  A    between atoms: C_26  and  S_27
REMARK   10  A    between atoms: S_27  and  C_28
REMARK                            x       y       z     vdW  Elec       q    Type
REMARK                         _______ _______ _______ _____ _____    ______ ____
ROOT
ATOM      1  O   UNL     1      32.098 -14.072 -23.192  0.00  0.00    -0.273 OA
ATOM      2  N   UNL     1      32.392 -12.519 -21.492  0.00  0.00    -0.300 N 
ATOM      3  C   UNL     1      32.589 -13.740 -22.115  0.00  0.00    +0.247 C 
ATOM      4  H   UNL     1      32.836 -12.357 -20.628  0.00  0.00    +0.150 HD
ENDROOT
BRANCH   2   5
ATOM      5  C   UNL     1      31.567 -11.470 -22.047  0.00  0.00    +0.094 C 
ATOM      6  C   UNL     1      30.345 -11.223 -21.164  0.00  0.00    +0.026 C 
BRANCH   5   7
ATOM      7  C   UNL     1      32.369 -10.210 -22.291  0.00  0.00    -0.005 C 
ATOM      8  C   UNL     1      33.305 -10.131 -23.323  0.00  0.00    -0.002 C 
ATOM      9  C   UNL     1      34.023  -8.924 -23.499  0.00  0.00    -0.000 C 
ATOM     10  C   UNL     1      32.127  -9.142 -21.438  0.00  0.00    -0.003 C 
ATOM     11  C   UNL     1      33.553 -11.210 -24.188  0.00  0.00    -0.000 C 
ATOM     12  C   UNL     1      33.775  -7.846 -22.634  0.00  0.00    -0.000 C 
ATOM     13  C   UNL     1      32.833  -7.955 -21.611  0.00  0.00    -0.000 C 
ATOM     14  C   UNL     1      34.967  -8.831 -24.533  0.00  0.00    -0.000 C 
ATOM     15  C   UNL     1      34.495 -11.100 -25.211  0.00  0.00    -0.000 C 
ATOM     16  C   UNL     1      35.201  -9.913 -25.384  0.00  0.00    -0.000 C 
ENDBRANCH   5   7
ENDBRANCH   2   5
BRANCH   3  17
ATOM     17  C   UNL     1      33.487 -14.675 -21.308  0.00  0.00    +0.166 C 
BRANCH  17  18
ATOM     18  O   UNL     1      32.811 -15.035 -20.112  0.00  0.00    -0.377 OA
ATOM     19  H   UNL     1      33.213 -15.837 -19.742  0.00  0.00    +0.211 HD
ENDBRANCH  17  18
BRANCH  17  20
ATOM     20  C   UNL     1      33.928 -15.916 -22.116  0.00  0.00    -0.028 C 
BRANCH  20  21
ATOM     21  N   UNL     1      34.837 -15.469 -23.178  0.00  0.00    +0.384 N 
ATOM     22  H   UNL     1      35.523 -14.822 -22.789  0.00  0.00    -0.089 HD
ATOM     23  H   UNL     1      34.301 -14.998 -23.908  0.00  0.00    -0.089 HD
ATOM     24  H   UNL     1      35.318 -16.275 -23.576  0.00  0.00    -0.089 HD
ENDBRANCH  20  21
BRANCH  20  25
ATOM     25  C   UNL     1      34.597 -17.002 -21.241  0.00  0.00    -0.007 C 
BRANCH  25  26
ATOM     26  C   UNL     1      34.481 -18.446 -21.745  0.00  0.00    +0.056 C 
BRANCH  26  27
ATOM     27  S   UNL     1      35.572 -19.606 -20.870  0.00  0.00    -0.140 S 
BRANCH  27  28
ATOM     28  C   UNL     1      34.299 -20.629 -20.096  0.00  0.00    +0.058 C 
ATOM     29  C   UNL     1      32.916 -20.155 -20.499  0.00  0.00    +0.013 C 
ENDBRANCH  27  28
ENDBRANCH  26  27
ENDBRANCH  25  26
ENDBRANCH  20  25
ENDBRANCH  17  20
ENDBRANCH   3  17
TORSDOF 10
ENDMDL
