MODEL 1
REMARK VINA RESULT:      -7.9      0.000      0.000
REMARK  Name = 65050
REMARK  4 active torsions:
REMARK  status: ('A' for Active; 'I' for Inactive)
REMARK    1  A    between atoms: N_3  and  C1*_15
REMARK    2  A    between atoms: C3*_13  and  O3*_17
REMARK    3  A    between atoms: C4*_16  and  C5*_19
REMARK    4  A    between atoms: C5*_19  and  O5*_20
REMARK                            x       y       z     vdW  Elec       q    Type
REMARK                         _______ _______ _______ _____ _____    ______ ____
ROOT
ATOM      1  I   UNL     1      31.776 -23.970 -14.799  0.00  0.00    -0.037 I 
ATOM      2  O   UNL     1      37.327 -22.454 -16.776  0.00  0.00    -0.193 OA
ATOM      3  N   UNL     1      35.984 -23.131 -15.028  0.00  0.00    -0.180 N 
ATOM      4  N   UNL     1      35.128 -22.752 -17.243  0.00  0.00    -0.306 NA
ATOM      5  N   UNL     1      32.899 -23.042 -17.766  0.00  0.00    -0.332 N 
ATOM      6  C   UNL     1      34.707 -23.471 -14.610  0.00  0.00    +0.089 C 
ATOM      7  C   UNL     1      36.203 -22.762 -16.375  0.00  0.00    +0.275 C 
ATOM      8  C   UNL     1      33.649 -23.470 -15.425  0.00  0.00    +0.090 C 
ATOM      9  C   UNL     1      33.923 -23.074 -16.845  0.00  0.00    +0.198 C 
ATOM     10  H   UNL     1      33.083 -22.782 -18.698  0.00  0.00    +0.145 HD
ATOM     11  H   UNL     1      31.983 -23.280 -17.493  0.00  0.00    +0.145 HD
ENDROOT
BRANCH   3  15
ATOM     12  O4* UNL     1      37.900 -24.299 -14.363  0.00  0.00    -0.334 OA
ATOM     13  C3* UNL     1      37.726 -24.052 -12.011  0.00  0.00    +0.144 C 
ATOM     14  C2* UNL     1      36.619 -23.248 -12.653  0.00  0.00    +0.084 C 
ATOM     15  C1* UNL     1      37.077 -23.154 -14.099  0.00  0.00    +0.209 C 
ATOM     16  C4* UNL     1      38.160 -24.992 -13.127  0.00  0.00    +0.173 C 
BRANCH  13  17
ATOM     17  O3* UNL     1      38.804 -23.188 -11.657  0.00  0.00    -0.382 OA
ATOM     18  H3* UNL     1      39.515 -23.273 -12.313  0.00  0.00    +0.210 HD
ENDBRANCH  13  17
BRANCH  16  19
ATOM     19  C5* UNL     1      37.371 -26.295 -13.144  0.00  0.00    +0.169 C 
BRANCH  19  20
ATOM     20  O5* UNL     1      36.842 -26.526 -11.849  0.00  0.00    -0.379 OA
ATOM     21  H5* UNL     1      36.269 -27.309 -11.869  0.00  0.00    +0.211 HD
ENDBRANCH  19  20
ENDBRANCH  16  19
ENDBRANCH   3  15
TORSDOF 4
ENDMDL
MODEL 2
REMARK VINA RESULT:      -7.7      1.772      2.540
REMARK  Name = 65050
REMARK  4 active torsions:
REMARK  status: ('A' for Active; 'I' for Inactive)
REMARK    1  A    between atoms: N_3  and  C1*_15
REMARK    2  A    between atoms: C3*_13  and  O3*_17
REMARK    3  A    between atoms: C4*_16  and  C5*_19
REMARK    4  A    between atoms: C5*_19  and  O5*_20
REMARK                            x       y       z     vdW  Elec       q    Type
REMARK                         _______ _______ _______ _____ _____    ______ ____
ROOT
ATOM      1  I   UNL     1      30.797 -23.855 -13.780  0.00  0.00    -0.037 I 
ATOM      2  O   UNL     1      34.378 -22.757 -18.575  0.00  0.00    -0.193 OA
ATOM      3  N   UNL     1      34.190 -23.462 -16.388  0.00  0.00    -0.180 N 
ATOM      4  N   UNL     1      32.292 -22.763 -17.687  0.00  0.00    -0.306 NA
ATOM      5  N   UNL     1      30.149 -22.750 -16.828  0.00  0.00    -0.332 N 
ATOM      6  C   UNL     1      33.347 -23.702 -15.314  0.00  0.00    +0.089 C 
ATOM      7  C   UNL     1      33.653 -22.980 -17.604  0.00  0.00    +0.275 C 
ATOM      8  C   UNL     1      32.027 -23.500 -15.365  0.00  0.00    +0.090 C 
ATOM      9  C   UNL     1      31.497 -22.990 -16.671  0.00  0.00    +0.198 C 
ATOM     10  H   UNL     1      29.805 -22.416 -17.687  0.00  0.00    +0.145 HD
ATOM     11  H   UNL     1      29.530 -22.914 -16.079  0.00  0.00    +0.145 HD
ENDROOT
BRANCH   3  15
ATOM     12  O4* UNL     1      35.812 -24.958 -15.609  0.00  0.00    -0.334 OA
ATOM     13  C3* UNL     1      37.412 -23.420 -14.775  0.00  0.00    +0.144 C 
ATOM     14  C2* UNL     1      36.309 -22.635 -15.446  0.00  0.00    +0.084 C 
ATOM     15  C1* UNL     1      35.599 -23.701 -16.266  0.00  0.00    +0.209 C 
ATOM     16  C4* UNL     1      36.778 -24.786 -14.553  0.00  0.00    +0.173 C 
BRANCH  13  17
ATOM     17  O3* UNL     1      38.524 -23.539 -15.660  0.00  0.00    -0.382 OA
ATOM     18  H3* UNL     1      38.900 -22.660 -15.827  0.00  0.00    +0.210 HD
ENDBRANCH  13  17
BRANCH  16  19
ATOM     19  C5* UNL     1      36.043 -24.889 -13.223  0.00  0.00    +0.169 C 
BRANCH  19  20
ATOM     20  O5* UNL     1      36.519 -26.029 -12.525  0.00  0.00    -0.379 OA
ATOM     21  H5* UNL     1      36.796 -25.768 -11.632  0.00  0.00    +0.211 HD
ENDBRANCH  19  20
ENDBRANCH  16  19
ENDBRANCH   3  15
TORSDOF 4
ENDMDL
MODEL 3
REMARK VINA RESULT:      -7.7      9.153     11.094
REMARK  Name = 65050
REMARK  4 active torsions:
REMARK  status: ('A' for Active; 'I' for Inactive)
REMARK    1  A    between atoms: N_3  and  C1*_15
REMARK    2  A    between atoms: C3*_13  and  O3*_17
REMARK    3  A    between atoms: C4*_16  and  C5*_19
REMARK    4  A    between atoms: C5*_19  and  O5*_20
REMARK                            x       y       z     vdW  Elec       q    Type
REMARK                         _______ _______ _______ _____ _____    ______ ____
ROOT
ATOM      1  I   UNL     1      32.979 -13.225 -23.181  0.00  0.00    -0.037 I 
ATOM      2  O   UNL     1      34.735 -18.480 -25.695  0.00  0.00    -0.193 OA
ATOM      3  N   UNL     1      34.641 -17.136 -23.824  0.00  0.00    -0.180 N 
ATOM      4  N   UNL     1      33.712 -16.472 -25.941  0.00  0.00    -0.306 NA
ATOM      5  N   UNL     1      32.662 -14.438 -26.240  0.00  0.00    -0.332 N 
ATOM      6  C   UNL     1      34.227 -15.929 -23.282  0.00  0.00    +0.089 C 
ATOM      7  C   UNL     1      34.379 -17.416 -25.185  0.00  0.00    +0.275 C 
ATOM      8  C   UNL     1      33.581 -14.997 -23.988  0.00  0.00    +0.090 C 
ATOM      9  C   UNL     1      33.323 -15.332 -25.426  0.00  0.00    +0.198 C 
ATOM     10  H   UNL     1      32.494 -14.663 -27.183  0.00  0.00    +0.145 HD
ATOM     11  H   UNL     1      32.358 -13.575 -25.877  0.00  0.00    +0.145 HD
ENDROOT
BRANCH   3  15
ATOM     12  O4* UNL     1      34.522 -19.272 -22.877  0.00  0.00    -0.334 OA
ATOM     13  C3* UNL     1      35.526 -18.836 -20.773  0.00  0.00    +0.144 C 
ATOM     14  C2* UNL     1      35.613 -17.579 -21.607  0.00  0.00    +0.084 C 
ATOM     15  C1* UNL     1      35.330 -18.094 -23.009  0.00  0.00    +0.209 C 
ATOM     16  C4* UNL     1      34.455 -19.650 -21.488  0.00  0.00    +0.173 C 
BRANCH  13  17
ATOM     17  O3* UNL     1      36.771 -19.529 -20.816  0.00  0.00    -0.382 OA
ATOM     18  H3* UNL     1      36.760 -20.169 -21.545  0.00  0.00    +0.210 HD
ENDBRANCH  13  17
BRANCH  16  19
ATOM     19  C5* UNL     1      33.049 -19.349 -20.987  0.00  0.00    +0.169 C 
BRANCH  19  20
ATOM     20  O5* UNL     1      32.670 -20.352 -20.058  0.00  0.00    -0.379 OA
ATOM     21  H5* UNL     1      31.893 -20.826 -20.393  0.00  0.00    +0.211 HD
ENDBRANCH  19  20
ENDBRANCH  16  19
ENDBRANCH   3  15
TORSDOF 4
ENDMDL
MODEL 4
REMARK VINA RESULT:      -7.5      2.689      3.585
REMARK  Name = 65050
REMARK  4 active torsions:
REMARK  status: ('A' for Active; 'I' for Inactive)
REMARK    1  A    between atoms: N_3  and  C1*_15
REMARK    2  A    between atoms: C3*_13  and  O3*_17
REMARK    3  A    between atoms: C4*_16  and  C5*_19
REMARK    4  A    between atoms: C5*_19  and  O5*_20
REMARK                            x       y       z     vdW  Elec       q    Type
REMARK                         _______ _______ _______ _____ _____    ______ ____
ROOT
ATOM      1  I   UNL     1      36.145 -21.286 -19.722  0.00  0.00    -0.037 I 
ATOM      2  O   UNL     1      32.053 -23.729 -15.939  0.00  0.00    -0.193 OA
ATOM      3  N   UNL     1      34.251 -23.166 -16.354  0.00  0.00    -0.180 N 
ATOM      4  N   UNL     1      32.486 -22.731 -17.929  0.00  0.00    -0.306 NA
ATOM      5  N   UNL     1      32.877 -21.718 -19.966  0.00  0.00    -0.332 N 
ATOM      6  C   UNL     1      35.157 -22.603 -17.239  0.00  0.00    +0.089 C 
ATOM      7  C   UNL     1      32.882 -23.233 -16.705  0.00  0.00    +0.275 C 
ATOM      8  C   UNL     1      34.803 -22.110 -18.429  0.00  0.00    +0.090 C 
ATOM      9  C   UNL     1      33.345 -22.199 -18.762  0.00  0.00    +0.198 C 
ATOM     10  H   UNL     1      31.918 -21.778 -20.181  0.00  0.00    +0.145 HD
ATOM     11  H   UNL     1      33.501 -21.313 -20.610  0.00  0.00    +0.145 HD
ENDROOT
BRANCH   3  15
ATOM     12  O4* UNL     1      35.806 -22.892 -14.627  0.00  0.00    -0.334 OA
ATOM     13  C3* UNL     1      36.265 -25.166 -14.134  0.00  0.00    +0.144 C 
ATOM     14  C2* UNL     1      35.166 -25.121 -15.171  0.00  0.00    +0.084 C 
ATOM     15  C1* UNL     1      34.698 -23.676 -15.091  0.00  0.00    +0.209 C 
ATOM     16  C4* UNL     1      36.870 -23.771 -14.213  0.00  0.00    +0.173 C 
BRANCH  13  17
ATOM     17  O3* UNL     1      35.699 -25.378 -12.843  0.00  0.00    -0.382 OA
ATOM     18  H3* UNL     1      35.193 -26.206 -12.844  0.00  0.00    +0.210 HD
ENDBRANCH  13  17
BRANCH  16  19
ATOM     19  C5* UNL     1      37.991 -23.668 -15.239  0.00  0.00    +0.169 C 
BRANCH  19  20
ATOM     20  O5* UNL     1      38.697 -24.898 -15.270  0.00  0.00    -0.379 OA
ATOM     21  H5* UNL     1      39.616 -24.750 -14.997  0.00  0.00    +0.211 HD
ENDBRANCH  19  20
ENDBRANCH  16  19
ENDBRANCH   3  15
TORSDOF 4
ENDMDL
MODEL 5
REMARK VINA RESULT:      -7.4      2.372      3.467
REMARK  Name = 65050
REMARK  4 active torsions:
REMARK  status: ('A' for Active; 'I' for Inactive)
REMARK    1  A    between atoms: N_3  and  C1*_15
REMARK    2  A    between atoms: C3*_13  and  O3*_17
REMARK    3  A    between atoms: C4*_16  and  C5*_19
REMARK    4  A    between atoms: C5*_19  and  O5*_20
REMARK                            x       y       z     vdW  Elec       q    Type
REMARK                         _______ _______ _______ _____ _____    ______ ____
ROOT
ATOM      1  I   UNL     1      33.701 -22.380 -18.890  0.00  0.00    -0.037 I 
ATOM      2  O   UNL     1      32.508 -24.558 -13.336  0.00  0.00    -0.193 OA
ATOM      3  N   UNL     1      34.063 -24.139 -14.986  0.00  0.00    -0.180 N 
ATOM      4  N   UNL     1      31.735 -23.587 -15.233  0.00  0.00    -0.306 NA
ATOM      5  N   UNL     1      30.902 -22.599 -17.146  0.00  0.00    -0.332 N 
ATOM      6  C   UNL     1      34.301 -23.634 -16.255  0.00  0.00    +0.089 C 
ATOM      7  C   UNL     1      32.750 -24.116 -14.461  0.00  0.00    +0.275 C 
ATOM      8  C   UNL     1      33.340 -23.117 -17.026  0.00  0.00    +0.090 C 
ATOM      9  C   UNL     1      31.963 -23.111 -16.432  0.00  0.00    +0.198 C 
ATOM     10  H   UNL     1      30.000 -22.596 -16.752  0.00  0.00    +0.145 HD
ATOM     11  H   UNL     1      31.046 -22.234 -18.049  0.00  0.00    +0.145 HD
ENDROOT
BRANCH   3  15
ATOM     12  O4* UNL     1      36.061 -23.629 -13.880  0.00  0.00    -0.334 OA
ATOM     13  C3* UNL     1      37.325 -25.561 -14.421  0.00  0.00    +0.144 C 
ATOM     14  C2* UNL     1      35.924 -25.749 -14.956  0.00  0.00    +0.084 C 
ATOM     15  C1* UNL     1      35.142 -24.679 -14.211  0.00  0.00    +0.209 C 
ATOM     16  C4* UNL     1      37.403 -24.060 -14.180  0.00  0.00    +0.173 C 
BRANCH  13  17
ATOM     17  O3* UNL     1      37.465 -26.259 -13.186  0.00  0.00    -0.382 OA
ATOM     18  H3* UNL     1      36.660 -26.145 -12.657  0.00  0.00    +0.210 HD
ENDBRANCH  13  17
BRANCH  16  19
ATOM     19  C5* UNL     1      37.882 -23.287 -15.402  0.00  0.00    +0.169 C 
BRANCH  19  20
ATOM     20  O5* UNL     1      39.142 -23.801 -15.802  0.00  0.00    -0.379 OA
ATOM     21  H5* UNL     1      39.017 -24.655 -16.246  0.00  0.00    +0.211 HD
ENDBRANCH  19  20
ENDBRANCH  16  19
ENDBRANCH   3  15
TORSDOF 4
ENDMDL
MODEL 6
REMARK VINA RESULT:      -7.1     10.816     12.766
REMARK  Name = 65050
REMARK  4 active torsions:
REMARK  status: ('A' for Active; 'I' for Inactive)
REMARK    1  A    between atoms: N_3  and  C1*_15
REMARK    2  A    between atoms: C3*_13  and  O3*_17
REMARK    3  A    between atoms: C4*_16  and  C5*_19
REMARK    4  A    between atoms: C5*_19  and  O5*_20
REMARK                            x       y       z     vdW  Elec       q    Type
REMARK                         _______ _______ _______ _____ _____    ______ ____
ROOT
ATOM      1  I   UNL     1      35.205 -19.253 -21.512  0.00  0.00    -0.037 I 
ATOM      2  O   UNL     1      33.956 -15.653 -26.255  0.00  0.00    -0.193 OA
ATOM      3  N   UNL     1      34.317 -15.854 -23.987  0.00  0.00    -0.180 N 
ATOM      4  N   UNL     1      34.395 -17.738 -25.479  0.00  0.00    -0.306 NA
ATOM      5  N   UNL     1      34.837 -19.879 -24.737  0.00  0.00    -0.332 N 
ATOM      6  C   UNL     1      34.603 -16.702 -22.928  0.00  0.00    +0.089 C 
ATOM      7  C   UNL     1      34.210 -16.382 -25.294  0.00  0.00    +0.275 C 
ATOM      8  C   UNL     1      34.786 -18.017 -23.076  0.00  0.00    +0.090 C 
ATOM      9  C   UNL     1      34.665 -18.536 -24.477  0.00  0.00    +0.198 C 
ATOM     10  H   UNL     1      34.757 -20.216 -25.658  0.00  0.00    +0.145 HD
ATOM     11  H   UNL     1      35.042 -20.500 -24.001  0.00  0.00    +0.145 HD
ENDROOT
BRANCH   3  15
ATOM     12  O4* UNL     1      34.413 -14.153 -22.383  0.00  0.00    -0.334 OA
ATOM     13  C3* UNL     1      32.522 -12.879 -23.034  0.00  0.00    +0.144 C 
ATOM     14  C2* UNL     1      32.712 -13.989 -24.041  0.00  0.00    +0.084 C 
ATOM     15  C1* UNL     1      34.133 -14.450 -23.758  0.00  0.00    +0.209 C 
ATOM     16  C4* UNL     1      33.346 -13.350 -21.843  0.00  0.00    +0.173 C 
BRANCH  13  17
ATOM     17  O3* UNL     1      33.064 -11.665 -23.549  0.00  0.00    -0.382 OA
ATOM     18  H3* UNL     1      33.673 -11.866 -24.277  0.00  0.00    +0.210 HD
ENDBRANCH  13  17
BRANCH  16  19
ATOM     19  C5* UNL     1      32.549 -14.216 -20.876  0.00  0.00    +0.169 C 
BRANCH  19  20
ATOM     20  O5* UNL     1      33.436 -15.116 -20.232  0.00  0.00    -0.379 OA
ATOM     21  H5* UNL     1      34.200 -14.627 -19.887  0.00  0.00    +0.211 HD
ENDBRANCH  19  20
ENDBRANCH  16  19
ENDBRANCH   3  15
TORSDOF 4
ENDMDL
MODEL 7
REMARK VINA RESULT:      -7.0      2.378      2.739
REMARK  Name = 65050
REMARK  4 active torsions:
REMARK  status: ('A' for Active; 'I' for Inactive)
REMARK    1  A    between atoms: N_3  and  C1*_15
REMARK    2  A    between atoms: C3*_13  and  O3*_17
REMARK    3  A    between atoms: C4*_16  and  C5*_19
REMARK    4  A    between atoms: C5*_19  and  O5*_20
REMARK                            x       y       z     vdW  Elec       q    Type
REMARK                         _______ _______ _______ _____ _____    ______ ____
ROOT
ATOM      1  I   UNL     1      36.070 -20.912 -19.969  0.00  0.00    -0.037 I 
ATOM      2  O   UNL     1      34.474 -24.187 -15.096  0.00  0.00    -0.193 OA
ATOM      3  N   UNL     1      36.062 -22.893 -16.156  0.00  0.00    -0.180 N 
ATOM      4  N   UNL     1      33.923 -23.381 -17.143  0.00  0.00    -0.306 NA
ATOM      5  N   UNL     1      33.318 -22.584 -19.222  0.00  0.00    -0.332 N 
ATOM      6  C   UNL     1      36.393 -22.154 -17.280  0.00  0.00    +0.089 C 
ATOM      7  C   UNL     1      34.797 -23.523 -16.083  0.00  0.00    +0.275 C 
ATOM      8  C   UNL     1      35.570 -22.000 -18.320  0.00  0.00    +0.090 C 
ATOM      9  C   UNL     1      34.240 -22.681 -18.204  0.00  0.00    +0.198 C 
ATOM     10  H   UNL     1      32.445 -23.032 -19.142  0.00  0.00    +0.145 HD
ATOM     11  H   UNL     1      33.531 -22.063 -20.031  0.00  0.00    +0.145 HD
ENDROOT
BRANCH   3  15
ATOM     12  O4* UNL     1      37.832 -24.159 -15.297  0.00  0.00    -0.334 OA
ATOM     13  C3* UNL     1      37.292 -24.094 -12.989  0.00  0.00    +0.144 C 
ATOM     14  C2* UNL     1      36.311 -23.213 -13.729  0.00  0.00    +0.084 C 
ATOM     15  C1* UNL     1      36.993 -23.017 -15.073  0.00  0.00    +0.209 C 
ATOM     16  C4* UNL     1      37.885 -24.954 -14.097  0.00  0.00    +0.173 C 
BRANCH  13  17
ATOM     17  O3* UNL     1      38.311 -23.289 -12.402  0.00  0.00    -0.382 OA
ATOM     18  H3* UNL     1      38.004 -22.951 -11.546  0.00  0.00    +0.210 HD
ENDBRANCH  13  17
BRANCH  16  19
ATOM     19  C5* UNL     1      37.092 -26.231 -14.344  0.00  0.00    +0.169 C 
BRANCH  19  20
ATOM     20  O5* UNL     1      36.800 -26.327 -15.729  0.00  0.00    -0.379 OA
ATOM     21  H5* UNL     1      35.840 -26.288 -15.860  0.00  0.00    +0.211 HD
ENDBRANCH  19  20
ENDBRANCH  16  19
ENDBRANCH   3  15
TORSDOF 4
ENDMDL
MODEL 8
REMARK VINA RESULT:      -6.9      9.542     11.632
REMARK  Name = 65050
REMARK  4 active torsions:
REMARK  status: ('A' for Active; 'I' for Inactive)
REMARK    1  A    between atoms: N_3  and  C1*_15
REMARK    2  A    between atoms: C3*_13  and  O3*_17
REMARK    3  A    between atoms: C4*_16  and  C5*_19
REMARK    4  A    between atoms: C5*_19  and  O5*_20
REMARK                            x       y       z     vdW  Elec       q    Type
REMARK                         _______ _______ _______ _____ _____    ______ ____
ROOT
ATOM      1  I   UNL     1      33.056 -14.427 -26.056  0.00  0.00    -0.037 I 
ATOM      2  O   UNL     1      34.855 -15.021 -20.275  0.00  0.00    -0.193 OA
ATOM      3  N   UNL     1      34.607 -15.974 -22.360  0.00  0.00    -0.180 N 
ATOM      4  N   UNL     1      33.960 -13.705 -21.891  0.00  0.00    -0.306 NA
ATOM      5  N   UNL     1      33.046 -12.329 -23.502  0.00  0.00    -0.332 N 
ATOM      6  C   UNL     1      34.188 -15.805 -23.670  0.00  0.00    +0.089 C 
ATOM      7  C   UNL     1      34.491 -14.900 -21.446  0.00  0.00    +0.275 C 
ATOM      8  C   UNL     1      33.670 -14.662 -24.128  0.00  0.00    +0.090 C 
ATOM      9  C   UNL     1      33.565 -13.549 -23.130  0.00  0.00    +0.198 C 
ATOM     10  H   UNL     1      32.979 -11.600 -22.843  0.00  0.00    +0.145 HD
ATOM     11  H   UNL     1      32.742 -12.185 -24.427  0.00  0.00    +0.145 HD
ENDROOT
BRANCH   3  15
ATOM     12  O4* UNL     1      35.781 -17.877 -23.049  0.00  0.00    -0.334 OA
ATOM     13  C3* UNL     1      34.641 -19.532 -21.790  0.00  0.00    +0.144 C 
ATOM     14  C2* UNL     1      34.099 -18.179 -21.391  0.00  0.00    +0.084 C 
ATOM     15  C1* UNL     1      35.155 -17.228 -21.933  0.00  0.00    +0.209 C 
ATOM     16  C4* UNL     1      35.339 -19.246 -23.114  0.00  0.00    +0.173 C 
BRANCH  13  17
ATOM     17  O3* UNL     1      35.594 -19.972 -20.825  0.00  0.00    -0.382 OA
ATOM     18  H3* UNL     1      35.130 -20.272 -20.027  0.00  0.00    +0.210 HD
ENDBRANCH  13  17
BRANCH  16  19
ATOM     19  C5* UNL     1      34.411 -19.384 -24.314  0.00  0.00    +0.169 C 
BRANCH  19  20
ATOM     20  O5* UNL     1      34.758 -18.400 -25.275  0.00  0.00    -0.379 OA
ATOM     21  H5* UNL     1      34.009 -18.255 -25.874  0.00  0.00    +0.211 HD
ENDBRANCH  19  20
ENDBRANCH  16  19
ENDBRANCH   3  15
TORSDOF 4
ENDMDL
MODEL 9
REMARK VINA RESULT:      -6.9      7.595     10.551
REMARK  Name = 65050
REMARK  4 active torsions:
REMARK  status: ('A' for Active; 'I' for Inactive)
REMARK    1  A    between atoms: N_3  and  C1*_15
REMARK    2  A    between atoms: C3*_13  and  O3*_17
REMARK    3  A    between atoms: C4*_16  and  C5*_19
REMARK    4  A    between atoms: C5*_19  and  O5*_20
REMARK                            x       y       z     vdW  Elec       q    Type
REMARK                         _______ _______ _______ _____ _____    ______ ____
ROOT
ATOM      1  I   UNL     1      33.014 -21.010 -19.838  0.00  0.00    -0.037 I 
ATOM      2  O   UNL     1      38.136 -18.556 -22.020  0.00  0.00    -0.193 OA
ATOM      3  N   UNL     1      35.849 -18.796 -22.189  0.00  0.00    -0.180 N 
ATOM      4  N   UNL     1      37.138 -19.874 -20.469  0.00  0.00    -0.306 NA
ATOM      5  N   UNL     1      36.167 -21.224 -18.868  0.00  0.00    -0.332 N 
ATOM      6  C   UNL     1      34.701 -19.371 -21.667  0.00  0.00    +0.089 C 
ATOM      7  C   UNL     1      37.098 -19.052 -21.578  0.00  0.00    +0.275 C 
ATOM      8  C   UNL     1      34.709 -20.169 -20.596  0.00  0.00    +0.090 C 
ATOM      9  C   UNL     1      36.051 -20.415 -19.977  0.00  0.00    +0.198 C 
ATOM     10  H   UNL     1      37.051 -21.383 -18.464  0.00  0.00    +0.145 HD
ATOM     11  H   UNL     1      35.366 -21.643 -18.478  0.00  0.00    +0.145 HD
ENDROOT
BRANCH   3  15
ATOM     12  O4* UNL     1      35.743 -16.576 -22.920  0.00  0.00    -0.334 OA
ATOM     13  C3* UNL     1      34.215 -16.816 -24.718  0.00  0.00    +0.144 C 
ATOM     14  C2* UNL     1      34.518 -18.191 -24.169  0.00  0.00    +0.084 C 
ATOM     15  C1* UNL     1      35.770 -17.947 -23.342  0.00  0.00    +0.209 C 
ATOM     16  C4* UNL     1      34.672 -15.891 -23.598  0.00  0.00    +0.173 C 
BRANCH  13  17
ATOM     17  O3* UNL     1      34.994 -16.583 -25.888  0.00  0.00    -0.382 OA
ATOM     18  H3* UNL     1      34.974 -17.373 -26.452  0.00  0.00    +0.210 HD
ENDBRANCH  13  17
BRANCH  16  19
ATOM     19  C5* UNL     1      33.576 -15.608 -22.579  0.00  0.00    +0.169 C 
BRANCH  19  20
ATOM     20  O5* UNL     1      34.129 -15.698 -21.275  0.00  0.00    -0.379 OA
ATOM     21  H5* UNL     1      34.892 -16.297 -21.289  0.00  0.00    +0.211 HD
ENDBRANCH  19  20
ENDBRANCH  16  19
ENDBRANCH   3  15
TORSDOF 4
ENDMDL
