MODEL 1
REMARK VINA RESULT:      -8.3      0.000      0.000
REMARK  Name = 3000477
REMARK  7 active torsions:
REMARK  status: ('A' for Active; 'I' for Inactive)
REMARK    1  A    between atoms: C_2  and  C_9
REMARK    2  A    between atoms: C_3  and  N_14
REMARK    3  A    between atoms: C_9  and  O_10
REMARK    4  A    between atoms: O_10  and  C_11
REMARK    5  A    between atoms: N_14  and  C_17
REMARK    6  A    between atoms: C_17  and  O_18
REMARK    7  A    between atoms: O_18  and  C_19
REMARK                            x       y       z     vdW  Elec       q    Type
REMARK                         _______ _______ _______ _____ _____    ______ ____
ROOT
ATOM      1 CL   UNL     1      34.960 -19.764 -24.329  0.00  0.00    -0.082 Cl
ATOM      2  C   UNL     1      35.225 -17.530 -22.784  0.00  0.00    +0.087 C 
ATOM      3  C   UNL     1      34.560 -15.334 -23.542  0.00  0.00    +0.051 C 
ATOM      4  C   UNL     1      35.097 -16.160 -22.555  0.00  0.00    +0.022 C 
ATOM      5  C   UNL     1      34.815 -18.074 -24.002  0.00  0.00    +0.064 C 
ATOM      6  C   UNL     1      34.151 -15.878 -24.760  0.00  0.00    +0.016 C 
ATOM      7  C   UNL     1      34.278 -17.248 -24.990  0.00  0.00    +0.013 C 
ENDROOT
BRANCH   2   9
ATOM      8  O   UNL     1      36.975 -18.714 -21.679  0.00  0.00    -0.245 OA
ATOM      9  C   UNL     1      35.793 -18.354 -21.724  0.00  0.00    +0.342 C 
BRANCH   9  10
ATOM     10  O   UNL     1      34.854 -18.677 -20.785  0.00  0.00    -0.449 OA
BRANCH  10  11
ATOM     11  C   UNL     1      34.288 -19.989 -20.865  0.00  0.00    +0.169 C 
ATOM     12  C   UNL     1      35.019 -20.910 -19.900  0.00  0.00    +0.047 C 
ATOM     13  C   UNL     1      32.800 -19.913 -20.559  0.00  0.00    +0.047 C 
ENDBRANCH  10  11
ENDBRANCH   9  10
ENDBRANCH   2   9
BRANCH   3  14
ATOM     14  N   UNL     1      34.431 -13.964 -23.313  0.00  0.00    -0.278 N 
ATOM     15  H   UNL     1      35.284 -13.473 -23.322  0.00  0.00    +0.156 HD
BRANCH  14  17
ATOM     16  S   UNL     1      32.299 -13.469 -21.778  0.00  0.00    +0.006 S 
ATOM     17  C   UNL     1      33.315 -13.161 -23.073  0.00  0.00    +0.233 C 
BRANCH  17  18
ATOM     18  O   UNL     1      33.115 -12.137 -23.944  0.00  0.00    -0.462 OA
BRANCH  18  19
ATOM     19  C   UNL     1      33.889 -10.920 -23.946  0.00  0.00    +0.168 C 
ATOM     20  C   UNL     1      34.659 -10.819 -25.254  0.00  0.00    +0.047 C 
ATOM     21  C   UNL     1      32.959  -9.734 -23.743  0.00  0.00    +0.047 C 
ENDBRANCH  18  19
ENDBRANCH  17  18
ENDBRANCH  14  17
ENDBRANCH   3  14
TORSDOF 7
ENDMDL
MODEL 2
REMARK VINA RESULT:      -8.2      1.473      2.327
REMARK  Name = 3000477
REMARK  7 active torsions:
REMARK  status: ('A' for Active; 'I' for Inactive)
REMARK    1  A    between atoms: C_2  and  C_9
REMARK    2  A    between atoms: C_3  and  N_14
REMARK    3  A    between atoms: C_9  and  O_10
REMARK    4  A    between atoms: O_10  and  C_11
REMARK    5  A    between atoms: N_14  and  C_17
REMARK    6  A    between atoms: C_17  and  O_18
REMARK    7  A    between atoms: O_18  and  C_19
REMARK                            x       y       z     vdW  Elec       q    Type
REMARK                         _______ _______ _______ _____ _____    ______ ____
ROOT
ATOM      1 CL   UNL     1      34.924 -19.823 -24.319  0.00  0.00    -0.082 Cl
ATOM      2  C   UNL     1      35.238 -17.543 -22.852  0.00  0.00    +0.087 C 
ATOM      3  C   UNL     1      34.620 -15.361 -23.686  0.00  0.00    +0.051 C 
ATOM      4  C   UNL     1      35.139 -16.164 -22.670  0.00  0.00    +0.022 C 
ATOM      5  C   UNL     1      34.815 -18.120 -24.051  0.00  0.00    +0.064 C 
ATOM      6  C   UNL     1      34.198 -15.938 -24.885  0.00  0.00    +0.016 C 
ATOM      7  C   UNL     1      34.296 -17.317 -25.066  0.00  0.00    +0.013 C 
ENDROOT
BRANCH   2   9
ATOM      8  O   UNL     1      36.971 -18.689 -21.683  0.00  0.00    -0.245 OA
ATOM      9  C   UNL     1      35.788 -18.342 -21.764  0.00  0.00    +0.342 C 
BRANCH   9  10
ATOM     10  O   UNL     1      34.829 -18.658 -20.842  0.00  0.00    -0.449 OA
BRANCH  10  11
ATOM     11  C   UNL     1      34.293 -19.984 -20.899  0.00  0.00    +0.169 C 
ATOM     12  C   UNL     1      35.067 -20.879 -19.942  0.00  0.00    +0.047 C 
ATOM     13  C   UNL     1      32.811 -19.941 -20.560  0.00  0.00    +0.047 C 
ENDBRANCH  10  11
ENDBRANCH   9  10
ENDBRANCH   2   9
BRANCH   3  14
ATOM     14  N   UNL     1      34.520 -13.982 -23.504  0.00  0.00    -0.278 N 
ATOM     15  H   UNL     1      35.374 -13.502 -23.599  0.00  0.00    +0.156 HD
BRANCH  14  17
ATOM     16  S   UNL     1      33.290 -11.646 -23.924  0.00  0.00    +0.006 S 
ATOM     17  C   UNL     1      33.433 -13.156 -23.213  0.00  0.00    +0.233 C 
BRANCH  17  18
ATOM     18  O   UNL     1      32.523 -13.649 -22.333  0.00  0.00    -0.462 OA
BRANCH  18  19
ATOM     19  C   UNL     1      32.715 -13.667 -20.903  0.00  0.00    +0.168 C 
ATOM     20  C   UNL     1      31.857 -12.582 -20.270  0.00  0.00    +0.047 C 
ATOM     21  C   UNL     1      32.369 -15.048 -20.368  0.00  0.00    +0.047 C 
ENDBRANCH  18  19
ENDBRANCH  17  18
ENDBRANCH  14  17
ENDBRANCH   3  14
TORSDOF 7
ENDMDL
MODEL 3
REMARK VINA RESULT:      -8.2      2.752      7.547
REMARK  Name = 3000477
REMARK  7 active torsions:
REMARK  status: ('A' for Active; 'I' for Inactive)
REMARK    1  A    between atoms: C_2  and  C_9
REMARK    2  A    between atoms: C_3  and  N_14
REMARK    3  A    between atoms: C_9  and  O_10
REMARK    4  A    between atoms: O_10  and  C_11
REMARK    5  A    between atoms: N_14  and  C_17
REMARK    6  A    between atoms: C_17  and  O_18
REMARK    7  A    between atoms: O_18  and  C_19
REMARK                            x       y       z     vdW  Elec       q    Type
REMARK                         _______ _______ _______ _____ _____    ______ ____
ROOT
ATOM      1 CL   UNL     1      31.927 -12.634 -21.588  0.00  0.00    -0.082 Cl
ATOM      2  C   UNL     1      33.607 -14.240 -23.018  0.00  0.00    +0.087 C 
ATOM      3  C   UNL     1      34.485 -16.314 -22.143  0.00  0.00    +0.051 C 
ATOM      4  C   UNL     1      34.394 -15.380 -23.176  0.00  0.00    +0.022 C 
ATOM      5  C   UNL     1      32.909 -14.034 -21.827  0.00  0.00    +0.064 C 
ATOM      6  C   UNL     1      33.789 -16.107 -20.952  0.00  0.00    +0.016 C 
ATOM      7  C   UNL     1      33.000 -14.968 -20.795  0.00  0.00    +0.013 C 
ENDROOT
BRANCH   2   9
ATOM      8  O   UNL     1      33.001 -13.523 -25.210  0.00  0.00    -0.245 OA
ATOM      9  C   UNL     1      33.542 -13.291 -24.123  0.00  0.00    +0.342 C 
BRANCH   9  10
ATOM     10  O   UNL     1      34.153 -12.111 -23.803  0.00  0.00    -0.449 OA
BRANCH  10  11
ATOM     11  C   UNL     1      33.816 -10.974 -24.604  0.00  0.00    +0.169 C 
ATOM     12  C   UNL     1      33.172  -9.913 -23.724  0.00  0.00    +0.047 C 
ATOM     13  C   UNL     1      35.070 -10.455 -25.292  0.00  0.00    +0.047 C 
ENDBRANCH  10  11
ENDBRANCH   9  10
ENDBRANCH   2   9
BRANCH   3  14
ATOM     14  N   UNL     1      35.272 -17.455 -22.301  0.00  0.00    -0.278 N 
ATOM     15  H   UNL     1      36.188 -17.363 -21.952  0.00  0.00    +0.156 HD
BRANCH  14  17
ATOM     16  S   UNL     1      34.612 -18.849 -24.485  0.00  0.00    +0.006 S 
ATOM     17  C   UNL     1      35.001 -18.704 -22.862  0.00  0.00    +0.233 C 
BRANCH  17  18
ATOM     18  O   UNL     1      35.070 -19.768 -22.019  0.00  0.00    -0.462 OA
BRANCH  18  19
ATOM     19  C   UNL     1      34.498 -19.782 -20.695  0.00  0.00    +0.168 C 
ATOM     20  C   UNL     1      32.986 -19.902 -20.804  0.00  0.00    +0.047 C 
ATOM     21  C   UNL     1      35.102 -20.931 -19.901  0.00  0.00    +0.047 C 
ENDBRANCH  18  19
ENDBRANCH  17  18
ENDBRANCH  14  17
ENDBRANCH   3  14
TORSDOF 7
ENDMDL
MODEL 4
REMARK VINA RESULT:      -8.1      2.973      7.284
REMARK  Name = 3000477
REMARK  7 active torsions:
REMARK  status: ('A' for Active; 'I' for Inactive)
REMARK    1  A    between atoms: C_2  and  C_9
REMARK    2  A    between atoms: C_3  and  N_14
REMARK    3  A    between atoms: C_9  and  O_10
REMARK    4  A    between atoms: O_10  and  C_11
REMARK    5  A    between atoms: N_14  and  C_17
REMARK    6  A    between atoms: C_17  and  O_18
REMARK    7  A    between atoms: O_18  and  C_19
REMARK                            x       y       z     vdW  Elec       q    Type
REMARK                         _______ _______ _______ _____ _____    ______ ____
ROOT
ATOM      1 CL   UNL     1      31.581 -12.275 -21.623  0.00  0.00    -0.082 Cl
ATOM      2  C   UNL     1      33.485 -13.856 -22.774  0.00  0.00    +0.087 C 
ATOM      3  C   UNL     1      34.416 -15.792 -21.667  0.00  0.00    +0.051 C 
ATOM      4  C   UNL     1      34.357 -14.945 -22.773  0.00  0.00    +0.022 C 
ATOM      5  C   UNL     1      32.671 -13.615 -21.666  0.00  0.00    +0.064 C 
ATOM      6  C   UNL     1      33.602 -15.550 -20.559  0.00  0.00    +0.016 C 
ATOM      7  C   UNL     1      32.730 -14.462 -20.560  0.00  0.00    +0.013 C 
ENDROOT
BRANCH   2   9
ATOM      8  O   UNL     1      34.049 -11.914 -24.038  0.00  0.00    -0.245 OA
ATOM      9  C   UNL     1      33.459 -12.997 -23.951  0.00  0.00    +0.342 C 
BRANCH   9  10
ATOM     10  O   UNL     1      32.700 -13.542 -24.949  0.00  0.00    -0.449 OA
BRANCH  10  11
ATOM     11  C   UNL     1      33.404 -14.074 -26.076  0.00  0.00    +0.169 C 
ATOM     12  C   UNL     1      32.954 -15.506 -26.318  0.00  0.00    +0.047 C 
ATOM     13  C   UNL     1      33.153 -13.188 -27.287  0.00  0.00    +0.047 C 
ENDBRANCH  10  11
ENDBRANCH   9  10
ENDBRANCH   2   9
BRANCH   3  14
ATOM     14  N   UNL     1      35.287 -16.881 -21.667  0.00  0.00    -0.278 N 
ATOM     15  H   UNL     1      36.233 -16.639 -21.546  0.00  0.00    +0.156 HD
BRANCH  14  17
ATOM     16  S   UNL     1      34.865 -18.940 -23.320  0.00  0.00    +0.006 S 
ATOM     17  C   UNL     1      35.064 -18.252 -21.805  0.00  0.00    +0.233 C 
BRANCH  17  18
ATOM     18  O   UNL     1      35.019 -18.972 -20.653  0.00  0.00    -0.462 OA
BRANCH  18  19
ATOM     19  C   UNL     1      34.650 -20.365 -20.591  0.00  0.00    +0.168 C 
ATOM     20  C   UNL     1      35.620 -21.099 -19.677  0.00  0.00    +0.047 C 
ATOM     21  C   UNL     1      33.214 -20.481 -20.103  0.00  0.00    +0.047 C 
ENDBRANCH  18  19
ENDBRANCH  17  18
ENDBRANCH  14  17
ENDBRANCH   3  14
TORSDOF 7
ENDMDL
MODEL 5
REMARK VINA RESULT:      -8.1      4.769      8.941
REMARK  Name = 3000477
REMARK  7 active torsions:
REMARK  status: ('A' for Active; 'I' for Inactive)
REMARK    1  A    between atoms: C_2  and  C_9
REMARK    2  A    between atoms: C_3  and  N_14
REMARK    3  A    between atoms: C_9  and  O_10
REMARK    4  A    between atoms: O_10  and  C_11
REMARK    5  A    between atoms: N_14  and  C_17
REMARK    6  A    between atoms: C_17  and  O_18
REMARK    7  A    between atoms: O_18  and  C_19
REMARK                            x       y       z     vdW  Elec       q    Type
REMARK                         _______ _______ _______ _____ _____    ______ ____
ROOT
ATOM      1 CL   UNL     1      37.287 -19.389 -20.993  0.00  0.00    -0.082 Cl
ATOM      2  C   UNL     1      34.642 -20.025 -20.776  0.00  0.00    +0.087 C 
ATOM      3  C   UNL     1      33.829 -21.713 -19.250  0.00  0.00    +0.051 C 
ATOM      4  C   UNL     1      33.584 -20.751 -20.230  0.00  0.00    +0.022 C 
ATOM      5  C   UNL     1      35.947 -20.262 -20.341  0.00  0.00    +0.064 C 
ATOM      6  C   UNL     1      35.133 -21.950 -18.816  0.00  0.00    +0.016 C 
ATOM      7  C   UNL     1      36.192 -21.224 -19.361  0.00  0.00    +0.013 C 
ENDROOT
BRANCH   2   9
ATOM      8  O   UNL     1      34.410 -19.239 -23.015  0.00  0.00    -0.245 OA
ATOM      9  C   UNL     1      34.339 -19.031 -21.798  0.00  0.00    +0.342 C 
BRANCH   9  10
ATOM     10  O   UNL     1      33.965 -17.841 -21.241  0.00  0.00    -0.449 OA
BRANCH  10  11
ATOM     11  C   UNL     1      34.903 -16.764 -21.331  0.00  0.00    +0.169 C 
ATOM     12  C   UNL     1      34.924 -16.235 -22.757  0.00  0.00    +0.047 C 
ATOM     13  C   UNL     1      34.523 -15.682 -20.331  0.00  0.00    +0.047 C 
ENDBRANCH  10  11
ENDBRANCH   9  10
ENDBRANCH   2   9
BRANCH   3  14
ATOM     14  N   UNL     1      32.770 -22.439 -18.704  0.00  0.00    -0.278 N 
ATOM     15  H   UNL     1      32.137 -22.790 -19.371  0.00  0.00    +0.156 HD
BRANCH  14  17
ATOM     16  S   UNL     1      33.579 -23.447 -16.363  0.00  0.00    +0.006 S 
ATOM     17  C   UNL     1      32.443 -22.760 -17.386  0.00  0.00    +0.233 C 
BRANCH  17  18
ATOM     18  O   UNL     1      31.169 -22.486 -17.000  0.00  0.00    -0.462 OA
BRANCH  18  19
ATOM     19  C   UNL     1      30.377 -23.357 -16.167  0.00  0.00    +0.168 C 
ATOM     20  C   UNL     1      30.393 -22.835 -14.738  0.00  0.00    +0.047 C 
ATOM     21  C   UNL     1      28.964 -23.436 -16.726  0.00  0.00    +0.047 C 
ENDBRANCH  18  19
ENDBRANCH  17  18
ENDBRANCH  14  17
ENDBRANCH   3  14
TORSDOF 7
ENDMDL
MODEL 6
REMARK VINA RESULT:      -8.0      2.227      2.906
REMARK  Name = 3000477
REMARK  7 active torsions:
REMARK  status: ('A' for Active; 'I' for Inactive)
REMARK    1  A    between atoms: C_2  and  C_9
REMARK    2  A    between atoms: C_3  and  N_14
REMARK    3  A    between atoms: C_9  and  O_10
REMARK    4  A    between atoms: O_10  and  C_11
REMARK    5  A    between atoms: N_14  and  C_17
REMARK    6  A    between atoms: C_17  and  O_18
REMARK    7  A    between atoms: O_18  and  C_19
REMARK                            x       y       z     vdW  Elec       q    Type
REMARK                         _______ _______ _______ _____ _____    ______ ____
ROOT
ATOM      1 CL   UNL     1      35.167 -16.327 -24.036  0.00  0.00    -0.082 Cl
ATOM      2  C   UNL     1      33.702 -15.437 -21.913  0.00  0.00    +0.087 C 
ATOM      3  C   UNL     1      32.297 -13.474 -22.030  0.00  0.00    +0.051 C 
ATOM      4  C   UNL     1      32.816 -14.548 -21.306  0.00  0.00    +0.022 C 
ATOM      5  C   UNL     1      34.070 -15.253 -23.247  0.00  0.00    +0.064 C 
ATOM      6  C   UNL     1      32.665 -13.290 -23.363  0.00  0.00    +0.016 C 
ATOM      7  C   UNL     1      33.551 -14.179 -23.972  0.00  0.00    +0.013 C 
ENDROOT
BRANCH   2   9
ATOM      8  O   UNL     1      35.184 -16.458 -20.349  0.00  0.00    -0.245 OA
ATOM      9  C   UNL     1      34.219 -16.543 -21.117  0.00  0.00    +0.342 C 
BRANCH   9  10
ATOM     10  O   UNL     1      33.501 -17.687 -21.326  0.00  0.00    -0.449 OA
BRANCH  10  11
ATOM     11  C   UNL     1      34.182 -18.925 -21.099  0.00  0.00    +0.169 C 
ATOM     12  C   UNL     1      33.200 -19.942 -20.535  0.00  0.00    +0.047 C 
ATOM     13  C   UNL     1      34.804 -19.401 -22.404  0.00  0.00    +0.047 C 
ENDBRANCH  10  11
ENDBRANCH   9  10
ENDBRANCH   2   9
BRANCH   3  14
ATOM     14  N   UNL     1      31.410 -12.586 -21.423  0.00  0.00    -0.278 N 
ATOM     15  H   UNL     1      30.622 -13.017 -21.021  0.00  0.00    +0.156 HD
BRANCH  14  17
ATOM     16  S   UNL     1      31.554 -10.495 -19.763  0.00  0.00    +0.006 S 
ATOM     17  C   UNL     1      31.434 -11.198 -21.279  0.00  0.00    +0.233 C 
BRANCH  17  18
ATOM     18  O   UNL     1      31.351 -10.474 -22.426  0.00  0.00    -0.462 OA
BRANCH  18  19
ATOM     19  C   UNL     1      32.133  -9.290 -22.687  0.00  0.00    +0.168 C 
ATOM     20  C   UNL     1      33.314  -9.656 -23.574  0.00  0.00    +0.047 C 
ATOM     21  C   UNL     1      31.246  -8.235 -23.331  0.00  0.00    +0.047 C 
ENDBRANCH  18  19
ENDBRANCH  17  18
ENDBRANCH  14  17
ENDBRANCH   3  14
TORSDOF 7
ENDMDL
MODEL 7
REMARK VINA RESULT:      -8.0      3.576      5.482
REMARK  Name = 3000477
REMARK  7 active torsions:
REMARK  status: ('A' for Active; 'I' for Inactive)
REMARK    1  A    between atoms: C_2  and  C_9
REMARK    2  A    between atoms: C_3  and  N_14
REMARK    3  A    between atoms: C_9  and  O_10
REMARK    4  A    between atoms: O_10  and  C_11
REMARK    5  A    between atoms: N_14  and  C_17
REMARK    6  A    between atoms: C_17  and  O_18
REMARK    7  A    between atoms: O_18  and  C_19
REMARK                            x       y       z     vdW  Elec       q    Type
REMARK                         _______ _______ _______ _____ _____    ______ ____
ROOT
ATOM      1 CL   UNL     1      36.844 -22.096 -18.060  0.00  0.00    -0.082 Cl
ATOM      2  C   UNL     1      34.741 -21.472 -19.683  0.00  0.00    +0.087 C 
ATOM      3  C   UNL     1      34.782 -19.598 -21.208  0.00  0.00    +0.051 C 
ATOM      4  C   UNL     1      34.115 -20.691 -20.655  0.00  0.00    +0.022 C 
ATOM      5  C   UNL     1      36.035 -21.159 -19.264  0.00  0.00    +0.064 C 
ATOM      6  C   UNL     1      36.075 -19.284 -20.788  0.00  0.00    +0.016 C 
ATOM      7  C   UNL     1      36.701 -20.065 -19.817  0.00  0.00    +0.013 C 
ENDROOT
BRANCH   2   9
ATOM      8  O   UNL     1      34.019 -23.743 -19.613  0.00  0.00    -0.245 OA
ATOM      9  C   UNL     1      34.006 -22.604 -19.133  0.00  0.00    +0.342 C 
BRANCH   9  10
ATOM     10  O   UNL     1      33.302 -22.247 -18.017  0.00  0.00    -0.449 OA
BRANCH  10  11
ATOM     11  C   UNL     1      33.007 -23.290 -17.081  0.00  0.00    +0.169 C 
ATOM     12  C   UNL     1      34.078 -23.313 -16.002  0.00  0.00    +0.047 C 
ATOM     13  C   UNL     1      31.620 -23.062 -16.499  0.00  0.00    +0.047 C 
ENDBRANCH  10  11
ENDBRANCH   9  10
ENDBRANCH   2   9
BRANCH   3  14
ATOM     14  N   UNL     1      34.157 -18.818 -22.180  0.00  0.00    -0.278 N 
ATOM     15  H   UNL     1      33.185 -18.958 -22.244  0.00  0.00    +0.156 HD
BRANCH  14  17
ATOM     16  S   UNL     1      34.698 -18.194 -24.723  0.00  0.00    +0.006 S 
ATOM     17  C   UNL     1      34.655 -17.873 -23.079  0.00  0.00    +0.233 C 
BRANCH  17  18
ATOM     18  O   UNL     1      35.094 -16.705 -22.541  0.00  0.00    -0.462 OA
BRANCH  18  19
ATOM     19  C   UNL     1      34.221 -15.690 -22.003  0.00  0.00    +0.168 C 
ATOM     20  C   UNL     1      34.551 -15.476 -20.533  0.00  0.00    +0.047 C 
ATOM     21  C   UNL     1      34.380 -14.412 -22.812  0.00  0.00    +0.047 C 
ENDBRANCH  18  19
ENDBRANCH  17  18
ENDBRANCH  14  17
ENDBRANCH   3  14
TORSDOF 7
ENDMDL
MODEL 8
REMARK VINA RESULT:      -7.9      4.868      8.987
REMARK  Name = 3000477
REMARK  7 active torsions:
REMARK  status: ('A' for Active; 'I' for Inactive)
REMARK    1  A    between atoms: C_2  and  C_9
REMARK    2  A    between atoms: C_3  and  N_14
REMARK    3  A    between atoms: C_9  and  O_10
REMARK    4  A    between atoms: O_10  and  C_11
REMARK    5  A    between atoms: N_14  and  C_17
REMARK    6  A    between atoms: C_17  and  O_18
REMARK    7  A    between atoms: O_18  and  C_19
REMARK                            x       y       z     vdW  Elec       q    Type
REMARK                         _______ _______ _______ _____ _____    ______ ____
ROOT
ATOM      1 CL   UNL     1      37.111 -19.031 -21.319  0.00  0.00    -0.082 Cl
ATOM      2  C   UNL     1      34.551 -19.810 -20.787  0.00  0.00    +0.087 C 
ATOM      3  C   UNL     1      34.029 -21.668 -19.332  0.00  0.00    +0.051 C 
ATOM      4  C   UNL     1      33.609 -20.633 -20.168  0.00  0.00    +0.022 C 
ATOM      5  C   UNL     1      35.913 -20.023 -20.569  0.00  0.00    +0.064 C 
ATOM      6  C   UNL     1      35.391 -21.881 -19.115  0.00  0.00    +0.016 C 
ATOM      7  C   UNL     1      36.332 -21.058 -19.733  0.00  0.00    +0.013 C 
ENDROOT
BRANCH   2   9
ATOM      8  O   UNL     1      34.272 -18.685 -22.870  0.00  0.00    -0.245 OA
ATOM      9  C   UNL     1      34.066 -18.742 -21.652  0.00  0.00    +0.342 C 
BRANCH   9  10
ATOM     10  O   UNL     1      33.354 -17.813 -20.947  0.00  0.00    -0.449 OA
BRANCH  10  11
ATOM     11  C   UNL     1      33.572 -16.440 -21.288  0.00  0.00    +0.169 C 
ATOM     12  C   UNL     1      32.362 -15.620 -20.867  0.00  0.00    +0.047 C 
ATOM     13  C   UNL     1      34.848 -15.954 -20.617  0.00  0.00    +0.047 C 
ENDBRANCH  10  11
ENDBRANCH   9  10
ENDBRANCH   2   9
BRANCH   3  14
ATOM     14  N   UNL     1      33.088 -22.490 -18.712  0.00  0.00    -0.278 N 
ATOM     15  H   UNL     1      32.311 -22.707 -19.276  0.00  0.00    +0.156 HD
BRANCH  14  17
ATOM     16  S   UNL     1      31.615 -23.103 -16.567  0.00  0.00    +0.006 S 
ATOM     17  C   UNL     1      33.044 -23.062 -17.440  0.00  0.00    +0.233 C 
BRANCH  17  18
ATOM     18  O   UNL     1      34.214 -23.570 -16.970  0.00  0.00    -0.462 OA
BRANCH  18  19
ATOM     19  C   UNL     1      34.716 -23.332 -15.639  0.00  0.00    +0.168 C 
ATOM     20  C   UNL     1      34.831 -24.659 -14.903  0.00  0.00    +0.047 C 
ATOM     21  C   UNL     1      36.055 -22.615 -15.729  0.00  0.00    +0.047 C 
ENDBRANCH  18  19
ENDBRANCH  17  18
ENDBRANCH  14  17
ENDBRANCH   3  14
TORSDOF 7
ENDMDL
MODEL 9
REMARK VINA RESULT:      -7.9      4.866      8.976
REMARK  Name = 3000477
REMARK  7 active torsions:
REMARK  status: ('A' for Active; 'I' for Inactive)
REMARK    1  A    between atoms: C_2  and  C_9
REMARK    2  A    between atoms: C_3  and  N_14
REMARK    3  A    between atoms: C_9  and  O_10
REMARK    4  A    between atoms: O_10  and  C_11
REMARK    5  A    between atoms: N_14  and  C_17
REMARK    6  A    between atoms: C_17  and  O_18
REMARK    7  A    between atoms: O_18  and  C_19
REMARK                            x       y       z     vdW  Elec       q    Type
REMARK                         _______ _______ _______ _____ _____    ______ ____
ROOT
ATOM      1 CL   UNL     1      37.263 -19.092 -21.234  0.00  0.00    -0.082 Cl
ATOM      2  C   UNL     1      34.674 -19.781 -20.720  0.00  0.00    +0.087 C 
ATOM      3  C   UNL     1      34.077 -21.682 -19.353  0.00  0.00    +0.051 C 
ATOM      4  C   UNL     1      33.700 -20.590 -20.135  0.00  0.00    +0.022 C 
ATOM      5  C   UNL     1      36.026 -20.064 -20.523  0.00  0.00    +0.064 C 
ATOM      6  C   UNL     1      35.429 -21.965 -19.156  0.00  0.00    +0.016 C 
ATOM      7  C   UNL     1      36.403 -21.156 -19.741  0.00  0.00    +0.013 C 
ENDROOT
BRANCH   2   9
ATOM      8  O   UNL     1      34.126 -17.494 -21.112  0.00  0.00    -0.245 OA
ATOM      9  C   UNL     1      34.233 -18.652 -21.530  0.00  0.00    +0.342 C 
BRANCH   9  10
ATOM     10  O   UNL     1      33.955 -19.036 -22.812  0.00  0.00    -0.449 OA
BRANCH  10  11
ATOM     11  C   UNL     1      34.974 -18.803 -23.790  0.00  0.00    +0.169 C 
ATOM     12  C   UNL     1      34.918 -19.897 -24.845  0.00  0.00    +0.047 C 
ATOM     13  C   UNL     1      34.779 -17.421 -24.396  0.00  0.00    +0.047 C 
ENDBRANCH  10  11
ENDBRANCH   9  10
ENDBRANCH   2   9
BRANCH   3  14
ATOM     14  N   UNL     1      33.104 -22.490 -18.766  0.00  0.00    -0.278 N 
ATOM     15  H   UNL     1      32.350 -22.708 -19.361  0.00  0.00    +0.156 HD
BRANCH  14  17
ATOM     16  S   UNL     1      31.550 -23.008 -16.652  0.00  0.00    +0.006 S 
ATOM     17  C   UNL     1      33.000 -23.048 -17.491  0.00  0.00    +0.233 C 
BRANCH  17  18
ATOM     18  O   UNL     1      34.131 -23.611 -16.988  0.00  0.00    -0.462 OA
BRANCH  18  19
ATOM     19  C   UNL     1      34.681 -23.290 -15.694  0.00  0.00    +0.168 C 
ATOM     20  C   UNL     1      34.489 -24.476 -14.761  0.00  0.00    +0.047 C 
ATOM     21  C   UNL     1      36.149 -22.923 -15.851  0.00  0.00    +0.047 C 
ENDBRANCH  18  19
ENDBRANCH  17  18
ENDBRANCH  14  17
ENDBRANCH   3  14
TORSDOF 7
ENDMDL
