MODEL 1
REMARK VINA RESULT:     -12.1      0.000      0.000
REMARK  Name = 15984937
REMARK  6 active torsions:
REMARK  status: ('A' for Active; 'I' for Inactive)
REMARK    1  A    between atoms: C_1  and  C_9
REMARK    2  A    between atoms: C_1  and  C_20
REMARK    3  A    between atoms: C_4  and  N_10
REMARK    4  A    between atoms: N_10  and  C_13
REMARK    5  A    between atoms: C_19  and  C_25
REMARK    6  A    between atoms: C_25  and  N_26
REMARK                            x       y       z     vdW  Elec       q    Type
REMARK                         _______ _______ _______ _____ _____    ______ ____
ROOT
ATOM      1  C   UNL     1      36.237 -18.638 -21.255  0.00  0.00    +0.112 C 
ENDROOT
BRANCH   1   9
ATOM      2  O   UNL     1      35.602 -18.845 -23.528  0.00  0.00    -0.275 OA
ATOM      3  N   UNL     1      34.678 -17.066 -22.352  0.00  0.00    -0.279 N 
ATOM      4  C   UNL     1      34.095 -14.225 -22.570  0.00  0.00    +0.072 C 
ATOM      5  C   UNL     1      34.857 -14.810 -21.376  0.00  0.00    +0.041 C 
ATOM      6  C   UNL     1      34.205 -15.129 -23.803  0.00  0.00    +0.041 C 
ATOM      7  C   UNL     1      34.514 -16.279 -21.125  0.00  0.00    +0.095 C 
ATOM      8  C   UNL     1      33.892 -16.593 -23.492  0.00  0.00    +0.095 C 
ATOM      9  C   UNL     1      35.480 -18.200 -22.483  0.00  0.00    +0.230 C 
BRANCH   4  10
ATOM     10  N   UNL     1      32.704 -14.020 -22.216  0.00  0.00    -0.334 N 
ATOM     11  H   UNL     1      32.071 -14.759 -22.371  0.00  0.00    +0.147 HD
BRANCH  10  13
ATOM     12  F   UNL     1      31.102  -9.531 -22.760  0.00  0.00    -0.204 F 
ATOM     13  C   UNL     1      32.218 -12.843 -21.677  0.00  0.00    +0.047 C 
ATOM     14  C   UNL     1      31.894 -11.747 -22.502  0.00  0.00    +0.044 C 
ATOM     15  C   UNL     1      32.032 -12.704 -20.288  0.00  0.00    +0.014 C 
ATOM     16  C   UNL     1      31.405 -10.560 -21.958  0.00  0.00    +0.141 C 
ATOM     17  C   UNL     1      31.543 -11.517 -19.743  0.00  0.00    +0.004 C 
ATOM     18  C   UNL     1      31.230 -10.445 -20.580  0.00  0.00    +0.030 C 
ENDBRANCH  10  13
ENDBRANCH   4  10
ENDBRANCH   1   9
BRANCH   1  20
ATOM     19  C   UNL     1      34.258 -21.926 -19.358  0.00  0.00    -0.043 C 
ATOM     20  C   UNL     1      35.545 -19.788 -20.592  0.00  0.00    -0.013 C 
ATOM     21  C   UNL     1      35.649 -21.838 -19.327  0.00  0.00    -0.007 C 
ATOM     22  C   UNL     1      33.511 -20.943 -20.007  0.00  0.00    -0.007 C 
ATOM     23  C   UNL     1      36.295 -20.767 -19.945  0.00  0.00    -0.004 C 
ATOM     24  C   UNL     1      34.156 -19.872 -20.626  0.00  0.00    -0.004 C 
BRANCH  19  25
ATOM     25  C   UNL     1      33.568 -23.071 -18.698  0.00  0.00    -0.050 C 
BRANCH  25  26
ATOM     26  N   UNL     1      33.308 -22.823 -17.281  0.00  0.00    +0.387 N 
ATOM     27  N   UNL     1      32.648 -23.659 -14.596  0.00  0.00    +0.382 N 
ATOM     28  C   UNL     1      34.014 -23.260 -14.949  0.00  0.00    -0.083 C 
ATOM     29  C   UNL     1      34.287 -23.525 -16.440  0.00  0.00    -0.099 C 
ATOM     30  C   UNL     1      31.943 -23.227 -16.923  0.00  0.00    -0.101 C 
ATOM     31  C   UNL     1      31.671 -22.972 -15.440  0.00  0.00    -0.105 C 
ATOM     32  C   UNL     1      35.001 -24.034 -14.076  0.00  0.00    -0.026 C 
ATOM     33  H   UNL     1      33.400 -21.821 -17.114  0.00  0.00    -0.079 HD
ATOM     34  H   UNL     1      32.471 -23.421 -13.620  0.00  0.00    -0.085 HD
ATOM     35  H   UNL     1      32.553 -24.664 -14.739  0.00  0.00    -0.085 HD
ENDBRANCH  25  26
ENDBRANCH  19  25
ENDBRANCH   1  20
TORSDOF 6
ENDMDL
MODEL 2
REMARK VINA RESULT:     -11.7      4.546     12.451
REMARK  Name = 15984937
REMARK  6 active torsions:
REMARK  status: ('A' for Active; 'I' for Inactive)
REMARK    1  A    between atoms: C_1  and  C_9
REMARK    2  A    between atoms: C_1  and  C_20
REMARK    3  A    between atoms: C_4  and  N_10
REMARK    4  A    between atoms: N_10  and  C_13
REMARK    5  A    between atoms: C_19  and  C_25
REMARK    6  A    between atoms: C_25  and  N_26
REMARK                            x       y       z     vdW  Elec       q    Type
REMARK                         _______ _______ _______ _____ _____    ______ ____
ROOT
ATOM      1  C   UNL     1      32.981 -13.009 -23.860  0.00  0.00    +0.112 C 
ENDROOT
BRANCH   1   9
ATOM      2  O   UNL     1      32.436 -13.137 -21.558  0.00  0.00    -0.275 OA
ATOM      3  N   UNL     1      33.315 -15.059 -22.522  0.00  0.00    -0.279 N 
ATOM      4  C   UNL     1      35.250 -17.181 -22.060  0.00  0.00    +0.072 C 
ATOM      5  C   UNL     1      35.234 -16.361 -23.355  0.00  0.00    +0.041 C 
ATOM      6  C   UNL     1      34.589 -16.419 -20.907  0.00  0.00    +0.041 C 
ATOM      7  C   UNL     1      33.850 -15.794 -23.673  0.00  0.00    +0.095 C 
ATOM      8  C   UNL     1      33.227 -15.838 -21.286  0.00  0.00    +0.095 C 
ATOM      9  C   UNL     1      32.882 -13.733 -22.541  0.00  0.00    +0.230 C 
BRANCH   4  10
ATOM     10  N   UNL     1      34.587 -18.452 -22.272  0.00  0.00    -0.334 N 
ATOM     11  H   UNL     1      34.155 -18.614 -23.143  0.00  0.00    +0.147 HD
BRANCH  10  13
ATOM     12  F   UNL     1      36.763 -21.620 -19.401  0.00  0.00    -0.204 F 
ATOM     13  C   UNL     1      34.524 -19.451 -21.317  0.00  0.00    +0.047 C 
ATOM     14  C   UNL     1      35.698 -20.054 -20.822  0.00  0.00    +0.044 C 
ATOM     15  C   UNL     1      33.287 -19.896 -20.812  0.00  0.00    +0.014 C 
ATOM     16  C   UNL     1      35.635 -21.062 -19.860  0.00  0.00    +0.141 C 
ATOM     17  C   UNL     1      33.224 -20.904 -19.850  0.00  0.00    +0.004 C 
ATOM     18  C   UNL     1      34.399 -21.486 -19.374  0.00  0.00    +0.030 C 
ENDBRANCH  10  13
ENDBRANCH   4  10
ENDBRANCH   1   9
BRANCH   1  20
ATOM     19  C   UNL     1      33.422  -8.797 -23.234  0.00  0.00    -0.043 C 
ATOM     20  C   UNL     1      33.135 -11.537 -23.642  0.00  0.00    -0.013 C 
ATOM     21  C   UNL     1      32.327  -9.471 -22.694  0.00  0.00    -0.007 C 
ATOM     22  C   UNL     1      34.373  -9.495 -23.977  0.00  0.00    -0.007 C 
ATOM     23  C   UNL     1      32.183 -10.844 -22.898  0.00  0.00    -0.004 C 
ATOM     24  C   UNL     1      34.229 -10.867 -24.182  0.00  0.00    -0.004 C 
BRANCH  19  25
ATOM     25  C   UNL     1      33.575  -7.330 -23.017  0.00  0.00    -0.050 C 
BRANCH  25  26
ATOM     26  N   UNL     1      32.304  -6.615 -23.127  0.00  0.00    +0.387 N 
ATOM     27  N   UNL     1      30.657  -4.247 -22.976  0.00  0.00    +0.382 N 
ATOM     28  C   UNL     1      31.043  -4.818 -24.271  0.00  0.00    -0.083 C 
ATOM     29  C   UNL     1      32.382  -5.568 -24.154  0.00  0.00    -0.099 C 
ATOM     30  C   UNL     1      31.919  -6.037 -21.833  0.00  0.00    -0.101 C 
ATOM     31  C   UNL     1      30.592  -5.285 -21.948  0.00  0.00    -0.105 C 
ATOM     32  C   UNL     1      31.144  -3.695 -25.301  0.00  0.00    -0.026 C 
ATOM     33  H   UNL     1      31.588  -7.286 -23.404  0.00  0.00    -0.079 HD
ATOM     34  H   UNL     1      29.741  -3.807 -23.064  0.00  0.00    -0.085 HD
ATOM     35  H   UNL     1      31.357  -3.559 -22.700  0.00  0.00    -0.085 HD
ENDBRANCH  25  26
ENDBRANCH  19  25
ENDBRANCH   1  20
TORSDOF 6
ENDMDL
MODEL 3
REMARK VINA RESULT:     -11.6      1.951      2.577
REMARK  Name = 15984937
REMARK  6 active torsions:
REMARK  status: ('A' for Active; 'I' for Inactive)
REMARK    1  A    between atoms: C_1  and  C_9
REMARK    2  A    between atoms: C_1  and  C_20
REMARK    3  A    between atoms: C_4  and  N_10
REMARK    4  A    between atoms: N_10  and  C_13
REMARK    5  A    between atoms: C_19  and  C_25
REMARK    6  A    between atoms: C_25  and  N_26
REMARK                            x       y       z     vdW  Elec       q    Type
REMARK                         _______ _______ _______ _____ _____    ______ ____
ROOT
ATOM      1  C   UNL     1      35.212 -18.071 -22.214  0.00  0.00    +0.112 C 
ENDROOT
BRANCH   1   9
ATOM      2  O   UNL     1      35.013 -16.781 -20.237  0.00  0.00    -0.275 OA
ATOM      3  N   UNL     1      34.766 -15.641 -22.247  0.00  0.00    -0.279 N 
ATOM      4  C   UNL     1      33.104 -13.653 -23.570  0.00  0.00    +0.072 C 
ATOM      5  C   UNL     1      33.413 -15.011 -24.208  0.00  0.00    +0.041 C 
ATOM      6  C   UNL     1      33.252 -13.704 -22.045  0.00  0.00    +0.041 C 
ATOM      7  C   UNL     1      34.732 -15.606 -23.713  0.00  0.00    +0.095 C 
ATOM      8  C   UNL     1      34.567 -14.343 -21.600  0.00  0.00    +0.095 C 
ATOM      9  C   UNL     1      34.990 -16.778 -21.471  0.00  0.00    +0.230 C 
BRANCH   4  10
ATOM     10  N   UNL     1      33.974 -12.636 -24.127  0.00  0.00    -0.334 N 
ATOM     11  H   UNL     1      34.722 -12.924 -24.700  0.00  0.00    +0.147 HD
BRANCH  10  13
ATOM     12  F   UNL     1      31.464  -8.990 -22.276  0.00  0.00    -0.204 F 
ATOM     13  C   UNL     1      33.812 -11.282 -23.897  0.00  0.00    +0.047 C 
ATOM     14  C   UNL     1      32.696 -10.796 -23.186  0.00  0.00    +0.044 C 
ATOM     15  C   UNL     1      34.756 -10.348 -24.366  0.00  0.00    +0.014 C 
ATOM     16  C   UNL     1      32.532  -9.430 -22.955  0.00  0.00    +0.141 C 
ATOM     17  C   UNL     1      34.592  -8.982 -24.135  0.00  0.00    +0.004 C 
ATOM     18  C   UNL     1      33.479  -8.524 -23.429  0.00  0.00    +0.030 C 
ENDBRANCH  10  13
ENDBRANCH   4  10
ENDBRANCH   1   9
BRANCH   1  20
ATOM     19  C   UNL     1      34.156 -21.418 -19.764  0.00  0.00    -0.043 C 
ATOM     20  C   UNL     1      34.843 -19.241 -21.358  0.00  0.00    -0.013 C 
ATOM     21  C   UNL     1      35.491 -21.191 -20.096  0.00  0.00    -0.007 C 
ATOM     22  C   UNL     1      33.165 -20.555 -20.231  0.00  0.00    -0.007 C 
ATOM     23  C   UNL     1      35.836 -20.100 -20.894  0.00  0.00    -0.004 C 
ATOM     24  C   UNL     1      33.508 -19.464 -21.030  0.00  0.00    -0.004 C 
BRANCH  19  25
ATOM     25  C   UNL     1      33.788 -22.584 -18.912  0.00  0.00    -0.050 C 
BRANCH  25  26
ATOM     26  N   UNL     1      34.211 -22.414 -17.522  0.00  0.00    +0.387 N 
ATOM     27  N   UNL     1      35.368 -23.350 -15.047  0.00  0.00    +0.382 N 
ATOM     28  C   UNL     1      36.104 -22.437 -15.928  0.00  0.00    -0.083 C 
ATOM     29  C   UNL     1      35.660 -22.619 -17.389  0.00  0.00    -0.099 C 
ATOM     30  C   UNL     1      33.480 -23.332 -16.639  0.00  0.00    -0.101 C 
ATOM     31  C   UNL     1      33.925 -23.158 -15.187  0.00  0.00    -0.105 C 
ATOM     32  C   UNL     1      37.601 -22.703 -15.783  0.00  0.00    -0.026 C 
ATOM     33  H   UNL     1      33.994 -21.458 -17.241  0.00  0.00    -0.079 HD
ATOM     34  H   UNL     1      35.637 -23.171 -14.079  0.00  0.00    -0.085 HD
ATOM     35  H   UNL     1      35.596 -24.309 -15.307  0.00  0.00    -0.085 HD
ENDBRANCH  25  26
ENDBRANCH  19  25
ENDBRANCH   1  20
TORSDOF 6
ENDMDL
MODEL 4
REMARK VINA RESULT:     -11.5      2.004      2.674
REMARK  Name = 15984937
REMARK  6 active torsions:
REMARK  status: ('A' for Active; 'I' for Inactive)
REMARK    1  A    between atoms: C_1  and  C_9
REMARK    2  A    between atoms: C_1  and  C_20
REMARK    3  A    between atoms: C_4  and  N_10
REMARK    4  A    between atoms: N_10  and  C_13
REMARK    5  A    between atoms: C_19  and  C_25
REMARK    6  A    between atoms: C_25  and  N_26
REMARK                            x       y       z     vdW  Elec       q    Type
REMARK                         _______ _______ _______ _____ _____    ______ ____
ROOT
ATOM      1  C   UNL     1      35.329 -17.882 -22.130  0.00  0.00    +0.112 C 
ENDROOT
BRANCH   1   9
ATOM      2  O   UNL     1      35.021 -16.635 -20.139  0.00  0.00    -0.275 OA
ATOM      3  N   UNL     1      34.690 -15.495 -22.137  0.00  0.00    -0.279 N 
ATOM      4  C   UNL     1      32.880 -13.632 -23.445  0.00  0.00    +0.072 C 
ATOM      5  C   UNL     1      33.298 -14.954 -24.097  0.00  0.00    +0.041 C 
ATOM      6  C   UNL     1      33.026 -13.689 -21.920  0.00  0.00    +0.041 C 
ATOM      7  C   UNL     1      34.659 -15.447 -23.603  0.00  0.00    +0.095 C 
ATOM      8  C   UNL     1      34.387 -14.226 -21.477  0.00  0.00    +0.095 C 
ATOM      9  C   UNL     1      35.003 -16.620 -21.373  0.00  0.00    +0.230 C 
BRANCH   4  10
ATOM     10  N   UNL     1      33.667 -12.542 -23.987  0.00  0.00    -0.334 N 
ATOM     11  H   UNL     1      34.399 -12.761 -24.610  0.00  0.00    +0.147 HD
BRANCH  10  13
ATOM     12  F   UNL     1      35.043  -7.948 -24.113  0.00  0.00    -0.204 F 
ATOM     13  C   UNL     1      33.447 -11.213 -23.677  0.00  0.00    +0.047 C 
ATOM     14  C   UNL     1      34.372 -10.218 -24.056  0.00  0.00    +0.044 C 
ATOM     15  C   UNL     1      32.296 -10.812 -22.972  0.00  0.00    +0.014 C 
ATOM     16  C   UNL     1      34.152  -8.877 -23.742  0.00  0.00    +0.141 C 
ATOM     17  C   UNL     1      32.075  -9.471 -22.658  0.00  0.00    +0.004 C 
ATOM     18  C   UNL     1      33.004  -8.504 -23.043  0.00  0.00    +0.030 C 
ENDBRANCH  10  13
ENDBRANCH   4  10
ENDBRANCH   1   9
BRANCH   1  20
ATOM     19  C   UNL     1      34.252 -21.335 -19.841  0.00  0.00    -0.043 C 
ATOM     20  C   UNL     1      34.953 -19.089 -21.330  0.00  0.00    -0.013 C 
ATOM     21  C   UNL     1      33.259 -20.497 -20.347  0.00  0.00    -0.007 C 
ATOM     22  C   UNL     1      35.596 -21.049 -20.081  0.00  0.00    -0.007 C 
ATOM     23  C   UNL     1      33.610 -19.371 -21.093  0.00  0.00    -0.004 C 
ATOM     24  C   UNL     1      35.947 -19.923 -20.826  0.00  0.00    -0.004 C 
BRANCH  19  25
ATOM     25  C   UNL     1      33.877 -22.538 -19.043  0.00  0.00    -0.050 C 
BRANCH  25  26
ATOM     26  N   UNL     1      34.221 -22.397 -17.629  0.00  0.00    +0.387 N 
ATOM     27  N   UNL     1      35.250 -23.380 -15.115  0.00  0.00    +0.382 N 
ATOM     28  C   UNL     1      36.023 -22.439 -15.932  0.00  0.00    -0.083 C 
ATOM     29  C   UNL     1      35.662 -22.590 -17.420  0.00  0.00    -0.099 C 
ATOM     30  C   UNL     1      33.453 -23.343 -16.810  0.00  0.00    -0.101 C 
ATOM     31  C   UNL     1      33.815 -23.200 -15.331  0.00  0.00    -0.105 C 
ATOM     32  C   UNL     1      37.513 -22.694 -15.711  0.00  0.00    -0.026 C 
ATOM     33  H   UNL     1      33.978 -21.450 -17.338  0.00  0.00    -0.079 HD
ATOM     34  H   UNL     1      35.462 -23.222 -14.131  0.00  0.00    -0.085 HD
ATOM     35  H   UNL     1      35.502 -24.331 -15.385  0.00  0.00    -0.085 HD
ENDBRANCH  25  26
ENDBRANCH  19  25
ENDBRANCH   1  20
TORSDOF 6
ENDMDL
MODEL 5
REMARK VINA RESULT:     -11.3      4.578      8.512
REMARK  Name = 15984937
REMARK  6 active torsions:
REMARK  status: ('A' for Active; 'I' for Inactive)
REMARK    1  A    between atoms: C_1  and  C_9
REMARK    2  A    between atoms: C_1  and  C_20
REMARK    3  A    between atoms: C_4  and  N_10
REMARK    4  A    between atoms: N_10  and  C_13
REMARK    5  A    between atoms: C_19  and  C_25
REMARK    6  A    between atoms: C_25  and  N_26
REMARK                            x       y       z     vdW  Elec       q    Type
REMARK                         _______ _______ _______ _____ _____    ______ ____
ROOT
ATOM      1  C   UNL     1      30.972 -11.526 -21.416  0.00  0.00    +0.112 C 
ENDROOT
BRANCH   1   9
ATOM      2  O   UNL     1      31.717 -10.275 -19.547  0.00  0.00    -0.275 OA
ATOM      3  N   UNL     1      31.892  -9.242 -21.622  0.00  0.00    -0.279 N 
ATOM      4  C   UNL     1      31.412  -6.713 -22.975  0.00  0.00    +0.072 C 
ATOM      5  C   UNL     1      30.873  -8.041 -23.517  0.00  0.00    +0.041 C 
ATOM      6  C   UNL     1      31.680  -6.790 -21.468  0.00  0.00    +0.041 C 
ATOM      7  C   UNL     1      31.717  -9.239 -23.078  0.00  0.00    +0.095 C 
ATOM      8  C   UNL     1      32.491  -8.025 -21.075  0.00  0.00    +0.095 C 
ATOM      9  C   UNL     1      31.560 -10.297 -20.771  0.00  0.00    +0.230 C 
BRANCH   4  10
ATOM     10  N   UNL     1      32.621  -6.343 -23.685  0.00  0.00    -0.334 N 
ATOM     11  H   UNL     1      33.479  -6.709 -23.366  0.00  0.00    +0.147 HD
BRANCH  10  13
ATOM     12  F   UNL     1      30.812  -2.625 -26.119  0.00  0.00    -0.204 F 
ATOM     13  C   UNL     1      32.636  -5.503 -24.783  0.00  0.00    +0.047 C 
ATOM     14  C   UNL     1      31.698  -4.459 -24.910  0.00  0.00    +0.044 C 
ATOM     15  C   UNL     1      33.588  -5.667 -25.809  0.00  0.00    +0.014 C 
ATOM     16  C   UNL     1      31.713  -3.613 -26.019  0.00  0.00    +0.141 C 
ATOM     17  C   UNL     1      33.603  -4.820 -26.917  0.00  0.00    +0.004 C 
ATOM     18  C   UNL     1      32.664  -3.793 -27.022  0.00  0.00    +0.030 C 
ENDBRANCH  10  13
ENDBRANCH   4  10
ENDBRANCH   1   9
BRANCH   1  20
ATOM     19  C   UNL     1      33.995 -14.491 -22.048  0.00  0.00    -0.043 C 
ATOM     20  C   UNL     1      32.029 -12.562 -21.637  0.00  0.00    -0.013 C 
ATOM     21  C   UNL     1      33.315 -14.436 -20.831  0.00  0.00    -0.007 C 
ATOM     22  C   UNL     1      33.689 -13.579 -23.059  0.00  0.00    -0.007 C 
ATOM     23  C   UNL     1      32.330 -13.470 -20.625  0.00  0.00    -0.004 C 
ATOM     24  C   UNL     1      32.705 -12.613 -22.853  0.00  0.00    -0.004 C 
BRANCH  19  25
ATOM     25  C   UNL     1      35.048 -15.522 -22.269  0.00  0.00    -0.050 C 
BRANCH  25  26
ATOM     26  N   UNL     1      34.484 -16.844 -22.543  0.00  0.00    +0.387 N 
ATOM     27  N   UNL     1      34.686 -19.691 -22.987  0.00  0.00    +0.382 N 
ATOM     28  C   UNL     1      34.165 -19.157 -21.724  0.00  0.00    -0.083 C 
ATOM     29  C   UNL     1      34.760 -17.769 -21.436  0.00  0.00    -0.099 C 
ATOM     30  C   UNL     1      35.010 -17.382 -23.804  0.00  0.00    -0.101 C 
ATOM     31  C   UNL     1      34.425 -18.765 -24.090  0.00  0.00    -0.105 C 
ATOM     32  C   UNL     1      34.499 -20.131 -20.596  0.00  0.00    -0.026 C 
ATOM     33  H   UNL     1      33.474 -16.743 -22.634  0.00  0.00    -0.079 HD
ATOM     34  H   UNL     1      34.234 -20.583 -23.186  0.00  0.00    -0.085 HD
ATOM     35  H   UNL     1      35.695 -19.815 -22.898  0.00  0.00    -0.085 HD
ENDBRANCH  25  26
ENDBRANCH  19  25
ENDBRANCH   1  20
TORSDOF 6
ENDMDL
MODEL 6
REMARK VINA RESULT:     -11.0      2.620      4.272
REMARK  Name = 15984937
REMARK  6 active torsions:
REMARK  status: ('A' for Active; 'I' for Inactive)
REMARK    1  A    between atoms: C_1  and  C_9
REMARK    2  A    between atoms: C_1  and  C_20
REMARK    3  A    between atoms: C_4  and  N_10
REMARK    4  A    between atoms: N_10  and  C_13
REMARK    5  A    between atoms: C_19  and  C_25
REMARK    6  A    between atoms: C_25  and  N_26
REMARK                            x       y       z     vdW  Elec       q    Type
REMARK                         _______ _______ _______ _____ _____    ______ ____
ROOT
ATOM      1  C   UNL     1      35.895 -21.579 -19.812  0.00  0.00    +0.112 C 
ENDROOT
BRANCH   1   9
ATOM      2  O   UNL     1      33.555 -21.239 -19.965  0.00  0.00    -0.275 OA
ATOM      3  N   UNL     1      34.906 -19.505 -20.719  0.00  0.00    -0.279 N 
ATOM      4  C   UNL     1      35.205 -17.614 -22.909  0.00  0.00    +0.072 C 
ATOM      5  C   UNL     1      36.360 -18.506 -22.440  0.00  0.00    +0.041 C 
ATOM      6  C   UNL     1      33.846 -18.213 -22.533  0.00  0.00    +0.041 C 
ATOM      7  C   UNL     1      36.225 -18.916 -20.973  0.00  0.00    +0.095 C 
ATOM      8  C   UNL     1      33.775 -18.645 -21.068  0.00  0.00    +0.095 C 
ATOM      9  C   UNL     1      34.676 -20.766 -20.168  0.00  0.00    +0.230 C 
BRANCH   4  10
ATOM     10  N   UNL     1      35.345 -16.286 -22.344  0.00  0.00    -0.334 N 
ATOM     11  H   UNL     1      36.187 -16.062 -21.883  0.00  0.00    +0.147 HD
BRANCH  10  13
ATOM     12  F   UNL     1      32.228 -13.341 -20.192  0.00  0.00    -0.204 F 
ATOM     13  C   UNL     1      34.361 -15.317 -22.415  0.00  0.00    +0.047 C 
ATOM     14  C   UNL     1      33.770 -14.798 -21.245  0.00  0.00    +0.044 C 
ATOM     15  C   UNL     1      33.919 -14.821 -23.657  0.00  0.00    +0.014 C 
ATOM     16  C   UNL     1      32.776 -13.822 -21.317  0.00  0.00    +0.141 C 
ATOM     17  C   UNL     1      32.925 -13.845 -23.728  0.00  0.00    +0.004 C 
ATOM     18  C   UNL     1      32.354 -13.346 -22.557  0.00  0.00    +0.030 C 
ENDBRANCH  10  13
ENDBRANCH   4  10
ENDBRANCH   1   9
BRANCH   1  20
ATOM     19  C   UNL     1      35.757 -22.780 -15.705  0.00  0.00    -0.043 C 
ATOM     20  C   UNL     1      35.847 -21.998 -18.376  0.00  0.00    -0.013 C 
ATOM     21  C   UNL     1      34.681 -23.056 -16.549  0.00  0.00    -0.007 C 
ATOM     22  C   UNL     1      36.877 -22.113 -16.199  0.00  0.00    -0.007 C 
ATOM     23  C   UNL     1      34.726 -22.665 -17.887  0.00  0.00    -0.004 C 
ATOM     24  C   UNL     1      36.922 -21.720 -17.537  0.00  0.00    -0.004 C 
BRANCH  19  25
ATOM     25  C   UNL     1      35.708 -23.198 -14.275  0.00  0.00    -0.050 C 
BRANCH  25  26
ATOM     26  N   UNL     1      36.394 -24.468 -14.042  0.00  0.00    +0.387 N 
ATOM     27  N   UNL     1      38.170 -26.616 -14.802  0.00  0.00    +0.382 N 
ATOM     28  C   UNL     1      38.572 -25.620 -13.802  0.00  0.00    -0.083 C 
ATOM     29  C   UNL     1      37.852 -24.283 -14.050  0.00  0.00    -0.099 C 
ATOM     30  C   UNL     1      35.999 -25.464 -15.046  0.00  0.00    -0.101 C 
ATOM     31  C   UNL     1      36.718 -26.792 -14.806  0.00  0.00    -0.105 C 
ATOM     32  C   UNL     1      40.087 -25.434 -13.864  0.00  0.00    -0.026 C 
ATOM     33  H   UNL     1      36.118 -24.812 -13.123  0.00  0.00    -0.079 HD
ATOM     34  H   UNL     1      38.614 -27.507 -14.583  0.00  0.00    -0.085 HD
ATOM     35  H   UNL     1      38.462 -26.290 -15.723  0.00  0.00    -0.085 HD
ENDBRANCH  25  26
ENDBRANCH  19  25
ENDBRANCH   1  20
TORSDOF 6
ENDMDL
MODEL 7
REMARK VINA RESULT:     -10.9      2.039      2.947
REMARK  Name = 15984937
REMARK  6 active torsions:
REMARK  status: ('A' for Active; 'I' for Inactive)
REMARK    1  A    between atoms: C_1  and  C_9
REMARK    2  A    between atoms: C_1  and  C_20
REMARK    3  A    between atoms: C_4  and  N_10
REMARK    4  A    between atoms: N_10  and  C_13
REMARK    5  A    between atoms: C_19  and  C_25
REMARK    6  A    between atoms: C_25  and  N_26
REMARK                            x       y       z     vdW  Elec       q    Type
REMARK                         _______ _______ _______ _____ _____    ______ ____
ROOT
ATOM      1  C   UNL     1      34.370 -17.674 -22.503  0.00  0.00    +0.112 C 
ENDROOT
BRANCH   1   9
ATOM      2  O   UNL     1      33.512 -16.600 -20.574  0.00  0.00    -0.275 OA
ATOM      3  N   UNL     1      34.054 -15.227 -22.369  0.00  0.00    -0.279 N 
ATOM      4  C   UNL     1      33.061 -12.976 -23.920  0.00  0.00    +0.072 C 
ATOM      5  C   UNL     1      33.532 -14.276 -24.582  0.00  0.00    +0.041 C 
ATOM      6  C   UNL     1      32.642 -13.208 -22.464  0.00  0.00    +0.041 C 
ATOM      7  C   UNL     1      34.558 -15.028 -23.733  0.00  0.00    +0.095 C 
ATOM      8  C   UNL     1      33.681 -13.998 -21.669  0.00  0.00    +0.095 C 
ATOM      9  C   UNL     1      33.940 -16.458 -21.723  0.00  0.00    +0.230 C 
BRANCH   4  10
ATOM     10  N   UNL     1      34.110 -11.978 -23.991  0.00  0.00    -0.334 N 
ATOM     11  H   UNL     1      35.038 -12.284 -24.116  0.00  0.00    +0.147 HD
BRANCH  10  13
ATOM     12  F   UNL     1      31.253  -8.308 -22.810  0.00  0.00    -0.204 F 
ATOM     13  C   UNL     1      33.879 -10.618 -23.889  0.00  0.00    +0.047 C 
ATOM     14  C   UNL     1      32.656 -10.126 -23.390  0.00  0.00    +0.044 C 
ATOM     15  C   UNL     1      34.857  -9.684 -24.282  0.00  0.00    +0.014 C 
ATOM     16  C   UNL     1      32.422  -8.755 -23.289  0.00  0.00    +0.141 C 
ATOM     17  C   UNL     1      34.624  -8.313 -24.181  0.00  0.00    +0.004 C 
ATOM     18  C   UNL     1      33.405  -7.849 -23.684  0.00  0.00    +0.030 C 
ENDBRANCH  10  13
ENDBRANCH   4  10
ENDBRANCH   1   9
BRANCH   1  20
ATOM     19  C   UNL     1      35.630 -20.796 -19.859  0.00  0.00    -0.043 C 
ATOM     20  C   UNL     1      34.811 -18.765 -21.579  0.00  0.00    -0.013 C 
ATOM     21  C   UNL     1      34.278 -20.645 -20.165  0.00  0.00    -0.007 C 
ATOM     22  C   UNL     1      36.571 -19.930 -20.415  0.00  0.00    -0.007 C 
ATOM     23  C   UNL     1      33.867 -19.628 -21.027  0.00  0.00    -0.004 C 
ATOM     24  C   UNL     1      36.162 -18.912 -21.276  0.00  0.00    -0.004 C 
BRANCH  19  25
ATOM     25  C   UNL     1      36.069 -21.883 -18.938  0.00  0.00    -0.050 C 
BRANCH  25  26
ATOM     26  N   UNL     1      35.122 -22.102 -17.845  0.00  0.00    +0.387 N 
ATOM     27  N   UNL     1      33.744 -23.758 -15.921  0.00  0.00    +0.382 N 
ATOM     28  C   UNL     1      34.815 -22.846 -15.504  0.00  0.00    -0.083 C 
ATOM     29  C   UNL     1      35.811 -22.619 -16.654  0.00  0.00    -0.099 C 
ATOM     30  C   UNL     1      34.053 -23.019 -18.258  0.00  0.00    -0.101 C 
ATOM     31  C   UNL     1      33.066 -23.253 -17.114  0.00  0.00    -0.105 C 
ATOM     32  C   UNL     1      35.524 -23.434 -14.286  0.00  0.00    -0.026 C 
ATOM     33  H   UNL     1      34.701 -21.204 -17.608  0.00  0.00    -0.079 HD
ATOM     34  H   UNL     1      33.066 -23.847 -15.164  0.00  0.00    -0.085 HD
ATOM     35  H   UNL     1      34.154 -24.666 -16.140  0.00  0.00    -0.085 HD
ENDBRANCH  25  26
ENDBRANCH  19  25
ENDBRANCH   1  20
TORSDOF 6
ENDMDL
MODEL 8
REMARK VINA RESULT:     -10.8      2.974      4.640
REMARK  Name = 15984937
REMARK  6 active torsions:
REMARK  status: ('A' for Active; 'I' for Inactive)
REMARK    1  A    between atoms: C_1  and  C_9
REMARK    2  A    between atoms: C_1  and  C_20
REMARK    3  A    between atoms: C_4  and  N_10
REMARK    4  A    between atoms: N_10  and  C_13
REMARK    5  A    between atoms: C_19  and  C_25
REMARK    6  A    between atoms: C_25  and  N_26
REMARK                            x       y       z     vdW  Elec       q    Type
REMARK                         _______ _______ _______ _____ _____    ______ ____
ROOT
ATOM      1  C   UNL     1      36.406 -21.337 -19.500  0.00  0.00    +0.112 C 
ENDROOT
BRANCH   1   9
ATOM      2  O   UNL     1      34.077 -21.528 -19.887  0.00  0.00    -0.275 OA
ATOM      3  N   UNL     1      35.113 -19.624 -20.724  0.00  0.00    -0.279 N 
ATOM      4  C   UNL     1      35.248 -17.935 -23.088  0.00  0.00    +0.072 C 
ATOM      5  C   UNL     1      36.505 -18.505 -22.423  0.00  0.00    +0.041 C 
ATOM      6  C   UNL     1      34.009 -18.775 -22.759  0.00  0.00    +0.041 C 
ATOM      7  C   UNL     1      36.302 -18.791 -20.934  0.00  0.00    +0.095 C 
ATOM      8  C   UNL     1      33.873 -19.068 -21.265  0.00  0.00    +0.095 C 
ATOM      9  C   UNL     1      35.092 -20.845 -20.050  0.00  0.00    +0.230 C 
BRANCH   4  10
ATOM     10  N   UNL     1      35.050 -16.560 -22.673  0.00  0.00    -0.334 N 
ATOM     11  H   UNL     1      35.358 -16.295 -21.776  0.00  0.00    +0.147 HD
BRANCH  10  13
ATOM     12  F   UNL     1      32.815 -15.305 -26.729  0.00  0.00    -0.204 F 
ATOM     13  C   UNL     1      34.449 -15.601 -23.467  0.00  0.00    +0.047 C 
ATOM     14  C   UNL     1      33.918 -15.934 -24.730  0.00  0.00    +0.044 C 
ATOM     15  C   UNL     1      34.349 -14.262 -23.040  0.00  0.00    +0.014 C 
ATOM     16  C   UNL     1      33.314 -14.966 -25.532  0.00  0.00    +0.141 C 
ATOM     17  C   UNL     1      33.744 -13.295 -23.841  0.00  0.00    +0.004 C 
ATOM     18  C   UNL     1      33.226 -13.647 -25.088  0.00  0.00    +0.030 C 
ENDBRANCH  10  13
ENDBRANCH   4  10
ENDBRANCH   1   9
BRANCH   1  20
ATOM     19  C   UNL     1      35.912 -22.822 -15.515  0.00  0.00    -0.043 C 
ATOM     20  C   UNL     1      36.233 -21.856 -18.107  0.00  0.00    -0.013 C 
ATOM     21  C   UNL     1      37.074 -22.134 -15.864  0.00  0.00    -0.007 C 
ATOM     22  C   UNL     1      34.911 -23.026 -16.465  0.00  0.00    -0.007 C 
ATOM     23  C   UNL     1      37.235 -21.650 -17.162  0.00  0.00    -0.004 C 
ATOM     24  C   UNL     1      35.072 -22.543 -17.764  0.00  0.00    -0.004 C 
BRANCH  19  25
ATOM     25  C   UNL     1      35.740 -23.340 -14.128  0.00  0.00    -0.050 C 
BRANCH  25  26
ATOM     26  N   UNL     1      36.464 -24.591 -13.907  0.00  0.00    +0.387 N 
ATOM     27  N   UNL     1      38.292 -26.685 -14.693  0.00  0.00    +0.382 N 
ATOM     28  C   UNL     1      38.676 -25.681 -13.695  0.00  0.00    -0.083 C 
ATOM     29  C   UNL     1      37.915 -24.365 -13.930  0.00  0.00    -0.099 C 
ATOM     30  C   UNL     1      36.085 -25.595 -14.909  0.00  0.00    -0.101 C 
ATOM     31  C   UNL     1      36.845 -26.903 -14.682  0.00  0.00    -0.105 C 
ATOM     32  C   UNL     1      40.184 -25.453 -13.773  0.00  0.00    -0.026 C 
ATOM     33  H   UNL     1      36.208 -24.946 -12.986  0.00  0.00    -0.079 HD
ATOM     34  H   UNL     1      38.763 -27.565 -14.483  0.00  0.00    -0.085 HD
ATOM     35  H   UNL     1      38.563 -26.348 -15.617  0.00  0.00    -0.085 HD
ENDBRANCH  25  26
ENDBRANCH  19  25
ENDBRANCH   1  20
TORSDOF 6
ENDMDL
MODEL 9
REMARK VINA RESULT:     -10.8      3.792      6.638
REMARK  Name = 15984937
REMARK  6 active torsions:
REMARK  status: ('A' for Active; 'I' for Inactive)
REMARK    1  A    between atoms: C_1  and  C_9
REMARK    2  A    between atoms: C_1  and  C_20
REMARK    3  A    between atoms: C_4  and  N_10
REMARK    4  A    between atoms: N_10  and  C_13
REMARK    5  A    between atoms: C_19  and  C_25
REMARK    6  A    between atoms: C_25  and  N_26
REMARK                            x       y       z     vdW  Elec       q    Type
REMARK                         _______ _______ _______ _____ _____    ______ ____
ROOT
ATOM      1  C   UNL     1      32.337 -13.054 -22.188  0.00  0.00    +0.112 C 
ENDROOT
BRANCH   1   9
ATOM      2  O   UNL     1      33.893 -12.367 -23.837  0.00  0.00    -0.275 OA
ATOM      3  N   UNL     1      32.454 -10.732 -23.025  0.00  0.00    -0.279 N 
ATOM      4  C   UNL     1      32.401  -7.977 -22.095  0.00  0.00    +0.072 C 
ATOM      5  C   UNL     1      31.798  -9.123 -21.277  0.00  0.00    +0.041 C 
ATOM      6  C   UNL     1      33.469  -8.485 -23.070  0.00  0.00    +0.041 C 
ATOM      7  C   UNL     1      31.359 -10.299 -22.150  0.00  0.00    +0.095 C 
ATOM      8  C   UNL     1      32.997  -9.685 -23.891  0.00  0.00    +0.095 C 
ATOM      9  C   UNL     1      32.968 -12.028 -23.093  0.00  0.00    +0.230 C 
BRANCH   4  10
ATOM     10  N   UNL     1      31.354  -7.277 -22.813  0.00  0.00    -0.334 N 
ATOM     11  H   UNL     1      30.468  -7.703 -22.875  0.00  0.00    +0.147 HD
BRANCH  10  13
ATOM     12  F   UNL     1      31.089  -2.489 -22.681  0.00  0.00    -0.204 F 
ATOM     13  C   UNL     1      31.532  -6.046 -23.417  0.00  0.00    +0.047 C 
ATOM     14  C   UNL     1      31.216  -4.853 -22.737  0.00  0.00    +0.044 C 
ATOM     15  C   UNL     1      32.033  -5.947 -24.730  0.00  0.00    +0.014 C 
ATOM     16  C   UNL     1      31.394  -3.611 -23.346  0.00  0.00    +0.141 C 
ATOM     17  C   UNL     1      32.211  -4.706 -25.339  0.00  0.00    +0.004 C 
ATOM     18  C   UNL     1      31.891  -3.537 -24.647  0.00  0.00    +0.030 C 
ENDBRANCH  10  13
ENDBRANCH   4  10
ENDBRANCH   1   9
BRANCH   1  20
ATOM     19  C   UNL     1      34.772 -16.568 -21.963  0.00  0.00    -0.043 C 
ATOM     20  C   UNL     1      33.189 -14.282 -22.109  0.00  0.00    -0.013 C 
ATOM     21  C   UNL     1      34.553 -15.798 -20.821  0.00  0.00    -0.007 C 
ATOM     22  C   UNL     1      34.199 -16.193 -23.178  0.00  0.00    -0.007 C 
ATOM     23  C   UNL     1      33.759 -14.653 -20.894  0.00  0.00    -0.004 C 
ATOM     24  C   UNL     1      33.406 -15.048 -23.252  0.00  0.00    -0.004 C 
BRANCH  19  25
ATOM     25  C   UNL     1      35.621 -17.791 -21.885  0.00  0.00    -0.050 C 
BRANCH  25  26
ATOM     26  N   UNL     1      35.142 -18.738 -20.880  0.00  0.00    +0.387 N 
ATOM     27  N   UNL     1      34.422 -21.381 -19.963  0.00  0.00    +0.382 N 
ATOM     28  C   UNL     1      35.664 -20.740 -19.520  0.00  0.00    -0.083 C 
ATOM     29  C   UNL     1      36.169 -19.746 -20.580  0.00  0.00    -0.099 C 
ATOM     30  C   UNL     1      33.902 -19.386 -21.324  0.00  0.00    -0.101 C 
ATOM     31  C   UNL     1      33.402 -20.381 -20.275  0.00  0.00    -0.105 C 
ATOM     32  C   UNL     1      36.713 -21.817 -19.251  0.00  0.00    -0.026 C 
ATOM     33  H   UNL     1      34.943 -18.218 -20.025  0.00  0.00    -0.079 HD
ATOM     34  H   UNL     1      34.077 -21.990 -19.222  0.00  0.00    -0.085 HD
ATOM     35  H   UNL     1      34.616 -21.922 -20.806  0.00  0.00    -0.085 HD
ENDBRANCH  25  26
ENDBRANCH  19  25
ENDBRANCH   1  20
TORSDOF 6
ENDMDL
