MODEL 1
REMARK VINA RESULT:      -7.4      0.000      0.000
REMARK  Name = 17336
REMARK  5 active torsions:
REMARK  status: ('A' for Active; 'I' for Inactive)
REMARK    1  A    between atoms: C_6  and  C_12
REMARK    2  A    between atoms: C_6  and  C_17
REMARK    3  A    between atoms: C_12  and  C_13
REMARK    4  A    between atoms: C_13  and  O_15
REMARK    5  A    between atoms: C_17  and  C_18
REMARK                            x       y       z     vdW  Elec       q    Type
REMARK                         _______ _______ _______ _____ _____    ______ ____
ROOT
ATOM      1  O   UNL     1      36.440 -25.962 -15.655  0.00  0.00    -0.274 OA
ATOM      2  O   UNL     1      38.005 -24.527 -11.466  0.00  0.00    -0.274 OA
ATOM      3  O   UNL     1      40.939 -25.771 -14.768  0.00  0.00    -0.252 OA
ATOM      4  N   UNL     1      38.688 -25.771 -15.243  0.00  0.00    -0.239 N 
ATOM      5  N   UNL     1      39.470 -25.055 -13.150  0.00  0.00    -0.239 N 
ATOM      6  C   UNL     1      37.115 -24.669 -13.717  0.00  0.00    +0.144 C 
ATOM      7  C   UNL     1      37.354 -25.544 -14.944  0.00  0.00    +0.237 C 
ATOM      8  C   UNL     1      38.208 -24.762 -12.657  0.00  0.00    +0.237 C 
ATOM      9  C   UNL     1      39.781 -25.533 -14.418  0.00  0.00    +0.312 C 
ATOM     10  H   UNL     1      38.884 -26.141 -16.134  0.00  0.00    +0.159 HD
ATOM     11  H   UNL     1      40.227 -24.910 -12.536  0.00  0.00    +0.159 HD
ENDROOT
BRANCH   6  12
ATOM     12  C   UNL     1      35.760 -25.024 -13.089  0.00  0.00    +0.047 C 
BRANCH  12  13
ATOM     13  C   UNL     1      34.746 -23.896 -13.253  0.00  0.00    +0.112 C 
ATOM     14  C   UNL     1      33.553 -24.359 -14.078  0.00  0.00    +0.032 C 
BRANCH  13  15
ATOM     15  O   UNL     1      34.285 -23.485 -11.969  0.00  0.00    -0.384 OA
ATOM     16  H   UNL     1      34.855 -22.777 -11.632  0.00  0.00    +0.210 HD
ENDBRANCH  13  15
ENDBRANCH  12  13
ENDBRANCH   6  12
BRANCH   6  17
ATOM     17  C   UNL     1      37.082 -23.209 -14.204  0.00  0.00    +0.043 C 
BRANCH  17  18
ATOM     18  C   UNL     1      37.331 -23.134 -15.674  0.00  0.00    -0.025 C 
ATOM     19  C   UNL     1      37.217 -22.010 -16.390  0.00  0.00    -0.005 C 
ENDBRANCH  17  18
ENDBRANCH   6  17
TORSDOF 5
ENDMDL
MODEL 2
REMARK VINA RESULT:      -7.4      1.851      2.581
REMARK  Name = 17336
REMARK  5 active torsions:
REMARK  status: ('A' for Active; 'I' for Inactive)
REMARK    1  A    between atoms: C_6  and  C_12
REMARK    2  A    between atoms: C_6  and  C_17
REMARK    3  A    between atoms: C_12  and  C_13
REMARK    4  A    between atoms: C_13  and  O_15
REMARK    5  A    between atoms: C_17  and  C_18
REMARK                            x       y       z     vdW  Elec       q    Type
REMARK                         _______ _______ _______ _____ _____    ______ ____
ROOT
ATOM      1  O   UNL     1      37.016 -26.772 -12.564  0.00  0.00    -0.274 OA
ATOM      2  O   UNL     1      37.567 -22.692 -14.825  0.00  0.00    -0.274 OA
ATOM      3  O   UNL     1      40.462 -26.181 -15.537  0.00  0.00    -0.252 OA
ATOM      4  N   UNL     1      38.677 -26.507 -14.123  0.00  0.00    -0.239 N 
ATOM      5  N   UNL     1      38.953 -24.470 -15.252  0.00  0.00    -0.239 N 
ATOM      6  C   UNL     1      36.842 -24.881 -14.073  0.00  0.00    +0.144 C 
ATOM      7  C   UNL     1      37.509 -26.121 -13.486  0.00  0.00    +0.237 C 
ATOM      8  C   UNL     1      37.809 -23.895 -14.719  0.00  0.00    +0.237 C 
ATOM      9  C   UNL     1      39.427 -25.755 -15.020  0.00  0.00    +0.312 C 
ATOM     10  H   UNL     1      39.014 -27.410 -13.919  0.00  0.00    +0.159 HD
ATOM     11  H   UNL     1      39.487 -23.906 -15.859  0.00  0.00    +0.159 HD
ENDROOT
BRANCH   6  12
ATOM     12  C   UNL     1      36.035 -24.166 -12.979  0.00  0.00    +0.047 C 
BRANCH  12  13
ATOM     13  C   UNL     1      36.795 -24.112 -11.658  0.00  0.00    +0.112 C 
ATOM     14  C   UNL     1      37.242 -22.689 -11.350  0.00  0.00    +0.032 C 
BRANCH  13  15
ATOM     15  O   UNL     1      35.946 -24.564 -10.607  0.00  0.00    -0.384 OA
ATOM     16  H   UNL     1      35.334 -23.854 -10.358  0.00  0.00    +0.210 HD
ENDBRANCH  13  15
ENDBRANCH  12  13
ENDBRANCH   6  12
BRANCH   6  17
ATOM     17  C   UNL     1      35.884 -25.363 -15.177  0.00  0.00    +0.043 C 
BRANCH  17  18
ATOM     18  C   UNL     1      34.628 -24.558 -15.178  0.00  0.00    -0.025 C 
ATOM     19  C   UNL     1      34.331 -23.647 -16.112  0.00  0.00    -0.005 C 
ENDBRANCH  17  18
ENDBRANCH   6  17
TORSDOF 5
ENDMDL
MODEL 3
REMARK VINA RESULT:      -7.2      2.280      4.157
REMARK  Name = 17336
REMARK  5 active torsions:
REMARK  status: ('A' for Active; 'I' for Inactive)
REMARK    1  A    between atoms: C_6  and  C_12
REMARK    2  A    between atoms: C_6  and  C_17
REMARK    3  A    between atoms: C_12  and  C_13
REMARK    4  A    between atoms: C_13  and  O_15
REMARK    5  A    between atoms: C_17  and  C_18
REMARK                            x       y       z     vdW  Elec       q    Type
REMARK                         _______ _______ _______ _____ _____    ______ ____
ROOT
ATOM      1  O   UNL     1      34.478 -23.991 -14.194  0.00  0.00    -0.274 OA
ATOM      2  O   UNL     1      38.361 -22.520 -12.000  0.00  0.00    -0.274 OA
ATOM      3  O   UNL     1      35.187 -24.968  -9.766  0.00  0.00    -0.252 OA
ATOM      4  N   UNL     1      34.882 -24.562 -12.010  0.00  0.00    -0.239 N 
ATOM      5  N   UNL     1      36.821 -23.827 -10.913  0.00  0.00    -0.239 N 
ATOM      6  C   UNL     1      36.737 -23.699 -13.362  0.00  0.00    +0.144 C 
ATOM      7  C   UNL     1      35.261 -24.065 -13.246  0.00  0.00    +0.237 C 
ATOM      8  C   UNL     1      37.380 -23.261 -12.050  0.00  0.00    +0.237 C 
ATOM      9  C   UNL     1      35.608 -24.500 -10.826  0.00  0.00    +0.312 C 
ATOM     10  H   UNL     1      34.004 -25.006 -11.963  0.00  0.00    +0.159 HD
ATOM     11  H   UNL     1      37.338 -23.742 -10.079  0.00  0.00    +0.159 HD
ENDROOT
BRANCH   6  12
ATOM     12  C   UNL     1      36.912 -22.592 -14.412  0.00  0.00    +0.047 C 
BRANCH  12  13
ATOM     13  C   UNL     1      37.149 -23.166 -15.805  0.00  0.00    +0.112 C 
ATOM     14  C   UNL     1      36.409 -22.351 -16.858  0.00  0.00    +0.032 C 
BRANCH  13  15
ATOM     15  O   UNL     1      38.544 -23.135 -16.097  0.00  0.00    -0.384 OA
ATOM     16  H   UNL     1      38.965 -23.935 -15.747  0.00  0.00    +0.210 HD
ENDBRANCH  13  15
ENDBRANCH  12  13
ENDBRANCH   6  12
BRANCH   6  17
ATOM     17  C   UNL     1      37.480 -24.964 -13.828  0.00  0.00    +0.043 C 
BRANCH  17  18
ATOM     18  C   UNL     1      38.835 -25.042 -13.207  0.00  0.00    -0.025 C 
ATOM     19  C   UNL     1      39.923 -25.480 -13.851  0.00  0.00    -0.005 C 
ENDBRANCH  17  18
ENDBRANCH   6  17
TORSDOF 5
ENDMDL
MODEL 4
REMARK VINA RESULT:      -7.1      1.878      4.648
REMARK  Name = 17336
REMARK  5 active torsions:
REMARK  status: ('A' for Active; 'I' for Inactive)
REMARK    1  A    between atoms: C_6  and  C_12
REMARK    2  A    between atoms: C_6  and  C_17
REMARK    3  A    between atoms: C_12  and  C_13
REMARK    4  A    between atoms: C_13  and  O_15
REMARK    5  A    between atoms: C_17  and  C_18
REMARK                            x       y       z     vdW  Elec       q    Type
REMARK                         _______ _______ _______ _____ _____    ______ ____
ROOT
ATOM      1  O   UNL     1      37.123 -24.471 -11.213  0.00  0.00    -0.274 OA
ATOM      2  O   UNL     1      36.142 -25.985 -15.549  0.00  0.00    -0.274 OA
ATOM      3  O   UNL     1      32.952 -23.857 -13.028  0.00  0.00    -0.252 OA
ATOM      4  N   UNL     1      35.070 -24.077 -12.159  0.00  0.00    -0.239 N 
ATOM      5  N   UNL     1      34.580 -24.834 -14.325  0.00  0.00    -0.239 N 
ATOM      6  C   UNL     1      36.926 -24.752 -13.614  0.00  0.00    +0.144 C 
ATOM      7  C   UNL     1      36.404 -24.452 -12.212  0.00  0.00    +0.237 C 
ATOM      8  C   UNL     1      35.869 -25.278 -14.579  0.00  0.00    +0.237 C 
ATOM      9  C   UNL     1      34.124 -24.215 -13.167  0.00  0.00    +0.312 C 
ATOM     10  H   UNL     1      34.759 -23.671 -11.318  0.00  0.00    +0.159 HD
ATOM     11  H   UNL     1      33.918 -24.973 -15.041  0.00  0.00    +0.159 HD
ENDROOT
BRANCH   6  12
ATOM     12  C   UNL     1      38.085 -25.756 -13.525  0.00  0.00    +0.047 C 
BRANCH  12  13
ATOM     13  C   UNL     1      39.241 -25.370 -14.442  0.00  0.00    +0.112 C 
ATOM     14  C   UNL     1      40.575 -25.770 -13.827  0.00  0.00    +0.032 C 
BRANCH  13  15
ATOM     15  O   UNL     1      39.094 -26.035 -15.694  0.00  0.00    -0.384 OA
ATOM     16  H   UNL     1      39.846 -26.632 -15.832  0.00  0.00    +0.210 HD
ENDBRANCH  13  15
ENDBRANCH  12  13
ENDBRANCH   6  12
BRANCH   6  17
ATOM     17  C   UNL     1      37.447 -23.425 -14.195  0.00  0.00    +0.043 C 
BRANCH  17  18
ATOM     18  C   UNL     1      36.830 -23.151 -15.526  0.00  0.00    -0.025 C 
ATOM     19  C   UNL     1      37.300 -22.244 -16.389  0.00  0.00    -0.005 C 
ENDBRANCH  17  18
ENDBRANCH   6  17
TORSDOF 5
ENDMDL
MODEL 5
REMARK VINA RESULT:      -7.0      1.612      2.382
REMARK  Name = 17336
REMARK  5 active torsions:
REMARK  status: ('A' for Active; 'I' for Inactive)
REMARK    1  A    between atoms: C_6  and  C_12
REMARK    2  A    between atoms: C_6  and  C_17
REMARK    3  A    between atoms: C_12  and  C_13
REMARK    4  A    between atoms: C_13  and  O_15
REMARK    5  A    between atoms: C_17  and  C_18
REMARK                            x       y       z     vdW  Elec       q    Type
REMARK                         _______ _______ _______ _____ _____    ______ ____
ROOT
ATOM      1  O   UNL     1      36.966 -23.394 -16.179  0.00  0.00    -0.274 OA
ATOM      2  O   UNL     1      36.928 -26.835 -12.982  0.00  0.00    -0.274 OA
ATOM      3  O   UNL     1      40.882 -25.305 -14.739  0.00  0.00    -0.252 OA
ATOM      4  N   UNL     1      38.926 -24.282 -15.385  0.00  0.00    -0.239 N 
ATOM      5  N   UNL     1      38.908 -26.001 -13.789  0.00  0.00    -0.239 N 
ATOM      6  C   UNL     1      36.855 -24.706 -14.142  0.00  0.00    +0.144 C 
ATOM      7  C   UNL     1      37.555 -24.081 -15.345  0.00  0.00    +0.237 C 
ATOM      8  C   UNL     1      37.534 -25.959 -13.600  0.00  0.00    +0.237 C 
ATOM      9  C   UNL     1      39.659 -25.192 -14.632  0.00  0.00    +0.312 C 
ATOM     10  H   UNL     1      39.436 -23.721 -16.014  0.00  0.00    +0.159 HD
ATOM     11  H   UNL     1      39.403 -26.676 -13.270  0.00  0.00    +0.159 HD
ENDROOT
BRANCH   6  12
ATOM     12  C   UNL     1      35.399 -25.031 -14.508  0.00  0.00    +0.047 C 
BRANCH  12  13
ATOM     13  C   UNL     1      34.425 -24.025 -13.903  0.00  0.00    +0.112 C 
ATOM     14  C   UNL     1      33.630 -23.319 -14.993  0.00  0.00    +0.032 C 
BRANCH  13  15
ATOM     15  O   UNL     1      33.517 -24.707 -13.042  0.00  0.00    -0.384 OA
ATOM     16  H   UNL     1      34.013 -25.157 -12.340  0.00  0.00    +0.210 HD
ENDBRANCH  13  15
ENDBRANCH  12  13
ENDBRANCH   6  12
BRANCH   6  17
ATOM     17  C   UNL     1      36.873 -23.659 -13.015  0.00  0.00    +0.043 C 
BRANCH  17  18
ATOM     18  C   UNL     1      36.953 -24.320 -11.679  0.00  0.00    -0.025 C 
ATOM     19  C   UNL     1      36.074 -24.108 -10.693  0.00  0.00    -0.005 C 
ENDBRANCH  17  18
ENDBRANCH   6  17
TORSDOF 5
ENDMDL
MODEL 6
REMARK VINA RESULT:      -7.0     17.600     19.720
REMARK  Name = 17336
REMARK  5 active torsions:
REMARK  status: ('A' for Active; 'I' for Inactive)
REMARK    1  A    between atoms: C_6  and  C_12
REMARK    2  A    between atoms: C_6  and  C_17
REMARK    3  A    between atoms: C_12  and  C_13
REMARK    4  A    between atoms: C_13  and  O_15
REMARK    5  A    between atoms: C_17  and  C_18
REMARK                            x       y       z     vdW  Elec       q    Type
REMARK                         _______ _______ _______ _____ _____    ______ ____
ROOT
ATOM      1  O   UNL     1      32.996  -6.847 -19.676  0.00  0.00    -0.274 OA
ATOM      2  O   UNL     1      30.921  -8.617 -23.499  0.00  0.00    -0.274 OA
ATOM      3  O   UNL     1      30.014  -4.341 -22.104  0.00  0.00    -0.252 OA
ATOM      4  N   UNL     1      31.582  -5.563 -20.947  0.00  0.00    -0.239 N 
ATOM      5  N   UNL     1      30.545  -6.448 -22.856  0.00  0.00    -0.239 N 
ATOM      6  C   UNL     1      32.466  -7.640 -21.906  0.00  0.00    +0.144 C 
ATOM      7  C   UNL     1      32.370  -6.681 -20.723  0.00  0.00    +0.237 C 
ATOM      8  C   UNL     1      31.238  -7.648 -22.809  0.00  0.00    +0.237 C 
ATOM      9  C   UNL     1      30.680  -5.372 -21.987  0.00  0.00    +0.312 C 
ATOM     10  H   UNL     1      31.669  -4.825 -20.300  0.00  0.00    +0.159 HD
ATOM     11  H   UNL     1      29.886  -6.347 -23.582  0.00  0.00    +0.159 HD
ENDROOT
BRANCH   6  12
ATOM     12  C   UNL     1      32.734  -9.063 -21.393  0.00  0.00    +0.047 C 
BRANCH  12  13
ATOM     13  C   UNL     1      31.799  -9.437 -20.248  0.00  0.00    +0.112 C 
ATOM     14  C   UNL     1      31.091 -10.754 -20.537  0.00  0.00    +0.032 C 
BRANCH  13  15
ATOM     15  O   UNL     1      32.554  -9.576 -19.047  0.00  0.00    -0.384 OA
ATOM     16  H   UNL     1      32.148  -9.041 -18.347  0.00  0.00    +0.210 HD
ENDBRANCH  13  15
ENDBRANCH  12  13
ENDBRANCH   6  12
BRANCH   6  17
ATOM     17  C   UNL     1      33.656  -7.178 -22.766  0.00  0.00    +0.043 C 
BRANCH  17  18
ATOM     18  C   UNL     1      34.496  -8.341 -23.176  0.00  0.00    -0.025 C 
ATOM     19  C   UNL     1      34.721  -8.682 -24.450  0.00  0.00    -0.005 C 
ENDBRANCH  17  18
ENDBRANCH   6  17
TORSDOF 5
ENDMDL
MODEL 7
REMARK VINA RESULT:      -7.0      1.982      3.937
REMARK  Name = 17336
REMARK  5 active torsions:
REMARK  status: ('A' for Active; 'I' for Inactive)
REMARK    1  A    between atoms: C_6  and  C_12
REMARK    2  A    between atoms: C_6  and  C_17
REMARK    3  A    between atoms: C_12  and  C_13
REMARK    4  A    between atoms: C_13  and  O_15
REMARK    5  A    between atoms: C_17  and  C_18
REMARK                            x       y       z     vdW  Elec       q    Type
REMARK                         _______ _______ _______ _____ _____    ______ ____
ROOT
ATOM      1  O   UNL     1      39.280 -24.490 -13.059  0.00  0.00    -0.274 OA
ATOM      2  O   UNL     1      34.723 -24.907 -14.119  0.00  0.00    -0.274 OA
ATOM      3  O   UNL     1      36.057 -23.907  -9.843  0.00  0.00    -0.252 OA
ATOM      4  N   UNL     1      37.664 -24.102 -11.477  0.00  0.00    -0.239 N 
ATOM      5  N   UNL     1      35.389 -24.311 -12.006  0.00  0.00    -0.239 N 
ATOM      6  C   UNL     1      37.009 -24.147 -13.840  0.00  0.00    +0.144 C 
ATOM      7  C   UNL     1      38.097 -24.291 -12.780  0.00  0.00    +0.237 C 
ATOM      8  C   UNL     1      35.611 -24.519 -13.359  0.00  0.00    +0.237 C 
ATOM      9  C   UNL     1      36.349 -24.078 -11.029  0.00  0.00    +0.312 C 
ATOM     10  H   UNL     1      38.363 -23.972 -10.795  0.00  0.00    +0.159 HD
ATOM     11  H   UNL     1      34.451 -24.331 -11.705  0.00  0.00    +0.159 HD
ENDROOT
BRANCH   6  12
ATOM     12  C   UNL     1      37.372 -24.997 -15.067  0.00  0.00    +0.047 C 
BRANCH  12  13
ATOM     13  C   UNL     1      37.471 -26.478 -14.720  0.00  0.00    +0.112 C 
ATOM     14  C   UNL     1      36.648 -27.316 -15.690  0.00  0.00    +0.032 C 
BRANCH  13  15
ATOM     15  O   UNL     1      38.833 -26.892 -14.798  0.00  0.00    -0.384 OA
ATOM     16  H   UNL     1      38.928 -27.766 -14.390  0.00  0.00    +0.210 HD
ENDBRANCH  13  15
ENDBRANCH  12  13
ENDBRANCH   6  12
BRANCH   6  17
ATOM     17  C   UNL     1      36.967 -22.663 -14.245  0.00  0.00    +0.043 C 
BRANCH  17  18
ATOM     18  C   UNL     1      36.692 -22.519 -15.705  0.00  0.00    -0.025 C 
ATOM     19  C   UNL     1      37.308 -21.629 -16.492  0.00  0.00    -0.005 C 
ENDBRANCH  17  18
ENDBRANCH   6  17
TORSDOF 5
ENDMDL
MODEL 8
REMARK VINA RESULT:      -6.8      1.878      2.786
REMARK  Name = 17336
REMARK  5 active torsions:
REMARK  status: ('A' for Active; 'I' for Inactive)
REMARK    1  A    between atoms: C_6  and  C_12
REMARK    2  A    between atoms: C_6  and  C_17
REMARK    3  A    between atoms: C_12  and  C_13
REMARK    4  A    between atoms: C_13  and  O_15
REMARK    5  A    between atoms: C_17  and  C_18
REMARK                            x       y       z     vdW  Elec       q    Type
REMARK                         _______ _______ _______ _____ _____    ______ ____
ROOT
ATOM      1  O   UNL     1      34.000 -24.687 -14.257  0.00  0.00    -0.274 OA
ATOM      2  O   UNL     1      38.636 -23.946 -14.387  0.00  0.00    -0.274 OA
ATOM      3  O   UNL     1      36.814 -27.748 -16.200  0.00  0.00    -0.252 OA
ATOM      4  N   UNL     1      35.397 -26.167 -15.314  0.00  0.00    -0.239 N 
ATOM      5  N   UNL     1      37.713 -25.797 -15.379  0.00  0.00    -0.239 N 
ATOM      6  C   UNL     1      36.243 -23.927 -14.780  0.00  0.00    +0.144 C 
ATOM      7  C   UNL     1      35.109 -24.946 -14.725  0.00  0.00    +0.237 C 
ATOM      8  C   UNL     1      37.638 -24.542 -14.795  0.00  0.00    +0.237 C 
ATOM      9  C   UNL     1      36.651 -26.641 -15.683  0.00  0.00    +0.312 C 
ATOM     10  H   UNL     1      34.634 -26.764 -15.490  0.00  0.00    +0.159 HD
ATOM     11  H   UNL     1      38.614 -26.127 -15.601  0.00  0.00    +0.159 HD
ENDROOT
BRANCH   6  12
ATOM     12  C   UNL     1      36.122 -22.959 -13.594  0.00  0.00    +0.047 C 
BRANCH  12  13
ATOM     13  C   UNL     1      36.098 -23.697 -12.260  0.00  0.00    +0.112 C 
ATOM     14  C   UNL     1      37.131 -23.117 -11.304  0.00  0.00    +0.032 C 
BRANCH  13  15
ATOM     15  O   UNL     1      34.806 -23.570 -11.673  0.00  0.00    -0.384 OA
ATOM     16  H   UNL     1      34.165 -24.084 -12.188  0.00  0.00    +0.210 HD
ENDBRANCH  13  15
ENDBRANCH  12  13
ENDBRANCH   6  12
BRANCH   6  17
ATOM     17  C   UNL     1      36.081 -23.143 -16.095  0.00  0.00    +0.043 C 
BRANCH  17  18
ATOM     18  C   UNL     1      37.062 -22.022 -16.167  0.00  0.00    -0.025 C 
ATOM     19  C   UNL     1      37.188 -21.213 -17.225  0.00  0.00    -0.005 C 
ENDBRANCH  17  18
ENDBRANCH   6  17
TORSDOF 5
ENDMDL
MODEL 9
REMARK VINA RESULT:      -6.8      1.699      2.504
REMARK  Name = 17336
REMARK  5 active torsions:
REMARK  status: ('A' for Active; 'I' for Inactive)
REMARK    1  A    between atoms: C_6  and  C_12
REMARK    2  A    between atoms: C_6  and  C_17
REMARK    3  A    between atoms: C_12  and  C_13
REMARK    4  A    between atoms: C_13  and  O_15
REMARK    5  A    between atoms: C_17  and  C_18
REMARK                            x       y       z     vdW  Elec       q    Type
REMARK                         _______ _______ _______ _____ _____    ______ ____
ROOT
ATOM      1  O   UNL     1      36.059 -25.968 -15.806  0.00  0.00    -0.274 OA
ATOM      2  O   UNL     1      34.259 -23.835 -12.029  0.00  0.00    -0.274 OA
ATOM      3  O   UNL     1      38.362 -25.882 -11.837  0.00  0.00    -0.252 OA
ATOM      4  N   UNL     1      37.251 -25.838 -13.851  0.00  0.00    -0.239 N 
ATOM      5  N   UNL     1      36.351 -24.773 -11.964  0.00  0.00    -0.239 N 
ATOM      6  C   UNL     1      35.314 -24.363 -14.148  0.00  0.00    +0.144 C 
ATOM      7  C   UNL     1      36.207 -25.476 -14.688  0.00  0.00    +0.237 C 
ATOM      8  C   UNL     1      35.224 -24.312 -12.627  0.00  0.00    +0.237 C 
ATOM      9  C   UNL     1      37.397 -25.509 -12.508  0.00  0.00    +0.312 C 
ATOM     10  H   UNL     1      37.965 -26.388 -14.248  0.00  0.00    +0.159 HD
ATOM     11  H   UNL     1      36.418 -24.557 -11.005  0.00  0.00    +0.159 HD
ENDROOT
BRANCH   6  12
ATOM     12  C   UNL     1      33.904 -24.504 -14.740  0.00  0.00    +0.047 C 
BRANCH  12  13
ATOM     13  C   UNL     1      33.335 -23.157 -15.175  0.00  0.00    +0.112 C 
ATOM     14  C   UNL     1      32.586 -23.288 -16.495  0.00  0.00    +0.032 C 
BRANCH  13  15
ATOM     15  O   UNL     1      32.432 -22.683 -14.180  0.00  0.00    -0.384 OA
ATOM     16  H   UNL     1      31.761 -23.360 -14.003  0.00  0.00    +0.210 HD
ENDBRANCH  13  15
ENDBRANCH  12  13
ENDBRANCH   6  12
BRANCH   6  17
ATOM     17  C   UNL     1      35.927 -23.028 -14.609  0.00  0.00    +0.043 C 
BRANCH  17  18
ATOM     18  C   UNL     1      36.792 -23.228 -15.809  0.00  0.00    -0.025 C 
ATOM     19  C   UNL     1      37.243 -22.228 -16.573  0.00  0.00    -0.005 C 
ENDBRANCH  17  18
ENDBRANCH   6  17
TORSDOF 5
ENDMDL
