MODEL 1
REMARK VINA RESULT:     -11.0      0.000      0.000
REMARK  Name = 56928390
REMARK  4 active torsions:
REMARK  status: ('A' for Active; 'I' for Inactive)
REMARK    1  A    between atoms: C_3  and  C_19
REMARK    2  A    between atoms: C_4  and  C_14
REMARK    3  A    between atoms: C_19  and  N_20
REMARK    4  A    between atoms: C_19  and  C_35
REMARK                            x       y       z     vdW  Elec       q    Type
REMARK                         _______ _______ _______ _____ _____    ______ ____
ROOT
ATOM      1 CL   UNL     1      32.369 -20.983 -20.738  0.00  0.00    -0.103 Cl
ATOM      2  N   UNL     1      32.593 -22.391 -18.131  0.00  0.00    -0.405 NA
ATOM      3  C   UNL     1      33.725 -23.300 -16.202  0.00  0.00    +0.033 C 
ATOM      4  C   UNL     1      32.591 -23.045 -16.947  0.00  0.00    +0.130 C 
ATOM      5  C   UNL     1      34.937 -22.854 -16.707  0.00  0.00    +0.002 C 
ATOM      6  C   UNL     1      34.983 -22.172 -17.931  0.00  0.00    +0.027 C 
ATOM      7  C   UNL     1      33.770 -21.960 -18.619  0.00  0.00    +0.128 C 
ATOM      8  C   UNL     1      36.195 -21.708 -18.469  0.00  0.00    +0.002 C 
ATOM      9  C   UNL     1      33.817 -21.282 -19.835  0.00  0.00    +0.154 C 
ATOM     10  C   UNL     1      36.213 -21.033 -19.687  0.00  0.00    -0.003 C 
ATOM     11  C   UNL     1      35.022 -20.820 -20.370  0.00  0.00    -0.003 C 
ENDROOT
BRANCH   4  14
ATOM     12  O   UNL     1      28.101 -22.036 -15.712  0.00  0.00    -0.163 OA
ATOM     13  N   UNL     1      29.013 -22.906 -15.893  0.00  0.00    -0.127 N 
ATOM     14  C   UNL     1      31.278 -23.466 -16.511  0.00  0.00    +0.050 C 
ATOM     15  C   UNL     1      30.274 -22.525 -16.309  0.00  0.00    +0.124 C 
ATOM     16  C   UNL     1      31.008 -24.813 -16.290  0.00  0.00    +0.006 C 
ATOM     17  C   UNL     1      29.741 -25.207 -15.873  0.00  0.00    +0.022 C 
ATOM     18  C   UNL     1      28.756 -24.246 -15.678  0.00  0.00    +0.121 C 
ENDBRANCH   4  14
BRANCH   3  19
ATOM     19  C   UNL     1      33.686 -24.024 -14.901  0.00  0.00    +0.192 C 
BRANCH  19  20
ATOM     20  N   UNL     1      35.018 -24.141 -14.318  0.00  0.00    -0.308 N 
ATOM     21  N   UNL     1      35.504 -26.034 -15.583  0.00  0.00    -0.228 NA
ATOM     22  N   UNL     1      37.476 -24.210 -13.124  0.00  0.00    -0.240 NA
ATOM     23  N   UNL     1      37.641 -27.098 -15.350  0.00  0.00    -0.247 NA
ATOM     24  C   UNL     1      35.906 -25.136 -14.661  0.00  0.00    +0.145 C 
ATOM     25  C   UNL     1      37.141 -25.142 -14.040  0.00  0.00    +0.126 C 
ATOM     26  C   UNL     1      37.995 -26.178 -14.435  0.00  0.00    +0.081 C 
ATOM     27  C   UNL     1      39.247 -26.219 -13.832  0.00  0.00    +0.075 C 
ATOM     28  C   UNL     1      36.409 -26.976 -15.877  0.00  0.00    +0.252 C 
ATOM     29  C   UNL     1      38.703 -24.292 -12.568  0.00  0.00    +0.095 C 
ATOM     30  C   UNL     1      39.620 -25.272 -12.885  0.00  0.00    +0.001 C 
ATOM     31  H   UNL     1      35.294 -23.476 -13.648  0.00  0.00    +0.149 HD
ENDBRANCH  19  20
BRANCH  19  35
ATOM     32  F   UNL     1      31.668 -24.137 -13.635  0.00  0.00    -0.168 F 
ATOM     33  F   UNL     1      33.401 -23.230 -12.683  0.00  0.00    -0.168 F 
ATOM     34  F   UNL     1      32.335 -22.157 -14.257  0.00  0.00    -0.168 F 
ATOM     35  C   UNL     1      32.763 -23.376 -13.866  0.00  0.00    +0.418 C 
ENDBRANCH  19  35
ENDBRANCH   3  19
TORSDOF 4
ENDMDL
MODEL 2
REMARK VINA RESULT:      -9.0      3.047      6.476
REMARK  Name = 56928390
REMARK  4 active torsions:
REMARK  status: ('A' for Active; 'I' for Inactive)
REMARK    1  A    between atoms: C_3  and  C_19
REMARK    2  A    between atoms: C_4  and  C_14
REMARK    3  A    between atoms: C_19  and  N_20
REMARK    4  A    between atoms: C_19  and  C_35
REMARK                            x       y       z     vdW  Elec       q    Type
REMARK                         _______ _______ _______ _____ _____    ______ ____
ROOT
ATOM      1 CL   UNL     1      35.748 -25.021 -11.199  0.00  0.00    -0.103 Cl
ATOM      2  N   UNL     1      34.610 -24.070 -13.773  0.00  0.00    -0.405 NA
ATOM      3  C   UNL     1      34.663 -23.270 -16.050  0.00  0.00    +0.033 C 
ATOM      4  C   UNL     1      33.996 -23.649 -14.902  0.00  0.00    +0.130 C 
ATOM      5  C   UNL     1      36.048 -23.329 -16.035  0.00  0.00    +0.002 C 
ATOM      6  C   UNL     1      36.724 -23.760 -14.885  0.00  0.00    +0.027 C 
ATOM      7  C   UNL     1      35.954 -24.126 -13.761  0.00  0.00    +0.128 C 
ATOM      8  C   UNL     1      38.126 -23.831 -14.838  0.00  0.00    +0.002 C 
ATOM      9  C   UNL     1      36.626 -24.554 -12.619  0.00  0.00    +0.154 C 
ATOM     10  C   UNL     1      38.772 -24.263 -13.683  0.00  0.00    -0.003 C 
ATOM     11  C   UNL     1      38.020 -24.625 -12.572  0.00  0.00    -0.003 C 
ENDROOT
BRANCH   4  14
ATOM     12  O   UNL     1      29.803 -25.908 -14.792  0.00  0.00    -0.163 OA
ATOM     13  N   UNL     1      30.453 -24.813 -14.762  0.00  0.00    -0.127 N 
ATOM     14  C   UNL     1      32.553 -23.625 -14.813  0.00  0.00    +0.050 C 
ATOM     15  C   UNL     1      31.831 -24.813 -14.846  0.00  0.00    +0.124 C 
ATOM     16  C   UNL     1      31.875 -22.416 -14.692  0.00  0.00    +0.006 C 
ATOM     17  C   UNL     1      30.487 -22.405 -14.605  0.00  0.00    +0.022 C 
ATOM     18  C   UNL     1      29.790 -23.607 -14.641  0.00  0.00    +0.121 C 
ENDBRANCH   4  14
BRANCH   3  19
ATOM     19  C   UNL     1      33.955 -22.811 -17.277  0.00  0.00    +0.192 C 
BRANCH  19  20
ATOM     20  N   UNL     1      34.832 -22.021 -18.133  0.00  0.00    -0.308 N 
ATOM     21  N   UNL     1      33.034 -21.150 -19.328  0.00  0.00    -0.228 NA
ATOM     22  N   UNL     1      36.622 -20.610 -19.643  0.00  0.00    -0.240 NA
ATOM     23  N   UNL     1      33.438 -19.606 -21.119  0.00  0.00    -0.247 NA
ATOM     24  C   UNL     1      34.368 -21.206 -19.142  0.00  0.00    +0.145 C 
ATOM     25  C   UNL     1      35.299 -20.506 -19.886  0.00  0.00    +0.126 C 
ATOM     26  C   UNL     1      34.761 -19.696 -20.893  0.00  0.00    +0.081 C 
ATOM     27  C   UNL     1      35.666 -18.974 -21.664  0.00  0.00    +0.075 C 
ATOM     28  C   UNL     1      32.642 -20.342 -20.321  0.00  0.00    +0.252 C 
ATOM     29  C   UNL     1      37.459 -19.890 -20.419  0.00  0.00    +0.095 C 
ATOM     30  C   UNL     1      37.034 -19.063 -21.437  0.00  0.00    +0.001 C 
ATOM     31  H   UNL     1      35.803 -22.073 -17.982  0.00  0.00    +0.149 HD
ENDBRANCH  19  20
BRANCH  19  35
ATOM     32  F   UNL     1      33.776 -25.159 -17.653  0.00  0.00    -0.168 F 
ATOM     33  F   UNL     1      32.017 -23.942 -18.051  0.00  0.00    -0.168 F 
ATOM     34  F   UNL     1      33.724 -23.870 -19.410  0.00  0.00    -0.168 F 
ATOM     35  C   UNL     1      33.369 -23.953 -18.111  0.00  0.00    +0.418 C 
ENDBRANCH  19  35
ENDBRANCH   3  19
TORSDOF 4
ENDMDL
MODEL 3
REMARK VINA RESULT:      -9.0      0.800      1.723
REMARK  Name = 56928390
REMARK  4 active torsions:
REMARK  status: ('A' for Active; 'I' for Inactive)
REMARK    1  A    between atoms: C_3  and  C_19
REMARK    2  A    between atoms: C_4  and  C_14
REMARK    3  A    between atoms: C_19  and  N_20
REMARK    4  A    between atoms: C_19  and  C_35
REMARK                            x       y       z     vdW  Elec       q    Type
REMARK                         _______ _______ _______ _____ _____    ______ ____
ROOT
ATOM      1 CL   UNL     1      32.268 -20.461 -20.621  0.00  0.00    -0.103 Cl
ATOM      2  N   UNL     1      32.379 -22.210 -18.222  0.00  0.00    -0.405 NA
ATOM      3  C   UNL     1      33.436 -23.477 -16.460  0.00  0.00    +0.033 C 
ATOM      4  C   UNL     1      32.325 -23.007 -17.131  0.00  0.00    +0.130 C 
ATOM      5  C   UNL     1      34.681 -23.103 -16.941  0.00  0.00    +0.002 C 
ATOM      6  C   UNL     1      34.782 -22.278 -18.070  0.00  0.00    +0.027 C 
ATOM      7  C   UNL     1      33.588 -21.849 -18.688  0.00  0.00    +0.128 C 
ATOM      8  C   UNL     1      36.029 -21.881 -18.582  0.00  0.00    +0.002 C 
ATOM      9  C   UNL     1      33.690 -21.029 -19.808  0.00  0.00    +0.154 C 
ATOM     10  C   UNL     1      36.101 -21.060 -19.705  0.00  0.00    -0.003 C 
ATOM     11  C   UNL     1      34.929 -20.634 -20.318  0.00  0.00    -0.003 C 
ENDROOT
BRANCH   4  14
ATOM     12  O   UNL     1      27.897 -21.693 -15.959  0.00  0.00    -0.163 OA
ATOM     13  N   UNL     1      28.751 -22.623 -16.125  0.00  0.00    -0.127 N 
ATOM     14  C   UNL     1      30.981 -23.337 -16.711  0.00  0.00    +0.050 C 
ATOM     15  C   UNL     1      30.040 -22.330 -16.525  0.00  0.00    +0.124 C 
ATOM     16  C   UNL     1      30.618 -24.662 -16.489  0.00  0.00    +0.006 C 
ATOM     17  C   UNL     1      29.322 -24.968 -16.088  0.00  0.00    +0.022 C 
ATOM     18  C   UNL     1      28.401 -23.942 -15.910  0.00  0.00    +0.121 C 
ENDBRANCH   4  14
BRANCH   3  19
ATOM     19  C   UNL     1      33.339 -24.355 -15.260  0.00  0.00    +0.192 C 
BRANCH  19  20
ATOM     20  N   UNL     1      34.598 -25.043 -15.002  0.00  0.00    -0.308 N 
ATOM     21  N   UNL     1      35.667 -23.062 -14.410  0.00  0.00    -0.228 NA
ATOM     22  N   UNL     1      36.874 -26.494 -14.568  0.00  0.00    -0.240 NA
ATOM     23  N   UNL     1      37.975 -23.109 -13.760  0.00  0.00    -0.247 NA
ATOM     24  C   UNL     1      35.740 -24.396 -14.584  0.00  0.00    +0.145 C 
ATOM     25  C   UNL     1      36.873 -25.159 -14.373  0.00  0.00    +0.126 C 
ATOM     26  C   UNL     1      37.997 -24.440 -13.948  0.00  0.00    +0.081 C 
ATOM     27  C   UNL     1      39.158 -25.172 -13.724  0.00  0.00    +0.075 C 
ATOM     28  C   UNL     1      36.806 -22.488 -14.002  0.00  0.00    +0.252 C 
ATOM     29  C   UNL     1      38.026 -27.158 -14.337  0.00  0.00    +0.095 C 
ATOM     30  C   UNL     1      39.188 -26.548 -13.918  0.00  0.00    +0.001 C 
ATOM     31  H   UNL     1      34.633 -26.018 -15.134  0.00  0.00    +0.149 HD
ENDBRANCH  19  20
BRANCH  19  35
ATOM     32  F   UNL     1      32.912 -22.271 -14.181  0.00  0.00    -0.168 F 
ATOM     33  F   UNL     1      31.681 -23.970 -13.606  0.00  0.00    -0.168 F 
ATOM     34  F   UNL     1      33.763 -23.862 -12.957  0.00  0.00    -0.168 F 
ATOM     35  C   UNL     1      32.928 -23.610 -13.987  0.00  0.00    +0.418 C 
ENDBRANCH  19  35
ENDBRANCH   3  19
TORSDOF 4
ENDMDL
