MODEL 1
REMARK VINA RESULT:      -7.0      0.000      0.000
REMARK  Name = 25430
REMARK  8 active torsions:
REMARK  status: ('A' for Active; 'I' for Inactive)
REMARK    1  A    between atoms: C_1  and  C_3
REMARK    2  A    between atoms: C_1  and  C_6
REMARK    3  A    between atoms: C_1  and  C_11
REMARK    4  A    between atoms: C_3  and  C_4
REMARK    5  A    between atoms: C_6  and  O_7
REMARK    6  A    between atoms: O_7  and  N_10
REMARK    7  A    between atoms: C_11  and  O_12
REMARK    8  A    between atoms: O_12  and  N_15
REMARK                            x       y       z     vdW  Elec       q    Type
REMARK                         _______ _______ _______ _____ _____    ______ ____
ROOT
ATOM      1  C   UNL     1      37.323 -25.073 -14.120  0.00  0.00    +0.087 C 
ATOM      2  C   UNL     1      36.794 -26.223 -15.001  0.00  0.00    +0.008 C 
ENDROOT
BRANCH   1   3
ATOM      3  C   UNL     1      37.707 -23.843 -14.995  0.00  0.00    +0.007 C 
BRANCH   3   4
ATOM      4  C   UNL     1      36.539 -23.135 -15.691  0.00  0.00    +0.000 C 
ATOM      5  C   UNL     1      37.036 -22.025 -16.608  0.00  0.00    +0.000 C 
ENDBRANCH   3   4
ENDBRANCH   1   3
BRANCH   1   6
ATOM      6  C   UNL     1      38.598 -25.589 -13.402  0.00  0.00    +0.247 C 
BRANCH   6   7
ATOM      7  O   UNL     1      39.784 -25.060 -13.980  0.00  0.00    -0.336 OA
BRANCH   7  10
ATOM      8  O   UNL     1      40.593 -25.992 -15.818  0.00  0.00    -0.090 OA
ATOM      9  O   UNL     1      41.226 -26.812 -13.843  0.00  0.00    -0.090 OA
ATOM     10  N   UNL     1      40.610 -26.046 -14.587  0.00  0.00    +0.218 N 
ENDBRANCH   7  10
ENDBRANCH   6   7
ENDBRANCH   1   6
BRANCH   1  11
ATOM     11  C   UNL     1      36.234 -24.719 -13.079  0.00  0.00    +0.247 C 
BRANCH  11  12
ATOM     12  O   UNL     1      36.617 -25.105 -11.766  0.00  0.00    -0.336 OA
BRANCH  12  15
ATOM     13  O   UNL     1      35.512 -24.395  -9.982  0.00  0.00    -0.090 OA
ATOM     14  O   UNL     1      37.082 -23.074 -10.856  0.00  0.00    -0.090 OA
ATOM     15  N   UNL     1      36.395 -24.095 -10.789  0.00  0.00    +0.218 N 
ENDBRANCH  12  15
ENDBRANCH  11  12
ENDBRANCH   1  11
TORSDOF 8
ENDMDL
MODEL 2
REMARK VINA RESULT:      -6.7      1.281      1.701
REMARK  Name = 25430
REMARK  8 active torsions:
REMARK  status: ('A' for Active; 'I' for Inactive)
REMARK    1  A    between atoms: C_1  and  C_3
REMARK    2  A    between atoms: C_1  and  C_6
REMARK    3  A    between atoms: C_1  and  C_11
REMARK    4  A    between atoms: C_3  and  C_4
REMARK    5  A    between atoms: C_6  and  O_7
REMARK    6  A    between atoms: O_7  and  N_10
REMARK    7  A    between atoms: C_11  and  O_12
REMARK    8  A    between atoms: O_12  and  N_15
REMARK                            x       y       z     vdW  Elec       q    Type
REMARK                         _______ _______ _______ _____ _____    ______ ____
ROOT
ATOM      1  C   UNL     1      36.697 -23.833 -14.767  0.00  0.00    +0.087 C 
ATOM      2  C   UNL     1      35.975 -25.190 -14.892  0.00  0.00    +0.008 C 
ENDROOT
BRANCH   1   3
ATOM      3  C   UNL     1      36.078 -22.789 -15.742  0.00  0.00    +0.007 C 
BRANCH   3   4
ATOM      4  C   UNL     1      37.084 -21.954 -16.544  0.00  0.00    +0.000 C 
ATOM      5  C   UNL     1      36.597 -21.724 -17.968  0.00  0.00    +0.000 C 
ENDBRANCH   3   4
ENDBRANCH   1   3
BRANCH   1   6
ATOM      6  C   UNL     1      38.181 -24.060 -15.159  0.00  0.00    +0.247 C 
BRANCH   6   7
ATOM      7  O   UNL     1      38.956 -24.524 -14.062  0.00  0.00    -0.336 OA
BRANCH   7  10
ATOM      8  O   UNL     1      41.079 -24.960 -14.509  0.00  0.00    -0.090 OA
ATOM      9  O   UNL     1      39.606 -26.630 -14.617  0.00  0.00    -0.090 OA
ATOM     10  N   UNL     1      39.958 -25.464 -14.429  0.00  0.00    +0.218 N 
ENDBRANCH   7  10
ENDBRANCH   6   7
ENDBRANCH   1   6
BRANCH   1  11
ATOM     11  C   UNL     1      36.602 -23.368 -13.293  0.00  0.00    +0.247 C 
BRANCH  11  12
ATOM     12  O   UNL     1      35.633 -24.112 -12.569  0.00  0.00    -0.336 OA
BRANCH  12  15
ATOM     13  O   UNL     1      37.270 -24.286 -11.087  0.00  0.00    -0.090 OA
ATOM     14  O   UNL     1      35.249 -25.046 -10.532  0.00  0.00    -0.090 OA
ATOM     15  N   UNL     1      36.076 -24.521 -11.280  0.00  0.00    +0.218 N 
ENDBRANCH  12  15
ENDBRANCH  11  12
ENDBRANCH   1  11
TORSDOF 8
ENDMDL
MODEL 3
REMARK VINA RESULT:      -6.7      1.301      4.866
REMARK  Name = 25430
REMARK  8 active torsions:
REMARK  status: ('A' for Active; 'I' for Inactive)
REMARK    1  A    between atoms: C_1  and  C_3
REMARK    2  A    between atoms: C_1  and  C_6
REMARK    3  A    between atoms: C_1  and  C_11
REMARK    4  A    between atoms: C_3  and  C_4
REMARK    5  A    between atoms: C_6  and  O_7
REMARK    6  A    between atoms: O_7  and  N_10
REMARK    7  A    between atoms: C_11  and  O_12
REMARK    8  A    between atoms: O_12  and  N_15
REMARK                            x       y       z     vdW  Elec       q    Type
REMARK                         _______ _______ _______ _____ _____    ______ ____
ROOT
ATOM      1  C   UNL     1      37.070 -25.033 -13.936  0.00  0.00    +0.087 C 
ATOM      2  C   UNL     1      37.520 -23.576 -13.706  0.00  0.00    +0.008 C 
ENDROOT
BRANCH   1   3
ATOM      3  C   UNL     1      35.786 -25.078 -14.816  0.00  0.00    +0.007 C 
BRANCH   3   4
ATOM      4  C   UNL     1      35.366 -23.745 -15.446  0.00  0.00    +0.000 C 
ATOM      5  C   UNL     1      33.852 -23.592 -15.456  0.00  0.00    +0.000 C 
ENDBRANCH   3   4
ENDBRANCH   1   3
BRANCH   1   6
ATOM      6  C   UNL     1      36.740 -25.640 -12.546  0.00  0.00    +0.247 C 
BRANCH   6   7
ATOM      7  O   UNL     1      36.789 -24.665 -11.515  0.00  0.00    -0.336 OA
BRANCH   7  10
ATOM      8  O   UNL     1      35.440 -24.599  -9.761  0.00  0.00    -0.090 OA
ATOM      9  O   UNL     1      34.663 -23.889 -11.726  0.00  0.00    -0.090 OA
ATOM     10  N   UNL     1      35.515 -24.353 -10.965  0.00  0.00    +0.218 N 
ENDBRANCH   7  10
ENDBRANCH   6   7
ENDBRANCH   1   6
BRANCH   1  11
ATOM     11  C   UNL     1      38.241 -25.805 -14.589  0.00  0.00    +0.247 C 
BRANCH  11  12
ATOM     12  O   UNL     1      39.249 -26.130 -13.643  0.00  0.00    -0.336 OA
BRANCH  12  15
ATOM     13  O   UNL     1      40.769 -24.756 -14.484  0.00  0.00    -0.090 OA
ATOM     14  O   UNL     1      41.338 -26.883 -14.129  0.00  0.00    -0.090 OA
ATOM     15  N   UNL     1      40.571 -25.918 -14.124  0.00  0.00    +0.218 N 
ENDBRANCH  12  15
ENDBRANCH  11  12
ENDBRANCH   1  11
TORSDOF 8
ENDMDL
MODEL 4
REMARK VINA RESULT:      -6.6      2.199      2.702
REMARK  Name = 25430
REMARK  8 active torsions:
REMARK  status: ('A' for Active; 'I' for Inactive)
REMARK    1  A    between atoms: C_1  and  C_3
REMARK    2  A    between atoms: C_1  and  C_6
REMARK    3  A    between atoms: C_1  and  C_11
REMARK    4  A    between atoms: C_3  and  C_4
REMARK    5  A    between atoms: C_6  and  O_7
REMARK    6  A    between atoms: O_7  and  N_10
REMARK    7  A    between atoms: C_11  and  O_12
REMARK    8  A    between atoms: O_12  and  N_15
REMARK                            x       y       z     vdW  Elec       q    Type
REMARK                         _______ _______ _______ _____ _____    ______ ____
ROOT
ATOM      1  C   UNL     1      35.014 -23.898 -14.523  0.00  0.00    +0.087 C 
ATOM      2  C   UNL     1      33.496 -23.980 -14.263  0.00  0.00    +0.008 C 
ENDROOT
BRANCH   1   3
ATOM      3  C   UNL     1      35.328 -22.828 -15.611  0.00  0.00    +0.007 C 
BRANCH   3   4
ATOM      4  C   UNL     1      36.794 -22.387 -15.702  0.00  0.00    +0.000 C 
ATOM      5  C   UNL     1      37.062 -21.632 -16.996  0.00  0.00    +0.000 C 
ENDBRANCH   3   4
ENDBRANCH   1   3
BRANCH   1   6
ATOM      6  C   UNL     1      35.470 -25.286 -15.045  0.00  0.00    +0.247 C 
BRANCH   6   7
ATOM      7  O   UNL     1      36.860 -25.500 -14.841  0.00  0.00    -0.336 OA
BRANCH   7  10
ATOM      8  O   UNL     1      36.648 -27.254 -16.175  0.00  0.00    -0.090 OA
ATOM      9  O   UNL     1      38.252 -27.284 -14.627  0.00  0.00    -0.090 OA
ATOM     10  N   UNL     1      37.302 -26.791 -15.239  0.00  0.00    +0.218 N 
ENDBRANCH   7  10
ENDBRANCH   6   7
ENDBRANCH   1   6
BRANCH   1  11
ATOM     11  C   UNL     1      35.719 -23.577 -13.183  0.00  0.00    +0.247 C 
BRANCH  11  12
ATOM     12  O   UNL     1      34.918 -23.941 -12.067  0.00  0.00    -0.336 OA
BRANCH  12  15
ATOM     13  O   UNL     1      36.352 -25.561 -11.596  0.00  0.00    -0.090 OA
ATOM     14  O   UNL     1      35.405 -24.456  -9.907  0.00  0.00    -0.090 OA
ATOM     15  N   UNL     1      35.613 -24.712 -11.095  0.00  0.00    +0.218 N 
ENDBRANCH  12  15
ENDBRANCH  11  12
ENDBRANCH   1  11
TORSDOF 8
ENDMDL
MODEL 5
REMARK VINA RESULT:      -6.5      8.011      9.664
REMARK  Name = 25430
REMARK  8 active torsions:
REMARK  status: ('A' for Active; 'I' for Inactive)
REMARK    1  A    between atoms: C_1  and  C_3
REMARK    2  A    between atoms: C_1  and  C_6
REMARK    3  A    between atoms: C_1  and  C_11
REMARK    4  A    between atoms: C_3  and  C_4
REMARK    5  A    between atoms: C_6  and  O_7
REMARK    6  A    between atoms: O_7  and  N_10
REMARK    7  A    between atoms: C_11  and  O_12
REMARK    8  A    between atoms: O_12  and  N_15
REMARK                            x       y       z     vdW  Elec       q    Type
REMARK                         _______ _______ _______ _____ _____    ______ ____
ROOT
ATOM      1  C   UNL     1      30.200 -23.401 -15.598  0.00  0.00    +0.087 C 
ATOM      2  C   UNL     1      29.933 -24.890 -15.899  0.00  0.00    +0.008 C 
ENDROOT
BRANCH   1   3
ATOM      3  C   UNL     1      30.853 -23.232 -14.194  0.00  0.00    +0.007 C 
BRANCH   3   4
ATOM      4  C   UNL     1      31.509 -24.491 -13.614  0.00  0.00    +0.000 C 
ATOM      5  C   UNL     1      33.025 -24.356 -13.582  0.00  0.00    +0.000 C 
ENDBRANCH   3   4
ENDBRANCH   1   3
BRANCH   1   6
ATOM      6  C   UNL     1      28.828 -22.675 -15.598  0.00  0.00    +0.247 C 
BRANCH   6   7
ATOM      7  O   UNL     1      28.622 -21.929 -16.789  0.00  0.00    -0.336 OA
BRANCH   7  10
ATOM      8  O   UNL     1      27.274 -23.373 -17.788  0.00  0.00    -0.090 OA
ATOM      9  O   UNL     1      26.578 -21.270 -17.534  0.00  0.00    -0.090 OA
ATOM     10  N   UNL     1      27.379 -22.201 -17.424  0.00  0.00    +0.218 N 
ENDBRANCH   7  10
ENDBRANCH   6   7
ENDBRANCH   1   6
BRANCH   1  11
ATOM     11  C   UNL     1      31.101 -22.833 -16.721  0.00  0.00    +0.247 C 
BRANCH  11  12
ATOM     12  O   UNL     1      32.333 -23.534 -16.811  0.00  0.00    -0.336 OA
BRANCH  12  15
ATOM     13  O   UNL     1      34.411 -23.252 -17.525  0.00  0.00    -0.090 OA
ATOM     14  O   UNL     1      32.751 -22.326 -18.691  0.00  0.00    -0.090 OA
ATOM     15  N   UNL     1      33.232 -22.984 -17.766  0.00  0.00    +0.218 N 
ENDBRANCH  12  15
ENDBRANCH  11  12
ENDBRANCH   1  11
TORSDOF 8
ENDMDL
MODEL 6
REMARK VINA RESULT:      -6.4      9.789     11.634
REMARK  Name = 25430
REMARK  8 active torsions:
REMARK  status: ('A' for Active; 'I' for Inactive)
REMARK    1  A    between atoms: C_1  and  C_3
REMARK    2  A    between atoms: C_1  and  C_6
REMARK    3  A    between atoms: C_1  and  C_11
REMARK    4  A    between atoms: C_3  and  C_4
REMARK    5  A    between atoms: C_6  and  O_7
REMARK    6  A    between atoms: O_7  and  N_10
REMARK    7  A    between atoms: C_11  and  O_12
REMARK    8  A    between atoms: O_12  and  N_15
REMARK                            x       y       z     vdW  Elec       q    Type
REMARK                         _______ _______ _______ _____ _____    ______ ____
ROOT
ATOM      1  C   UNL     1      34.680 -18.784 -21.694  0.00  0.00    +0.087 C 
ATOM      2  C   UNL     1      36.127 -18.766 -21.161  0.00  0.00    +0.008 C 
ENDROOT
BRANCH   1   3
ATOM      3  C   UNL     1      33.975 -17.423 -21.414  0.00  0.00    +0.007 C 
BRANCH   3   4
ATOM      4  C   UNL     1      34.879 -16.305 -20.884  0.00  0.00    +0.000 C 
ATOM      5  C   UNL     1      34.095 -15.019 -20.665  0.00  0.00    +0.000 C 
ENDBRANCH   3   4
ENDBRANCH   1   3
BRANCH   1   6
ATOM      6  C   UNL     1      33.919 -19.902 -20.934  0.00  0.00    +0.247 C 
BRANCH   6   7
ATOM      7  O   UNL     1      34.786 -20.670 -20.111  0.00  0.00    -0.336 OA
BRANCH   7  10
ATOM      8  O   UNL     1      34.962 -22.536 -18.934  0.00  0.00    -0.090 OA
ATOM      9  O   UNL     1      32.967 -21.988 -19.766  0.00  0.00    -0.090 OA
ATOM     10  N   UNL     1      34.172 -21.829 -19.561  0.00  0.00    +0.218 N 
ENDBRANCH   7  10
ENDBRANCH   6   7
ENDBRANCH   1   6
BRANCH   1  11
ATOM     11  C   UNL     1      34.724 -19.106 -23.208  0.00  0.00    +0.247 C 
BRANCH  11  12
ATOM     12  O   UNL     1      35.318 -18.051 -23.952  0.00  0.00    -0.336 OA
BRANCH  12  15
ATOM     13  O   UNL     1      33.761 -18.573 -25.438  0.00  0.00    -0.090 OA
ATOM     14  O   UNL     1      34.936 -16.703 -25.742  0.00  0.00    -0.090 OA
ATOM     15  N   UNL     1      34.618 -17.736 -25.150  0.00  0.00    +0.218 N 
ENDBRANCH  12  15
ENDBRANCH  11  12
ENDBRANCH   1  11
TORSDOF 8
ENDMDL
MODEL 7
REMARK VINA RESULT:      -6.4     10.506     12.380
REMARK  Name = 25430
REMARK  8 active torsions:
REMARK  status: ('A' for Active; 'I' for Inactive)
REMARK    1  A    between atoms: C_1  and  C_3
REMARK    2  A    between atoms: C_1  and  C_6
REMARK    3  A    between atoms: C_1  and  C_11
REMARK    4  A    between atoms: C_3  and  C_4
REMARK    5  A    between atoms: C_6  and  O_7
REMARK    6  A    between atoms: O_7  and  N_10
REMARK    7  A    between atoms: C_11  and  O_12
REMARK    8  A    between atoms: O_12  and  N_15
REMARK                            x       y       z     vdW  Elec       q    Type
REMARK                         _______ _______ _______ _____ _____    ______ ____
ROOT
ATOM      1  C   UNL     1      34.890 -18.920 -21.531  0.00  0.00    +0.087 C 
ATOM      2  C   UNL     1      33.511 -19.382 -21.018  0.00  0.00    +0.008 C 
ENDROOT
BRANCH   1   3
ATOM      3  C   UNL     1      36.033 -19.680 -20.796  0.00  0.00    +0.007 C 
BRANCH   3   4
ATOM      4  C   UNL     1      35.644 -21.032 -20.186  0.00  0.00    +0.000 C 
ATOM      5  C   UNL     1      36.478 -21.338 -18.949  0.00  0.00    +0.000 C 
ENDBRANCH   3   4
ENDBRANCH   1   3
BRANCH   1   6
ATOM      6  C   UNL     1      35.018 -17.406 -21.217  0.00  0.00    +0.247 C 
BRANCH   6   7
ATOM      7  O   UNL     1      33.751 -16.767 -21.158  0.00  0.00    -0.336 OA
BRANCH   7  10
ATOM      8  O   UNL     1      34.927 -15.112 -20.276  0.00  0.00    -0.090 OA
ATOM      9  O   UNL     1      32.703 -14.948 -20.286  0.00  0.00    -0.090 OA
ATOM     10  N   UNL     1      33.782 -15.497 -20.518  0.00  0.00    +0.218 N 
ENDBRANCH   7  10
ENDBRANCH   6   7
ENDBRANCH   1   6
BRANCH   1  11
ATOM     11  C   UNL     1      34.940 -19.151 -23.061  0.00  0.00    +0.247 C 
BRANCH  11  12
ATOM     12  O   UNL     1      35.295 -17.966 -23.760  0.00  0.00    -0.336 OA
BRANCH  12  15
ATOM     13  O   UNL     1      33.817 -18.720 -25.226  0.00  0.00    -0.090 OA
ATOM     14  O   UNL     1      34.943 -16.858 -25.713  0.00  0.00    -0.090 OA
ATOM     15  N   UNL     1      34.634 -17.823 -25.011  0.00  0.00    +0.218 N 
ENDBRANCH  12  15
ENDBRANCH  11  12
ENDBRANCH   1  11
TORSDOF 8
ENDMDL
MODEL 8
REMARK VINA RESULT:      -6.4      9.394     10.845
REMARK  Name = 25430
REMARK  8 active torsions:
REMARK  status: ('A' for Active; 'I' for Inactive)
REMARK    1  A    between atoms: C_1  and  C_3
REMARK    2  A    between atoms: C_1  and  C_6
REMARK    3  A    between atoms: C_1  and  C_11
REMARK    4  A    between atoms: C_3  and  C_4
REMARK    5  A    between atoms: C_6  and  O_7
REMARK    6  A    between atoms: O_7  and  N_10
REMARK    7  A    between atoms: C_11  and  O_12
REMARK    8  A    between atoms: O_12  and  N_15
REMARK                            x       y       z     vdW  Elec       q    Type
REMARK                         _______ _______ _______ _____ _____    ______ ____
ROOT
ATOM      1  C   UNL     1      34.608 -19.212 -21.492  0.00  0.00    +0.087 C 
ATOM      2  C   UNL     1      36.017 -19.272 -20.870  0.00  0.00    +0.008 C 
ENDROOT
BRANCH   1   3
ATOM      3  C   UNL     1      34.673 -19.473 -23.026  0.00  0.00    +0.007 C 
BRANCH   3   4
ATOM      4  C   UNL     1      35.345 -18.375 -23.857  0.00  0.00    +0.000 C 
ATOM      5  C   UNL     1      34.475 -17.966 -25.037  0.00  0.00    +0.000 C 
ENDBRANCH   3   4
ENDBRANCH   1   3
BRANCH   1   6
ATOM      6  C   UNL     1      34.057 -17.780 -21.256  0.00  0.00    +0.247 C 
BRANCH   6   7
ATOM      7  O   UNL     1      35.046 -16.913 -20.719  0.00  0.00    -0.336 OA
BRANCH   7  10
ATOM      8  O   UNL     1      34.646 -15.411 -22.296  0.00  0.00    -0.090 OA
ATOM      9  O   UNL     1      34.967 -14.699 -20.208  0.00  0.00    -0.090 OA
ATOM     10  N   UNL     1      34.873 -15.551 -21.094  0.00  0.00    +0.218 N 
ENDBRANCH   7  10
ENDBRANCH   6   7
ENDBRANCH   1   6
BRANCH   1  11
ATOM     11  C   UNL     1      33.715 -20.250 -20.770  0.00  0.00    +0.247 C 
BRANCH  11  12
ATOM     12  O   UNL     1      34.409 -20.895 -19.712  0.00  0.00    -0.336 OA
BRANCH  12  15
ATOM     13  O   UNL     1      32.679 -22.043 -18.941  0.00  0.00    -0.090 OA
ATOM     14  O   UNL     1      34.549 -23.148 -19.446  0.00  0.00    -0.090 OA
ATOM     15  N   UNL     1      33.841 -22.145 -19.338  0.00  0.00    +0.218 N 
ENDBRANCH  12  15
ENDBRANCH  11  12
ENDBRANCH   1  11
TORSDOF 8
ENDMDL
MODEL 9
REMARK VINA RESULT:      -6.4     11.185     12.441
REMARK  Name = 25430
REMARK  8 active torsions:
REMARK  status: ('A' for Active; 'I' for Inactive)
REMARK    1  A    between atoms: C_1  and  C_3
REMARK    2  A    between atoms: C_1  and  C_6
REMARK    3  A    between atoms: C_1  and  C_11
REMARK    4  A    between atoms: C_3  and  C_4
REMARK    5  A    between atoms: C_6  and  O_7
REMARK    6  A    between atoms: O_7  and  N_10
REMARK    7  A    between atoms: C_11  and  O_12
REMARK    8  A    between atoms: O_12  and  N_15
REMARK                            x       y       z     vdW  Elec       q    Type
REMARK                         _______ _______ _______ _____ _____    ______ ____
ROOT
ATOM      1  C   UNL     1      35.087 -18.485 -21.661  0.00  0.00    +0.087 C 
ATOM      2  C   UNL     1      36.458 -18.978 -21.154  0.00  0.00    +0.008 C 
ENDROOT
BRANCH   1   3
ATOM      3  C   UNL     1      33.932 -19.272 -20.974  0.00  0.00    +0.007 C 
BRANCH   3   4
ATOM      4  C   UNL     1      34.348 -20.552 -20.239  0.00  0.00    +0.000 C 
ATOM      5  C   UNL     1      33.160 -21.195 -19.538  0.00  0.00    +0.000 C 
ENDBRANCH   3   4
ENDBRANCH   1   3
BRANCH   1   6
ATOM      6  C   UNL     1      35.033 -18.756 -23.188  0.00  0.00    +0.247 C 
BRANCH   6   7
ATOM      7  O   UNL     1      35.319 -17.588 -23.945  0.00  0.00    -0.336 OA
BRANCH   7  10
ATOM      8  O   UNL     1      34.863 -16.500 -25.818  0.00  0.00    -0.090 OA
ATOM      9  O   UNL     1      33.841 -18.446 -25.445  0.00  0.00    -0.090 OA
ATOM     10  N   UNL     1      34.606 -17.517 -25.174  0.00  0.00    +0.218 N 
ENDBRANCH   7  10
ENDBRANCH   6   7
ENDBRANCH   1   6
BRANCH   1  11
ATOM     11  C   UNL     1      34.987 -16.965 -21.388  0.00  0.00    +0.247 C 
BRANCH  11  12
ATOM     12  O   UNL     1      33.637 -16.542 -21.262  0.00  0.00    -0.336 OA
BRANCH  12  15
ATOM     13  O   UNL     1      32.195 -14.942 -21.778  0.00  0.00    -0.090 OA
ATOM     14  O   UNL     1      34.291 -14.761 -22.515  0.00  0.00    -0.090 OA
ATOM     15  N   UNL     1      33.364 -15.306 -21.912  0.00  0.00    +0.218 N 
ENDBRANCH  12  15
ENDBRANCH  11  12
ENDBRANCH   1  11
TORSDOF 8
ENDMDL
