MODEL 1
REMARK VINA RESULT:      -6.7      0.000      0.000
REMARK  Name = 1629
REMARK  6 active torsions:
REMARK  status: ('A' for Active; 'I' for Inactive)
REMARK    1  A    between atoms: C_2  and  C_11
REMARK    2  A    between atoms: CA_3  and  C_8
REMARK    3  A    between atoms: C_8  and  O_9
REMARK    4  A    between atoms: C_11  and  P_12
REMARK    5  A    between atoms: P_12  and  O_14
REMARK    6  A    between atoms: P_12  and  O_16
REMARK                            x       y       z     vdW  Elec       q    Type
REMARK                         _______ _______ _______ _____ _____    ______ ____
ROOT
ATOM      1  N   UNL     1      35.317 -24.678 -12.801  0.00  0.00    -0.238 NA
ATOM      2  C   UNL     1      37.524 -24.296 -13.711  0.00  0.00    +0.014 C 
ATOM      3  CA  UNL     1      36.211 -24.722 -13.815  0.00  0.00    +0.153 C 
ATOM      4  C   UNL     1      37.950 -23.791 -12.488  0.00  0.00    -0.000 C 
ATOM      5  C   UNL     1      37.060 -23.728 -11.420  0.00  0.00    +0.020 C 
ATOM      6  C   UNL     1      35.767 -24.180 -11.627  0.00  0.00    +0.099 C 
ENDROOT
BRANCH   3   8
ATOM      7  OXT UNL     1      35.172 -24.624 -15.973  0.00  0.00    -0.243 OA
ATOM      8  C   UNL     1      35.690 -25.265 -15.062  0.00  0.00    +0.356 C 
BRANCH   8   9
ATOM      9  O   UNL     1      35.838 -26.617 -15.130  0.00  0.00    -0.476 OA
ATOM     10  H   UNL     1      35.814 -27.131 -14.347  0.00  0.00    +0.295 HD
ENDBRANCH   8   9
ENDBRANCH   3   8
BRANCH   2  11
ATOM     11  C   UNL     1      38.474 -24.365 -14.857  0.00  0.00    +0.144 C 
BRANCH  11  12
ATOM     12  P   UNL     1      39.699 -25.692 -14.715  0.00  0.00    +0.341 P 
ATOM     13  O   UNL     1      40.729 -25.440 -13.673  0.00  0.00    -0.258 OA
BRANCH  12  14
ATOM     14  O   UNL     1      40.230 -25.831 -16.227  0.00  0.00    -0.323 OA
ATOM     15  H   UNL     1      39.490 -26.055 -16.811  0.00  0.00    +0.220 HD
ENDBRANCH  12  14
BRANCH  12  16
ATOM     16  O   UNL     1      38.773 -26.991 -14.506  0.00  0.00    -0.323 OA
ATOM     17  H   UNL     1      39.298 -27.792 -14.663  0.00  0.00    +0.220 HD
ENDBRANCH  12  16
ENDBRANCH  11  12
ENDBRANCH   2  11
TORSDOF 6
ENDMDL
MODEL 2
REMARK VINA RESULT:      -6.6      2.400      3.641
REMARK  Name = 1629
REMARK  6 active torsions:
REMARK  status: ('A' for Active; 'I' for Inactive)
REMARK    1  A    between atoms: C_2  and  C_11
REMARK    2  A    between atoms: CA_3  and  C_8
REMARK    3  A    between atoms: C_8  and  O_9
REMARK    4  A    between atoms: C_11  and  P_12
REMARK    5  A    between atoms: P_12  and  O_14
REMARK    6  A    between atoms: P_12  and  O_16
REMARK                            x       y       z     vdW  Elec       q    Type
REMARK                         _______ _______ _______ _____ _____    ______ ____
ROOT
ATOM      1  N   UNL     1      33.745 -23.911 -12.811  0.00  0.00    -0.238 NA
ATOM      2  C   UNL     1      35.577 -24.423 -14.303  0.00  0.00    +0.014 C 
ATOM      3  CA  UNL     1      35.035 -24.246 -13.041  0.00  0.00    +0.153 C 
ATOM      4  C   UNL     1      34.743 -24.248 -15.401  0.00  0.00    -0.000 C 
ATOM      5  C   UNL     1      33.410 -23.903 -15.206  0.00  0.00    +0.020 C 
ATOM      6  C   UNL     1      32.964 -23.748 -13.903  0.00  0.00    +0.099 C 
ENDROOT
BRANCH   3   8
ATOM      7  OXT UNL     1      35.956 -25.437 -11.176  0.00  0.00    -0.243 OA
ATOM      8  C   UNL     1      35.844 -24.411 -11.842  0.00  0.00    +0.356 C 
BRANCH   8   9
ATOM      9  O   UNL     1      36.500 -23.265 -11.509  0.00  0.00    -0.476 OA
ATOM     10  H   UNL     1      37.425 -23.281 -11.358  0.00  0.00    +0.295 HD
ENDBRANCH   8   9
ENDBRANCH   3   8
BRANCH   2  11
ATOM     11  C   UNL     1      37.006 -24.792 -14.508  0.00  0.00    +0.144 C 
BRANCH  11  12
ATOM     12  P   UNL     1      37.276 -26.563 -14.773  0.00  0.00    +0.341 P 
ATOM     13  O   UNL     1      36.650 -27.079 -16.019  0.00  0.00    -0.258 OA
BRANCH  12  14
ATOM     14  O   UNL     1      36.750 -27.201 -13.393  0.00  0.00    -0.323 OA
ATOM     15  H   UNL     1      35.824 -27.471 -13.493  0.00  0.00    +0.220 HD
ENDBRANCH  12  14
BRANCH  12  16
ATOM     16  O   UNL     1      38.877 -26.684 -14.674  0.00  0.00    -0.323 OA
ATOM     17  H   UNL     1      39.140 -26.751 -13.742  0.00  0.00    +0.220 HD
ENDBRANCH  12  16
ENDBRANCH  11  12
ENDBRANCH   2  11
TORSDOF 6
ENDMDL
MODEL 3
REMARK VINA RESULT:      -6.6      2.135      2.961
REMARK  Name = 1629
REMARK  6 active torsions:
REMARK  status: ('A' for Active; 'I' for Inactive)
REMARK    1  A    between atoms: C_2  and  C_11
REMARK    2  A    between atoms: CA_3  and  C_8
REMARK    3  A    between atoms: C_8  and  O_9
REMARK    4  A    between atoms: C_11  and  P_12
REMARK    5  A    between atoms: P_12  and  O_14
REMARK    6  A    between atoms: P_12  and  O_16
REMARK                            x       y       z     vdW  Elec       q    Type
REMARK                         _______ _______ _______ _____ _____    ______ ____
ROOT
ATOM      1  N   UNL     1      34.764 -23.820 -12.292  0.00  0.00    -0.238 NA
ATOM      2  C   UNL     1      36.300 -24.089 -14.140  0.00  0.00    +0.014 C 
ATOM      3  CA  UNL     1      36.012 -23.815 -12.813  0.00  0.00    +0.153 C 
ATOM      4  C   UNL     1      35.240 -24.388 -14.987  0.00  0.00    -0.000 C 
ATOM      5  C   UNL     1      33.941 -24.404 -14.489  0.00  0.00    +0.020 C 
ATOM      6  C   UNL     1      33.759 -24.115 -13.146  0.00  0.00    +0.099 C 
ENDROOT
BRANCH   3   8
ATOM      7  OXT UNL     1      37.499 -22.370 -11.609  0.00  0.00    -0.243 OA
ATOM      8  C   UNL     1      37.067 -23.491 -11.863  0.00  0.00    +0.356 C 
BRANCH   8   9
ATOM      9  O   UNL     1      37.557 -24.604 -11.248  0.00  0.00    -0.476 OA
ATOM     10  H   UNL     1      38.476 -24.685 -11.087  0.00  0.00    +0.295 HD
ENDBRANCH   8   9
ENDBRANCH   3   8
BRANCH   2  11
ATOM     11  C   UNL     1      37.692 -24.070 -14.670  0.00  0.00    +0.144 C 
BRANCH  11  12
ATOM     12  P   UNL     1      38.483 -25.700 -14.709  0.00  0.00    +0.341 P 
ATOM     13  O   UNL     1      38.708 -26.282 -13.360  0.00  0.00    -0.258 OA
BRANCH  12  14
ATOM     14  O   UNL     1      39.796 -25.422 -15.596  0.00  0.00    -0.323 OA
ATOM     15  H   UNL     1      40.587 -25.542 -15.049  0.00  0.00    +0.220 HD
ENDBRANCH  12  14
BRANCH  12  16
ATOM     16  O   UNL     1      37.515 -26.526 -15.692  0.00  0.00    -0.323 OA
ATOM     17  H   UNL     1      36.666 -26.688 -15.250  0.00  0.00    +0.220 HD
ENDBRANCH  12  16
ENDBRANCH  11  12
ENDBRANCH   2  11
TORSDOF 6
ENDMDL
MODEL 4
REMARK VINA RESULT:      -6.5      1.882      2.685
REMARK  Name = 1629
REMARK  6 active torsions:
REMARK  status: ('A' for Active; 'I' for Inactive)
REMARK    1  A    between atoms: C_2  and  C_11
REMARK    2  A    between atoms: CA_3  and  C_8
REMARK    3  A    between atoms: C_8  and  O_9
REMARK    4  A    between atoms: C_11  and  P_12
REMARK    5  A    between atoms: P_12  and  O_14
REMARK    6  A    between atoms: P_12  and  O_16
REMARK                            x       y       z     vdW  Elec       q    Type
REMARK                         _______ _______ _______ _____ _____    ______ ____
ROOT
ATOM      1  N   UNL     1      35.594 -24.235 -13.719  0.00  0.00    -0.238 NA
ATOM      2  C   UNL     1      37.971 -24.252 -14.160  0.00  0.00    +0.014 C 
ATOM      3  CA  UNL     1      36.864 -24.563 -13.388  0.00  0.00    +0.153 C 
ATOM      4  C   UNL     1      37.764 -23.561 -15.348  0.00  0.00    -0.000 C 
ATOM      5  C   UNL     1      36.472 -23.206 -15.723  0.00  0.00    +0.020 C 
ATOM      6  C   UNL     1      35.431 -23.563 -14.881  0.00  0.00    +0.099 C 
ENDROOT
BRANCH   3   8
ATOM      7  OXT UNL     1      37.007 -26.504 -11.990  0.00  0.00    -0.243 OA
ATOM      8  C   UNL     1      36.999 -25.284 -12.131  0.00  0.00    +0.356 C 
BRANCH   8   9
ATOM      9  O   UNL     1      37.121 -24.439 -11.070  0.00  0.00    -0.476 OA
ATOM     10  H   UNL     1      37.861 -24.507 -10.499  0.00  0.00    +0.295 HD
ENDBRANCH   8   9
ENDBRANCH   3   8
BRANCH   2  11
ATOM     11  C   UNL     1      39.353 -24.634 -13.755  0.00  0.00    +0.144 C 
BRANCH  11  12
ATOM     12  P   UNL     1      39.972 -26.125 -14.577  0.00  0.00    +0.341 P 
ATOM     13  O   UNL     1      41.137 -26.741 -13.889  0.00  0.00    -0.258 OA
BRANCH  12  14
ATOM     14  O   UNL     1      40.220 -25.610 -16.081  0.00  0.00    -0.323 OA
ATOM     15  H   UNL     1      40.736 -26.270 -16.568  0.00  0.00    +0.220 HD
ENDBRANCH  12  14
BRANCH  12  16
ATOM     16  O   UNL     1      38.647 -27.030 -14.688  0.00  0.00    -0.323 OA
ATOM     17  H   UNL     1      38.157 -26.991 -13.850  0.00  0.00    +0.220 HD
ENDBRANCH  12  16
ENDBRANCH  11  12
ENDBRANCH   2  11
TORSDOF 6
ENDMDL
MODEL 5
REMARK VINA RESULT:      -6.5      2.998      4.356
REMARK  Name = 1629
REMARK  6 active torsions:
REMARK  status: ('A' for Active; 'I' for Inactive)
REMARK    1  A    between atoms: C_2  and  C_11
REMARK    2  A    between atoms: CA_3  and  C_8
REMARK    3  A    between atoms: C_8  and  O_9
REMARK    4  A    between atoms: C_11  and  P_12
REMARK    5  A    between atoms: P_12  and  O_14
REMARK    6  A    between atoms: P_12  and  O_16
REMARK                            x       y       z     vdW  Elec       q    Type
REMARK                         _______ _______ _______ _____ _____    ______ ____
ROOT
ATOM      1  N   UNL     1      38.235 -23.188 -15.908  0.00  0.00    -0.238 NA
ATOM      2  C   UNL     1      36.589 -24.149 -14.420  0.00  0.00    +0.014 C 
ATOM      3  CA  UNL     1      37.866 -24.070 -14.950  0.00  0.00    +0.153 C 
ATOM      4  C   UNL     1      35.627 -23.269 -14.903  0.00  0.00    -0.000 C 
ATOM      5  C   UNL     1      35.968 -22.348 -15.888  0.00  0.00    +0.020 C 
ATOM      6  C   UNL     1      37.273 -22.349 -16.353  0.00  0.00    +0.099 C 
ENDROOT
BRANCH   3   8
ATOM      7  OXT UNL     1      39.647 -24.790 -13.517  0.00  0.00    -0.243 OA
ATOM      8  C   UNL     1      38.928 -24.957 -14.498  0.00  0.00    +0.356 C 
BRANCH   8   9
ATOM      9  O   UNL     1      39.058 -26.047 -15.305  0.00  0.00    -0.476 OA
ATOM     10  H   UNL     1      39.441 -25.958 -16.155  0.00  0.00    +0.295 HD
ENDBRANCH   8   9
ENDBRANCH   3   8
BRANCH   2  11
ATOM     11  C   UNL     1      36.228 -25.138 -13.365  0.00  0.00    +0.144 C 
BRANCH  11  12
ATOM     12  P   UNL     1      36.270 -24.464 -11.684  0.00  0.00    +0.341 P 
ATOM     13  O   UNL     1      35.256 -25.065 -10.779  0.00  0.00    -0.258 OA
BRANCH  12  14
ATOM     14  O   UNL     1      36.147 -22.881 -11.946  0.00  0.00    -0.323 OA
ATOM     15  H   UNL     1      35.542 -22.493 -11.297  0.00  0.00    +0.220 HD
ENDBRANCH  12  14
BRANCH  12  16
ATOM     16  O   UNL     1      37.811 -24.673 -11.271  0.00  0.00    -0.323 OA
ATOM     17  H   UNL     1      38.243 -25.256 -11.916  0.00  0.00    +0.220 HD
ENDBRANCH  12  16
ENDBRANCH  11  12
ENDBRANCH   2  11
TORSDOF 6
ENDMDL
MODEL 6
REMARK VINA RESULT:      -6.2      2.256      3.057
REMARK  Name = 1629
REMARK  6 active torsions:
REMARK  status: ('A' for Active; 'I' for Inactive)
REMARK    1  A    between atoms: C_2  and  C_11
REMARK    2  A    between atoms: CA_3  and  C_8
REMARK    3  A    between atoms: C_8  and  O_9
REMARK    4  A    between atoms: C_11  and  P_12
REMARK    5  A    between atoms: P_12  and  O_14
REMARK    6  A    between atoms: P_12  and  O_16
REMARK                            x       y       z     vdW  Elec       q    Type
REMARK                         _______ _______ _______ _____ _____    ______ ____
ROOT
ATOM      1  N   UNL     1      34.950 -23.269 -16.588  0.00  0.00    -0.238 NA
ATOM      2  C   UNL     1      36.936 -23.410 -15.216  0.00  0.00    +0.014 C 
ATOM      3  CA  UNL     1      35.635 -23.764 -15.531  0.00  0.00    +0.153 C 
ATOM      4  C   UNL     1      37.578 -22.489 -16.036  0.00  0.00    -0.000 C 
ATOM      5  C   UNL     1      36.907 -21.957 -17.132  0.00  0.00    +0.020 C 
ATOM      6  C   UNL     1      35.606 -22.376 -17.362  0.00  0.00    +0.099 C 
ENDROOT
BRANCH   3   8
ATOM      7  OXT UNL     1      34.092 -24.453 -13.831  0.00  0.00    -0.243 OA
ATOM      8  C   UNL     1      34.895 -24.721 -14.721  0.00  0.00    +0.356 C 
BRANCH   8   9
ATOM      9  O   UNL     1      35.190 -26.007 -15.058  0.00  0.00    -0.476 OA
ATOM     10  H   UNL     1      34.710 -26.435 -15.740  0.00  0.00    +0.295 HD
ENDBRANCH   8   9
ENDBRANCH   3   8
BRANCH   2  11
ATOM     11  C   UNL     1      37.651 -23.982 -14.040  0.00  0.00    +0.144 C 
BRANCH  11  12
ATOM     12  P   UNL     1      38.883 -25.238 -14.472  0.00  0.00    +0.341 P 
ATOM     13  O   UNL     1      40.174 -24.668 -14.937  0.00  0.00    -0.258 OA
BRANCH  12  14
ATOM     14  O   UNL     1      38.084 -26.154 -15.527  0.00  0.00    -0.323 OA
ATOM     15  H   UNL     1      38.265 -27.089 -15.346  0.00  0.00    +0.220 HD
ENDBRANCH  12  14
BRANCH  12  16
ATOM     16  O   UNL     1      38.937 -26.136 -13.138  0.00  0.00    -0.323 OA
ATOM     17  H   UNL     1      39.230 -25.590 -12.392  0.00  0.00    +0.220 HD
ENDBRANCH  12  16
ENDBRANCH  11  12
ENDBRANCH   2  11
TORSDOF 6
ENDMDL
MODEL 7
REMARK VINA RESULT:      -6.2      2.952      3.805
REMARK  Name = 1629
REMARK  6 active torsions:
REMARK  status: ('A' for Active; 'I' for Inactive)
REMARK    1  A    between atoms: C_2  and  C_11
REMARK    2  A    between atoms: CA_3  and  C_8
REMARK    3  A    between atoms: C_8  and  O_9
REMARK    4  A    between atoms: C_11  and  P_12
REMARK    5  A    between atoms: P_12  and  O_14
REMARK    6  A    between atoms: P_12  and  O_16
REMARK                            x       y       z     vdW  Elec       q    Type
REMARK                         _______ _______ _______ _____ _____    ______ ____
ROOT
ATOM      1  N   UNL     1      35.321 -23.491 -16.604  0.00  0.00    -0.238 NA
ATOM      2  C   UNL     1      37.125 -23.513 -14.994  0.00  0.00    +0.014 C 
ATOM      3  CA  UNL     1      35.994 -24.059 -15.577  0.00  0.00    +0.153 C 
ATOM      4  C   UNL     1      37.599 -22.306 -15.497  0.00  0.00    -0.000 C 
ATOM      5  C   UNL     1      36.934 -21.690 -16.553  0.00  0.00    +0.020 C 
ATOM      6  C   UNL     1      35.810 -22.319 -17.066  0.00  0.00    +0.099 C 
ENDROOT
BRANCH   3   8
ATOM      7  OXT UNL     1      35.759 -26.443 -15.485  0.00  0.00    -0.243 OA
ATOM      8  C   UNL     1      35.437 -25.319 -15.107  0.00  0.00    +0.356 C 
BRANCH   8   9
ATOM      9  O   UNL     1      34.476 -25.129 -14.160  0.00  0.00    -0.476 OA
ATOM     10  H   UNL     1      34.179 -25.851 -13.642  0.00  0.00    +0.295 HD
ENDBRANCH   8   9
ENDBRANCH   3   8
BRANCH   2  11
ATOM     11  C   UNL     1      37.834 -24.175 -13.863  0.00  0.00    +0.144 C 
BRANCH  11  12
ATOM     12  P   UNL     1      37.468 -23.450 -12.244  0.00  0.00    +0.341 P 
ATOM     13  O   UNL     1      38.337 -22.293 -11.902  0.00  0.00    -0.258 OA
BRANCH  12  14
ATOM     14  O   UNL     1      37.560 -24.726 -11.268  0.00  0.00    -0.323 OA
ATOM     15  H   UNL     1      38.034 -24.481 -10.459  0.00  0.00    +0.220 HD
ENDBRANCH  12  14
BRANCH  12  16
ATOM     16  O   UNL     1      35.891 -23.153 -12.351  0.00  0.00    -0.323 OA
ATOM     17  H   UNL     1      35.452 -23.892 -12.802  0.00  0.00    +0.220 HD
ENDBRANCH  12  16
ENDBRANCH  11  12
ENDBRANCH   2  11
TORSDOF 6
ENDMDL
MODEL 8
REMARK VINA RESULT:      -6.2      3.094      4.061
REMARK  Name = 1629
REMARK  6 active torsions:
REMARK  status: ('A' for Active; 'I' for Inactive)
REMARK    1  A    between atoms: C_2  and  C_11
REMARK    2  A    between atoms: CA_3  and  C_8
REMARK    3  A    between atoms: C_8  and  O_9
REMARK    4  A    between atoms: C_11  and  P_12
REMARK    5  A    between atoms: P_12  and  O_14
REMARK    6  A    between atoms: P_12  and  O_16
REMARK                            x       y       z     vdW  Elec       q    Type
REMARK                         _______ _______ _______ _____ _____    ______ ____
ROOT
ATOM      1  N   UNL     1      36.131 -23.675 -16.107  0.00  0.00    -0.238 NA
ATOM      2  C   UNL     1      35.573 -24.349 -13.853  0.00  0.00    +0.014 C 
ATOM      3  CA  UNL     1      36.442 -24.259 -14.927  0.00  0.00    +0.153 C 
ATOM      4  C   UNL     1      34.302 -23.806 -13.997  0.00  0.00    -0.000 C 
ATOM      5  C   UNL     1      33.943 -23.197 -15.195  0.00  0.00    +0.020 C 
ATOM      6  C   UNL     1      34.886 -23.158 -16.210  0.00  0.00    +0.099 C 
ENDROOT
BRANCH   3   8
ATOM      7  OXT UNL     1      38.774 -24.251 -14.371  0.00  0.00    -0.243 OA
ATOM      8  C   UNL     1      37.790 -24.804 -14.856  0.00  0.00    +0.356 C 
BRANCH   8   9
ATOM      9  O   UNL     1      37.865 -26.050 -15.402  0.00  0.00    -0.476 OA
ATOM     10  H   UNL     1      37.594 -26.191 -16.288  0.00  0.00    +0.295 HD
ENDBRANCH   8   9
ENDBRANCH   3   8
BRANCH   2  11
ATOM     11  C   UNL     1      35.961 -25.003 -12.572  0.00  0.00    +0.144 C 
BRANCH  11  12
ATOM     12  P   UNL     1      36.840 -23.908 -11.427  0.00  0.00    +0.341 P 
ATOM     13  O   UNL     1      36.843 -22.484 -11.853  0.00  0.00    -0.258 OA
BRANCH  12  14
ATOM     14  O   UNL     1      38.278 -24.622 -11.307  0.00  0.00    -0.323 OA
ATOM     15  H   UNL     1      38.679 -24.398 -10.454  0.00  0.00    +0.220 HD
ENDBRANCH  12  14
BRANCH  12  16
ATOM     16  O   UNL     1      36.124 -24.234 -10.024  0.00  0.00    -0.323 OA
ATOM     17  H   UNL     1      36.404 -23.584  -9.360  0.00  0.00    +0.220 HD
ENDBRANCH  12  16
ENDBRANCH  11  12
ENDBRANCH   2  11
TORSDOF 6
ENDMDL
MODEL 9
REMARK VINA RESULT:      -6.2      3.028      4.067
REMARK  Name = 1629
REMARK  6 active torsions:
REMARK  status: ('A' for Active; 'I' for Inactive)
REMARK    1  A    between atoms: C_2  and  C_11
REMARK    2  A    between atoms: CA_3  and  C_8
REMARK    3  A    between atoms: C_8  and  O_9
REMARK    4  A    between atoms: C_11  and  P_12
REMARK    5  A    between atoms: P_12  and  O_14
REMARK    6  A    between atoms: P_12  and  O_16
REMARK                            x       y       z     vdW  Elec       q    Type
REMARK                         _______ _______ _______ _____ _____    ______ ____
ROOT
ATOM      1  N   UNL     1      35.157 -23.566 -16.453  0.00  0.00    -0.238 NA
ATOM      2  C   UNL     1      35.348 -23.457 -14.045  0.00  0.00    +0.014 C 
ATOM      3  CA  UNL     1      35.889 -23.472 -15.319  0.00  0.00    +0.153 C 
ATOM      4  C   UNL     1      33.966 -23.543 -13.924  0.00  0.00    -0.000 C 
ATOM      5  C   UNL     1      33.178 -23.641 -15.066  0.00  0.00    +0.020 C 
ATOM      6  C   UNL     1      33.817 -23.648 -16.296  0.00  0.00    +0.099 C 
ENDROOT
BRANCH   3   8
ATOM      7  OXT UNL     1      37.963 -22.371 -15.802  0.00  0.00    -0.243 OA
ATOM      8  C   UNL     1      37.328 -23.386 -15.529  0.00  0.00    +0.356 C 
BRANCH   8   9
ATOM      9  O   UNL     1      37.936 -24.596 -15.388  0.00  0.00    -0.476 OA
ATOM     10  H   UNL     1      38.505 -24.753 -14.660  0.00  0.00    +0.295 HD
ENDBRANCH   8   9
ENDBRANCH   3   8
BRANCH   2  11
ATOM     11  C   UNL     1      36.195 -23.352 -12.824  0.00  0.00    +0.144 C 
BRANCH  11  12
ATOM     12  P   UNL     1      36.332 -24.899 -11.891  0.00  0.00    +0.341 P 
ATOM     13  O   UNL     1      35.274 -25.065 -10.859  0.00  0.00    -0.258 OA
BRANCH  12  14
ATOM     14  O   UNL     1      37.849 -24.845 -11.358  0.00  0.00    -0.323 OA
ATOM     15  H   UNL     1      37.855 -24.570 -10.429  0.00  0.00    +0.220 HD
ENDBRANCH  12  14
BRANCH  12  16
ATOM     16  O   UNL     1      36.368 -26.001 -13.062  0.00  0.00    -0.323 OA
ATOM     17  H   UNL     1      35.604 -25.877 -13.648  0.00  0.00    +0.220 HD
ENDBRANCH  12  16
ENDBRANCH  11  12
ENDBRANCH   2  11
TORSDOF 6
ENDMDL
