MODEL 1
REMARK VINA RESULT:      -5.5      0.000      0.000
REMARK  Name = 525
REMARK  6 active torsions:
REMARK  status: ('A' for Active; 'I' for Inactive)
REMARK    1  A    between atoms: C_1  and  O_2
REMARK    2  A    between atoms: C_1  and  C_5
REMARK    3  A    between atoms: C_1  and  C_8
REMARK    4  A    between atoms: C_5  and  O_6
REMARK    5  A    between atoms: C_8  and  C_10
REMARK    6  A    between atoms: C_10  and  O_11
REMARK                            x       y       z     vdW  Elec       q    Type
REMARK                         _______ _______ _______ _____ _____    ______ ____
ROOT
ATOM      1  C   UNL     1      37.925 -26.060 -14.143  0.00  0.00    +0.221 C 
ENDROOT
BRANCH   1   2
ATOM      2  O   UNL     1      38.221 -27.353 -14.653  0.00  0.00    -0.374 OA
ATOM      3  H   UNL     1      37.679 -27.522 -15.440  0.00  0.00    +0.211 HD
ENDBRANCH   1   2
BRANCH   1   5
ATOM      4  O   UNL     1      35.864 -25.765 -15.399  0.00  0.00    -0.248 OA
ATOM      5  C   UNL     1      36.988 -25.373 -15.118  0.00  0.00    +0.342 C 
BRANCH   5   6
ATOM      6  O   UNL     1      37.547 -24.267 -15.672  0.00  0.00    -0.479 OA
ATOM      7  H   UNL     1      37.988 -23.642 -15.131  0.00  0.00    +0.295 HD
ENDBRANCH   5   6
ENDBRANCH   1   5
BRANCH   1   8
ATOM      8  C   UNL     1      39.234 -25.286 -14.003  0.00  0.00    +0.150 C 
BRANCH   8  10
ATOM      9  O   UNL     1      41.244 -26.669 -14.103  0.00  0.00    -0.250 OA
ATOM     10  C   UNL     1      40.389 -26.002 -14.665  0.00  0.00    +0.317 C 
BRANCH  10  11
ATOM     11  O   UNL     1      40.358 -25.791 -16.006  0.00  0.00    -0.480 OA
ATOM     12  H   UNL     1      41.110 -25.986 -16.528  0.00  0.00    +0.295 HD
ENDBRANCH  10  11
ENDBRANCH   8  10
ENDBRANCH   1   8
TORSDOF 6
ENDMDL
MODEL 2
REMARK VINA RESULT:      -5.5      0.936      3.714
REMARK  Name = 525
REMARK  6 active torsions:
REMARK  status: ('A' for Active; 'I' for Inactive)
REMARK    1  A    between atoms: C_1  and  O_2
REMARK    2  A    between atoms: C_1  and  C_5
REMARK    3  A    between atoms: C_1  and  C_8
REMARK    4  A    between atoms: C_5  and  O_6
REMARK    5  A    between atoms: C_8  and  C_10
REMARK    6  A    between atoms: C_10  and  O_11
REMARK                            x       y       z     vdW  Elec       q    Type
REMARK                         _______ _______ _______ _____ _____    ______ ____
ROOT
ATOM      1  C   UNL     1      38.790 -25.401 -14.371  0.00  0.00    +0.221 C 
ENDROOT
BRANCH   1   2
ATOM      2  O   UNL     1      38.305 -24.641 -15.470  0.00  0.00    -0.374 OA
ATOM      3  H   UNL     1      38.306 -25.192 -16.269  0.00  0.00    +0.211 HD
ENDBRANCH   1   2
BRANCH   1   5
ATOM      4  O   UNL     1      40.951 -26.439 -13.967  0.00  0.00    -0.248 OA
ATOM      5  C   UNL     1      40.138 -25.978 -14.756  0.00  0.00    +0.342 C 
BRANCH   5   6
ATOM      6  O   UNL     1      40.361 -25.911 -16.094  0.00  0.00    -0.479 OA
ATOM      7  H   UNL     1      39.765 -26.318 -16.691  0.00  0.00    +0.295 HD
ENDBRANCH   5   6
ENDBRANCH   1   5
BRANCH   1   8
ATOM      8  C   UNL     1      37.784 -26.510 -14.071  0.00  0.00    +0.150 C 
BRANCH   8  10
ATOM      9  O   UNL     1      36.840 -27.285 -16.185  0.00  0.00    -0.250 OA
ATOM     10  C   UNL     1      36.739 -26.636 -15.156  0.00  0.00    +0.317 C 
BRANCH  10  11
ATOM     11  O   UNL     1      35.644 -25.901 -14.833  0.00  0.00    -0.480 OA
ATOM     12  H   UNL     1      34.870 -25.958 -15.357  0.00  0.00    +0.295 HD
ENDBRANCH  10  11
ENDBRANCH   8  10
ENDBRANCH   1   8
TORSDOF 6
ENDMDL
MODEL 3
REMARK VINA RESULT:      -5.3      1.575      3.732
REMARK  Name = 525
REMARK  6 active torsions:
REMARK  status: ('A' for Active; 'I' for Inactive)
REMARK    1  A    between atoms: C_1  and  O_2
REMARK    2  A    between atoms: C_1  and  C_5
REMARK    3  A    between atoms: C_1  and  C_8
REMARK    4  A    between atoms: C_5  and  O_6
REMARK    5  A    between atoms: C_8  and  C_10
REMARK    6  A    between atoms: C_10  and  O_11
REMARK                            x       y       z     vdW  Elec       q    Type
REMARK                         _______ _______ _______ _____ _____    ______ ____
ROOT
ATOM      1  C   UNL     1      38.919 -25.709 -14.546  0.00  0.00    +0.221 C 
ENDROOT
BRANCH   1   2
ATOM      2  O   UNL     1      38.535 -27.076 -14.620  0.00  0.00    -0.374 OA
ATOM      3  H   UNL     1      37.987 -27.215 -15.409  0.00  0.00    +0.211 HD
ENDBRANCH   1   2
BRANCH   1   5
ATOM      4  O   UNL     1      41.088 -24.612 -14.613  0.00  0.00    -0.248 OA
ATOM      5  C   UNL     1      40.434 -25.645 -14.563  0.00  0.00    +0.342 C 
BRANCH   5   6
ATOM      6  O   UNL     1      41.000 -26.879 -14.536  0.00  0.00    -0.479 OA
ATOM      7  H   UNL     1      40.749 -27.496 -13.877  0.00  0.00    +0.295 HD
ENDBRANCH   5   6
ENDBRANCH   1   5
BRANCH   1   8
ATOM      8  C   UNL     1      38.360 -25.122 -13.251  0.00  0.00    +0.150 C 
BRANCH   8  10
ATOM      9  O   UNL     1      37.045 -26.566 -11.786  0.00  0.00    -0.250 OA
ATOM     10  C   UNL     1      37.129 -25.859 -12.779  0.00  0.00    +0.317 C 
BRANCH  10  11
ATOM     11  O   UNL     1      36.098 -25.638 -13.636  0.00  0.00    -0.480 OA
ATOM     12  H   UNL     1      36.265 -25.521 -14.549  0.00  0.00    +0.295 HD
ENDBRANCH  10  11
ENDBRANCH   8  10
ENDBRANCH   1   8
TORSDOF 6
ENDMDL
MODEL 4
REMARK VINA RESULT:      -5.1      2.535      3.083
REMARK  Name = 525
REMARK  6 active torsions:
REMARK  status: ('A' for Active; 'I' for Inactive)
REMARK    1  A    between atoms: C_1  and  O_2
REMARK    2  A    between atoms: C_1  and  C_5
REMARK    3  A    between atoms: C_1  and  C_8
REMARK    4  A    between atoms: C_5  and  O_6
REMARK    5  A    between atoms: C_8  and  C_10
REMARK    6  A    between atoms: C_10  and  O_11
REMARK                            x       y       z     vdW  Elec       q    Type
REMARK                         _______ _______ _______ _____ _____    ______ ____
ROOT
ATOM      1  C   UNL     1      37.944 -24.521 -13.357  0.00  0.00    +0.221 C 
ENDROOT
BRANCH   1   2
ATOM      2  O   UNL     1      38.187 -23.600 -14.411  0.00  0.00    -0.374 OA
ATOM      3  H   UNL     1      38.632 -24.055 -15.143  0.00  0.00    +0.211 HD
ENDBRANCH   1   2
BRANCH   1   5
ATOM      4  O   UNL     1      38.316 -22.601 -11.913  0.00  0.00    -0.248 OA
ATOM      5  C   UNL     1      37.913 -23.747 -12.053  0.00  0.00    +0.342 C 
BRANCH   5   6
ATOM      6  O   UNL     1      37.399 -24.481 -11.033  0.00  0.00    -0.479 OA
ATOM      7  H   UNL     1      37.600 -25.394 -10.964  0.00  0.00    +0.295 HD
ENDBRANCH   5   6
ENDBRANCH   1   5
BRANCH   1   8
ATOM      8  C   UNL     1      39.069 -25.556 -13.353  0.00  0.00    +0.150 C 
BRANCH   8  10
ATOM      9  O   UNL     1      41.078 -24.791 -14.512  0.00  0.00    -0.250 OA
ATOM     10  C   UNL     1      40.006 -25.377 -14.525  0.00  0.00    +0.317 C 
BRANCH  10  11
ATOM     11  O   UNL     1      39.481 -25.962 -15.633  0.00  0.00    -0.480 OA
ATOM     12  H   UNL     1      39.534 -25.529 -16.461  0.00  0.00    +0.295 HD
ENDBRANCH  10  11
ENDBRANCH   8  10
ENDBRANCH   1   8
TORSDOF 6
ENDMDL
MODEL 5
REMARK VINA RESULT:      -5.1      2.818      3.691
REMARK  Name = 525
REMARK  6 active torsions:
REMARK  status: ('A' for Active; 'I' for Inactive)
REMARK    1  A    between atoms: C_1  and  O_2
REMARK    2  A    between atoms: C_1  and  C_5
REMARK    3  A    between atoms: C_1  and  C_8
REMARK    4  A    between atoms: C_5  and  O_6
REMARK    5  A    between atoms: C_8  and  C_10
REMARK    6  A    between atoms: C_10  and  O_11
REMARK                            x       y       z     vdW  Elec       q    Type
REMARK                         _______ _______ _______ _____ _____    ______ ____
ROOT
ATOM      1  C   UNL     1      36.785 -25.250 -12.335  0.00  0.00    +0.221 C 
ENDROOT
BRANCH   1   2
ATOM      2  O   UNL     1      36.878 -26.624 -11.984  0.00  0.00    -0.374 OA
ATOM      3  H   UNL     1      36.598 -26.742 -11.062  0.00  0.00    +0.211 HD
ENDBRANCH   1   2
BRANCH   1   5
ATOM      4  O   UNL     1      34.699 -24.002 -12.372  0.00  0.00    -0.248 OA
ATOM      5  C   UNL     1      35.492 -24.705 -11.760  0.00  0.00    +0.342 C 
BRANCH   5   6
ATOM      6  O   UNL     1      35.313 -25.068 -10.465  0.00  0.00    -0.479 OA
ATOM      7  H   UNL     1      35.530 -24.472  -9.775  0.00  0.00    +0.295 HD
ENDBRANCH   5   6
ENDBRANCH   1   5
BRANCH   1   8
ATOM      8  C   UNL     1      36.797 -25.141 -13.859  0.00  0.00    +0.150 C 
BRANCH   8  10
ATOM      9  O   UNL     1      38.254 -26.940 -14.635  0.00  0.00    -0.250 OA
ATOM     10  C   UNL     1      37.138 -26.457 -14.518  0.00  0.00    +0.317 C 
BRANCH  10  11
ATOM     11  O   UNL     1      36.009 -27.046 -14.990  0.00  0.00    -0.480 OA
ATOM     12  H   UNL     1      35.786 -26.973 -15.896  0.00  0.00    +0.295 HD
ENDBRANCH  10  11
ENDBRANCH   8  10
ENDBRANCH   1   8
TORSDOF 6
ENDMDL
MODEL 6
REMARK VINA RESULT:      -5.0      2.655      3.392
REMARK  Name = 525
REMARK  6 active torsions:
REMARK  status: ('A' for Active; 'I' for Inactive)
REMARK    1  A    between atoms: C_1  and  O_2
REMARK    2  A    between atoms: C_1  and  C_5
REMARK    3  A    between atoms: C_1  and  C_8
REMARK    4  A    between atoms: C_5  and  O_6
REMARK    5  A    between atoms: C_8  and  C_10
REMARK    6  A    between atoms: C_10  and  O_11
REMARK                            x       y       z     vdW  Elec       q    Type
REMARK                         _______ _______ _______ _____ _____    ______ ____
ROOT
ATOM      1  C   UNL     1      36.902 -25.746 -13.382  0.00  0.00    +0.221 C 
ENDROOT
BRANCH   1   2
ATOM      2  O   UNL     1      36.905 -26.644 -12.280  0.00  0.00    -0.374 OA
ATOM      3  H   UNL     1      37.094 -27.541 -12.595  0.00  0.00    +0.211 HD
ENDBRANCH   1   2
BRANCH   1   5
ATOM      4  O   UNL     1      36.316 -26.671 -15.553  0.00  0.00    -0.248 OA
ATOM      5  C   UNL     1      37.129 -26.553 -14.646  0.00  0.00    +0.342 C 
BRANCH   5   6
ATOM      6  O   UNL     1      38.344 -27.158 -14.657  0.00  0.00    -0.479 OA
ATOM      7  H   UNL     1      38.749 -27.383 -15.471  0.00  0.00    +0.295 HD
ENDBRANCH   5   6
ENDBRANCH   1   5
BRANCH   1   8
ATOM      8  C   UNL     1      38.021 -24.726 -13.176  0.00  0.00    +0.150 C 
BRANCH   8  10
ATOM      9  O   UNL     1      37.064 -24.233 -10.984  0.00  0.00    -0.250 OA
ATOM     10  C   UNL     1      37.917 -24.035 -11.836  0.00  0.00    +0.317 C 
BRANCH  10  11
ATOM     11  O   UNL     1      38.918 -23.126 -11.703  0.00  0.00    -0.480 OA
ATOM     12  H   UNL     1      39.794 -23.415 -11.539  0.00  0.00    +0.295 HD
ENDBRANCH  10  11
ENDBRANCH   8  10
ENDBRANCH   1   8
TORSDOF 6
ENDMDL
MODEL 7
REMARK VINA RESULT:      -4.9      2.514      3.172
REMARK  Name = 525
REMARK  6 active torsions:
REMARK  status: ('A' for Active; 'I' for Inactive)
REMARK    1  A    between atoms: C_1  and  O_2
REMARK    2  A    between atoms: C_1  and  C_5
REMARK    3  A    between atoms: C_1  and  C_8
REMARK    4  A    between atoms: C_5  and  O_6
REMARK    5  A    between atoms: C_8  and  C_10
REMARK    6  A    between atoms: C_10  and  O_11
REMARK                            x       y       z     vdW  Elec       q    Type
REMARK                         _______ _______ _______ _____ _____    ______ ____
ROOT
ATOM      1  C   UNL     1      37.640 -25.065 -12.271  0.00  0.00    +0.221 C 
ENDROOT
BRANCH   1   2
ATOM      2  O   UNL     1      36.504 -25.880 -12.529  0.00  0.00    -0.374 OA
ATOM      3  H   UNL     1      36.755 -26.814 -12.460  0.00  0.00    +0.211 HD
ENDBRANCH   1   2
BRANCH   1   5
ATOM      4  O   UNL     1      37.457 -22.903 -11.174  0.00  0.00    -0.248 OA
ATOM      5  C   UNL     1      37.165 -23.633 -12.111  0.00  0.00    +0.342 C 
BRANCH   5   6
ATOM      6  O   UNL     1      36.351 -23.247 -13.126  0.00  0.00    -0.479 OA
ATOM      7  H   UNL     1      36.569 -22.497 -13.644  0.00  0.00    +0.295 HD
ENDBRANCH   5   6
ENDBRANCH   1   5
BRANCH   1   8
ATOM      8  C   UNL     1      38.602 -25.194 -13.451  0.00  0.00    +0.150 C 
BRANCH   8  10
ATOM      9  O   UNL     1      38.166 -27.213 -14.752  0.00  0.00    -0.250 OA
ATOM     10  C   UNL     1      38.014 -26.014 -14.575  0.00  0.00    +0.317 C 
BRANCH  10  11
ATOM     11  O   UNL     1      37.280 -25.218 -15.395  0.00  0.00    -0.480 OA
ATOM     12  H   UNL     1      36.584 -25.585 -15.905  0.00  0.00    +0.295 HD
ENDBRANCH  10  11
ENDBRANCH   8  10
ENDBRANCH   1   8
TORSDOF 6
ENDMDL
MODEL 8
REMARK VINA RESULT:      -4.8      3.736      4.271
REMARK  Name = 525
REMARK  6 active torsions:
REMARK  status: ('A' for Active; 'I' for Inactive)
REMARK    1  A    between atoms: C_1  and  O_2
REMARK    2  A    between atoms: C_1  and  C_5
REMARK    3  A    between atoms: C_1  and  C_8
REMARK    4  A    between atoms: C_5  and  O_6
REMARK    5  A    between atoms: C_8  and  C_10
REMARK    6  A    between atoms: C_10  and  O_11
REMARK                            x       y       z     vdW  Elec       q    Type
REMARK                         _______ _______ _______ _____ _____    ______ ____
ROOT
ATOM      1  C   UNL     1      36.604 -23.299 -11.925  0.00  0.00    +0.221 C 
ENDROOT
BRANCH   1   2
ATOM      2  O   UNL     1      37.785 -22.855 -11.271  0.00  0.00    -0.374 OA
ATOM      3  H   UNL     1      38.411 -22.515 -11.930  0.00  0.00    +0.211 HD
ENDBRANCH   1   2
BRANCH   1   5
ATOM      4  O   UNL     1      36.005 -24.241  -9.765  0.00  0.00    -0.248 OA
ATOM      5  C   UNL     1      35.861 -24.223 -10.980  0.00  0.00    +0.342 C 
BRANCH   5   6
ATOM      6  O   UNL     1      35.018 -25.060 -11.638  0.00  0.00    -0.479 OA
ATOM      7  H   UNL     1      35.187 -25.981 -11.652  0.00  0.00    +0.295 HD
ENDBRANCH   5   6
ENDBRANCH   1   5
BRANCH   1   8
ATOM      8  C   UNL     1      37.007 -24.032 -13.204  0.00  0.00    +0.150 C 
BRANCH   8  10
ATOM      9  O   UNL     1      37.927 -26.228 -12.660  0.00  0.00    -0.250 OA
ATOM     10  C   UNL     1      38.092 -25.053 -12.952  0.00  0.00    +0.317 C 
BRANCH  10  11
ATOM     11  O   UNL     1      39.314 -24.475 -13.086  0.00  0.00    -0.480 OA
ATOM     12  H   UNL     1      39.398 -23.543 -13.053  0.00  0.00    +0.295 HD
ENDBRANCH  10  11
ENDBRANCH   8  10
ENDBRANCH   1   8
TORSDOF 6
ENDMDL
MODEL 9
REMARK VINA RESULT:      -4.8      3.072      4.522
REMARK  Name = 525
REMARK  6 active torsions:
REMARK  status: ('A' for Active; 'I' for Inactive)
REMARK    1  A    between atoms: C_1  and  O_2
REMARK    2  A    between atoms: C_1  and  C_5
REMARK    3  A    between atoms: C_1  and  C_8
REMARK    4  A    between atoms: C_5  and  O_6
REMARK    5  A    between atoms: C_8  and  C_10
REMARK    6  A    between atoms: C_10  and  O_11
REMARK                            x       y       z     vdW  Elec       q    Type
REMARK                         _______ _______ _______ _____ _____    ______ ____
ROOT
ATOM      1  C   UNL     1      37.041 -25.774 -13.003  0.00  0.00    +0.221 C 
ENDROOT
BRANCH   1   2
ATOM      2  O   UNL     1      37.122 -26.638 -11.877  0.00  0.00    -0.374 OA
ATOM      3  H   UNL     1      37.500 -27.488 -12.149  0.00  0.00    +0.211 HD
ENDBRANCH   1   2
BRANCH   1   5
ATOM      4  O   UNL     1      38.770 -26.638 -14.478  0.00  0.00    -0.248 OA
ATOM      5  C   UNL     1      38.390 -25.777 -13.696  0.00  0.00    +0.342 C 
BRANCH   5   6
ATOM      6  O   UNL     1      39.155 -24.715 -13.335  0.00  0.00    -0.479 OA
ATOM      7  H   UNL     1      39.676 -24.754 -12.557  0.00  0.00    +0.295 HD
ENDBRANCH   5   6
ENDBRANCH   1   5
BRANCH   1   8
ATOM      8  C   UNL     1      36.682 -24.373 -12.511  0.00  0.00    +0.150 C 
BRANCH   8  10
ATOM      9  O   UNL     1      35.341 -25.012 -10.573  0.00  0.00    -0.250 OA
ATOM     10  C   UNL     1      35.467 -24.382 -11.612  0.00  0.00    +0.317 C 
BRANCH  10  11
ATOM     11  O   UNL     1      34.499 -23.585 -12.132  0.00  0.00    -0.480 OA
ATOM     12  H   UNL     1      34.650 -23.126 -12.935  0.00  0.00    +0.295 HD
ENDBRANCH  10  11
ENDBRANCH   8  10
ENDBRANCH   1   8
TORSDOF 6
ENDMDL
