MODEL 1
REMARK VINA RESULT:      -6.8      0.000      0.000
REMARK  Name = 5287668
REMARK  5 active torsions:
REMARK  status: ('A' for Active; 'I' for Inactive)
REMARK    1  A    between atoms: C_3  and  C_15
REMARK    2  A    between atoms: C_6  and  O_9
REMARK    3  A    between atoms: C_7  and  O_11
REMARK    4  A    between atoms: C_8  and  N_13
REMARK    5  A    between atoms: C_15  and  O_16
REMARK                            x       y       z     vdW  Elec       q    Type
REMARK                         _______ _______ _______ _____ _____    ______ ____
ROOT
ATOM      1  O   UNL     1      38.258 -24.298 -14.036  0.00  0.00    -0.448 OA
ATOM      2  N   UNL     1      38.180 -25.406 -12.020  0.00  0.00    -0.216 NA
ATOM      3  C   UNL     1      35.834 -24.048 -13.916  0.00  0.00    +0.101 C 
ATOM      4  C   UNL     1      37.199 -23.675 -13.331  0.00  0.00    +0.199 C 
ATOM      5  C   UNL     1      37.234 -24.283 -11.929  0.00  0.00    +0.177 C 
ATOM      6  C   UNL     1      34.941 -24.078 -12.677  0.00  0.00    +0.145 C 
ATOM      7  C   UNL     1      35.817 -24.789 -11.646  0.00  0.00    +0.163 C 
ATOM      8  C   UNL     1      38.685 -25.284 -13.205  0.00  0.00    +0.316 C 
ENDROOT
BRANCH   6   9
ATOM      9  O   UNL     1      33.738 -24.790 -12.912  0.00  0.00    -0.382 OA
ATOM     10  H   UNL     1      33.438 -25.200 -12.086  0.00  0.00    +0.210 HD
ENDBRANCH   6   9
BRANCH   7  11
ATOM     11  O   UNL     1      35.411 -24.464 -10.325  0.00  0.00    -0.380 OA
ATOM     12  H   UNL     1      36.148 -24.619  -9.714  0.00  0.00    +0.211 HD
ENDBRANCH   7  11
BRANCH   8  13
ATOM     13  N   UNL     1      39.645 -26.096 -13.715  0.00  0.00    -0.191 NA
ATOM     14  C   UNL     1      40.277 -25.648 -14.748  0.00  0.00    +0.124 C 
ENDBRANCH   8  13
BRANCH   3  15
ATOM     15  C   UNL     1      35.355 -23.065 -14.974  0.00  0.00    +0.143 C 
BRANCH  15  16
ATOM     16  O   UNL     1      36.124 -23.254 -16.149  0.00  0.00    -0.382 OA
ATOM     17  H   UNL     1      37.012 -23.562 -15.908  0.00  0.00    +0.210 HD
ENDBRANCH  15  16
ENDBRANCH   3  15
TORSDOF 5
ENDMDL
MODEL 2
REMARK VINA RESULT:      -6.8      2.318      3.979
REMARK  Name = 5287668
REMARK  5 active torsions:
REMARK  status: ('A' for Active; 'I' for Inactive)
REMARK    1  A    between atoms: C_3  and  C_15
REMARK    2  A    between atoms: C_6  and  O_9
REMARK    3  A    between atoms: C_7  and  O_11
REMARK    4  A    between atoms: C_8  and  N_13
REMARK    5  A    between atoms: C_15  and  O_16
REMARK                            x       y       z     vdW  Elec       q    Type
REMARK                         _______ _______ _______ _____ _____    ______ ____
ROOT
ATOM      1  O   UNL     1      36.641 -25.309 -15.161  0.00  0.00    -0.448 OA
ATOM      2  N   UNL     1      35.132 -24.238 -13.791  0.00  0.00    -0.216 NA
ATOM      3  C   UNL     1      38.398 -24.721 -13.574  0.00  0.00    +0.101 C 
ATOM      4  C   UNL     1      37.131 -25.534 -13.851  0.00  0.00    +0.199 C 
ATOM      5  C   UNL     1      36.060 -24.972 -12.916  0.00  0.00    +0.177 C 
ATOM      6  C   UNL     1      38.259 -24.388 -12.089  0.00  0.00    +0.145 C 
ATOM      7  C   UNL     1      36.782 -24.015 -11.964  0.00  0.00    +0.163 C 
ATOM      8  C   UNL     1      35.546 -24.526 -14.982  0.00  0.00    +0.316 C 
ENDROOT
BRANCH   6   9
ATOM      9  O   UNL     1      39.098 -23.310 -11.710  0.00  0.00    -0.382 OA
ATOM     10  H   UNL     1      39.944 -23.657 -11.388  0.00  0.00    +0.210 HD
ENDBRANCH   6   9
BRANCH   7  11
ATOM     11  O   UNL     1      36.328 -24.181 -10.629  0.00  0.00    -0.380 OA
ATOM     12  H   UNL     1      36.238 -23.311 -10.209  0.00  0.00    +0.211 HD
ENDBRANCH   7  11
BRANCH   8  13
ATOM     13  N   UNL     1      34.955 -24.089 -16.124  0.00  0.00    -0.191 NA
ATOM     14  C   UNL     1      33.850 -23.438 -15.977  0.00  0.00    +0.124 C 
ENDBRANCH   8  13
BRANCH   3  15
ATOM     15  C   UNL     1      39.674 -25.485 -13.898  0.00  0.00    +0.143 C 
BRANCH  15  16
ATOM     16  O   UNL     1      39.335 -26.633 -14.655  0.00  0.00    -0.382 OA
ATOM     17  H   UNL     1      38.907 -27.286 -14.077  0.00  0.00    +0.210 HD
ENDBRANCH  15  16
ENDBRANCH   3  15
TORSDOF 5
ENDMDL
MODEL 3
REMARK VINA RESULT:      -6.7      2.739      4.394
REMARK  Name = 5287668
REMARK  5 active torsions:
REMARK  status: ('A' for Active; 'I' for Inactive)
REMARK    1  A    between atoms: C_3  and  C_15
REMARK    2  A    between atoms: C_6  and  O_9
REMARK    3  A    between atoms: C_7  and  O_11
REMARK    4  A    between atoms: C_8  and  N_13
REMARK    5  A    between atoms: C_15  and  O_16
REMARK                            x       y       z     vdW  Elec       q    Type
REMARK                         _______ _______ _______ _____ _____    ______ ____
ROOT
ATOM      1  O   UNL     1      35.651 -22.958 -14.634  0.00  0.00    -0.448 OA
ATOM      2  N   UNL     1      35.603 -24.954 -15.779  0.00  0.00    -0.216 NA
ATOM      3  C   UNL     1      36.715 -24.127 -12.775  0.00  0.00    +0.101 C 
ATOM      4  C   UNL     1      36.826 -23.631 -14.220  0.00  0.00    +0.199 C 
ATOM      5  C   UNL     1      36.900 -24.887 -15.088  0.00  0.00    +0.177 C 
ATOM      6  C   UNL     1      37.513 -25.429 -12.810  0.00  0.00    +0.145 C 
ATOM      7  C   UNL     1      37.064 -26.066 -14.124  0.00  0.00    +0.163 C 
ATOM      8  C   UNL     1      35.035 -23.835 -15.468  0.00  0.00    +0.316 C 
ENDROOT
BRANCH   6   9
ATOM      9  O   UNL     1      37.211 -26.261 -11.702  0.00  0.00    -0.382 OA
ATOM     10  H   UNL     1      37.585 -27.144 -11.849  0.00  0.00    +0.210 HD
ENDBRANCH   6   9
BRANCH   7  11
ATOM     11  O   UNL     1      38.034 -26.986 -14.599  0.00  0.00    -0.380 OA
ATOM     12  H   UNL     1      38.922 -26.647 -14.409  0.00  0.00    +0.211 HD
ENDBRANCH   7  11
BRANCH   8  13
ATOM     13  N   UNL     1      33.816 -23.444 -15.919  0.00  0.00    -0.191 NA
ATOM     14  C   UNL     1      33.725 -23.221 -17.188  0.00  0.00    +0.124 C 
ENDBRANCH   8  13
BRANCH   3  15
ATOM     15  C   UNL     1      37.250 -23.124 -11.763  0.00  0.00    +0.143 C 
BRANCH  15  16
ATOM     16  O   UNL     1      38.645 -23.325 -11.620  0.00  0.00    -0.382 OA
ATOM     17  H   UNL     1      38.842 -24.274 -11.672  0.00  0.00    +0.210 HD
ENDBRANCH  15  16
ENDBRANCH   3  15
TORSDOF 5
ENDMDL
MODEL 4
REMARK VINA RESULT:      -6.7      5.588      6.652
REMARK  Name = 5287668
REMARK  5 active torsions:
REMARK  status: ('A' for Active; 'I' for Inactive)
REMARK    1  A    between atoms: C_3  and  C_15
REMARK    2  A    between atoms: C_6  and  O_9
REMARK    3  A    between atoms: C_7  and  O_11
REMARK    4  A    between atoms: C_8  and  N_13
REMARK    5  A    between atoms: C_15  and  O_16
REMARK                            x       y       z     vdW  Elec       q    Type
REMARK                         _______ _______ _______ _____ _____    ______ ____
ROOT
ATOM      1  O   UNL     1      31.601 -22.688 -17.320  0.00  0.00    -0.448 OA
ATOM      2  N   UNL     1      33.207 -23.658 -15.986  0.00  0.00    -0.216 NA
ATOM      3  C   UNL     1      29.907 -23.887 -16.038  0.00  0.00    +0.101 C 
ATOM      4  C   UNL     1      30.985 -22.800 -16.050  0.00  0.00    +0.199 C 
ATOM      5  C   UNL     1      32.084 -23.291 -15.109  0.00  0.00    +0.177 C 
ATOM      6  C   UNL     1      30.012 -24.441 -14.618  0.00  0.00    +0.145 C 
ATOM      7  C   UNL     1      31.522 -24.526 -14.400  0.00  0.00    +0.163 C 
ATOM      8  C   UNL     1      32.824 -23.253 -17.154  0.00  0.00    +0.316 C 
ENDROOT
BRANCH   6   9
ATOM      9  O   UNL     1      29.401 -25.716 -14.504  0.00  0.00    -0.382 OA
ATOM     10  H   UNL     1      29.174 -26.046 -15.387  0.00  0.00    +0.210 HD
ENDBRANCH   6   9
BRANCH   7  11
ATOM     11  O   UNL     1      31.836 -24.510 -13.016  0.00  0.00    -0.380 OA
ATOM     12  H   UNL     1      31.019 -24.569 -12.498  0.00  0.00    +0.211 HD
ENDBRANCH   7  11
BRANCH   8  13
ATOM     13  N   UNL     1      33.572 -23.355 -18.282  0.00  0.00    -0.191 NA
ATOM     14  C   UNL     1      33.738 -22.264 -18.953  0.00  0.00    +0.124 C 
ENDBRANCH   8  13
BRANCH   3  15
ATOM     15  C   UNL     1      28.521 -23.351 -16.369  0.00  0.00    +0.143 C 
BRANCH  15  16
ATOM     16  O   UNL     1      28.660 -22.072 -16.962  0.00  0.00    -0.382 OA
ATOM     17  H   UNL     1      29.590 -21.797 -16.923  0.00  0.00    +0.210 HD
ENDBRANCH  15  16
ENDBRANCH   3  15
TORSDOF 5
ENDMDL
MODEL 5
REMARK VINA RESULT:      -6.7      6.957      8.850
REMARK  Name = 5287668
REMARK  5 active torsions:
REMARK  status: ('A' for Active; 'I' for Inactive)
REMARK    1  A    between atoms: C_3  and  C_15
REMARK    2  A    between atoms: C_6  and  O_9
REMARK    3  A    between atoms: C_7  and  O_11
REMARK    4  A    between atoms: C_8  and  N_13
REMARK    5  A    between atoms: C_15  and  O_16
REMARK                            x       y       z     vdW  Elec       q    Type
REMARK                         _______ _______ _______ _____ _____    ______ ____
ROOT
ATOM      1  O   UNL     1      29.580 -22.338 -16.817  0.00  0.00    -0.448 OA
ATOM      2  N   UNL     1      27.835 -23.789 -16.429  0.00  0.00    -0.216 NA
ATOM      3  C   UNL     1      30.656 -23.201 -14.804  0.00  0.00    +0.101 C 
ATOM      4  C   UNL     1      30.189 -23.477 -16.236  0.00  0.00    +0.199 C 
ATOM      5  C   UNL     1      29.075 -24.517 -16.119  0.00  0.00    +0.177 C 
ATOM      6  C   UNL     1      30.439 -24.549 -14.119  0.00  0.00    +0.145 C 
ATOM      7  C   UNL     1      29.080 -24.988 -14.662  0.00  0.00    +0.163 C 
ATOM      8  C   UNL     1      28.253 -22.628 -16.818  0.00  0.00    +0.316 C 
ENDROOT
BRANCH   6   9
ATOM      9  O   UNL     1      30.415 -24.425 -12.707  0.00  0.00    -0.382 OA
ATOM     10  H   UNL     1      30.429 -25.307 -12.304  0.00  0.00    +0.210 HD
ENDBRANCH   6   9
BRANCH   7  11
ATOM     11  O   UNL     1      28.931 -26.397 -14.579  0.00  0.00    -0.380 OA
ATOM     12  H   UNL     1      29.528 -26.746 -13.899  0.00  0.00    +0.211 HD
ENDBRANCH   7  11
BRANCH   8  13
ATOM     13  N   UNL     1      27.443 -21.626 -17.243  0.00  0.00    -0.191 NA
ATOM     14  C   UNL     1      26.223 -21.663 -16.820  0.00  0.00    +0.124 C 
ENDBRANCH   8  13
BRANCH   3  15
ATOM     15  C   UNL     1      32.099 -22.720 -14.734  0.00  0.00    +0.143 C 
BRANCH  15  16
ATOM     16  O   UNL     1      32.621 -23.039 -13.456  0.00  0.00    -0.382 OA
ATOM     17  H   UNL     1      32.291 -23.909 -13.180  0.00  0.00    +0.210 HD
ENDBRANCH  15  16
ENDBRANCH   3  15
TORSDOF 5
ENDMDL
MODEL 6
REMARK VINA RESULT:      -6.6      5.705      7.478
REMARK  Name = 5287668
REMARK  5 active torsions:
REMARK  status: ('A' for Active; 'I' for Inactive)
REMARK    1  A    between atoms: C_3  and  C_15
REMARK    2  A    between atoms: C_6  and  O_9
REMARK    3  A    between atoms: C_7  and  O_11
REMARK    4  A    between atoms: C_8  and  N_13
REMARK    5  A    between atoms: C_15  and  O_16
REMARK                            x       y       z     vdW  Elec       q    Type
REMARK                         _______ _______ _______ _____ _____    ______ ____
ROOT
ATOM      1  O   UNL     1      30.685 -23.046 -16.888  0.00  0.00    -0.448 OA
ATOM      2  N   UNL     1      29.149 -23.532 -15.245  0.00  0.00    -0.216 NA
ATOM      3  C   UNL     1      32.438 -23.186 -15.198  0.00  0.00    +0.101 C 
ATOM      4  C   UNL     1      31.371 -23.922 -16.012  0.00  0.00    +0.199 C 
ATOM      5  C   UNL     1      30.321 -24.387 -15.002  0.00  0.00    +0.177 C 
ATOM      6  C   UNL     1      32.408 -23.930 -13.864  0.00  0.00    +0.145 C 
ATOM      7  C   UNL     1      30.912 -24.118 -13.615  0.00  0.00    +0.163 C 
ATOM      8  C   UNL     1      29.468 -22.873 -16.310  0.00  0.00    +0.316 C 
ENDROOT
BRANCH   6   9
ATOM      9  O   UNL     1      33.014 -23.177 -12.827  0.00  0.00    -0.382 OA
ATOM     10  H   UNL     1      33.883 -22.863 -13.121  0.00  0.00    +0.210 HD
ENDBRANCH   6   9
BRANCH   7  11
ATOM     11  O   UNL     1      30.677 -25.208 -12.737  0.00  0.00    -0.380 OA
ATOM     12  H   UNL     1      31.401 -25.848 -12.815  0.00  0.00    +0.211 HD
ENDBRANCH   7  11
BRANCH   8  13
ATOM     13  N   UNL     1      28.657 -21.977 -16.928  0.00  0.00    -0.191 NA
ATOM     14  C   UNL     1      27.466 -22.390 -17.210  0.00  0.00    +0.124 C 
ENDBRANCH   8  13
BRANCH   3  15
ATOM     15  C   UNL     1      33.807 -23.205 -15.862  0.00  0.00    +0.143 C 
BRANCH  15  16
ATOM     16  O   UNL     1      33.652 -23.619 -17.208  0.00  0.00    -0.382 OA
ATOM     17  H   UNL     1      33.149 -22.948 -17.697  0.00  0.00    +0.210 HD
ENDBRANCH  15  16
ENDBRANCH   3  15
TORSDOF 5
ENDMDL
MODEL 7
REMARK VINA RESULT:      -6.4     11.054     13.468
REMARK  Name = 5287668
REMARK  5 active torsions:
REMARK  status: ('A' for Active; 'I' for Inactive)
REMARK    1  A    between atoms: C_3  and  C_15
REMARK    2  A    between atoms: C_6  and  O_9
REMARK    3  A    between atoms: C_7  and  O_11
REMARK    4  A    between atoms: C_8  and  N_13
REMARK    5  A    between atoms: C_15  and  O_16
REMARK                            x       y       z     vdW  Elec       q    Type
REMARK                         _______ _______ _______ _____ _____    ______ ____
ROOT
ATOM      1  O   UNL     1      34.068 -16.075 -21.413  0.00  0.00    -0.448 OA
ATOM      2  N   UNL     1      33.577 -15.142 -23.459  0.00  0.00    -0.216 NA
ATOM      3  C   UNL     1      34.671 -18.135 -22.571  0.00  0.00    +0.101 C 
ATOM      4  C   UNL     1      35.000 -16.664 -22.302  0.00  0.00    +0.199 C 
ATOM      5  C   UNL     1      34.800 -15.941 -23.634  0.00  0.00    +0.177 C 
ATOM      6  C   UNL     1      35.105 -18.310 -24.026  0.00  0.00    +0.145 C 
ATOM      7  C   UNL     1      34.591 -17.032 -24.687  0.00  0.00    +0.163 C 
ATOM      8  C   UNL     1      33.300 -15.282 -22.203  0.00  0.00    +0.316 C 
ENDROOT
BRANCH   6   9
ATOM      9  O   UNL     1      34.528 -19.465 -24.612  0.00  0.00    -0.382 OA
ATOM     10  H   UNL     1      35.192 -19.920 -25.152  0.00  0.00    +0.210 HD
ENDBRANCH   6   9
BRANCH   7  11
ATOM     11  O   UNL     1      35.317 -16.747 -25.873  0.00  0.00    -0.380 OA
ATOM     12  H   UNL     1      34.727 -16.819 -26.639  0.00  0.00    +0.211 HD
ENDBRANCH   7  11
BRANCH   8  13
ATOM     13  N   UNL     1      32.255 -14.681 -21.579  0.00  0.00    -0.191 NA
ATOM     14  C   UNL     1      32.206 -13.394 -21.667  0.00  0.00    +0.124 C 
ENDBRANCH   8  13
BRANCH   3  15
ATOM     15  C   UNL     1      35.383 -19.084 -21.617  0.00  0.00    +0.143 C 
BRANCH  15  16
ATOM     16  O   UNL     1      35.881 -18.337 -20.522  0.00  0.00    -0.382 OA
ATOM     17  H   UNL     1      35.139 -17.950 -20.030  0.00  0.00    +0.210 HD
ENDBRANCH  15  16
ENDBRANCH   3  15
TORSDOF 5
ENDMDL
MODEL 8
REMARK VINA RESULT:      -6.4      2.690      3.903
REMARK  Name = 5287668
REMARK  5 active torsions:
REMARK  status: ('A' for Active; 'I' for Inactive)
REMARK    1  A    between atoms: C_3  and  C_15
REMARK    2  A    between atoms: C_6  and  O_9
REMARK    3  A    between atoms: C_7  and  O_11
REMARK    4  A    between atoms: C_8  and  N_13
REMARK    5  A    between atoms: C_15  and  O_16
REMARK                            x       y       z     vdW  Elec       q    Type
REMARK                         _______ _______ _______ _____ _____    ______ ____
ROOT
ATOM      1  O   UNL     1      37.818 -23.152 -15.251  0.00  0.00    -0.448 OA
ATOM      2  N   UNL     1      35.685 -23.237 -16.111  0.00  0.00    -0.216 NA
ATOM      3  C   UNL     1      36.885 -23.684 -13.060  0.00  0.00    +0.101 C 
ATOM      4  C   UNL     1      37.171 -24.154 -14.489  0.00  0.00    +0.199 C 
ATOM      5  C   UNL     1      35.804 -24.343 -15.148  0.00  0.00    +0.177 C 
ATOM      6  C   UNL     1      35.565 -24.382 -12.740  0.00  0.00    +0.145 C 
ATOM      7  C   UNL     1      34.767 -24.205 -14.031  0.00  0.00    +0.163 C 
ATOM      8  C   UNL     1      36.855 -22.686 -16.087  0.00  0.00    +0.316 C 
ENDROOT
BRANCH   6   9
ATOM      9  O   UNL     1      34.905 -23.782 -11.638  0.00  0.00    -0.382 OA
ATOM     10  H   UNL     1      34.702 -24.459 -10.974  0.00  0.00    +0.210 HD
ENDBRANCH   6   9
BRANCH   7  11
ATOM     11  O   UNL     1      33.757 -25.197 -14.144  0.00  0.00    -0.380 OA
ATOM     12  H   UNL     1      33.583 -25.376 -15.081  0.00  0.00    +0.211 HD
ENDBRANCH   7  11
BRANCH   8  13
ATOM     13  N   UNL     1      37.220 -21.631 -16.859  0.00  0.00    -0.191 NA
ATOM     14  C   UNL     1      36.706 -21.589 -18.043  0.00  0.00    +0.124 C 
ENDBRANCH   8  13
BRANCH   3  15
ATOM     15  C   UNL     1      38.000 -24.037 -12.087  0.00  0.00    +0.143 C 
BRANCH  15  16
ATOM     16  O   UNL     1      38.591 -22.837 -11.619  0.00  0.00    -0.382 OA
ATOM     17  H   UNL     1      39.516 -23.005 -11.379  0.00  0.00    +0.210 HD
ENDBRANCH  15  16
ENDBRANCH   3  15
TORSDOF 5
ENDMDL
MODEL 9
REMARK VINA RESULT:      -6.4     11.815     13.725
REMARK  Name = 5287668
REMARK  5 active torsions:
REMARK  status: ('A' for Active; 'I' for Inactive)
REMARK    1  A    between atoms: C_3  and  C_15
REMARK    2  A    between atoms: C_6  and  O_9
REMARK    3  A    between atoms: C_7  and  O_11
REMARK    4  A    between atoms: C_8  and  N_13
REMARK    5  A    between atoms: C_15  and  O_16
REMARK                            x       y       z     vdW  Elec       q    Type
REMARK                         _______ _______ _______ _____ _____    ______ ____
ROOT
ATOM      1  O   UNL     1      34.250 -15.255 -24.482  0.00  0.00    -0.448 OA
ATOM      2  N   UNL     1      34.158 -17.334 -25.466  0.00  0.00    -0.216 NA
ATOM      3  C   UNL     1      34.188 -16.356 -22.306  0.00  0.00    +0.101 C 
ATOM      4  C   UNL     1      34.968 -16.097 -23.598  0.00  0.00    +0.199 C 
ATOM      5  C   UNL     1      35.060 -17.446 -24.309  0.00  0.00    +0.177 C 
ATOM      6  C   UNL     1      34.589 -17.789 -21.960  0.00  0.00    +0.145 C 
ATOM      7  C   UNL     1      34.542 -18.491 -23.316  0.00  0.00    +0.163 C 
ATOM      8  C   UNL     1      33.809 -16.088 -25.459  0.00  0.00    +0.316 C 
ENDROOT
BRANCH   6   9
ATOM      9  O   UNL     1      33.687 -18.381 -21.040  0.00  0.00    -0.382 OA
ATOM     10  H   UNL     1      34.163 -19.020 -20.486  0.00  0.00    +0.210 HD
ENDBRANCH   6   9
BRANCH   7  11
ATOM     11  O   UNL     1      35.361 -19.650 -23.317  0.00  0.00    -0.380 OA
ATOM     12  H   UNL     1      36.284 -19.393 -23.172  0.00  0.00    +0.211 HD
ENDBRANCH   7  11
BRANCH   8  13
ATOM     13  N   UNL     1      32.997 -15.516 -26.384  0.00  0.00    -0.191 NA
ATOM     14  C   UNL     1      32.831 -14.240 -26.282  0.00  0.00    +0.124 C 
ENDBRANCH   8  13
BRANCH   3  15
ATOM     15  C   UNL     1      34.519 -15.360 -21.204  0.00  0.00    +0.143 C 
BRANCH  15  16
ATOM     16  O   UNL     1      35.035 -16.069 -20.091  0.00  0.00    -0.382 OA
ATOM     17  H   UNL     1      35.079 -17.015 -20.303  0.00  0.00    +0.210 HD
ENDBRANCH  15  16
ENDBRANCH   3  15
TORSDOF 5
ENDMDL
