MODEL 1
REMARK VINA RESULT:      -7.7      0.000      0.000
REMARK  Name = 23647358
REMARK  11 active torsions:
REMARK  status: ('A' for Active; 'I' for Inactive)
REMARK    1  A    between atoms: CA_1  and  N_3
REMARK    2  A    between atoms: CA_1  and  C_16
REMARK    3  A    between atoms: CA_1  and  CB_24
REMARK    4  A    between atoms: C_4  and  C_7
REMARK    5  A    between atoms: C_8  and  C_10
REMARK    6  A    between atoms: C_10  and  O_11
REMARK    7  A    between atoms: O_11  and  C_12
REMARK    8  A    between atoms: N_15  and  CA_18
REMARK    9  A    between atoms: CA_18  and  C_21
REMARK   10  A    between atoms: C_21  and  O_22
REMARK   11  A    between atoms: CB_24  and  CG1_26
REMARK                            x       y       z     vdW  Elec       q    Type
REMARK                         _______ _______ _______ _____ _____    ______ ____
ROOT
ATOM      1  CA  UNL     1      33.252 -23.652 -16.207  0.00  0.00    +0.149 C 
ENDROOT
BRANCH   1   3
ATOM      2  O   UNL     1      35.643 -25.177 -15.586  0.00  0.00    -0.272 OA
ATOM      3  N   UNL     1      34.347 -23.257 -15.358  0.00  0.00    -0.296 N 
ATOM      4  C   ACE A   0      35.453 -24.057 -15.120  0.00  0.00    +0.253 C 
ATOM      5  H   UNL     1      34.306 -22.373 -14.926  0.00  0.00    +0.150 HD
BRANCH   4   7
ATOM      6  O   UNL     1      35.944 -23.201 -12.909  0.00  0.00    -0.333 OA
ATOM      7  C   UNL     1      36.458 -23.391 -14.218  0.00  0.00    +0.229 C 
ATOM      8  C   UNL     1      37.001 -24.155 -13.070  0.00  0.00    +0.250 C 
BRANCH   8  10
ATOM      9  O   UNL     1      38.296 -22.912 -11.552  0.00  0.00    -0.247 OA
ATOM     10  C   UNL     1      38.266 -23.721 -12.468  0.00  0.00    +0.347 C 
BRANCH  10  11
ATOM     11  O   UNL     1      39.333 -24.326 -13.059  0.00  0.00    -0.447 OA
BRANCH  11  12
ATOM     12  C   UNL     1      39.081 -25.627 -13.597  0.00  0.00    +0.209 C 
ATOM     13  C   UNL     1      40.151 -25.955 -14.617  0.00  0.00    +0.051 C 
ENDBRANCH  11  12
ENDBRANCH  10  11
ENDBRANCH   8  10
ENDBRANCH   4   7
ENDBRANCH   1   3
BRANCH   1  16
ATOM     14  O   UNL     1      33.609 -24.420 -18.481  0.00  0.00    -0.273 OA
ATOM     15  N   UNL     1      34.178 -22.235 -17.937  0.00  0.00    -0.295 N 
ATOM     16  C   UNL     1      33.699 -23.508 -17.661  0.00  0.00    +0.241 C 
ATOM     17  H   UNL     1      34.208 -21.578 -17.206  0.00  0.00    +0.150 HD
BRANCH  15  18
ATOM     18  CA  UNL     1      34.634 -21.827 -19.247  0.00  0.00    +0.171 C 
ATOM     19  CB  UNL     1      33.645 -20.860 -19.880  0.00  0.00    +0.033 C 
BRANCH  18  21
ATOM     20  OXT UNL     1      36.354 -20.256 -19.892  0.00  0.00    -0.248 OA
ATOM     21  C   UNL     1      36.019 -21.205 -19.192  0.00  0.00    +0.332 C 
BRANCH  21  22
ATOM     22  O   UNL     1      36.867 -21.789 -18.311  0.00  0.00    -0.479 OA
ATOM     23  H   UNL     1      37.034 -22.710 -18.362  0.00  0.00    +0.295 HD
ENDBRANCH  21  22
ENDBRANCH  18  21
ENDBRANCH  15  18
ENDBRANCH   1  16
BRANCH   1  24
ATOM     24  CB  UNL     1      31.945 -22.877 -15.910  0.00  0.00    +0.027 C 
ATOM     25  CG2 UNL     1      30.758 -23.557 -16.604  0.00  0.00    +0.002 C 
BRANCH  24  26
ATOM     26  CG1 UNL     1      31.698 -22.707 -14.395  0.00  0.00    +0.002 C 
ATOM     27  CD1 UNL     1      30.838 -23.810 -13.792  0.00  0.00    +0.000 C 
ENDBRANCH  24  26
ENDBRANCH   1  24
TORSDOF 11
ENDMDL
MODEL 2
REMARK VINA RESULT:      -7.6      2.167      4.585
REMARK  Name = 23647358
REMARK  11 active torsions:
REMARK  status: ('A' for Active; 'I' for Inactive)
REMARK    1  A    between atoms: CA_1  and  N_3
REMARK    2  A    between atoms: CA_1  and  C_16
REMARK    3  A    between atoms: CA_1  and  CB_24
REMARK    4  A    between atoms: C_4  and  C_7
REMARK    5  A    between atoms: C_8  and  C_10
REMARK    6  A    between atoms: C_10  and  O_11
REMARK    7  A    between atoms: O_11  and  C_12
REMARK    8  A    between atoms: N_15  and  CA_18
REMARK    9  A    between atoms: CA_18  and  C_21
REMARK   10  A    between atoms: C_21  and  O_22
REMARK   11  A    between atoms: CB_24  and  CG1_26
REMARK                            x       y       z     vdW  Elec       q    Type
REMARK                         _______ _______ _______ _____ _____    ______ ____
ROOT
ATOM      1  CA  UNL     1      34.613 -22.084 -18.025  0.00  0.00    +0.149 C 
ENDROOT
BRANCH   1   3
ATOM      2  O   UNL     1      35.241 -22.360 -15.204  0.00  0.00    -0.272 OA
ATOM      3  N   UNL     1      35.853 -22.532 -17.444  0.00  0.00    -0.296 N 
ATOM      4  C   ACE A   0      36.061 -22.632 -16.077  0.00  0.00    +0.253 C 
ATOM      5  H   UNL     1      36.589 -22.779 -18.049  0.00  0.00    +0.150 HD
BRANCH   4   7
ATOM      6  O   UNL     1      37.753 -22.951 -14.374  0.00  0.00    -0.333 OA
ATOM      7  C   UNL     1      37.435 -23.150 -15.743  0.00  0.00    +0.229 C 
ATOM      8  C   UNL     1      37.556 -24.300 -14.817  0.00  0.00    +0.250 C 
BRANCH   8  10
ATOM      9  O   UNL     1      39.887 -24.562 -14.973  0.00  0.00    -0.247 OA
ATOM     10  C   UNL     1      38.793 -25.088 -14.829  0.00  0.00    +0.347 C 
BRANCH  10  11
ATOM     11  O   UNL     1      38.541 -26.416 -14.665  0.00  0.00    -0.447 OA
BRANCH  11  12
ATOM     12  C   UNL     1      37.304 -26.730 -14.016  0.00  0.00    +0.209 C 
ATOM     13  C   UNL     1      37.410 -26.369 -12.550  0.00  0.00    +0.051 C 
ENDBRANCH  11  12
ENDBRANCH  10  11
ENDBRANCH   8  10
ENDBRANCH   4   7
ENDBRANCH   1   3
BRANCH   1  16
ATOM     14  O   UNL     1      33.521 -24.226 -18.351  0.00  0.00    -0.273 OA
ATOM     15  N   UNL     1      32.663 -22.766 -16.762  0.00  0.00    -0.295 N 
ATOM     16  C   UNL     1      33.550 -23.149 -17.759  0.00  0.00    +0.241 C 
ATOM     17  H   UNL     1      32.775 -21.878 -16.352  0.00  0.00    +0.150 HD
BRANCH  15  18
ATOM     18  CA  UNL     1      31.582 -23.606 -16.297  0.00  0.00    +0.171 C 
ATOM     19  CB  UNL     1      31.930 -24.230 -14.954  0.00  0.00    +0.033 C 
BRANCH  18  21
ATOM     20  OXT UNL     1      29.651 -22.455 -17.185  0.00  0.00    -0.248 OA
ATOM     21  C   UNL     1      30.274 -22.838 -16.201  0.00  0.00    +0.332 C 
BRANCH  21  22
ATOM     22  O   UNL     1      29.851 -22.597 -14.937  0.00  0.00    -0.479 OA
ATOM     23  H   UNL     1      30.472 -22.548 -14.237  0.00  0.00    +0.295 HD
ENDBRANCH  21  22
ENDBRANCH  18  21
ENDBRANCH  15  18
ENDBRANCH   1  16
BRANCH   1  24
ATOM     24  CB  UNL     1      34.740 -21.737 -19.528  0.00  0.00    +0.027 C 
ATOM     25  CG2 UNL     1      33.563 -20.857 -19.968  0.00  0.00    +0.002 C 
BRANCH  24  26
ATOM     26  CG1 UNL     1      36.097 -21.081 -19.864  0.00  0.00    +0.002 C 
ATOM     27  CD1 UNL     1      35.969 -19.803 -20.682  0.00  0.00    +0.000 C 
ENDBRANCH  24  26
ENDBRANCH   1  24
TORSDOF 11
ENDMDL
MODEL 3
REMARK VINA RESULT:      -7.6      1.688      6.790
REMARK  Name = 23647358
REMARK  11 active torsions:
REMARK  status: ('A' for Active; 'I' for Inactive)
REMARK    1  A    between atoms: CA_1  and  N_3
REMARK    2  A    between atoms: CA_1  and  C_16
REMARK    3  A    between atoms: CA_1  and  CB_24
REMARK    4  A    between atoms: C_4  and  C_7
REMARK    5  A    between atoms: C_8  and  C_10
REMARK    6  A    between atoms: C_10  and  O_11
REMARK    7  A    between atoms: O_11  and  C_12
REMARK    8  A    between atoms: N_15  and  CA_18
REMARK    9  A    between atoms: CA_18  and  C_21
REMARK   10  A    between atoms: C_21  and  O_22
REMARK   11  A    between atoms: CB_24  and  CG1_26
REMARK                            x       y       z     vdW  Elec       q    Type
REMARK                         _______ _______ _______ _____ _____    ______ ____
ROOT
ATOM      1  CA  UNL     1      34.619 -23.219 -15.521  0.00  0.00    +0.149 C 
ENDROOT
BRANCH   1   3
ATOM      2  O   UNL     1      37.001 -21.690 -16.161  0.00  0.00    -0.272 OA
ATOM      3  N   UNL     1      35.067 -22.801 -16.825  0.00  0.00    -0.296 N 
ATOM      4  C   ACE A   0      36.225 -22.069 -17.033  0.00  0.00    +0.253 C 
ATOM      5  H   UNL     1      34.522 -23.049 -17.607  0.00  0.00    +0.150 HD
BRANCH   4   7
ATOM      6  O   UNL     1      35.467 -22.365 -19.314  0.00  0.00    -0.333 OA
ATOM      7  C   UNL     1      36.471 -21.789 -18.492  0.00  0.00    +0.229 C 
ATOM      8  C   UNL     1      35.508 -20.935 -19.226  0.00  0.00    +0.250 C 
BRANCH   8  10
ATOM      9  O   UNL     1      37.006 -19.699 -20.550  0.00  0.00    -0.247 OA
ATOM     10  C   UNL     1      35.940 -20.293 -20.472  0.00  0.00    +0.347 C 
BRANCH  10  11
ATOM     11  O   UNL     1      35.021 -20.456 -21.462  0.00  0.00    -0.447 OA
BRANCH  11  12
ATOM     12  C   UNL     1      34.471 -19.247 -21.995  0.00  0.00    +0.209 C 
ATOM     13  C   UNL     1      34.956 -19.069 -23.418  0.00  0.00    +0.051 C 
ENDBRANCH  11  12
ENDBRANCH  10  11
ENDBRANCH   8  10
ENDBRANCH   4   7
ENDBRANCH   1   3
BRANCH   1  16
ATOM     14  O   UNL     1      35.687 -25.396 -15.502  0.00  0.00    -0.273 OA
ATOM     15  N   UNL     1      36.348 -23.815 -13.936  0.00  0.00    -0.295 N 
ATOM     16  C   UNL     1      35.588 -24.278 -15.000  0.00  0.00    +0.241 C 
ATOM     17  H   UNL     1      36.188 -22.900 -13.610  0.00  0.00    +0.150 HD
BRANCH  15  18
ATOM     18  CA  UNL     1      37.363 -24.609 -13.281  0.00  0.00    +0.171 C 
ATOM     19  CB  UNL     1      38.591 -24.745 -14.169  0.00  0.00    +0.033 C 
BRANCH  18  21
ATOM     20  OXT UNL     1      38.750 -23.339 -11.763  0.00  0.00    -0.248 OA
ATOM     21  C   UNL     1      37.750 -24.027 -11.931  0.00  0.00    +0.332 C 
BRANCH  21  22
ATOM     22  O   UNL     1      36.905 -24.336 -10.919  0.00  0.00    -0.479 OA
ATOM     23  H   UNL     1      37.106 -25.045 -10.341  0.00  0.00    +0.295 HD
ENDBRANCH  21  22
ENDBRANCH  18  21
ENDBRANCH  15  18
ENDBRANCH   1  16
BRANCH   1  24
ATOM     24  CB  UNL     1      33.149 -23.706 -15.514  0.00  0.00    +0.027 C 
ATOM     25  CG2 UNL     1      32.469 -23.317 -14.195  0.00  0.00    +0.002 C 
BRANCH  24  26
ATOM     26  CG1 UNL     1      32.357 -23.191 -16.736  0.00  0.00    +0.002 C 
ATOM     27  CD1 UNL     1      30.889 -22.917 -16.436  0.00  0.00    +0.000 C 
ENDBRANCH  24  26
ENDBRANCH   1  24
TORSDOF 11
ENDMDL
MODEL 4
REMARK VINA RESULT:      -7.5      2.286      6.786
REMARK  Name = 23647358
REMARK  11 active torsions:
REMARK  status: ('A' for Active; 'I' for Inactive)
REMARK    1  A    between atoms: CA_1  and  N_3
REMARK    2  A    between atoms: CA_1  and  C_16
REMARK    3  A    between atoms: CA_1  and  CB_24
REMARK    4  A    between atoms: C_4  and  C_7
REMARK    5  A    between atoms: C_8  and  C_10
REMARK    6  A    between atoms: C_10  and  O_11
REMARK    7  A    between atoms: O_11  and  C_12
REMARK    8  A    between atoms: N_15  and  CA_18
REMARK    9  A    between atoms: CA_18  and  C_21
REMARK   10  A    between atoms: C_21  and  O_22
REMARK   11  A    between atoms: CB_24  and  CG1_26
REMARK                            x       y       z     vdW  Elec       q    Type
REMARK                         _______ _______ _______ _____ _____    ______ ____
ROOT
ATOM      1  CA  UNL     1      34.720 -24.397 -15.315  0.00  0.00    +0.149 C 
ENDROOT
BRANCH   1   3
ATOM      2  O   UNL     1      33.893 -23.801 -18.033  0.00  0.00    -0.272 OA
ATOM      3  N   UNL     1      35.086 -23.253 -16.110  0.00  0.00    -0.296 N 
ATOM      4  C   ACE A   0      34.639 -23.053 -17.407  0.00  0.00    +0.253 C 
ATOM      5  H   UNL     1      35.684 -22.580 -15.712  0.00  0.00    +0.150 HD
BRANCH   4   7
ATOM      6  O   UNL     1      36.571 -21.721 -18.006  0.00  0.00    -0.333 OA
ATOM      7  C   UNL     1      35.152 -21.766 -17.997  0.00  0.00    +0.229 C 
ATOM      8  C   UNL     1      35.905 -21.818 -19.272  0.00  0.00    +0.250 C 
BRANCH   8  10
ATOM      9  O   UNL     1      36.873 -19.754 -19.848  0.00  0.00    -0.247 OA
ATOM     10  C   UNL     1      36.017 -20.596 -20.076  0.00  0.00    +0.347 C 
BRANCH  10  11
ATOM     11  O   UNL     1      35.073 -20.557 -21.056  0.00  0.00    -0.447 OA
BRANCH  11  12
ATOM     12  C   UNL     1      34.120 -19.494 -20.948  0.00  0.00    +0.209 C 
ATOM     13  C   UNL     1      32.792 -20.067 -20.501  0.00  0.00    +0.051 C 
ENDBRANCH  11  12
ENDBRANCH  10  11
ENDBRANCH   8  10
ENDBRANCH   4   7
ENDBRANCH   1   3
BRANCH   1  16
ATOM     14  O   UNL     1      33.526 -23.835 -13.279  0.00  0.00    -0.273 OA
ATOM     15  N   UNL     1      32.348 -23.916 -15.278  0.00  0.00    -0.295 N 
ATOM     16  C   UNL     1      33.486 -24.031 -14.492  0.00  0.00    +0.241 C 
ATOM     17  H   UNL     1      32.425 -24.095 -16.242  0.00  0.00    +0.150 HD
BRANCH  15  18
ATOM     18  CA  UNL     1      31.054 -23.547 -14.750  0.00  0.00    +0.171 C 
ATOM     19  CB  UNL     1      30.188 -22.932 -15.838  0.00  0.00    +0.033 C 
BRANCH  18  21
ATOM     20  OXT UNL     1      29.567 -25.452 -14.734  0.00  0.00    -0.248 OA
ATOM     21  C   UNL     1      30.345 -24.734 -14.117  0.00  0.00    +0.332 C 
BRANCH  21  22
ATOM     22  O   UNL     1      30.632 -24.932 -12.808  0.00  0.00    -0.479 OA
ATOM     23  H   UNL     1      30.189 -24.433 -12.151  0.00  0.00    +0.295 HD
ENDBRANCH  21  22
ENDBRANCH  18  21
ENDBRANCH  15  18
ENDBRANCH   1  16
BRANCH   1  24
ATOM     24  CB  UNL     1      35.883 -24.921 -14.437  0.00  0.00    +0.027 C 
ATOM     25  CG2 UNL     1      36.473 -26.198 -15.049  0.00  0.00    +0.002 C 
BRANCH  24  26
ATOM     26  CG1 UNL     1      36.968 -23.847 -14.204  0.00  0.00    +0.002 C 
ATOM     27  CD1 UNL     1      36.990 -23.304 -12.781  0.00  0.00    +0.000 C 
ENDBRANCH  24  26
ENDBRANCH   1  24
TORSDOF 11
ENDMDL
MODEL 5
REMARK VINA RESULT:      -7.2      9.741     13.956
REMARK  Name = 23647358
REMARK  11 active torsions:
REMARK  status: ('A' for Active; 'I' for Inactive)
REMARK    1  A    between atoms: CA_1  and  N_3
REMARK    2  A    between atoms: CA_1  and  C_16
REMARK    3  A    between atoms: CA_1  and  CB_24
REMARK    4  A    between atoms: C_4  and  C_7
REMARK    5  A    between atoms: C_8  and  C_10
REMARK    6  A    between atoms: C_10  and  O_11
REMARK    7  A    between atoms: O_11  and  C_12
REMARK    8  A    between atoms: N_15  and  CA_18
REMARK    9  A    between atoms: CA_18  and  C_21
REMARK   10  A    between atoms: C_21  and  O_22
REMARK   11  A    between atoms: CB_24  and  CG1_26
REMARK                            x       y       z     vdW  Elec       q    Type
REMARK                         _______ _______ _______ _____ _____    ______ ____
ROOT
ATOM      1  CA  UNL     1      33.684 -11.694 -23.464  0.00  0.00    +0.149 C 
ENDROOT
BRANCH   1   3
ATOM      2  O   UNL     1      34.649 -14.052 -22.075  0.00  0.00    -0.272 OA
ATOM      3  N   UNL     1      33.520 -13.070 -23.858  0.00  0.00    -0.296 N 
ATOM      4  C   ACE A   0      34.018 -14.136 -23.125  0.00  0.00    +0.253 C 
ATOM      5  H   UNL     1      33.028 -13.262 -24.689  0.00  0.00    +0.150 HD
BRANCH   4   7
ATOM      6  O   UNL     1      33.700 -15.401 -25.165  0.00  0.00    -0.333 OA
ATOM      7  C   UNL     1      33.683 -15.465 -23.747  0.00  0.00    +0.229 C 
ATOM      8  C   UNL     1      34.728 -16.171 -24.527  0.00  0.00    +0.250 C 
BRANCH   8  10
ATOM      9  O   UNL     1      33.848 -18.061 -25.613  0.00  0.00    -0.247 OA
ATOM     10  C   UNL     1      34.588 -17.614 -24.749  0.00  0.00    +0.347 C 
BRANCH  10  11
ATOM     11  O   UNL     1      35.368 -18.328 -23.892  0.00  0.00    -0.447 OA
BRANCH  11  12
ATOM     12  C   UNL     1      34.661 -19.117 -22.930  0.00  0.00    +0.209 C 
ATOM     13  C   UNL     1      35.309 -18.938 -21.574  0.00  0.00    +0.051 C 
ENDBRANCH  11  12
ENDBRANCH  10  11
ENDBRANCH   8  10
ENDBRANCH   4   7
ENDBRANCH   1   3
BRANCH   1  16
ATOM     14  O   UNL     1      31.486 -11.999 -22.485  0.00  0.00    -0.273 OA
ATOM     15  N   UNL     1      32.703 -10.103 -21.926  0.00  0.00    -0.295 N 
ATOM     16  C   UNL     1      32.492 -11.301 -22.592  0.00  0.00    +0.241 C 
ATOM     17  H   UNL     1      33.547  -9.622 -22.083  0.00  0.00    +0.150 HD
BRANCH  15  18
ATOM     18  CA  UNL     1      31.744  -9.524 -21.012  0.00  0.00    +0.171 C 
ATOM     19  CB  UNL     1      31.663 -10.344 -19.733  0.00  0.00    +0.033 C 
BRANCH  18  21
ATOM     20  OXT UNL     1      31.717  -7.138 -21.395  0.00  0.00    -0.248 OA
ATOM     21  C   UNL     1      32.075  -8.076 -20.692  0.00  0.00    +0.332 C 
BRANCH  21  22
ATOM     22  O   UNL     1      32.809  -7.898 -19.567  0.00  0.00    -0.479 OA
ATOM     23  H   UNL     1      33.104  -8.641 -19.078  0.00  0.00    +0.295 HD
ENDBRANCH  21  22
ENDBRANCH  18  21
ENDBRANCH  15  18
ENDBRANCH   1  16
BRANCH   1  24
ATOM     24  CB  UNL     1      33.876 -10.739 -24.668  0.00  0.00    +0.027 C 
ATOM     25  CG2 UNL     1      34.799  -9.577 -24.279  0.00  0.00    +0.002 C 
BRANCH  24  26
ATOM     26  CG1 UNL     1      34.390 -11.478 -25.923  0.00  0.00    +0.002 C 
ATOM     27  CD1 UNL     1      35.541 -10.764 -26.620  0.00  0.00    +0.000 C 
ENDBRANCH  24  26
ENDBRANCH   1  24
TORSDOF 11
ENDMDL
MODEL 6
REMARK VINA RESULT:      -7.2      6.956     11.968
REMARK  Name = 23647358
REMARK  11 active torsions:
REMARK  status: ('A' for Active; 'I' for Inactive)
REMARK    1  A    between atoms: CA_1  and  N_3
REMARK    2  A    between atoms: CA_1  and  C_16
REMARK    3  A    between atoms: CA_1  and  CB_24
REMARK    4  A    between atoms: C_4  and  C_7
REMARK    5  A    between atoms: C_8  and  C_10
REMARK    6  A    between atoms: C_10  and  O_11
REMARK    7  A    between atoms: O_11  and  C_12
REMARK    8  A    between atoms: N_15  and  CA_18
REMARK    9  A    between atoms: CA_18  and  C_21
REMARK   10  A    between atoms: C_21  and  O_22
REMARK   11  A    between atoms: CB_24  and  CG1_26
REMARK                            x       y       z     vdW  Elec       q    Type
REMARK                         _______ _______ _______ _____ _____    ______ ____
ROOT
ATOM      1  CA  UNL     1      34.035 -17.269 -22.615  0.00  0.00    +0.149 C 
ENDROOT
BRANCH   1   3
ATOM      2  O   UNL     1      31.909 -16.070 -21.043  0.00  0.00    -0.272 OA
ATOM      3  N   UNL     1      33.839 -15.870 -22.329  0.00  0.00    -0.296 N 
ATOM      4  C   ACE A   0      32.788 -15.389 -21.564  0.00  0.00    +0.253 C 
ATOM      5  H   UNL     1      34.485 -15.224 -22.696  0.00  0.00    +0.150 HD
BRANCH   4   7
ATOM      6  O   UNL     1      33.405 -13.259 -22.536  0.00  0.00    -0.333 OA
ATOM      7  C   UNL     1      32.836 -13.893 -21.401  0.00  0.00    +0.229 C 
ATOM      8  C   UNL     1      32.007 -13.052 -22.297  0.00  0.00    +0.250 C 
BRANCH   8  10
ATOM      9  O   UNL     1      30.881 -11.450 -20.996  0.00  0.00    -0.247 OA
ATOM     10  C   UNL     1      31.689 -11.681 -21.884  0.00  0.00    +0.347 C 
BRANCH  10  11
ATOM     11  O   UNL     1      32.397 -10.767 -22.603  0.00  0.00    -0.447 OA
BRANCH  11  12
ATOM     12  C   UNL     1      32.215  -9.403 -22.211  0.00  0.00    +0.209 C 
ATOM     13  C   UNL     1      31.538  -8.652 -23.338  0.00  0.00    +0.051 C 
ENDBRANCH  11  12
ENDBRANCH  10  11
ENDBRANCH   8  10
ENDBRANCH   4   7
ENDBRANCH   1   3
BRANCH   1  16
ATOM     14  O   UNL     1      35.347 -17.379 -20.577  0.00  0.00    -0.273 OA
ATOM     15  N   UNL     1      34.076 -19.223 -21.188  0.00  0.00    -0.295 N 
ATOM     16  C   UNL     1      34.578 -17.941 -21.355  0.00  0.00    +0.241 C 
ATOM     17  H   UNL     1      33.465 -19.580 -21.872  0.00  0.00    +0.150 HD
BRANCH  15  18
ATOM     18  CA  UNL     1      34.407 -20.064 -20.059  0.00  0.00    +0.171 C 
ATOM     19  CB  UNL     1      33.357 -21.148 -19.874  0.00  0.00    +0.033 C 
BRANCH  18  21
ATOM     20  OXT UNL     1      35.963 -21.858 -20.509  0.00  0.00    -0.248 OA
ATOM     21  C   UNL     1      35.787 -20.683 -20.203  0.00  0.00    +0.332 C 
BRANCH  21  22
ATOM     22  O   UNL     1      36.816 -19.837 -19.957  0.00  0.00    -0.479 OA
ATOM     23  H   UNL     1      37.025 -19.163 -20.573  0.00  0.00    +0.295 HD
ENDBRANCH  21  22
ENDBRANCH  18  21
ENDBRANCH  15  18
ENDBRANCH   1  16
BRANCH   1  24
ATOM     24  CB  UNL     1      34.934 -17.513 -23.851  0.00  0.00    +0.027 C 
ATOM     25  CG2 UNL     1      34.505 -18.798 -24.571  0.00  0.00    +0.002 C 
BRANCH  24  26
ATOM     26  CG1 UNL     1      34.952 -16.303 -24.810  0.00  0.00    +0.002 C 
ATOM     27  CD1 UNL     1      33.702 -16.193 -25.673  0.00  0.00    +0.000 C 
ENDBRANCH  24  26
ENDBRANCH   1  24
TORSDOF 11
ENDMDL
MODEL 7
REMARK VINA RESULT:      -7.2      7.713     11.513
REMARK  Name = 23647358
REMARK  11 active torsions:
REMARK  status: ('A' for Active; 'I' for Inactive)
REMARK    1  A    between atoms: CA_1  and  N_3
REMARK    2  A    between atoms: CA_1  and  C_16
REMARK    3  A    between atoms: CA_1  and  CB_24
REMARK    4  A    between atoms: C_4  and  C_7
REMARK    5  A    between atoms: C_8  and  C_10
REMARK    6  A    between atoms: C_10  and  O_11
REMARK    7  A    between atoms: O_11  and  C_12
REMARK    8  A    between atoms: N_15  and  CA_18
REMARK    9  A    between atoms: CA_18  and  C_21
REMARK   10  A    between atoms: C_21  and  O_22
REMARK   11  A    between atoms: CB_24  and  CG1_26
REMARK                            x       y       z     vdW  Elec       q    Type
REMARK                         _______ _______ _______ _____ _____    ______ ____
ROOT
ATOM      1  CA  UNL     1      33.462 -13.959 -22.813  0.00  0.00    +0.149 C 
ENDROOT
BRANCH   1   3
ATOM      2  O   UNL     1      35.070 -14.875 -20.577  0.00  0.00    -0.272 OA
ATOM      3  N   UNL     1      33.678 -15.319 -22.389  0.00  0.00    -0.296 N 
ATOM      4  C   ACE A   0      34.467 -15.661 -21.303  0.00  0.00    +0.253 C 
ATOM      5  H   UNL     1      33.242 -16.041 -22.898  0.00  0.00    +0.150 HD
BRANCH   4   7
ATOM      6  O   UNL     1      34.459 -17.875 -22.283  0.00  0.00    -0.333 OA
ATOM      7  C   UNL     1      34.501 -17.148 -21.065  0.00  0.00    +0.229 C 
ATOM      8  C   UNL     1      35.679 -17.917 -21.532  0.00  0.00    +0.250 C 
BRANCH   8  10
ATOM      9  O   UNL     1      36.915 -19.424 -20.217  0.00  0.00    -0.247 OA
ATOM     10  C   UNL     1      35.945 -19.231 -20.937  0.00  0.00    +0.347 C 
BRANCH  10  11
ATOM     11  O   UNL     1      34.997 -20.140 -21.292  0.00  0.00    -0.447 OA
BRANCH  11  12
ATOM     12  C   UNL     1      34.347 -20.807 -20.205  0.00  0.00    +0.209 C 
ATOM     13  C   UNL     1      32.899 -20.370 -20.153  0.00  0.00    +0.051 C 
ENDBRANCH  11  12
ENDBRANCH  10  11
ENDBRANCH   8  10
ENDBRANCH   4   7
ENDBRANCH   1   3
BRANCH   1  16
ATOM     14  O   UNL     1      31.637 -14.035 -21.216  0.00  0.00    -0.273 OA
ATOM     15  N   UNL     1      32.318 -11.972 -22.036  0.00  0.00    -0.295 N 
ATOM     16  C   UNL     1      32.364 -13.356 -21.938  0.00  0.00    +0.241 C 
ATOM     17  H   UNL     1      32.947 -11.525 -22.647  0.00  0.00    +0.150 HD
BRANCH  15  18
ATOM     18  CA  UNL     1      31.391 -11.155 -21.286  0.00  0.00    +0.171 C 
ATOM     19  CB  UNL     1      31.589 -11.357 -19.791  0.00  0.00    +0.033 C 
BRANCH  18  21
ATOM     20  OXT UNL     1      31.899  -8.834 -20.842  0.00  0.00    -0.248 OA
ATOM     21  C   UNL     1      31.522  -9.683 -21.642  0.00  0.00    +0.332 C 
BRANCH  21  22
ATOM     22  O   UNL     1      31.180  -9.377 -22.916  0.00  0.00    -0.479 OA
ATOM     23  H   UNL     1      31.016  -8.486 -23.156  0.00  0.00    +0.295 HD
ENDBRANCH  21  22
ENDBRANCH  18  21
ENDBRANCH  15  18
ENDBRANCH   1  16
BRANCH   1  24
ATOM     24  CB  UNL     1      33.148 -13.839 -24.324  0.00  0.00    +0.027 C 
ATOM     25  CG2 UNL     1      33.852 -12.611 -24.915  0.00  0.00    +0.002 C 
BRANCH  24  26
ATOM     26  CG1 UNL     1      33.504 -15.127 -25.099  0.00  0.00    +0.002 C 
ATOM     27  CD1 UNL     1      32.830 -15.222 -26.462  0.00  0.00    +0.000 C 
ENDBRANCH  24  26
ENDBRANCH   1  24
TORSDOF 11
ENDMDL
MODEL 8
REMARK VINA RESULT:      -7.0      4.624      8.349
REMARK  Name = 23647358
REMARK  11 active torsions:
REMARK  status: ('A' for Active; 'I' for Inactive)
REMARK    1  A    between atoms: CA_1  and  N_3
REMARK    2  A    between atoms: CA_1  and  C_16
REMARK    3  A    between atoms: CA_1  and  CB_24
REMARK    4  A    between atoms: C_4  and  C_7
REMARK    5  A    between atoms: C_8  and  C_10
REMARK    6  A    between atoms: C_10  and  O_11
REMARK    7  A    between atoms: O_11  and  C_12
REMARK    8  A    between atoms: N_15  and  CA_18
REMARK    9  A    between atoms: CA_18  and  C_21
REMARK   10  A    between atoms: C_21  and  O_22
REMARK   11  A    between atoms: CB_24  and  CG1_26
REMARK                            x       y       z     vdW  Elec       q    Type
REMARK                         _______ _______ _______ _____ _____    ______ ____
ROOT
ATOM      1  CA  UNL     1      35.131 -18.272 -21.719  0.00  0.00    +0.149 C 
ENDROOT
BRANCH   1   3
ATOM      2  O   UNL     1      36.905 -19.769 -19.976  0.00  0.00    -0.272 OA
ATOM      3  N   UNL     1      34.949 -19.614 -21.229  0.00  0.00    -0.296 N 
ATOM      4  C   ACE A   0      35.856 -20.250 -20.395  0.00  0.00    +0.253 C 
ATOM      5  H   UNL     1      34.139 -20.104 -21.500  0.00  0.00    +0.150 HD
BRANCH   4   7
ATOM      6  O   UNL     1      35.813 -21.974 -18.695  0.00  0.00    -0.333 OA
ATOM      7  C   UNL     1      35.408 -21.636 -20.013  0.00  0.00    +0.229 C 
ATOM      8  C   UNL     1      34.410 -21.789 -18.928  0.00  0.00    +0.250 C 
BRANCH   8  10
ATOM      9  O   UNL     1      33.974 -24.035 -19.467  0.00  0.00    -0.247 OA
ATOM     10  C   UNL     1      33.643 -23.036 -18.846  0.00  0.00    +0.347 C 
BRANCH  10  11
ATOM     11  O   UNL     1      32.571 -22.908 -18.017  0.00  0.00    -0.447 OA
BRANCH  11  12
ATOM     12  C   UNL     1      32.803 -23.270 -16.652  0.00  0.00    +0.209 C 
ATOM     13  C   UNL     1      31.485 -23.255 -15.907  0.00  0.00    +0.051 C 
ENDBRANCH  11  12
ENDBRANCH  10  11
ENDBRANCH   8  10
ENDBRANCH   4   7
ENDBRANCH   1   3
BRANCH   1  16
ATOM     14  O   UNL     1      32.815 -18.022 -21.039  0.00  0.00    -0.273 OA
ATOM     15  N   UNL     1      33.969 -16.149 -21.781  0.00  0.00    -0.295 N 
ATOM     16  C   UNL     1      33.836 -17.497 -21.479  0.00  0.00    +0.241 C 
ATOM     17  H   UNL     1      34.833 -15.831 -22.129  0.00  0.00    +0.150 HD
BRANCH  15  18
ATOM     18  CA  UNL     1      32.901 -15.190 -21.612  0.00  0.00    +0.171 C 
ATOM     19  CB  UNL     1      32.830 -14.719 -20.167  0.00  0.00    +0.033 C 
BRANCH  18  21
ATOM     20  OXT UNL     1      34.128 -13.690 -23.057  0.00  0.00    -0.248 OA
ATOM     21  C   UNL     1      33.058 -14.002 -22.548  0.00  0.00    +0.332 C 
BRANCH  21  22
ATOM     22  O   UNL     1      31.919 -13.303 -22.770  0.00  0.00    -0.479 OA
ATOM     23  H   UNL     1      31.960 -12.382 -22.938  0.00  0.00    +0.295 HD
ENDBRANCH  21  22
ENDBRANCH  18  21
ENDBRANCH  15  18
ENDBRANCH   1  16
BRANCH   1  24
ATOM     24  CB  UNL     1      35.584 -18.225 -23.199  0.00  0.00    +0.027 C 
ATOM     25  CG2 UNL     1      34.904 -19.346 -23.995  0.00  0.00    +0.002 C 
BRANCH  24  26
ATOM     26  CG1 UNL     1      35.339 -16.842 -23.841  0.00  0.00    +0.002 C 
ATOM     27  CD1 UNL     1      34.622 -16.913 -25.183  0.00  0.00    +0.000 C 
ENDBRANCH  24  26
ENDBRANCH   1  24
TORSDOF 11
ENDMDL
MODEL 9
REMARK VINA RESULT:      -6.9     10.466     13.605
REMARK  Name = 23647358
REMARK  11 active torsions:
REMARK  status: ('A' for Active; 'I' for Inactive)
REMARK    1  A    between atoms: CA_1  and  N_3
REMARK    2  A    between atoms: CA_1  and  C_16
REMARK    3  A    between atoms: CA_1  and  CB_24
REMARK    4  A    between atoms: C_4  and  C_7
REMARK    5  A    between atoms: C_8  and  C_10
REMARK    6  A    between atoms: C_10  and  O_11
REMARK    7  A    between atoms: O_11  and  C_12
REMARK    8  A    between atoms: N_15  and  CA_18
REMARK    9  A    between atoms: CA_18  and  C_21
REMARK   10  A    between atoms: C_21  and  O_22
REMARK   11  A    between atoms: CB_24  and  CG1_26
REMARK                            x       y       z     vdW  Elec       q    Type
REMARK                         _______ _______ _______ _____ _____    ______ ____
ROOT
ATOM      1  CA  UNL     1      31.355 -10.777 -21.348  0.00  0.00    +0.149 C 
ENDROOT
BRANCH   1   3
ATOM      2  O   UNL     1      31.650 -13.050 -23.129  0.00  0.00    -0.272 OA
ATOM      3  N   UNL     1      32.200 -11.929 -21.164  0.00  0.00    -0.296 N 
ATOM      4  C   ACE A   0      32.275 -12.971 -22.075  0.00  0.00    +0.253 C 
ATOM      5  H   UNL     1      32.752 -11.978 -20.350  0.00  0.00    +0.150 HD
BRANCH   4   7
ATOM      6  O   UNL     1      32.599 -15.248 -21.315  0.00  0.00    -0.333 OA
ATOM      7  C   UNL     1      33.254 -14.034 -21.650  0.00  0.00    +0.229 C 
ATOM      8  C   UNL     1      33.409 -15.240 -22.498  0.00  0.00    +0.250 C 
BRANCH   8  10
ATOM      9  O   UNL     1      34.883 -16.659 -21.341  0.00  0.00    -0.247 OA
ATOM     10  C   UNL     1      34.629 -16.043 -22.366  0.00  0.00    +0.347 C 
BRANCH  10  11
ATOM     11  O   UNL     1      35.383 -15.994 -23.498  0.00  0.00    -0.447 OA
BRANCH  11  12
ATOM     12  C   UNL     1      34.744 -16.481 -24.683  0.00  0.00    +0.209 C 
ATOM     13  C   UNL     1      34.750 -17.995 -24.660  0.00  0.00    +0.051 C 
ENDBRANCH  11  12
ENDBRANCH  10  11
ENDBRANCH   8  10
ENDBRANCH   4   7
ENDBRANCH   1   3
BRANCH   1  16
ATOM     14  O   UNL     1      31.093  -9.234 -23.201  0.00  0.00    -0.273 OA
ATOM     15  N   UNL     1      33.073 -10.432 -23.018  0.00  0.00    -0.295 N 
ATOM     16  C   UNL     1      31.795 -10.061 -22.624  0.00  0.00    +0.241 C 
ATOM     17  H   UNL     1      33.550 -11.107 -22.483  0.00  0.00    +0.150 HD
BRANCH  15  18
ATOM     18  CA  UNL     1      33.738  -9.877 -24.175  0.00  0.00    +0.171 C 
ATOM     19  CB  UNL     1      34.661  -8.739 -23.767  0.00  0.00    +0.033 C 
BRANCH  18  21
ATOM     20  OXT UNL     1      35.246 -10.675 -25.888  0.00  0.00    -0.248 OA
ATOM     21  C   UNL     1      34.513 -10.937 -24.941  0.00  0.00    +0.332 C 
BRANCH  21  22
ATOM     22  O   UNL     1      34.324 -12.205 -24.501  0.00  0.00    -0.479 OA
ATOM     23  H   UNL     1      34.990 -12.631 -23.999  0.00  0.00    +0.295 HD
ENDBRANCH  21  22
ENDBRANCH  18  21
ENDBRANCH  15  18
ENDBRANCH   1  16
BRANCH   1  24
ATOM     24  CB  UNL     1      31.337  -9.837 -20.118  0.00  0.00    +0.027 C 
ATOM     25  CG2 UNL     1      31.317 -10.661 -18.824  0.00  0.00    +0.002 C 
BRANCH  24  26
ATOM     26  CG1 UNL     1      32.509  -8.832 -20.134  0.00  0.00    +0.002 C 
ATOM     27  CD1 UNL     1      32.061  -7.376 -20.161  0.00  0.00    +0.000 C 
ENDBRANCH  24  26
ENDBRANCH   1  24
TORSDOF 11
ENDMDL
