MODEL 1
REMARK VINA RESULT:     -11.2      0.000      0.000
REMARK  Name = 25102845
REMARK  4 active torsions:
REMARK  status: ('A' for Active; 'I' for Inactive)
REMARK    1  A    between atoms: C_5  and  C_12
REMARK    2  A    between atoms: C_9  and  C_17
REMARK    3  A    between atoms: C_17  and  C_18
REMARK    4  A    between atoms: C_18  and  N_21
REMARK                            x       y       z     vdW  Elec       q    Type
REMARK                         _______ _______ _______ _____ _____    ______ ____
ROOT
ATOM      1  F   UNL     1      31.536 -23.746 -13.326  0.00  0.00    -0.202 F 
ATOM      2  F   UNL     1      32.700 -25.461 -14.002  0.00  0.00    -0.202 F 
ATOM      3  O   UNL     1      35.772 -22.671 -17.122  0.00  0.00    -0.275 OA
ATOM      4  N   UNL     1      34.061 -23.329 -15.708  0.00  0.00    -0.267 N 
ATOM      5  C   UNL     1      34.887 -23.489 -14.518  0.00  0.00    +0.158 C 
ATOM      6  C   UNL     1      33.898 -23.528 -13.361  0.00  0.00    +0.098 C 
ATOM      7  C   UNL     1      32.646 -24.109 -13.997  0.00  0.00    +0.284 C 
ATOM      8  C   UNL     1      32.650 -23.579 -15.416  0.00  0.00    +0.160 C 
ATOM      9  C   UNL     1      34.574 -22.872 -16.912  0.00  0.00    +0.228 C 
ENDROOT
BRANCH   5  12
ATOM     10  O   UNL     1      35.229 -25.662 -15.414  0.00  0.00    -0.273 OA
ATOM     11  N   UNL     1      36.766 -24.901 -13.866  0.00  0.00    -0.278 N 
ATOM     12  C   UNL     1      35.633 -24.783 -14.651  0.00  0.00    +0.244 C 
ATOM     13  C   UNL     1      37.597 -26.097 -13.875  0.00  0.00    +0.094 C 
ATOM     14  C   UNL     1      37.300 -23.900 -12.947  0.00  0.00    +0.094 C 
ATOM     15  C   UNL     1      38.868 -25.683 -13.150  0.00  0.00    +0.023 C 
ATOM     16  C   UNL     1      38.368 -24.643 -12.156  0.00  0.00    +0.023 C 
ENDBRANCH   5  12
BRANCH   9  17
ATOM     17  C   UNL     1      33.560 -22.633 -18.003  0.00  0.00    +0.107 C 
BRANCH  17  18
ATOM     18  C   UNL     1      34.216 -22.759 -19.361  0.00  0.00    +0.111 C 
BRANCH  18  21
ATOM     19  O   UNL     1      36.829 -21.540 -20.116  0.00  0.00    -0.269 OA
ATOM     20  O   UNL     1      32.288 -20.624 -20.157  0.00  0.00    -0.269 OA
ATOM     21  N   UNL     1      34.479 -21.477 -19.958  0.00  0.00    -0.222 N 
ATOM     22  C   UNL     1      35.745 -21.010 -20.270  0.00  0.00    +0.255 C 
ATOM     23  C   UNL     1      33.497 -20.558 -20.290  0.00  0.00    +0.255 C 
ATOM     24  C   UNL     1      35.554 -19.687 -20.862  0.00  0.00    +0.058 C 
ATOM     25  C   UNL     1      34.193 -19.413 -20.874  0.00  0.00    +0.058 C 
ATOM     26  C   UNL     1      36.483 -18.789 -21.347  0.00  0.00    +0.005 C 
ATOM     27  C   UNL     1      33.692 -18.229 -21.372  0.00  0.00    +0.005 C 
ATOM     28  C   UNL     1      35.997 -17.583 -21.859  0.00  0.00    +0.000 C 
ATOM     29  C   UNL     1      34.615 -17.305 -21.871  0.00  0.00    +0.000 C 
ENDBRANCH  18  21
ENDBRANCH  17  18
ENDBRANCH   9  17
TORSDOF 4
ENDMDL
MODEL 2
REMARK VINA RESULT:     -11.2      0.035      1.635
REMARK  Name = 25102845
REMARK  4 active torsions:
REMARK  status: ('A' for Active; 'I' for Inactive)
REMARK    1  A    between atoms: C_5  and  C_12
REMARK    2  A    between atoms: C_9  and  C_17
REMARK    3  A    between atoms: C_17  and  C_18
REMARK    4  A    between atoms: C_18  and  N_21
REMARK                            x       y       z     vdW  Elec       q    Type
REMARK                         _______ _______ _______ _____ _____    ______ ____
ROOT
ATOM      1  F   UNL     1      31.520 -23.755 -13.372  0.00  0.00    -0.202 F 
ATOM      2  F   UNL     1      32.688 -25.467 -14.046  0.00  0.00    -0.202 F 
ATOM      3  O   UNL     1      35.773 -22.670 -17.145  0.00  0.00    -0.275 OA
ATOM      4  N   UNL     1      34.057 -23.331 -15.741  0.00  0.00    -0.267 N 
ATOM      5  C   UNL     1      34.877 -23.493 -14.548  0.00  0.00    +0.158 C 
ATOM      6  C   UNL     1      33.882 -23.535 -13.395  0.00  0.00    +0.098 C 
ATOM      7  C   UNL     1      32.633 -24.115 -14.038  0.00  0.00    +0.284 C 
ATOM      8  C   UNL     1      32.643 -23.583 -15.456  0.00  0.00    +0.160 C 
ATOM      9  C   UNL     1      34.575 -22.872 -16.942  0.00  0.00    +0.228 C 
ENDROOT
BRANCH   5  12
ATOM     10  O   UNL     1      35.218 -25.668 -15.439  0.00  0.00    -0.273 OA
ATOM     11  N   UNL     1      36.760 -24.901 -13.897  0.00  0.00    -0.278 N 
ATOM     12  C   UNL     1      35.624 -24.787 -14.679  0.00  0.00    +0.244 C 
ATOM     13  C   UNL     1      37.592 -26.095 -13.906  0.00  0.00    +0.094 C 
ATOM     14  C   UNL     1      37.295 -23.897 -12.983  0.00  0.00    +0.094 C 
ATOM     15  C   UNL     1      38.865 -25.678 -13.187  0.00  0.00    +0.023 C 
ATOM     16  C   UNL     1      38.367 -24.636 -12.194  0.00  0.00    +0.023 C 
ENDBRANCH   5  12
BRANCH   9  17
ATOM     17  C   UNL     1      33.565 -22.632 -18.036  0.00  0.00    +0.107 C 
BRANCH  17  18
ATOM     18  C   UNL     1      34.228 -22.757 -19.392  0.00  0.00    +0.111 C 
BRANCH  18  21
ATOM     19  O   UNL     1      32.297 -20.638 -20.211  0.00  0.00    -0.269 OA
ATOM     20  O   UNL     1      36.843 -21.530 -20.143  0.00  0.00    -0.269 OA
ATOM     21  N   UNL     1      34.489 -21.475 -19.990  0.00  0.00    -0.222 N 
ATOM     22  C   UNL     1      33.506 -20.561 -20.330  0.00  0.00    +0.255 C 
ATOM     23  C   UNL     1      35.756 -21.004 -20.295  0.00  0.00    +0.255 C 
ATOM     24  C   UNL     1      34.204 -19.405 -20.889  0.00  0.00    +0.058 C 
ATOM     25  C   UNL     1      35.566 -19.673 -20.869  0.00  0.00    +0.058 C 
ATOM     26  C   UNL     1      33.702 -18.217 -21.381  0.00  0.00    +0.005 C 
ATOM     27  C   UNL     1      36.495 -18.768 -21.338  0.00  0.00    +0.005 C 
ATOM     28  C   UNL     1      34.626 -17.284 -21.859  0.00  0.00    +0.000 C 
ATOM     29  C   UNL     1      36.009 -17.556 -21.839  0.00  0.00    +0.000 C 
ENDBRANCH  18  21
ENDBRANCH  17  18
ENDBRANCH   9  17
TORSDOF 4
ENDMDL
MODEL 3
REMARK VINA RESULT:     -10.7      6.320      9.623
REMARK  Name = 25102845
REMARK  4 active torsions:
REMARK  status: ('A' for Active; 'I' for Inactive)
REMARK    1  A    between atoms: C_5  and  C_12
REMARK    2  A    between atoms: C_9  and  C_17
REMARK    3  A    between atoms: C_17  and  C_18
REMARK    4  A    between atoms: C_18  and  N_21
REMARK                            x       y       z     vdW  Elec       q    Type
REMARK                         _______ _______ _______ _____ _____    ______ ____
ROOT
ATOM      1  F   UNL     1      33.949 -18.960 -25.417  0.00  0.00    -0.202 F 
ATOM      2  F   UNL     1      35.881 -19.076 -24.413  0.00  0.00    -0.202 F 
ATOM      3  O   UNL     1      34.489 -15.986 -20.480  0.00  0.00    -0.275 OA
ATOM      4  N   UNL     1      34.520 -17.142 -22.485  0.00  0.00    -0.267 N 
ATOM      5  C   UNL     1      34.364 -18.471 -21.909  0.00  0.00    +0.158 C 
ATOM      6  C   UNL     1      33.952 -19.356 -23.078  0.00  0.00    +0.098 C 
ATOM      7  C   UNL     1      34.597 -18.672 -24.272  0.00  0.00    +0.284 C 
ATOM      8  C   UNL     1      34.546 -17.194 -23.947  0.00  0.00    +0.160 C 
ATOM      9  C   UNL     1      34.512 -15.991 -21.712  0.00  0.00    +0.228 C 
ENDROOT
BRANCH   5  12
ATOM     10  O   UNL     1      36.717 -18.274 -21.655  0.00  0.00    -0.273 OA
ATOM     11  N   UNL     1      35.664 -19.968 -20.488  0.00  0.00    -0.278 N 
ATOM     12  C   UNL     1      35.691 -18.883 -21.345  0.00  0.00    +0.244 C 
ATOM     13  C   UNL     1      36.868 -20.495 -19.862  0.00  0.00    +0.094 C 
ATOM     14  C   UNL     1      34.487 -20.728 -20.079  0.00  0.00    +0.094 C 
ATOM     15  C   UNL     1      36.357 -21.435 -18.782  0.00  0.00    +0.023 C 
ATOM     16  C   UNL     1      35.052 -21.953 -19.374  0.00  0.00    +0.023 C 
ENDBRANCH   5  12
BRANCH   9  17
ATOM     17  C   UNL     1      34.547 -14.692 -22.478  0.00  0.00    +0.107 C 
BRANCH  17  18
ATOM     18  C   UNL     1      33.150 -14.313 -22.924  0.00  0.00    +0.111 C 
BRANCH  18  21
ATOM     19  O   UNL     1      31.599 -12.737 -20.926  0.00  0.00    -0.269 OA
ATOM     20  O   UNL     1      34.114 -12.181 -24.777  0.00  0.00    -0.269 OA
ATOM     21  N   UNL     1      32.928 -12.893 -22.865  0.00  0.00    -0.222 N 
ATOM     22  C   UNL     1      32.185 -12.263 -21.881  0.00  0.00    +0.255 C 
ATOM     23  C   UNL     1      33.430 -11.990 -23.787  0.00  0.00    +0.255 C 
ATOM     24  C   UNL     1      32.226 -10.836 -22.195  0.00  0.00    +0.058 C 
ATOM     25  C   UNL     1      32.979 -10.670 -23.348  0.00  0.00    +0.058 C 
ATOM     26  C   UNL     1      31.654  -9.766 -21.537  0.00  0.00    +0.005 C 
ATOM     27  C   UNL     1      33.200  -9.427 -23.903  0.00  0.00    +0.005 C 
ATOM     28  C   UNL     1      31.866  -8.496 -22.081  0.00  0.00    +0.000 C 
ATOM     29  C   UNL     1      32.632  -8.328 -23.253  0.00  0.00    +0.000 C 
ENDBRANCH  18  21
ENDBRANCH  17  18
ENDBRANCH   9  17
TORSDOF 4
ENDMDL
MODEL 4
REMARK VINA RESULT:     -10.7      6.324      9.558
REMARK  Name = 25102845
REMARK  4 active torsions:
REMARK  status: ('A' for Active; 'I' for Inactive)
REMARK    1  A    between atoms: C_5  and  C_12
REMARK    2  A    between atoms: C_9  and  C_17
REMARK    3  A    between atoms: C_17  and  C_18
REMARK    4  A    between atoms: C_18  and  N_21
REMARK                            x       y       z     vdW  Elec       q    Type
REMARK                         _______ _______ _______ _____ _____    ______ ____
ROOT
ATOM      1  F   UNL     1      33.962 -18.950 -25.429  0.00  0.00    -0.202 F 
ATOM      2  F   UNL     1      35.888 -19.068 -24.416  0.00  0.00    -0.202 F 
ATOM      3  O   UNL     1      34.476 -15.993 -20.479  0.00  0.00    -0.275 OA
ATOM      4  N   UNL     1      34.517 -17.141 -22.488  0.00  0.00    -0.267 N 
ATOM      5  C   UNL     1      34.359 -18.472 -21.917  0.00  0.00    +0.158 C 
ATOM      6  C   UNL     1      33.953 -19.354 -23.091  0.00  0.00    +0.098 C 
ATOM      7  C   UNL     1      34.604 -18.666 -24.280  0.00  0.00    +0.284 C 
ATOM      8  C   UNL     1      34.550 -17.188 -23.950  0.00  0.00    +0.160 C 
ATOM      9  C   UNL     1      34.505 -15.993 -21.711  0.00  0.00    +0.228 C 
ENDROOT
BRANCH   5  12
ATOM     10  O   UNL     1      36.711 -18.279 -21.655  0.00  0.00    -0.273 OA
ATOM     11  N   UNL     1      35.652 -19.970 -20.489  0.00  0.00    -0.278 N 
ATOM     12  C   UNL     1      35.684 -18.885 -21.348  0.00  0.00    +0.244 C 
ATOM     13  C   UNL     1      36.853 -20.497 -19.859  0.00  0.00    +0.094 C 
ATOM     14  C   UNL     1      34.472 -20.728 -20.084  0.00  0.00    +0.094 C 
ATOM     15  C   UNL     1      36.337 -21.435 -18.780  0.00  0.00    +0.023 C 
ATOM     16  C   UNL     1      35.034 -21.953 -19.375  0.00  0.00    +0.023 C 
ENDBRANCH   5  12
BRANCH   9  17
ATOM     17  C   UNL     1      34.542 -14.692 -22.473  0.00  0.00    +0.107 C 
BRANCH  17  18
ATOM     18  C   UNL     1      33.146 -14.306 -22.914  0.00  0.00    +0.111 C 
BRANCH  18  21
ATOM     19  O   UNL     1      34.125 -12.179 -24.758  0.00  0.00    -0.269 OA
ATOM     20  O   UNL     1      31.610 -12.720 -20.905  0.00  0.00    -0.269 OA
ATOM     21  N   UNL     1      32.930 -12.885 -22.854  0.00  0.00    -0.222 N 
ATOM     22  C   UNL     1      33.436 -11.983 -23.775  0.00  0.00    +0.255 C 
ATOM     23  C   UNL     1      32.191 -12.252 -21.868  0.00  0.00    +0.255 C 
ATOM     24  C   UNL     1      32.972 -10.665 -23.347  0.00  0.00    +0.058 C 
ATOM     25  C   UNL     1      32.219 -10.827 -22.192  0.00  0.00    +0.058 C 
ATOM     26  C   UNL     1      33.187  -9.423 -23.908  0.00  0.00    +0.005 C 
ATOM     27  C   UNL     1      31.642  -9.758 -21.541  0.00  0.00    +0.005 C 
ATOM     28  C   UNL     1      32.610  -8.324 -23.265  0.00  0.00    +0.000 C 
ATOM     29  C   UNL     1      31.845  -8.489 -22.093  0.00  0.00    +0.000 C 
ENDBRANCH  18  21
ENDBRANCH  17  18
ENDBRANCH   9  17
TORSDOF 4
ENDMDL
MODEL 5
REMARK VINA RESULT:     -10.6      6.587     12.132
REMARK  Name = 25102845
REMARK  4 active torsions:
REMARK  status: ('A' for Active; 'I' for Inactive)
REMARK    1  A    between atoms: C_5  and  C_12
REMARK    2  A    between atoms: C_9  and  C_17
REMARK    3  A    between atoms: C_17  and  C_18
REMARK    4  A    between atoms: C_18  and  N_21
REMARK                            x       y       z     vdW  Elec       q    Type
REMARK                         _______ _______ _______ _____ _____    ______ ____
ROOT
ATOM      1  F   UNL     1      33.321 -14.233 -27.360  0.00  0.00    -0.202 F 
ATOM      2  F   UNL     1      31.747 -13.895 -25.890  0.00  0.00    -0.202 F 
ATOM      3  O   UNL     1      34.847 -14.627 -21.790  0.00  0.00    -0.275 OA
ATOM      4  N   UNL     1      34.008 -14.543 -23.946  0.00  0.00    -0.267 N 
ATOM      5  C   UNL     1      33.955 -13.090 -24.042  0.00  0.00    +0.158 C 
ATOM      6  C   UNL     1      33.812 -12.804 -25.531  0.00  0.00    +0.098 C 
ATOM      7  C   UNL     1      33.084 -14.033 -26.050  0.00  0.00    +0.284 C 
ATOM      8  C   UNL     1      33.597 -15.176 -25.199  0.00  0.00    +0.160 C 
ATOM      9  C   UNL     1      34.510 -15.195 -22.831  0.00  0.00    +0.228 C 
ENDROOT
BRANCH   5  12
ATOM     10  O   UNL     1      31.943 -13.438 -22.830  0.00  0.00    -0.273 OA
ATOM     11  N   UNL     1      32.642 -11.254 -23.116  0.00  0.00    -0.278 N 
ATOM     12  C   UNL     1      32.755 -12.624 -23.272  0.00  0.00    +0.244 C 
ATOM     13  C   UNL     1      31.533 -10.643 -22.399  0.00  0.00    +0.094 C 
ATOM     14  C   UNL     1      33.568 -10.240 -23.610  0.00  0.00    +0.094 C 
ATOM     15  C   UNL     1      31.964  -9.200 -22.187  0.00  0.00    +0.023 C 
ATOM     16  C   UNL     1      32.831  -8.923 -23.408  0.00  0.00    +0.023 C 
ENDBRANCH   5  12
BRANCH   9  17
ATOM     17  C   UNL     1      34.620 -16.695 -22.950  0.00  0.00    +0.107 C 
BRANCH  17  18
ATOM     18  C   UNL     1      35.739 -17.207 -22.068  0.00  0.00    +0.111 C 
BRANCH  18  21
ATOM     19  O   UNL     1      33.029 -18.167 -21.281  0.00  0.00    -0.269 OA
ATOM     20  O   UNL     1      37.493 -19.380 -21.012  0.00  0.00    -0.269 OA
ATOM     21  N   UNL     1      35.372 -18.408 -21.365  0.00  0.00    -0.222 N 
ATOM     22  C   UNL     1      34.069 -18.757 -21.052  0.00  0.00    +0.255 C 
ATOM     23  C   UNL     1      36.279 -19.356 -20.920  0.00  0.00    +0.255 C 
ATOM     24  C   UNL     1      34.149 -20.041 -20.358  0.00  0.00    +0.058 C 
ATOM     25  C   UNL     1      35.487 -20.403 -20.278  0.00  0.00    +0.058 C 
ATOM     26  C   UNL     1      33.147 -20.831 -19.834  0.00  0.00    +0.005 C 
ATOM     27  C   UNL     1      35.891 -21.574 -19.670  0.00  0.00    +0.005 C 
ATOM     28  C   UNL     1      33.533 -22.023 -19.215  0.00  0.00    +0.000 C 
ATOM     29  C   UNL     1      34.891 -22.391 -19.133  0.00  0.00    +0.000 C 
ENDBRANCH  18  21
ENDBRANCH  17  18
ENDBRANCH   9  17
TORSDOF 4
ENDMDL
MODEL 6
REMARK VINA RESULT:     -10.4      9.748     13.358
REMARK  Name = 25102845
REMARK  4 active torsions:
REMARK  status: ('A' for Active; 'I' for Inactive)
REMARK    1  A    between atoms: C_5  and  C_12
REMARK    2  A    between atoms: C_9  and  C_17
REMARK    3  A    between atoms: C_17  and  C_18
REMARK    4  A    between atoms: C_18  and  N_21
REMARK                            x       y       z     vdW  Elec       q    Type
REMARK                         _______ _______ _______ _____ _____    ______ ____
ROOT
ATOM      1  F   UNL     1      32.688 -14.720 -19.663  0.00  0.00    -0.202 F 
ATOM      2  F   UNL     1      31.872 -15.417 -21.561  0.00  0.00    -0.202 F 
ATOM      3  O   UNL     1      33.677 -11.390 -24.293  0.00  0.00    -0.275 OA
ATOM      4  N   UNL     1      33.071 -12.795 -22.557  0.00  0.00    -0.267 N 
ATOM      5  C   UNL     1      34.062 -13.828 -22.832  0.00  0.00    +0.158 C 
ATOM      6  C   UNL     1      34.111 -14.666 -21.560  0.00  0.00    +0.098 C 
ATOM      7  C   UNL     1      32.709 -14.518 -20.995  0.00  0.00    +0.284 C 
ATOM      8  C   UNL     1      32.289 -13.109 -21.361  0.00  0.00    +0.160 C 
ATOM      9  C   UNL     1      33.000 -11.620 -23.290  0.00  0.00    +0.228 C 
ENDROOT
BRANCH   5  12
ATOM     10  O   UNL     1      32.716 -14.170 -24.758  0.00  0.00    -0.273 OA
ATOM     11  N   UNL     1      34.146 -15.880 -24.148  0.00  0.00    -0.278 N 
ATOM     12  C   UNL     1      33.574 -14.628 -24.002  0.00  0.00    +0.244 C 
ATOM     13  C   UNL     1      33.777 -16.781 -25.229  0.00  0.00    +0.094 C 
ATOM     14  C   UNL     1      35.165 -16.479 -23.292  0.00  0.00    +0.094 C 
ATOM     15  C   UNL     1      34.845 -17.863 -25.205  0.00  0.00    +0.023 C 
ATOM     16  C   UNL     1      35.221 -17.935 -23.731  0.00  0.00    +0.023 C 
ENDBRANCH   5  12
BRANCH   9  17
ATOM     17  C   UNL     1      32.009 -10.600 -22.788  0.00  0.00    +0.107 C 
BRANCH  17  18
ATOM     18  C   UNL     1      32.739  -9.422 -22.176  0.00  0.00    +0.111 C 
BRANCH  18  21
ATOM     19  O   UNL     1      35.118  -8.606 -23.775  0.00  0.00    -0.269 OA
ATOM     20  O   UNL     1      30.722  -7.376 -22.986  0.00  0.00    -0.269 OA
ATOM     21  N   UNL     1      32.878  -8.329 -23.101  0.00  0.00    -0.222 N 
ATOM     22  C   UNL     1      34.041  -8.042 -23.796  0.00  0.00    +0.255 C 
ATOM     23  C   UNL     1      31.864  -7.435 -23.405  0.00  0.00    +0.255 C 
ATOM     24  C   UNL     1      33.741  -6.873 -24.621  0.00  0.00    +0.058 C 
ATOM     25  C   UNL     1      32.424  -6.505 -24.385  0.00  0.00    +0.058 C 
ATOM     26  C   UNL     1      34.544  -6.180 -25.504  0.00  0.00    +0.005 C 
ATOM     27  C   UNL     1      31.842  -5.427 -25.018  0.00  0.00    +0.005 C 
ATOM     28  C   UNL     1      33.975  -5.085 -26.159  0.00  0.00    +0.000 C 
ATOM     29  C   UNL     1      32.637  -4.711 -25.918  0.00  0.00    +0.000 C 
ENDBRANCH  18  21
ENDBRANCH  17  18
ENDBRANCH   9  17
TORSDOF 4
ENDMDL
MODEL 7
REMARK VINA RESULT:     -10.4      9.787     13.486
REMARK  Name = 25102845
REMARK  4 active torsions:
REMARK  status: ('A' for Active; 'I' for Inactive)
REMARK    1  A    between atoms: C_5  and  C_12
REMARK    2  A    between atoms: C_9  and  C_17
REMARK    3  A    between atoms: C_17  and  C_18
REMARK    4  A    between atoms: C_18  and  N_21
REMARK                            x       y       z     vdW  Elec       q    Type
REMARK                         _______ _______ _______ _____ _____    ______ ____
ROOT
ATOM      1  F   UNL     1      32.696 -14.679 -19.650  0.00  0.00    -0.202 F 
ATOM      2  F   UNL     1      31.866 -15.379 -21.541  0.00  0.00    -0.202 F 
ATOM      3  O   UNL     1      33.645 -11.352 -24.291  0.00  0.00    -0.275 OA
ATOM      4  N   UNL     1      33.054 -12.756 -22.549  0.00  0.00    -0.267 N 
ATOM      5  C   UNL     1      34.044 -13.788 -22.830  0.00  0.00    +0.158 C 
ATOM      6  C   UNL     1      34.105 -14.624 -21.558  0.00  0.00    +0.098 C 
ATOM      7  C   UNL     1      32.706 -14.477 -20.982  0.00  0.00    +0.284 C 
ATOM      8  C   UNL     1      32.282 -13.070 -21.347  0.00  0.00    +0.160 C 
ATOM      9  C   UNL     1      32.977 -11.582 -23.282  0.00  0.00    +0.228 C 
ENDROOT
BRANCH   5  12
ATOM     10  O   UNL     1      32.675 -14.140 -24.738  0.00  0.00    -0.273 OA
ATOM     11  N   UNL     1      34.134 -15.835 -24.153  0.00  0.00    -0.278 N 
ATOM     12  C   UNL     1      33.550 -14.590 -23.996  0.00  0.00    +0.244 C 
ATOM     13  C   UNL     1      33.760 -16.737 -25.233  0.00  0.00    +0.094 C 
ATOM     14  C   UNL     1      35.173 -16.424 -23.315  0.00  0.00    +0.094 C 
ATOM     15  C   UNL     1      34.841 -17.806 -25.228  0.00  0.00    +0.023 C 
ATOM     16  C   UNL     1      35.239 -17.878 -23.759  0.00  0.00    +0.023 C 
ENDBRANCH   5  12
BRANCH   9  17
ATOM     17  C   UNL     1      31.988 -10.562 -22.775  0.00  0.00    +0.107 C 
BRANCH  17  18
ATOM     18  C   UNL     1      32.720  -9.381 -22.174  0.00  0.00    +0.111 C 
BRANCH  18  21
ATOM     19  O   UNL     1      30.715  -7.338 -23.006  0.00  0.00    -0.269 OA
ATOM     20  O   UNL     1      35.102  -8.602 -23.796  0.00  0.00    -0.269 OA
ATOM     21  N   UNL     1      32.864  -8.298 -23.111  0.00  0.00    -0.222 N 
ATOM     22  C   UNL     1      31.857  -7.401 -23.422  0.00  0.00    +0.255 C 
ATOM     23  C   UNL     1      34.028  -8.027 -23.811  0.00  0.00    +0.255 C 
ATOM     24  C   UNL     1      32.429  -6.472 -24.395  0.00  0.00    +0.058 C 
ATOM     25  C   UNL     1      33.743  -6.851 -24.631  0.00  0.00    +0.058 C 
ATOM     26  C   UNL     1      31.858  -5.387 -25.028  0.00  0.00    +0.005 C 
ATOM     27  C   UNL     1      34.553  -6.165 -25.511  0.00  0.00    +0.005 C 
ATOM     28  C   UNL     1      32.661  -4.676 -25.924  0.00  0.00    +0.000 C 
ATOM     29  C   UNL     1      33.996  -5.061 -26.164  0.00  0.00    +0.000 C 
ENDBRANCH  18  21
ENDBRANCH  17  18
ENDBRANCH   9  17
TORSDOF 4
ENDMDL
MODEL 8
REMARK VINA RESULT:     -10.3      2.277      4.507
REMARK  Name = 25102845
REMARK  4 active torsions:
REMARK  status: ('A' for Active; 'I' for Inactive)
REMARK    1  A    between atoms: C_5  and  C_12
REMARK    2  A    between atoms: C_9  and  C_17
REMARK    3  A    between atoms: C_17  and  C_18
REMARK    4  A    between atoms: C_18  and  N_21
REMARK                            x       y       z     vdW  Elec       q    Type
REMARK                         _______ _______ _______ _____ _____    ______ ____
ROOT
ATOM      1  F   UNL     1      34.900 -24.903 -13.052  0.00  0.00    -0.202 F 
ATOM      2  F   UNL     1      33.623 -23.149 -12.840  0.00  0.00    -0.202 F 
ATOM      3  O   UNL     1      32.196 -23.069 -17.831  0.00  0.00    -0.275 OA
ATOM      4  N   UNL     1      33.272 -23.564 -15.843  0.00  0.00    -0.267 N 
ATOM      5  C   UNL     1      32.139 -24.220 -15.204  0.00  0.00    +0.158 C 
ATOM      6  C   UNL     1      32.742 -24.987 -14.035  0.00  0.00    +0.098 C 
ATOM      7  C   UNL     1      33.964 -24.160 -13.673  0.00  0.00    +0.284 C 
ATOM      8  C   UNL     1      34.462 -23.606 -14.992  0.00  0.00    +0.160 C 
ATOM      9  C   UNL     1      33.218 -23.088 -17.143  0.00  0.00    +0.228 C 
ENDROOT
BRANCH   5  12
ATOM     10  O   UNL     1      31.558 -22.322 -13.901  0.00  0.00    -0.273 OA
ATOM     11  N   UNL     1      29.932 -23.184 -15.299  0.00  0.00    -0.278 N 
ATOM     12  C   UNL     1      31.196 -23.152 -14.737  0.00  0.00    +0.244 C 
ATOM     13  C   UNL     1      28.901 -22.219 -14.946  0.00  0.00    +0.094 C 
ATOM     14  C   UNL     1      29.443 -24.134 -16.292  0.00  0.00    +0.094 C 
ATOM     15  C   UNL     1      27.824 -22.409 -16.003  0.00  0.00    +0.023 C 
ATOM     16  C   UNL     1      27.941 -23.889 -16.344  0.00  0.00    +0.023 C 
ENDBRANCH   5  12
BRANCH   9  17
ATOM     17  C   UNL     1      34.519 -22.561 -17.697  0.00  0.00    +0.107 C 
BRANCH  17  18
ATOM     18  C   UNL     1      34.536 -22.697 -19.205  0.00  0.00    +0.111 C 
BRANCH  18  21
ATOM     19  O   UNL     1      37.025 -21.384 -20.188  0.00  0.00    -0.269 OA
ATOM     20  O   UNL     1      32.452 -20.689 -19.934  0.00  0.00    -0.269 OA
ATOM     21  N   UNL     1      34.692 -21.427 -19.863  0.00  0.00    -0.222 N 
ATOM     22  C   UNL     1      35.907 -20.913 -20.282  0.00  0.00    +0.255 C 
ATOM     23  C   UNL     1      33.643 -20.570 -20.156  0.00  0.00    +0.255 C 
ATOM     24  C   UNL     1      35.609 -19.624 -20.904  0.00  0.00    +0.058 C 
ATOM     25  C   UNL     1      34.239 -19.416 -20.827  0.00  0.00    +0.058 C 
ATOM     26  C   UNL     1      36.454 -18.702 -21.486  0.00  0.00    +0.005 C 
ATOM     27  C   UNL     1      33.644 -18.278 -21.329  0.00  0.00    +0.005 C 
ATOM     28  C   UNL     1      35.873 -17.541 -22.003  0.00  0.00    +0.000 C 
ATOM     29  C   UNL     1      34.482 -17.330 -21.925  0.00  0.00    +0.000 C 
ENDBRANCH  18  21
ENDBRANCH  17  18
ENDBRANCH   9  17
TORSDOF 4
ENDMDL
MODEL 9
REMARK VINA RESULT:     -10.1      8.702     14.144
REMARK  Name = 25102845
REMARK  4 active torsions:
REMARK  status: ('A' for Active; 'I' for Inactive)
REMARK    1  A    between atoms: C_5  and  C_12
REMARK    2  A    between atoms: C_9  and  C_17
REMARK    3  A    between atoms: C_17  and  C_18
REMARK    4  A    between atoms: C_18  and  N_21
REMARK                            x       y       z     vdW  Elec       q    Type
REMARK                         _______ _______ _______ _____ _____    ______ ____
ROOT
ATOM      1  F   UNL     1      30.512 -11.119 -20.480  0.00  0.00    -0.202 F 
ATOM      2  F   UNL     1      32.166  -9.700 -20.521  0.00  0.00    -0.202 F 
ATOM      3  O   UNL     1      33.788 -11.090 -25.252  0.00  0.00    -0.275 OA
ATOM      4  N   UNL     1      32.682 -11.025 -23.220  0.00  0.00    -0.267 N 
ATOM      5  C   UNL     1      31.906  -9.823 -23.496  0.00  0.00    +0.158 C 
ATOM      6  C   UNL     1      30.803  -9.824 -22.446  0.00  0.00    +0.098 C 
ATOM      7  C   UNL     1      31.440 -10.556 -21.277  0.00  0.00    +0.284 C 
ATOM      8  C   UNL     1      32.345 -11.590 -21.913  0.00  0.00    +0.160 C 
ATOM      9  C   UNL     1      33.528 -11.595 -24.159  0.00  0.00    +0.228 C 
ENDROOT
BRANCH   5  12
ATOM     10  O   UNL     1      33.929  -8.778 -22.824  0.00  0.00    -0.273 OA
ATOM     11  N   UNL     1      32.318  -7.438 -23.798  0.00  0.00    -0.278 N 
ATOM     12  C   UNL     1      32.818  -8.644 -23.339  0.00  0.00    +0.244 C 
ATOM     13  C   UNL     1      33.078  -6.199 -23.712  0.00  0.00    +0.094 C 
ATOM     14  C   UNL     1      31.017  -7.212 -24.419  0.00  0.00    +0.094 C 
ATOM     15  C   UNL     1      32.320  -5.226 -24.601  0.00  0.00    +0.023 C 
ATOM     16  C   UNL     1      30.877  -5.697 -24.468  0.00  0.00    +0.023 C 
ENDBRANCH   5  12
BRANCH   9  17
ATOM     17  C   UNL     1      34.150 -12.910 -23.760  0.00  0.00    +0.107 C 
BRANCH  17  18
ATOM     18  C   UNL     1      33.401 -14.057 -24.405  0.00  0.00    +0.111 C 
BRANCH  18  21
ATOM     19  O   UNL     1      34.511 -16.443 -25.807  0.00  0.00    -0.269 OA
ATOM     20  O   UNL     1      33.283 -15.004 -21.577  0.00  0.00    -0.269 OA
ATOM     21  N   UNL     1      33.784 -15.332 -23.860  0.00  0.00    -0.222 N 
ATOM     22  C   UNL     1      34.295 -16.377 -24.611  0.00  0.00    +0.255 C 
ATOM     23  C   UNL     1      33.687 -15.663 -22.518  0.00  0.00    +0.255 C 
ATOM     24  C   UNL     1      34.556 -17.463 -23.668  0.00  0.00    +0.058 C 
ATOM     25  C   UNL     1      34.188 -17.032 -22.402  0.00  0.00    +0.058 C 
ATOM     26  C   UNL     1      35.068 -18.726 -23.888  0.00  0.00    +0.005 C 
ATOM     27  C   UNL     1      34.313 -17.839 -21.291  0.00  0.00    +0.005 C 
ATOM     28  C   UNL     1      35.205 -19.561 -22.776  0.00  0.00    +0.000 C 
ATOM     29  C   UNL     1      34.831 -19.123 -21.490  0.00  0.00    +0.000 C 
ENDBRANCH  18  21
ENDBRANCH  17  18
ENDBRANCH   9  17
TORSDOF 4
ENDMDL
