MODEL 1
REMARK VINA RESULT:     -11.2      0.000      0.000
REMARK  Name = 11317439
REMARK  4 active torsions:
REMARK  status: ('A' for Active; 'I' for Inactive)
REMARK    1  A    between atoms: C_6  and  C_18
REMARK    2  A    between atoms: C_10  and  O_35
REMARK    3  A    between atoms: C_18  and  C_27
REMARK    4  A    between atoms: C_28  and  C_29
REMARK                            x       y       z     vdW  Elec       q    Type
REMARK                         _______ _______ _______ _____ _____    ______ ____
ROOT
ATOM      1  N   UNL     1      32.423 -22.310 -18.253  0.00  0.00    -0.309 N 
ATOM      2  N   UNL     1      31.552 -23.920 -15.855  0.00  0.00    -0.160 N 
ATOM      3  N   UNL     1      33.836 -23.956 -15.266  0.00  0.00    -0.223 NA
ATOM      4  N   UNL     1      30.538 -23.566 -16.666  0.00  0.00    -0.125 NA
ATOM      5  N   UNL     1      29.789 -24.780 -14.878  0.00  0.00    -0.198 NA
ATOM      6  C   UNL     1      34.488 -21.727 -18.718  0.00  0.00    +0.062 C 
ATOM      7  C   UNL     1      34.526 -22.463 -17.520  0.00  0.00    +0.056 C 
ATOM      8  C   UNL     1      33.205 -22.822 -17.245  0.00  0.00    +0.085 C 
ATOM      9  C   UNL     1      33.202 -21.639 -19.157  0.00  0.00    +0.065 C 
ATOM     10  C   UNL     1      35.532 -22.869 -16.632  0.00  0.00    +0.159 C 
ATOM     11  C   UNL     1      32.862 -23.566 -16.122  0.00  0.00    +0.167 C 
ATOM     12  C   UNL     1      35.116 -23.609 -15.533  0.00  0.00    +0.137 C 
ATOM     13  C   UNL     1      31.092 -24.642 -14.794  0.00  0.00    +0.253 C 
ATOM     14  C   UNL     1      29.498 -24.110 -16.031  0.00  0.00    +0.027 C 
ATOM     15  C   UNL     1      28.127 -23.993 -16.543  0.00  0.00    +0.116 C 
ATOM     16  H   UNL     1      31.445 -22.411 -18.315  0.00  0.00    +0.152 HD
ENDROOT
BRANCH   6  18
ATOM     17  O   UNL     1      36.586 -20.624 -18.866  0.00  0.00    -0.282 OA
ATOM     18  C   UNL     1      35.615 -21.125 -19.429  0.00  0.00    +0.250 C 
BRANCH  18  27
ATOM     19  O   UNL     1      36.184 -22.030 -21.458  0.00  0.00    -0.266 OA
ATOM     20  O   UNL     1      34.393 -16.183 -24.594  0.00  0.00    -0.270 OA
ATOM     21  N   UNL     1      35.125 -19.933 -21.494  0.00  0.00    -0.270 N 
ATOM     22  N   UNL     1      34.951 -17.364 -22.655  0.00  0.00    -0.273 N 
ATOM     23  C   UNL     1      35.131 -19.794 -22.952  0.00  0.00    +0.115 C 
ATOM     24  C   UNL     1      34.443 -18.855 -20.764  0.00  0.00    +0.115 C 
ATOM     25  C   UNL     1      35.662 -18.425 -23.368  0.00  0.00    +0.115 C 
ATOM     26  C   UNL     1      34.979 -17.492 -21.191  0.00  0.00    +0.115 C 
ATOM     27  C   UNL     1      35.667 -21.066 -20.908  0.00  0.00    +0.288 C 
ATOM     28  C   UNL     1      34.370 -16.315 -23.371  0.00  0.00    +0.249 C 
BRANCH  28  29
ATOM     29  C   UNL     1      33.654 -15.277 -22.619  0.00  0.00    +0.054 C 
ATOM     30  C   UNL     1      33.273 -14.098 -23.255  0.00  0.00    +0.005 C 
ATOM     31  C   UNL     1      33.360 -15.475 -21.272  0.00  0.00    +0.005 C 
ATOM     32  C   UNL     1      32.594 -13.112 -22.541  0.00  0.00    +0.000 C 
ATOM     33  C   UNL     1      32.681 -14.489 -20.557  0.00  0.00    +0.000 C 
ATOM     34  C   UNL     1      32.297 -13.307 -21.193  0.00  0.00    +0.000 C 
ENDBRANCH  28  29
ENDBRANCH  18  27
ENDBRANCH   6  18
BRANCH  10  35
ATOM     35  O   UNL     1      36.849 -22.565 -16.815  0.00  0.00    -0.470 OA
ATOM     36  C   UNL     1      37.747 -22.933 -15.771  0.00  0.00    +0.253 C 
ENDBRANCH  10  35
TORSDOF 4
ENDMDL
MODEL 2
REMARK VINA RESULT:     -11.1      5.625     10.433
REMARK  Name = 11317439
REMARK  4 active torsions:
REMARK  status: ('A' for Active; 'I' for Inactive)
REMARK    1  A    between atoms: C_6  and  C_18
REMARK    2  A    between atoms: C_10  and  O_35
REMARK    3  A    between atoms: C_18  and  C_27
REMARK    4  A    between atoms: C_28  and  C_29
REMARK                            x       y       z     vdW  Elec       q    Type
REMARK                         _______ _______ _______ _____ _____    ______ ____
ROOT
ATOM      1  N   UNL     1      32.991 -15.682 -21.053  0.00  0.00    -0.309 N 
ATOM      2  N   UNL     1      34.639 -17.624 -22.669  0.00  0.00    -0.160 N 
ATOM      3  N   UNL     1      34.550 -16.006 -24.383  0.00  0.00    -0.223 NA
ATOM      4  N   UNL     1      34.339 -18.065 -21.434  0.00  0.00    -0.125 NA
ATOM      5  N   UNL     1      35.588 -19.597 -22.586  0.00  0.00    -0.198 NA
ATOM      6  C   UNL     1      32.295 -13.715 -21.740  0.00  0.00    +0.062 C 
ATOM      7  C   UNL     1      33.025 -14.289 -22.797  0.00  0.00    +0.056 C 
ATOM      8  C   UNL     1      33.457 -15.535 -22.338  0.00  0.00    +0.085 C 
ATOM      9  C   UNL     1      32.280 -14.572 -20.682  0.00  0.00    +0.065 C 
ATOM     10  C   UNL     1      33.373 -13.895 -24.097  0.00  0.00    +0.159 C 
ATOM     11  C   UNL     1      34.215 -16.389 -23.128  0.00  0.00    +0.167 C 
ATOM     12  C   UNL     1      34.132 -14.798 -24.829  0.00  0.00    +0.137 C 
ATOM     13  C   UNL     1      35.383 -18.545 -23.344  0.00  0.00    +0.253 C 
ATOM     14  C   UNL     1      34.935 -19.259 -21.435  0.00  0.00    +0.027 C 
ATOM     15  C   UNL     1      34.890 -20.153 -20.271  0.00  0.00    +0.116 C 
ATOM     16  H   UNL     1      33.146 -16.469 -20.483  0.00  0.00    +0.152 HD
ENDROOT
BRANCH   6  18
ATOM     17  O   UNL     1      30.842 -12.035 -22.580  0.00  0.00    -0.282 OA
ATOM     18  C   UNL     1      31.636 -12.411 -21.720  0.00  0.00    +0.250 C 
BRANCH  18  27
ATOM     19  O   UNL     1      31.829 -11.858 -19.502  0.00  0.00    -0.266 OA
ATOM     20  O   UNL     1      32.326  -5.212 -21.177  0.00  0.00    -0.270 OA
ATOM     21  N   UNL     1      32.159 -10.127 -21.057  0.00  0.00    -0.270 N 
ATOM     22  N   UNL     1      31.764  -7.413 -21.729  0.00  0.00    -0.273 N 
ATOM     23  C   UNL     1      32.423  -9.088 -20.060  0.00  0.00    +0.115 C 
ATOM     24  C   UNL     1      32.295  -9.703 -22.457  0.00  0.00    +0.115 C 
ATOM     25  C   UNL     1      31.593  -7.839 -20.340  0.00  0.00    +0.115 C 
ATOM     26  C   UNL     1      31.463  -8.452 -22.724  0.00  0.00    +0.115 C 
ATOM     27  C   UNL     1      31.887 -11.423 -20.645  0.00  0.00    +0.288 C 
ATOM     28  C   UNL     1      32.127  -6.094 -22.011  0.00  0.00    +0.249 C 
BRANCH  28  29
ATOM     29  C   UNL     1      32.302  -5.710 -23.417  0.00  0.00    +0.054 C 
ATOM     30  C   UNL     1      33.339  -6.264 -24.163  0.00  0.00    +0.005 C 
ATOM     31  C   UNL     1      31.431  -4.792 -23.998  0.00  0.00    +0.005 C 
ATOM     32  C   UNL     1      33.505  -5.899 -25.498  0.00  0.00    +0.000 C 
ATOM     33  C   UNL     1      31.596  -4.427 -25.333  0.00  0.00    +0.000 C 
ATOM     34  C   UNL     1      32.634  -4.981 -26.084  0.00  0.00    +0.000 C 
ENDBRANCH  28  29
ENDBRANCH  18  27
ENDBRANCH   6  18
BRANCH  10  35
ATOM     35  O   UNL     1      33.001 -12.697 -24.632  0.00  0.00    -0.470 OA
ATOM     36  C   UNL     1      34.038 -11.753 -24.887  0.00  0.00    +0.253 C 
ENDBRANCH  10  35
TORSDOF 4
ENDMDL
MODEL 3
REMARK VINA RESULT:     -11.0      2.404      9.671
REMARK  Name = 11317439
REMARK  4 active torsions:
REMARK  status: ('A' for Active; 'I' for Inactive)
REMARK    1  A    between atoms: C_6  and  C_18
REMARK    2  A    between atoms: C_10  and  O_35
REMARK    3  A    between atoms: C_18  and  C_27
REMARK    4  A    between atoms: C_28  and  C_29
REMARK                            x       y       z     vdW  Elec       q    Type
REMARK                         _______ _______ _______ _____ _____    ______ ____
ROOT
ATOM      1  N   UNL     1      32.937 -19.079 -20.651  0.00  0.00    -0.309 N 
ATOM      2  N   UNL     1      34.802 -17.032 -21.849  0.00  0.00    -0.160 N 
ATOM      3  N   UNL     1      36.532 -18.530 -21.280  0.00  0.00    -0.223 NA
ATOM      4  N   UNL     1      33.505 -16.676 -21.894  0.00  0.00    -0.125 NA
ATOM      5  N   UNL     1      34.845 -15.070 -22.823  0.00  0.00    -0.198 NA
ATOM      6  C   UNL     1      33.542 -20.994 -19.763  0.00  0.00    +0.062 C 
ATOM      7  C   UNL     1      34.715 -20.350 -20.198  0.00  0.00    +0.056 C 
ATOM      8  C   UNL     1      34.306 -19.138 -20.758  0.00  0.00    +0.085 C 
ATOM      9  C   UNL     1      32.464 -20.211 -20.044  0.00  0.00    +0.065 C 
ATOM     10  C   UNL     1      36.083 -20.656 -20.182  0.00  0.00    +0.159 C 
ATOM     11  C   UNL     1      35.212 -18.232 -21.297  0.00  0.00    +0.167 C 
ATOM     12  C   UNL     1      36.929 -19.705 -20.737  0.00  0.00    +0.137 C 
ATOM     13  C   UNL     1      35.588 -16.068 -22.405  0.00  0.00    +0.253 C 
ATOM     14  C   UNL     1      33.586 -15.484 -22.490  0.00  0.00    +0.027 C 
ATOM     15  C   UNL     1      32.396 -14.672 -22.771  0.00  0.00    +0.116 C 
ATOM     16  H   UNL     1      32.378 -18.332 -20.967  0.00  0.00    +0.152 HD
ENDROOT
BRANCH   6  18
ATOM     17  O   UNL     1      34.035 -23.300 -19.482  0.00  0.00    -0.282 OA
ATOM     18  C   UNL     1      33.433 -22.296 -19.108  0.00  0.00    +0.250 C 
BRANCH  18  27
ATOM     19  O   UNL     1      31.409 -22.116 -18.044  0.00  0.00    -0.266 OA
ATOM     20  O   UNL     1      34.262 -24.334 -12.198  0.00  0.00    -0.270 OA
ATOM     21  N   UNL     1      33.154 -23.127 -16.837  0.00  0.00    -0.270 N 
ATOM     22  N   UNL     1      34.463 -23.460 -14.357  0.00  0.00    -0.273 N 
ATOM     23  C   UNL     1      32.365 -23.379 -15.629  0.00  0.00    +0.115 C 
ATOM     24  C   UNL     1      34.527 -23.647 -16.809  0.00  0.00    +0.115 C 
ATOM     25  C   UNL     1      33.109 -22.907 -14.382  0.00  0.00    +0.115 C 
ATOM     26  C   UNL     1      35.259 -23.171 -15.558  0.00  0.00    +0.115 C 
ATOM     27  C   UNL     1      32.563 -22.509 -17.928  0.00  0.00    +0.288 C 
ATOM     28  C   UNL     1      34.913 -24.140 -13.223  0.00  0.00    +0.249 C 
BRANCH  28  29
ATOM     29  C   UNL     1      36.274 -24.691 -13.242  0.00  0.00    +0.054 C 
ATOM     30  C   UNL     1      37.280 -24.079 -12.498  0.00  0.00    +0.005 C 
ATOM     31  C   UNL     1      36.553 -25.822 -14.004  0.00  0.00    +0.005 C 
ATOM     32  C   UNL     1      38.572 -24.602 -12.516  0.00  0.00    +0.000 C 
ATOM     33  C   UNL     1      37.845 -26.346 -14.022  0.00  0.00    +0.000 C 
ATOM     34  C   UNL     1      38.855 -25.735 -13.278  0.00  0.00    +0.000 C 
ENDBRANCH  28  29
ENDBRANCH  18  27
ENDBRANCH   6  18
BRANCH  10  35
ATOM     35  O   UNL     1      36.577 -21.814 -19.660  0.00  0.00    -0.470 OA
ATOM     36  C   UNL     1      36.982 -21.786 -18.294  0.00  0.00    +0.253 C 
ENDBRANCH  10  35
TORSDOF 4
ENDMDL
MODEL 4
REMARK VINA RESULT:     -10.9      2.685      9.707
REMARK  Name = 11317439
REMARK  4 active torsions:
REMARK  status: ('A' for Active; 'I' for Inactive)
REMARK    1  A    between atoms: C_6  and  C_18
REMARK    2  A    between atoms: C_10  and  O_35
REMARK    3  A    between atoms: C_18  and  C_27
REMARK    4  A    between atoms: C_28  and  C_29
REMARK                            x       y       z     vdW  Elec       q    Type
REMARK                         _______ _______ _______ _____ _____    ______ ____
ROOT
ATOM      1  N   UNL     1      33.173 -15.225 -20.965  0.00  0.00    -0.309 N 
ATOM      2  N   UNL     1      32.349 -12.554 -22.101  0.00  0.00    -0.160 N 
ATOM      3  N   UNL     1      33.087 -13.403 -24.174  0.00  0.00    -0.223 NA
ATOM      4  N   UNL     1      32.137 -12.668 -20.777  0.00  0.00    -0.125 NA
ATOM      5  N   UNL     1      31.485 -10.617 -21.553  0.00  0.00    -0.198 NA
ATOM      6  C   UNL     1      34.047 -16.884 -22.107  0.00  0.00    +0.062 C 
ATOM      7  C   UNL     1      33.814 -15.835 -23.014  0.00  0.00    +0.056 C 
ATOM      8  C   UNL     1      33.259 -14.793 -22.267  0.00  0.00    +0.085 C 
ATOM      9  C   UNL     1      33.653 -16.502 -20.861  0.00  0.00    +0.065 C 
ATOM     10  C   UNL     1      34.009 -15.645 -24.390  0.00  0.00    +0.159 C 
ATOM     11  C   UNL     1      32.897 -13.583 -22.846  0.00  0.00    +0.167 C 
ATOM     12  C   UNL     1      33.625 -14.412 -24.899  0.00  0.00    +0.137 C 
ATOM     13  C   UNL     1      31.956 -11.328 -22.550  0.00  0.00    +0.253 C 
ATOM     14  C   UNL     1      31.615 -11.472 -20.496  0.00  0.00    +0.027 C 
ATOM     15  C   UNL     1      31.207 -11.102 -19.135  0.00  0.00    +0.116 C 
ATOM     16  H   UNL     1      32.817 -14.692 -20.217  0.00  0.00    +0.152 HD
ENDROOT
BRANCH   6  18
ATOM     17  O   UNL     1      34.112 -19.006 -23.171  0.00  0.00    -0.282 OA
ATOM     18  C   UNL     1      34.618 -18.199 -22.395  0.00  0.00    +0.250 C 
BRANCH  18  27
ATOM     19  O   UNL     1      36.906 -18.302 -22.289  0.00  0.00    -0.266 OA
ATOM     20  O   UNL     1      36.488 -22.941 -17.237  0.00  0.00    -0.270 OA
ATOM     21  N   UNL     1      35.718 -19.459 -20.626  0.00  0.00    -0.270 N 
ATOM     22  N   UNL     1      35.509 -21.759 -19.000  0.00  0.00    -0.273 N 
ATOM     23  C   UNL     1      36.902 -19.962 -19.927  0.00  0.00    +0.115 C 
ATOM     24  C   UNL     1      34.431 -19.782 -19.993  0.00  0.00    +0.115 C 
ATOM     25  C   UNL     1      36.782 -21.459 -19.657  0.00  0.00    +0.115 C 
ATOM     26  C   UNL     1      34.324 -21.281 -19.726  0.00  0.00    +0.115 C 
ATOM     27  C   UNL     1      35.868 -18.667 -21.754  0.00  0.00    +0.288 C 
ATOM     28  C   UNL     1      35.497 -22.496 -17.814  0.00  0.00    +0.249 C 
BRANCH  28  29
ATOM     29  C   UNL     1      34.201 -22.765 -17.179  0.00  0.00    +0.054 C 
ATOM     30  C   UNL     1      33.026 -22.614 -17.911  0.00  0.00    +0.005 C 
ATOM     31  C   UNL     1      34.152 -23.167 -15.847  0.00  0.00    +0.005 C 
ATOM     32  C   UNL     1      31.795 -22.869 -17.308  0.00  0.00    +0.000 C 
ATOM     33  C   UNL     1      32.921 -23.421 -15.243  0.00  0.00    +0.000 C 
ATOM     34  C   UNL     1      31.742 -23.272 -15.974  0.00  0.00    +0.000 C 
ENDBRANCH  28  29
ENDBRANCH  18  27
ENDBRANCH   6  18
BRANCH  10  35
ATOM     35  O   UNL     1      34.540 -16.603 -25.201  0.00  0.00    -0.470 OA
ATOM     36  C   UNL     1      33.623 -17.460 -25.877  0.00  0.00    +0.253 C 
ENDBRANCH  10  35
TORSDOF 4
ENDMDL
MODEL 5
REMARK VINA RESULT:     -10.8      1.685      2.646
REMARK  Name = 11317439
REMARK  4 active torsions:
REMARK  status: ('A' for Active; 'I' for Inactive)
REMARK    1  A    between atoms: C_6  and  C_18
REMARK    2  A    between atoms: C_10  and  O_35
REMARK    3  A    between atoms: C_18  and  C_27
REMARK    4  A    between atoms: C_28  and  C_29
REMARK                            x       y       z     vdW  Elec       q    Type
REMARK                         _______ _______ _______ _____ _____    ______ ____
ROOT
ATOM      1  N   UNL     1      32.373 -20.774 -19.410  0.00  0.00    -0.309 N 
ATOM      2  N   UNL     1      32.213 -22.811 -17.191  0.00  0.00    -0.160 N 
ATOM      3  N   UNL     1      34.562 -22.931 -17.365  0.00  0.00    -0.223 NA
ATOM      4  N   UNL     1      31.016 -22.324 -17.567  0.00  0.00    -0.125 NA
ATOM      5  N   UNL     1      30.801 -23.858 -15.883  0.00  0.00    -0.198 NA
ATOM      6  C   UNL     1      34.218 -20.090 -20.386  0.00  0.00    +0.062 C 
ATOM      7  C   UNL     1      34.590 -21.036 -19.413  0.00  0.00    +0.056 C 
ATOM      8  C   UNL     1      33.404 -21.455 -18.807  0.00  0.00    +0.085 C 
ATOM      9  C   UNL     1      32.866 -19.937 -20.376  0.00  0.00    +0.065 C 
ATOM     10  C   UNL     1      35.801 -21.589 -18.973  0.00  0.00    +0.159 C 
ATOM     11  C   UNL     1      33.391 -22.399 -17.787  0.00  0.00    +0.167 C 
ATOM     12  C   UNL     1      35.712 -22.525 -17.952  0.00  0.00    +0.137 C 
ATOM     13  C   UNL     1      32.070 -23.724 -16.188  0.00  0.00    +0.253 C 
ATOM     14  C   UNL     1      30.199 -22.988 -16.747  0.00  0.00    +0.027 C 
ATOM     15  C   UNL     1      28.744 -22.794 -16.774  0.00  0.00    +0.116 C 
ATOM     16  H   UNL     1      31.421 -20.872 -19.180  0.00  0.00    +0.152 HD
ENDROOT
BRANCH   6  18
ATOM     17  O   UNL     1      36.078 -18.714 -20.920  0.00  0.00    -0.282 OA
ATOM     18  C   UNL     1      35.097 -19.354 -21.292  0.00  0.00    +0.250 C 
BRANCH  18  27
ATOM     19  O   UNL     1      35.135 -20.345 -23.360  0.00  0.00    -0.266 OA
ATOM     20  O   UNL     1      33.492 -14.349 -26.289  0.00  0.00    -0.270 OA
ATOM     21  N   UNL     1      34.357 -18.130 -23.263  0.00  0.00    -0.270 N 
ATOM     22  N   UNL     1      34.274 -15.572 -24.457  0.00  0.00    -0.273 N 
ATOM     23  C   UNL     1      34.090 -18.008 -24.697  0.00  0.00    +0.115 C 
ATOM     24  C   UNL     1      33.972 -16.966 -22.452  0.00  0.00    +0.115 C 
ATOM     25  C   UNL     1      34.692 -16.723 -25.258  0.00  0.00    +0.115 C 
ATOM     26  C   UNL     1      34.577 -15.687 -23.023  0.00  0.00    +0.115 C 
ATOM     27  C   UNL     1      34.861 -19.317 -22.754  0.00  0.00    +0.288 C 
ATOM     28  C   UNL     1      33.696 -14.465 -25.082  0.00  0.00    +0.249 C 
BRANCH  28  29
ATOM     29  C   UNL     1      33.278 -13.336 -24.242  0.00  0.00    +0.054 C 
ATOM     30  C   UNL     1      32.383 -13.545 -23.195  0.00  0.00    +0.005 C 
ATOM     31  C   UNL     1      33.776 -12.061 -24.496  0.00  0.00    +0.005 C 
ATOM     32  C   UNL     1      31.987 -12.472 -22.397  0.00  0.00    +0.000 C 
ATOM     33  C   UNL     1      33.380 -10.988 -23.699  0.00  0.00    +0.000 C 
ATOM     34  C   UNL     1      32.484 -11.194 -22.649  0.00  0.00    +0.000 C 
ENDBRANCH  28  29
ENDBRANCH  18  27
ENDBRANCH   6  18
BRANCH  10  35
ATOM     35  O   UNL     1      37.010 -21.241 -19.501  0.00  0.00    -0.470 OA
ATOM     36  C   UNL     1      37.433 -21.945 -20.666  0.00  0.00    +0.253 C 
ENDBRANCH  10  35
TORSDOF 4
ENDMDL
MODEL 6
REMARK VINA RESULT:     -10.3      2.577      4.073
REMARK  Name = 11317439
REMARK  4 active torsions:
REMARK  status: ('A' for Active; 'I' for Inactive)
REMARK    1  A    between atoms: C_6  and  C_18
REMARK    2  A    between atoms: C_10  and  O_35
REMARK    3  A    between atoms: C_18  and  C_27
REMARK    4  A    between atoms: C_28  and  C_29
REMARK                            x       y       z     vdW  Elec       q    Type
REMARK                         _______ _______ _______ _____ _____    ______ ____
ROOT
ATOM      1  N   UNL     1      36.651 -21.435 -18.596  0.00  0.00    -0.309 N 
ATOM      2  N   UNL     1      34.863 -23.151 -16.875  0.00  0.00    -0.160 N 
ATOM      3  N   UNL     1      33.093 -22.339 -18.207  0.00  0.00    -0.223 NA
ATOM      4  N   UNL     1      36.164 -23.215 -16.537  0.00  0.00    -0.125 NA
ATOM      5  N   UNL     1      34.884 -24.543 -15.185  0.00  0.00    -0.198 NA
ATOM      6  C   UNL     1      35.987 -20.166 -20.261  0.00  0.00    +0.062 C 
ATOM      7  C   UNL     1      34.842 -20.790 -19.733  0.00  0.00    +0.056 C 
ATOM      8  C   UNL     1      35.287 -21.590 -18.679  0.00  0.00    +0.085 C 
ATOM      9  C   UNL     1      37.084 -20.566 -19.562  0.00  0.00    +0.065 C 
ATOM     10  C   UNL     1      33.471 -20.769 -20.028  0.00  0.00    +0.159 C 
ATOM     11  C   UNL     1      34.416 -22.361 -17.920  0.00  0.00    +0.167 C 
ATOM     12  C   UNL     1      32.660 -21.564 -19.229  0.00  0.00    +0.137 C 
ATOM     13  C   UNL     1      34.112 -23.947 -16.062  0.00  0.00    +0.253 C 
ATOM     14  C   UNL     1      36.121 -24.068 -15.512  0.00  0.00    +0.027 C 
ATOM     15  C   UNL     1      37.331 -24.469 -14.783  0.00  0.00    +0.116 C 
ATOM     16  H   UNL     1      37.231 -21.885 -17.940  0.00  0.00    +0.152 HD
ENDROOT
BRANCH   6  18
ATOM     17  O   UNL     1      36.688 -18.177 -21.353  0.00  0.00    -0.282 OA
ATOM     18  C   UNL     1      36.053 -19.229 -21.381  0.00  0.00    +0.250 C 
BRANCH  18  27
ATOM     19  O   UNL     1      35.399 -20.627 -23.078  0.00  0.00    -0.266 OA
ATOM     20  O   UNL     1      32.834 -15.269 -26.534  0.00  0.00    -0.270 OA
ATOM     21  N   UNL     1      34.687 -18.392 -23.215  0.00  0.00    -0.270 N 
ATOM     22  N   UNL     1      34.193 -16.137 -24.841  0.00  0.00    -0.273 N 
ATOM     23  C   UNL     1      33.953 -18.551 -24.471  0.00  0.00    +0.115 C 
ATOM     24  C   UNL     1      34.591 -17.062 -22.596  0.00  0.00    +0.115 C 
ATOM     25  C   UNL     1      34.324 -17.454 -25.464  0.00  0.00    +0.115 C 
ATOM     26  C   UNL     1      34.962 -15.973 -23.599  0.00  0.00    +0.115 C 
ATOM     27  C   UNL     1      35.339 -19.480 -22.655  0.00  0.00    +0.288 C 
ATOM     28  C   UNL     1      33.433 -15.146 -25.467  0.00  0.00    +0.249 C 
BRANCH  28  29
ATOM     29  C   UNL     1      33.316 -13.842 -24.803  0.00  0.00    +0.054 C 
ATOM     30  C   UNL     1      33.869 -12.710 -25.396  0.00  0.00    +0.005 C 
ATOM     31  C   UNL     1      32.653 -13.743 -23.582  0.00  0.00    +0.005 C 
ATOM     32  C   UNL     1      33.757 -11.471 -24.764  0.00  0.00    +0.000 C 
ATOM     33  C   UNL     1      32.541 -12.505 -22.951  0.00  0.00    +0.000 C 
ATOM     34  C   UNL     1      33.094 -11.369 -23.543  0.00  0.00    +0.000 C 
ENDBRANCH  28  29
ENDBRANCH  18  27
ENDBRANCH   6  18
BRANCH  10  35
ATOM     35  O   UNL     1      32.942 -20.022 -21.039  0.00  0.00    -0.470 OA
ATOM     36  C   UNL     1      32.231 -18.843 -20.668  0.00  0.00    +0.253 C 
ENDBRANCH  10  35
TORSDOF 4
ENDMDL
MODEL 7
REMARK VINA RESULT:     -10.1      6.173     10.974
REMARK  Name = 11317439
REMARK  4 active torsions:
REMARK  status: ('A' for Active; 'I' for Inactive)
REMARK    1  A    between atoms: C_6  and  C_18
REMARK    2  A    between atoms: C_10  and  O_35
REMARK    3  A    between atoms: C_18  and  C_27
REMARK    4  A    between atoms: C_28  and  C_29
REMARK                            x       y       z     vdW  Elec       q    Type
REMARK                         _______ _______ _______ _____ _____    ______ ____
ROOT
ATOM      1  N   UNL     1      34.530 -15.108 -22.356  0.00  0.00    -0.309 N 
ATOM      2  N   UNL     1      34.720 -17.901 -23.483  0.00  0.00    -0.160 N 
ATOM      3  N   UNL     1      33.797 -16.983 -25.450  0.00  0.00    -0.223 NA
ATOM      4  N   UNL     1      35.161 -17.796 -22.216  0.00  0.00    -0.125 NA
ATOM      5  N   UNL     1      35.342 -19.942 -22.988  0.00  0.00    -0.198 NA
ATOM      6  C   UNL     1      33.757 -13.351 -23.422  0.00  0.00    +0.062 C 
ATOM      7  C   UNL     1      33.668 -14.442 -24.305  0.00  0.00    +0.056 C 
ATOM      8  C   UNL     1      34.164 -15.546 -23.607  0.00  0.00    +0.085 C 
ATOM      9  C   UNL     1      34.283 -13.767 -22.238  0.00  0.00    +0.065 C 
ATOM     10  C   UNL     1      33.222 -14.625 -25.622  0.00  0.00    +0.159 C 
ATOM     11  C   UNL     1      34.228 -16.810 -24.179  0.00  0.00    +0.167 C 
ATOM     12  C   UNL     1      33.316 -15.915 -26.127  0.00  0.00    +0.137 C 
ATOM     13  C   UNL     1      34.833 -19.183 -23.931  0.00  0.00    +0.253 C 
ATOM     14  C   UNL     1      35.524 -19.056 -21.965  0.00  0.00    +0.027 C 
ATOM     15  C   UNL     1      36.086 -19.461 -20.670  0.00  0.00    +0.116 C 
ATOM     16  H   UNL     1      34.914 -15.677 -21.650  0.00  0.00    +0.152 HD
ENDROOT
BRANCH   6  18
ATOM     17  O   UNL     1      33.681 -11.343 -24.687  0.00  0.00    -0.282 OA
ATOM     18  C   UNL     1      33.364 -11.966 -23.677  0.00  0.00    +0.250 C 
BRANCH  18  27
ATOM     19  O   UNL     1      32.035 -11.846 -21.811  0.00  0.00    -0.266 OA
ATOM     20  O   UNL     1      30.674  -5.250 -23.176  0.00  0.00    -0.270 OA
ATOM     21  N   UNL     1      32.454  -9.830 -22.943  0.00  0.00    -0.270 N 
ATOM     22  N   UNL     1      31.460  -7.346 -23.848  0.00  0.00    -0.273 N 
ATOM     23  C   UNL     1      31.669  -8.990 -22.037  0.00  0.00    +0.115 C 
ATOM     24  C   UNL     1      33.170  -9.108 -24.004  0.00  0.00    +0.115 C 
ATOM     25  C   UNL     1      30.725  -8.079 -22.816  0.00  0.00    +0.115 C 
ATOM     26  C   UNL     1      32.218  -8.199 -24.775  0.00  0.00    +0.115 C 
ATOM     27  C   UNL     1      32.545 -11.194 -22.713  0.00  0.00    +0.288 C 
ATOM     28  C   UNL     1      31.352  -5.956 -23.921  0.00  0.00    +0.249 C 
BRANCH  28  29
ATOM     29  C   UNL     1      32.115  -5.257 -24.962  0.00  0.00    +0.054 C 
ATOM     30  C   UNL     1      31.594  -4.107 -25.550  0.00  0.00    +0.005 C 
ATOM     31  C   UNL     1      33.357  -5.747 -25.357  0.00  0.00    +0.005 C 
ATOM     32  C   UNL     1      32.320  -3.443 -26.539  0.00  0.00    +0.000 C 
ATOM     33  C   UNL     1      34.083  -5.083 -26.346  0.00  0.00    +0.000 C 
ATOM     34  C   UNL     1      33.563  -3.931 -26.937  0.00  0.00    +0.000 C 
ENDBRANCH  28  29
ENDBRANCH  18  27
ENDBRANCH   6  18
BRANCH  10  35
ATOM     35  O   UNL     1      32.724 -13.608 -26.383  0.00  0.00    -0.470 OA
ATOM     36  C   UNL     1      33.515 -13.183 -27.490  0.00  0.00    +0.253 C 
ENDBRANCH  10  35
TORSDOF 4
ENDMDL
MODEL 8
REMARK VINA RESULT:     -10.0      1.946      3.993
REMARK  Name = 11317439
REMARK  4 active torsions:
REMARK  status: ('A' for Active; 'I' for Inactive)
REMARK    1  A    between atoms: C_6  and  C_18
REMARK    2  A    between atoms: C_10  and  O_35
REMARK    3  A    between atoms: C_18  and  C_27
REMARK    4  A    between atoms: C_28  and  C_29
REMARK                            x       y       z     vdW  Elec       q    Type
REMARK                         _______ _______ _______ _____ _____    ______ ____
ROOT
ATOM      1  N   UNL     1      36.610 -22.712 -16.889  0.00  0.00    -0.309 N 
ATOM      2  N   UNL     1      36.208 -24.346 -14.385  0.00  0.00    -0.160 N 
ATOM      3  N   UNL     1      33.904 -24.215 -14.877  0.00  0.00    -0.223 NA
ATOM      4  N   UNL     1      37.498 -24.070 -14.650  0.00  0.00    -0.125 NA
ATOM      5  N   UNL     1      37.285 -25.310 -12.739  0.00  0.00    -0.198 NA
ATOM      6  C   UNL     1      35.015 -21.991 -18.214  0.00  0.00    +0.062 C 
ATOM      7  C   UNL     1      34.396 -22.706 -17.173  0.00  0.00    +0.056 C 
ATOM      8  C   UNL     1      35.428 -23.154 -16.345  0.00  0.00    +0.085 C 
ATOM      9  C   UNL     1      36.364 -22.000 -18.032  0.00  0.00    +0.065 C 
ATOM     10  C   UNL     1      33.074 -23.028 -16.833  0.00  0.00    +0.159 C 
ATOM     11  C   UNL     1      35.182 -23.906 -15.202  0.00  0.00    +0.167 C 
ATOM     12  C   UNL     1      32.904 -23.781 -15.679  0.00  0.00    +0.137 C 
ATOM     13  C   UNL     1      36.095 -25.085 -13.245  0.00  0.00    +0.253 C 
ATOM     14  C   UNL     1      38.105 -24.675 -13.627  0.00  0.00    +0.027 C 
ATOM     15  C   UNL     1      39.565 -24.656 -13.469  0.00  0.00    +0.116 C 
ATOM     16  H   UNL     1      37.503 -22.883 -16.512  0.00  0.00    +0.152 HD
ENDROOT
BRANCH   6  18
ATOM     17  O   UNL     1      33.217 -20.890 -19.308  0.00  0.00    -0.282 OA
ATOM     18  C   UNL     1      34.367 -21.322 -19.341  0.00  0.00    +0.250 C 
BRANCH  18  27
ATOM     19  O   UNL     1      35.775 -22.043 -21.001  0.00  0.00    -0.266 OA
ATOM     20  O   UNL     1      35.470 -15.856 -23.978  0.00  0.00    -0.270 OA
ATOM     21  N   UNL     1      34.815 -19.916 -21.277  0.00  0.00    -0.270 N 
ATOM     22  N   UNL     1      35.137 -17.241 -22.124  0.00  0.00    -0.273 N 
ATOM     23  C   UNL     1      35.456 -19.635 -22.564  0.00  0.00    +0.115 C 
ATOM     24  C   UNL     1      33.871 -18.892 -20.810  0.00  0.00    +0.115 C 
ATOM     25  C   UNL     1      36.100 -18.252 -22.563  0.00  0.00    +0.115 C 
ATOM     26  C   UNL     1      34.525 -17.513 -20.816  0.00  0.00    +0.115 C 
ATOM     27  C   UNL     1      35.059 -21.120 -20.635  0.00  0.00    +0.288 C 
ATOM     28  C   UNL     1      34.916 -16.107 -22.909  0.00  0.00    +0.249 C 
BRANCH  28  29
ATOM     29  C   UNL     1      33.933 -15.123 -22.440  0.00  0.00    +0.054 C 
ATOM     30  C   UNL     1      33.675 -14.994 -21.078  0.00  0.00    +0.005 C 
ATOM     31  C   UNL     1      33.260 -14.323 -23.361  0.00  0.00    +0.005 C 
ATOM     32  C   UNL     1      32.740 -14.060 -20.634  0.00  0.00    +0.000 C 
ATOM     33  C   UNL     1      32.326 -13.388 -22.917  0.00  0.00    +0.000 C 
ATOM     34  C   UNL     1      32.066 -13.257 -21.552  0.00  0.00    +0.000 C 
ENDBRANCH  28  29
ENDBRANCH  18  27
ENDBRANCH   6  18
BRANCH  10  35
ATOM     35  O   UNL     1      32.002 -22.638 -17.580  0.00  0.00    -0.470 OA
ATOM     36  C   UNL     1      30.733 -22.623 -16.930  0.00  0.00    +0.253 C 
ENDBRANCH  10  35
TORSDOF 4
ENDMDL
MODEL 9
REMARK VINA RESULT:      -9.4      2.639     10.136
REMARK  Name = 11317439
REMARK  4 active torsions:
REMARK  status: ('A' for Active; 'I' for Inactive)
REMARK    1  A    between atoms: C_6  and  C_18
REMARK    2  A    between atoms: C_10  and  O_35
REMARK    3  A    between atoms: C_18  and  C_27
REMARK    4  A    between atoms: C_28  and  C_29
REMARK                            x       y       z     vdW  Elec       q    Type
REMARK                         _______ _______ _______ _____ _____    ______ ____
ROOT
ATOM      1  N   UNL     1      34.422 -15.979 -21.757  0.00  0.00    -0.309 N 
ATOM      2  N   UNL     1      33.913 -14.619 -24.401  0.00  0.00    -0.160 N 
ATOM      3  N   UNL     1      34.210 -16.753 -25.360  0.00  0.00    -0.223 NA
ATOM      4  N   UNL     1      33.866 -13.785 -23.346  0.00  0.00    -0.125 NA
ATOM      5  N   UNL     1      33.469 -12.673 -25.305  0.00  0.00    -0.198 NA
ATOM      6  C   UNL     1      34.842 -18.116 -21.480  0.00  0.00    +0.062 C 
ATOM      7  C   UNL     1      34.668 -17.904 -22.860  0.00  0.00    +0.056 C 
ATOM      8  C   UNL     1      34.402 -16.542 -23.011  0.00  0.00    +0.085 C 
ATOM      9  C   UNL     1      34.691 -16.937 -20.817  0.00  0.00    +0.065 C 
ATOM     10  C   UNL     1      34.704 -18.713 -24.004  0.00  0.00    +0.159 C 
ATOM     11  C   UNL     1      34.174 -15.970 -24.257  0.00  0.00    +0.167 C 
ATOM     12  C   UNL     1      34.468 -18.074 -25.214  0.00  0.00    +0.137 C 
ATOM     13  C   UNL     1      33.674 -13.943 -25.562  0.00  0.00    +0.253 C 
ATOM     14  C   UNL     1      33.596 -12.625 -23.946  0.00  0.00    +0.027 C 
ATOM     15  C   UNL     1      33.443 -11.375 -23.190  0.00  0.00    +0.116 C 
ATOM     16  H   UNL     1      34.265 -15.026 -21.564  0.00  0.00    +0.152 HD
ENDROOT
BRANCH   6  18
ATOM     17  O   UNL     1      36.270 -19.718 -20.462  0.00  0.00    -0.282 OA
ATOM     18  C   UNL     1      35.140 -19.378 -20.805  0.00  0.00    +0.250 C 
BRANCH  18  27
ATOM     19  O   UNL     1      33.011 -20.195 -21.056  0.00  0.00    -0.266 OA
ATOM     20  O   UNL     1      34.112 -24.694 -15.979  0.00  0.00    -0.270 OA
ATOM     21  N   UNL     1      34.424 -21.359 -19.582  0.00  0.00    -0.270 N 
ATOM     22  N   UNL     1      34.704 -22.755 -17.143  0.00  0.00    -0.273 N 
ATOM     23  C   UNL     1      33.438 -22.377 -19.213  0.00  0.00    +0.115 C 
ATOM     24  C   UNL     1      35.762 -21.542 -19.005  0.00  0.00    +0.115 C 
ATOM     25  C   UNL     1      33.366 -22.542 -17.697  0.00  0.00    +0.115 C 
ATOM     26  C   UNL     1      35.677 -21.710 -17.490  0.00  0.00    +0.115 C 
ATOM     27  C   UNL     1      34.081 -20.364 -20.485  0.00  0.00    +0.288 C 
ATOM     28  C   UNL     1      34.944 -23.850 -16.311  0.00  0.00    +0.249 C 
BRANCH  28  29
ATOM     29  C   UNL     1      36.302 -24.035 -15.786  0.00  0.00    +0.054 C 
ATOM     30  C   UNL     1      37.278 -23.073 -16.034  0.00  0.00    +0.005 C 
ATOM     31  C   UNL     1      36.609 -25.172 -15.043  0.00  0.00    +0.005 C 
ATOM     32  C   UNL     1      38.568 -23.250 -15.535  0.00  0.00    +0.000 C 
ATOM     33  C   UNL     1      37.899 -25.349 -14.544  0.00  0.00    +0.000 C 
ATOM     34  C   UNL     1      38.879 -24.387 -14.791  0.00  0.00    +0.000 C 
ENDBRANCH  28  29
ENDBRANCH  18  27
ENDBRANCH   6  18
BRANCH  10  35
ATOM     35  O   UNL     1      34.953 -20.053 -23.957  0.00  0.00    -0.470 OA
ATOM     36  C   UNL     1      35.227 -20.704 -25.195  0.00  0.00    +0.253 C 
ENDBRANCH  10  35
TORSDOF 4
ENDMDL
