MODEL 1
REMARK VINA RESULT:      -9.1      0.000      0.000
REMARK  Name = 101989
REMARK  1 active torsions:
REMARK  status: ('A' for Active; 'I' for Inactive)
REMARK    1  A    between atoms: C_16  and  O_20
REMARK                            x       y       z     vdW  Elec       q    Type
REMARK                         _______ _______ _______ _____ _____    ______ ____
ROOT
ATOM      1  C   UNL     1      34.430 -24.517 -14.570  0.00  0.00    +0.000 C 
ATOM      2  C   UNL     1      35.924 -24.314 -14.119  0.00  0.00    +0.000 C 
ATOM      3  C   UNL     1      33.897 -23.286 -15.380  0.00  0.00    +0.000 C 
ATOM      4  C   UNL     1      32.460 -23.594 -15.804  0.00  0.00    +0.000 C 
ATOM      5  C   UNL     1      36.765 -24.037 -15.408  0.00  0.00    +0.002 C 
ATOM      6  C   UNL     1      31.526 -23.790 -14.588  0.00  0.00    +0.000 C 
ATOM      7  C   UNL     1      33.463 -24.950 -13.432  0.00  0.00    +0.000 C 
ATOM      8  C   UNL     1      34.795 -22.981 -16.585  0.00  0.00    +0.000 C 
ATOM      9  C   UNL     1      36.261 -22.815 -16.185  0.00  0.00    +0.000 C 
ATOM     10  C   UNL     1      31.987 -25.062 -13.871  0.00  0.00    +0.000 C 
ATOM     11  C   UNL     1      36.480 -25.608 -13.463  0.00  0.00    +0.002 C 
ATOM     12  C   UNL     1      38.275 -23.942 -15.129  0.00  0.00    +0.029 C 
ATOM     13  C   UNL     1      31.692 -22.657 -16.732  0.00  0.00    +0.000 C 
ATOM     14  C   UNL     1      36.036 -23.158 -13.092  0.00  0.00    +0.000 C 
ATOM     15  C   UNL     1      37.989 -25.562 -13.194  0.00  0.00    +0.029 C 
ATOM     16  C   UNL     1      38.801 -25.200 -14.437  0.00  0.00    +0.111 C 
ATOM     17  C   UNL     1      30.209 -23.828 -15.320  0.00  0.00    +0.000 C 
ATOM     18  C   UNL     1      31.465 -22.603 -13.600  0.00  0.00    +0.000 C 
ATOM     19  C   UNL     1      30.295 -23.157 -16.481  0.00  0.00    +0.000 C 
ENDROOT
BRANCH  16  20
ATOM     20  O   UNL     1      38.753 -26.282 -15.366  0.00  0.00    -0.384 OA
ATOM     21  H   UNL     1      39.415 -26.948 -15.120  0.00  0.00    +0.210 HD
ENDBRANCH  16  20
TORSDOF 1
ENDMDL
MODEL 2
REMARK VINA RESULT:      -8.3     11.078     13.396
REMARK  Name = 101989
REMARK  1 active torsions:
REMARK  status: ('A' for Active; 'I' for Inactive)
REMARK    1  A    between atoms: C_16  and  O_20
REMARK                            x       y       z     vdW  Elec       q    Type
REMARK                         _______ _______ _______ _____ _____    ______ ____
ROOT
ATOM      1  C   UNL     1      34.358 -14.835 -22.997  0.00  0.00    +0.000 C 
ATOM      2  C   UNL     1      33.602 -13.649 -23.703  0.00  0.00    +0.000 C 
ATOM      3  C   UNL     1      33.977 -16.219 -23.623  0.00  0.00    +0.000 C 
ATOM      4  C   UNL     1      34.787 -17.296 -22.900  0.00  0.00    +0.000 C 
ATOM      5  C   UNL     1      33.937 -13.727 -25.229  0.00  0.00    +0.002 C 
ATOM      6  C   UNL     1      34.452 -17.361 -21.393  0.00  0.00    +0.000 C 
ATOM      7  C   UNL     1      34.261 -14.832 -21.445  0.00  0.00    +0.000 C 
ATOM      8  C   UNL     1      34.228 -16.234 -25.136  0.00  0.00    +0.000 C 
ATOM      9  C   UNL     1      33.537 -15.072 -25.848  0.00  0.00    +0.000 C 
ATOM     10  C   UNL     1      34.935 -16.047 -20.772  0.00  0.00    +0.000 C 
ATOM     11  C   UNL     1      34.116 -12.280 -23.177  0.00  0.00    +0.002 C 
ATOM     12  C   UNL     1      33.361 -12.547 -26.029  0.00  0.00    +0.029 C 
ATOM     13  C   UNL     1      34.758 -18.751 -23.363  0.00  0.00    +0.000 C 
ATOM     14  C   UNL     1      32.077 -13.733 -23.438  0.00  0.00    +0.000 C 
ATOM     15  C   UNL     1      33.584 -11.078 -23.969  0.00  0.00    +0.029 C 
ATOM     16  C   UNL     1      33.833 -11.203 -25.472  0.00  0.00    +0.111 C 
ATOM     17  C   UNL     1      35.200 -18.623 -21.050  0.00  0.00    +0.000 C 
ATOM     18  C   UNL     1      32.964 -17.606 -21.053  0.00  0.00    +0.000 C 
ATOM     19  C   UNL     1      35.322 -19.409 -22.132  0.00  0.00    +0.000 C 
ENDROOT
BRANCH  16  20
ATOM     20  O   UNL     1      35.229 -11.068 -25.735  0.00  0.00    -0.384 OA
ATOM     21  H   UNL     1      35.578 -10.307 -25.243  0.00  0.00    +0.210 HD
ENDBRANCH  16  20
TORSDOF 1
ENDMDL
MODEL 3
REMARK VINA RESULT:      -7.6      3.521      6.146
REMARK  Name = 101989
REMARK  1 active torsions:
REMARK  status: ('A' for Active; 'I' for Inactive)
REMARK    1  A    between atoms: C_16  and  O_20
REMARK                            x       y       z     vdW  Elec       q    Type
REMARK                         _______ _______ _______ _____ _____    ______ ____
ROOT
ATOM      1  C   UNL     1      34.424 -22.147 -17.380  0.00  0.00    +0.000 C 
ATOM      2  C   UNL     1      34.281 -21.944 -18.934  0.00  0.00    +0.000 C 
ATOM      3  C   UNL     1      35.852 -22.660 -16.992  0.00  0.00    +0.000 C 
ATOM      4  C   UNL     1      35.904 -22.789 -15.469  0.00  0.00    +0.000 C 
ATOM      5  C   UNL     1      35.411 -20.960 -19.379  0.00  0.00    +0.002 C 
ATOM      6  C   UNL     1      34.880 -23.819 -14.938  0.00  0.00    +0.000 C 
ATOM      7  C   UNL     1      33.288 -22.987 -16.729  0.00  0.00    +0.000 C 
ATOM      8  C   UNL     1      36.944 -21.724 -17.524  0.00  0.00    +0.000 C 
ATOM      9  C   UNL     1      36.811 -21.476 -19.026  0.00  0.00    +0.000 C 
ATOM     10  C   UNL     1      33.487 -23.249 -15.220  0.00  0.00    +0.000 C 
ATOM     11  C   UNL     1      32.917 -21.282 -19.277  0.00  0.00    +0.002 C 
ATOM     12  C   UNL     1      35.314 -20.570 -20.864  0.00  0.00    +0.029 C 
ATOM     13  C   UNL     1      37.205 -23.133 -14.748  0.00  0.00    +0.000 C 
ATOM     14  C   UNL     1      34.366 -23.302 -19.676  0.00  0.00    +0.000 C 
ATOM     15  C   UNL     1      32.793 -20.855 -20.745  0.00  0.00    +0.029 C 
ATOM     16  C   UNL     1      33.950 -19.967 -21.202  0.00  0.00    +0.111 C 
ATOM     17  C   UNL     1      35.343 -23.878 -13.505  0.00  0.00    +0.000 C 
ATOM     18  C   UNL     1      35.011 -25.245 -15.520  0.00  0.00    +0.000 C 
ATOM     19  C   UNL     1      36.642 -23.546 -13.414  0.00  0.00    +0.000 C 
ENDROOT
BRANCH  16  20
ATOM     20  O   UNL     1      33.849 -18.692 -20.570  0.00  0.00    -0.384 OA
ATOM     21  H   UNL     1      33.606 -18.813 -19.638  0.00  0.00    +0.210 HD
ENDBRANCH  16  20
TORSDOF 1
ENDMDL
MODEL 4
REMARK VINA RESULT:      -7.5     13.362     15.578
REMARK  Name = 101989
REMARK  1 active torsions:
REMARK  status: ('A' for Active; 'I' for Inactive)
REMARK    1  A    between atoms: C_16  and  O_20
REMARK                            x       y       z     vdW  Elec       q    Type
REMARK                         _______ _______ _______ _____ _____    ______ ____
ROOT
ATOM      1  C   UNL     1      33.221 -11.142 -22.674  0.00  0.00    +0.000 C 
ATOM      2  C   UNL     1      32.877 -12.670 -22.828  0.00  0.00    +0.000 C 
ATOM      3  C   UNL     1      32.099 -10.372 -21.898  0.00  0.00    +0.000 C 
ATOM      4  C   UNL     1      32.540  -8.913 -21.766  0.00  0.00    +0.000 C 
ATOM      5  C   UNL     1      32.645 -13.241 -21.391  0.00  0.00    +0.002 C 
ATOM      6  C   UNL     1      32.704  -8.230 -23.143  0.00  0.00    +0.000 C 
ATOM      7  C   UNL     1      33.629 -10.433 -23.996  0.00  0.00    +0.000 C 
ATOM      8  C   UNL     1      31.827 -11.012 -20.531  0.00  0.00    +0.000 C 
ATOM      9  C   UNL     1      31.526 -12.506 -20.642  0.00  0.00    +0.000 C 
ATOM     10  C   UNL     1      33.880  -8.917 -23.844  0.00  0.00    +0.000 C 
ATOM     11  C   UNL     1      34.073 -13.440 -23.454  0.00  0.00    +0.002 C 
ATOM     12  C   UNL     1      32.422 -14.763 -21.381  0.00  0.00    +0.029 C 
ATOM     13  C   UNL     1      31.736  -7.916 -20.936  0.00  0.00    +0.000 C 
ATOM     14  C   UNL     1      31.638 -12.866 -23.739  0.00  0.00    +0.000 C 
ATOM     15  C   UNL     1      33.899 -14.964 -23.437  0.00  0.00    +0.029 C 
ATOM     16  C   UNL     1      33.580 -15.508 -22.045  0.00  0.00    +0.111 C 
ATOM     17  C   UNL     1      32.893  -6.812 -22.670  0.00  0.00    +0.000 C 
ATOM     18  C   UNL     1      31.450  -8.247 -24.046  0.00  0.00    +0.000 C 
ATOM     19  C   UNL     1      32.312  -6.633 -21.472  0.00  0.00    +0.000 C 
ENDROOT
BRANCH  16  20
ATOM     20  O   UNL     1      34.733 -15.387 -21.212  0.00  0.00    -0.384 OA
ATOM     21  H   UNL     1      35.533 -15.515 -21.748  0.00  0.00    +0.210 HD
ENDBRANCH  16  20
TORSDOF 1
ENDMDL
MODEL 5
REMARK VINA RESULT:      -7.3     19.388     21.514
REMARK  Name = 101989
REMARK  1 active torsions:
REMARK  status: ('A' for Active; 'I' for Inactive)
REMARK    1  A    between atoms: C_16  and  O_20
REMARK                            x       y       z     vdW  Elec       q    Type
REMARK                         _______ _______ _______ _____ _____    ______ ____
ROOT
ATOM      1  C   UNL     1      33.170  -5.584 -24.365  0.00  0.00    +0.000 C 
ATOM      2  C   UNL     1      32.458  -6.600 -23.396  0.00  0.00    +0.000 C 
ATOM      3  C   UNL     1      32.187  -4.467 -24.856  0.00  0.00    +0.000 C 
ATOM      4  C   UNL     1      32.976  -3.513 -25.754  0.00  0.00    +0.000 C 
ATOM      5  C   UNL     1      31.856  -5.772 -22.215  0.00  0.00    +0.002 C 
ATOM      6  C   UNL     1      33.534  -4.225 -27.008  0.00  0.00    +0.000 C 
ATOM      7  C   UNL     1      33.958  -6.244 -25.532  0.00  0.00    +0.000 C 
ATOM      8  C   UNL     1      31.540  -3.735 -23.674  0.00  0.00    +0.000 C 
ATOM      9  C   UNL     1      30.872  -4.697 -22.694  0.00  0.00    +0.000 C 
ATOM     10  C   UNL     1      34.578  -5.233 -26.521  0.00  0.00    +0.000 C 
ATOM     11  C   UNL     1      33.488  -7.598 -22.797  0.00  0.00    +0.002 C 
ATOM     12  C   UNL     1      31.235  -6.655 -21.120  0.00  0.00    +0.029 C 
ATOM     13  C   UNL     1      32.347  -2.229 -26.289  0.00  0.00    +0.000 C 
ATOM     14  C   UNL     1      31.373  -7.411 -24.151  0.00  0.00    +0.000 C 
ATOM     15  C   UNL     1      32.911  -8.479 -21.681  0.00  0.00    +0.029 C 
ATOM     16  C   UNL     1      32.241  -7.668 -20.573  0.00  0.00    +0.111 C 
ATOM     17  C   UNL     1      34.018  -3.011 -27.759  0.00  0.00    +0.000 C 
ATOM     18  C   UNL     1      32.481  -4.923 -27.899  0.00  0.00    +0.000 C 
ATOM     19  C   UNL     1      33.324  -1.921 -27.393  0.00  0.00    +0.000 C 
ENDROOT
BRANCH  16  20
ATOM     20  O   UNL     1      33.238  -6.962 -19.833  0.00  0.00    -0.384 OA
ATOM     21  H   UNL     1      32.977  -6.031 -19.747  0.00  0.00    +0.210 HD
ENDBRANCH  16  20
TORSDOF 1
ENDMDL
MODEL 6
REMARK VINA RESULT:      -7.2      2.845      6.148
REMARK  Name = 101989
REMARK  1 active torsions:
REMARK  status: ('A' for Active; 'I' for Inactive)
REMARK    1  A    between atoms: C_16  and  O_20
REMARK                            x       y       z     vdW  Elec       q    Type
REMARK                         _______ _______ _______ _____ _____    ______ ____
ROOT
ATOM      1  C   UNL     1      32.843 -23.484 -14.739  0.00  0.00    +0.000 C 
ATOM      2  C   UNL     1      31.386 -23.901 -15.164  0.00  0.00    +0.000 C 
ATOM      3  C   UNL     1      33.819 -23.463 -15.964  0.00  0.00    +0.000 C 
ATOM      4  C   UNL     1      35.190 -23.011 -15.459  0.00  0.00    +0.000 C 
ATOM      5  C   UNL     1      30.925 -22.908 -16.280  0.00  0.00    +0.002 C 
ATOM      6  C   UNL     1      35.776 -23.989 -14.416  0.00  0.00    +0.000 C 
ATOM      7  C   UNL     1      33.417 -24.274 -13.529  0.00  0.00    +0.000 C 
ATOM      8  C   UNL     1      33.293 -22.553 -17.081  0.00  0.00    +0.000 C 
ATOM      9  C   UNL     1      31.865 -22.908 -17.491  0.00  0.00    +0.000 C 
ATOM     10  C   UNL     1      34.876 -23.913 -13.179  0.00  0.00    +0.000 C 
ATOM     11  C   UNL     1      30.404 -23.757 -13.969  0.00  0.00    +0.002 C 
ATOM     12  C   UNL     1      29.461 -23.121 -16.704  0.00  0.00    +0.029 C 
ATOM     13  C   UNL     1      36.341 -22.747 -16.427  0.00  0.00    +0.000 C 
ATOM     14  C   UNL     1      31.355 -25.374 -15.648  0.00  0.00    +0.000 C 
ATOM     15  C   UNL     1      28.931 -23.937 -14.358  0.00  0.00    +0.029 C 
ATOM     16  C   UNL     1      28.509 -23.028 -15.512  0.00  0.00    +0.111 C 
ATOM     17  C   UNL     1      37.164 -23.410 -14.318  0.00  0.00    +0.000 C 
ATOM     18  C   UNL     1      35.925 -25.454 -14.888  0.00  0.00    +0.000 C 
ATOM     19  C   UNL     1      37.489 -22.768 -15.452  0.00  0.00    +0.000 C 
ENDROOT
BRANCH  16  20
ATOM     20  O   UNL     1      28.477 -21.674 -15.062  0.00  0.00    -0.384 OA
ATOM     21  H   UNL     1      29.379 -21.381 -14.856  0.00  0.00    +0.210 HD
ENDBRANCH  16  20
TORSDOF 1
ENDMDL
MODEL 7
REMARK VINA RESULT:      -7.0      9.209     11.743
REMARK  Name = 101989
REMARK  1 active torsions:
REMARK  status: ('A' for Active; 'I' for Inactive)
REMARK    1  A    between atoms: C_16  and  O_20
REMARK                            x       y       z     vdW  Elec       q    Type
REMARK                         _______ _______ _______ _____ _____    ______ ____
ROOT
ATOM      1  C   UNL     1      34.030 -16.467 -22.331  0.00  0.00    +0.000 C 
ATOM      2  C   UNL     1      33.928 -14.906 -22.160  0.00  0.00    +0.000 C 
ATOM      3  C   UNL     1      33.700 -17.219 -20.996  0.00  0.00    +0.000 C 
ATOM      4  C   UNL     1      33.787 -18.720 -21.273  0.00  0.00    +0.000 C 
ATOM      5  C   UNL     1      32.489 -14.589 -21.636  0.00  0.00    +0.002 C 
ATOM      6  C   UNL     1      35.208 -19.148 -21.707  0.00  0.00    +0.000 C 
ATOM      7  C   UNL     1      35.351 -16.963 -22.986  0.00  0.00    +0.000 C 
ATOM      8  C   UNL     1      32.322 -16.816 -20.457  0.00  0.00    +0.000 C 
ATOM      9  C   UNL     1      32.176 -15.302 -20.314  0.00  0.00    +0.000 C 
ATOM     10  C   UNL     1      35.473 -18.500 -23.068  0.00  0.00    +0.000 C 
ATOM     11  C   UNL     1      34.099 -14.192 -23.529  0.00  0.00    +0.002 C 
ATOM     12  C   UNL     1      32.205 -13.080 -21.541  0.00  0.00    +0.029 C 
ATOM     13  C   UNL     1      33.384 -19.743 -20.214  0.00  0.00    +0.000 C 
ATOM     14  C   UNL     1      35.025 -14.385 -21.196  0.00  0.00    +0.000 C 
ATOM     15  C   UNL     1      33.798 -12.689 -23.481  0.00  0.00    +0.029 C 
ATOM     16  C   UNL     1      32.426 -12.379 -22.882  0.00  0.00    +0.111 C 
ATOM     17  C   UNL     1      35.016 -20.642 -21.660  0.00  0.00    +0.000 C 
ATOM     18  C   UNL     1      36.339 -18.802 -20.712  0.00  0.00    +0.000 C 
ATOM     19  C   UNL     1      34.041 -20.967 -20.796  0.00  0.00    +0.000 C 
ENDROOT
BRANCH  16  20
ATOM     20  O   UNL     1      31.407 -12.802 -23.788  0.00  0.00    -0.384 OA
ATOM     21  H   UNL     1      31.081 -13.676 -23.522  0.00  0.00    +0.210 HD
ENDBRANCH  16  20
TORSDOF 1
ENDMDL
MODEL 8
REMARK VINA RESULT:      -6.8     19.041     21.059
REMARK  Name = 101989
REMARK  1 active torsions:
REMARK  status: ('A' for Active; 'I' for Inactive)
REMARK    1  A    between atoms: C_16  and  O_20
REMARK                            x       y       z     vdW  Elec       q    Type
REMARK                         _______ _______ _______ _____ _____    ______ ____
ROOT
ATOM      1  C   UNL     1      31.987  -5.993 -24.770  0.00  0.00    +0.000 C 
ATOM      2  C   UNL     1      32.401  -7.033 -23.663  0.00  0.00    +0.000 C 
ATOM      3  C   UNL     1      33.197  -5.101 -25.208  0.00  0.00    +0.000 C 
ATOM      4  C   UNL     1      32.707  -4.156 -26.306  0.00  0.00    +0.000 C 
ATOM      5  C   UNL     1      33.586  -7.875 -24.239  0.00  0.00    +0.002 C 
ATOM      6  C   UNL     1      31.592  -3.211 -25.802  0.00  0.00    +0.000 C 
ATOM      7  C   UNL     1      30.719  -5.158 -24.432  0.00  0.00    +0.000 C 
ATOM      8  C   UNL     1      34.379  -5.958 -25.679  0.00  0.00    +0.000 C 
ATOM      9  C   UNL     1      34.783  -7.005 -24.641  0.00  0.00    +0.000 C 
ATOM     10  C   UNL     1      30.375  -4.084 -25.486  0.00  0.00    +0.000 C 
ATOM     11  C   UNL     1      31.230  -8.010 -23.364  0.00  0.00    +0.002 C 
ATOM     12  C   UNL     1      34.014  -9.022 -23.306  0.00  0.00    +0.029 C 
ATOM     13  C   UNL     1      33.675  -3.244 -27.055  0.00  0.00    +0.000 C 
ATOM     14  C   UNL     1      32.786  -6.311 -22.347  0.00  0.00    +0.000 C 
ATOM     15  C   UNL     1      31.626  -9.183 -22.457  0.00  0.00    +0.029 C 
ATOM     16  C   UNL     1      32.843  -9.948 -22.976  0.00  0.00    +0.111 C 
ATOM     17  C   UNL     1      31.516  -2.296 -26.997  0.00  0.00    +0.000 C 
ATOM     18  C   UNL     1      31.964  -2.337 -24.582  0.00  0.00    +0.000 C 
ATOM     19  C   UNL     1      32.686  -2.281 -27.656  0.00  0.00    +0.000 C 
ENDROOT
BRANCH  16  20
ATOM     20  O   UNL     1      32.485 -10.664 -24.158  0.00  0.00    -0.384 OA
ATOM     21  H   UNL     1      31.940 -11.431 -23.917  0.00  0.00    +0.210 HD
ENDBRANCH  16  20
TORSDOF 1
ENDMDL
MODEL 9
REMARK VINA RESULT:      -6.5      2.900      5.103
REMARK  Name = 101989
REMARK  1 active torsions:
REMARK  status: ('A' for Active; 'I' for Inactive)
REMARK    1  A    between atoms: C_16  and  O_20
REMARK                            x       y       z     vdW  Elec       q    Type
REMARK                         _______ _______ _______ _____ _____    ______ ____
ROOT
ATOM      1  C   UNL     1      34.938 -22.459 -16.805  0.00  0.00    +0.000 C 
ATOM      2  C   UNL     1      34.791 -23.635 -15.770  0.00  0.00    +0.000 C 
ATOM      3  C   UNL     1      33.876 -22.561 -17.952  0.00  0.00    +0.000 C 
ATOM      4  C   UNL     1      34.074 -21.361 -18.879  0.00  0.00    +0.000 C 
ATOM      5  C   UNL     1      33.324 -23.598 -15.231  0.00  0.00    +0.002 C 
ATOM      6  C   UNL     1      35.472 -21.362 -19.540  0.00  0.00    +0.000 C 
ATOM      7  C   UNL     1      36.382 -22.246 -17.343  0.00  0.00    +0.000 C 
ATOM      8  C   UNL     1      32.451 -22.618 -17.388  0.00  0.00    +0.000 C 
ATOM      9  C   UNL     1      32.284 -23.727 -16.350  0.00  0.00    +0.000 C 
ATOM     10  C   UNL     1      36.494 -21.146 -18.421  0.00  0.00    +0.000 C 
ATOM     11  C   UNL     1      35.743 -23.423 -14.560  0.00  0.00    +0.002 C 
ATOM     12  C   UNL     1      33.072 -24.621 -14.110  0.00  0.00    +0.029 C 
ATOM     13  C   UNL     1      33.107 -21.080 -20.026  0.00  0.00    +0.000 C 
ATOM     14  C   UNL     1      35.134 -24.995 -16.430  0.00  0.00    +0.000 C 
ATOM     15  C   UNL     1      35.504 -24.409 -13.410  0.00  0.00    +0.029 C 
ATOM     16  C   UNL     1      34.048 -24.437 -12.947  0.00  0.00    +0.111 C 
ATOM     17  C   UNL     1      35.255 -20.244 -20.526  0.00  0.00    +0.000 C 
ATOM     18  C   UNL     1      35.820 -22.629 -20.354  0.00  0.00    +0.000 C 
ATOM     19  C   UNL     1      33.952 -20.127 -20.829  0.00  0.00    +0.000 C 
ENDROOT
BRANCH  16  20
ATOM     20  O   UNL     1      33.737 -23.211 -12.285  0.00  0.00    -0.384 OA
ATOM     21  H   UNL     1      33.134 -23.388 -11.545  0.00  0.00    +0.210 HD
ENDBRANCH  16  20
TORSDOF 1
ENDMDL
