MODEL 1
REMARK VINA RESULT:     -10.8      0.000      0.000
REMARK  Name = 5287834
REMARK  3 active torsions:
REMARK  status: ('A' for Active; 'I' for Inactive)
REMARK    1  A    between atoms: C_1  and  O_19
REMARK    2  A    between atoms: C_2  and  O_21
REMARK    3  A    between atoms: C_4  and  O_23
REMARK                            x       y       z     vdW  Elec       q    Type
REMARK                         _______ _______ _______ _____ _____    ______ ____
ROOT
ATOM      1  C   UNL     1      37.125 -24.790 -11.629  0.00  0.00    +0.168 C 
ATOM      2  C   UNL     1      35.788 -24.201 -11.205  0.00  0.00    +0.144 C 
ATOM      3  C   UNL     1      35.202 -23.953 -13.709  0.00  0.00    -0.021 C 
ATOM      4  C   UNL     1      37.648 -24.034 -12.846  0.00  0.00    +0.162 C 
ATOM      5  C   UNL     1      34.749 -24.356 -12.316  0.00  0.00    +0.058 C 
ATOM      6  C   UNL     1      36.602 -23.785 -13.916  0.00  0.00    +0.003 C 
ATOM      7  C   UNL     1      34.239 -23.740 -14.790  0.00  0.00    -0.004 C 
ATOM      8  C   UNL     1      34.801 -23.240 -16.004  0.00  0.00    -0.000 C 
ATOM      9  C   UNL     1      37.066 -23.340 -15.151  0.00  0.00    -0.002 C 
ATOM     10  C   UNL     1      32.776 -23.965 -14.797  0.00  0.00    -0.000 C 
ATOM     11  C   UNL     1      36.176 -23.055 -16.169  0.00  0.00    -0.000 C 
ATOM     12  C   UNL     1      32.009 -23.587 -15.938  0.00  0.00    -0.000 C 
ATOM     13  C   UNL     1      34.004 -22.906 -17.098  0.00  0.00    -0.000 C 
ATOM     14  C   UNL     1      32.631 -23.057 -17.060  0.00  0.00    -0.000 C 
ATOM     15  C   UNL     1      32.006 -24.565 -13.762  0.00  0.00    -0.000 C 
ATOM     16  C   UNL     1      30.612 -23.746 -15.989  0.00  0.00    -0.000 C 
ATOM     17  C   UNL     1      30.614 -24.728 -13.819  0.00  0.00    -0.000 C 
ATOM     18  C   UNL     1      29.913 -24.308 -14.931  0.00  0.00    -0.000 C 
ENDROOT
BRANCH   1  19
ATOM     19  O   UNL     1      36.986 -26.168 -11.968  0.00  0.00    -0.379 OA
ATOM     20  H   UNL     1      37.863 -26.559 -12.105  0.00  0.00    +0.211 HD
ENDBRANCH   1  19
BRANCH   2  21
ATOM     21  O   UNL     1      35.336 -24.871 -10.032  0.00  0.00    -0.382 OA
ATOM     22  H   UNL     1      34.375 -24.991 -10.078  0.00  0.00    +0.210 HD
ENDBRANCH   2  21
BRANCH   4  23
ATOM     23  O   UNL     1      38.147 -22.763 -12.430  0.00  0.00    -0.377 OA
ATOM     24  H   UNL     1      37.406 -22.148 -12.308  0.00  0.00    +0.211 HD
ENDBRANCH   4  23
TORSDOF 3
ENDMDL
MODEL 2
REMARK VINA RESULT:     -10.4      3.180      5.701
REMARK  Name = 5287834
REMARK  3 active torsions:
REMARK  status: ('A' for Active; 'I' for Inactive)
REMARK    1  A    between atoms: C_1  and  O_19
REMARK    2  A    between atoms: C_2  and  O_21
REMARK    3  A    between atoms: C_4  and  O_23
REMARK                            x       y       z     vdW  Elec       q    Type
REMARK                         _______ _______ _______ _____ _____    ______ ____
ROOT
ATOM      1  C   UNL     1      30.130 -24.505 -14.828  0.00  0.00    +0.168 C 
ATOM      2  C   UNL     1      30.229 -23.220 -15.636  0.00  0.00    +0.144 C 
ATOM      3  C   UNL     1      32.799 -23.465 -15.550  0.00  0.00    -0.021 C 
ATOM      4  C   UNL     1      31.232 -24.527 -13.774  0.00  0.00    +0.162 C 
ATOM      5  C   UNL     1      31.565 -23.143 -16.375  0.00  0.00    +0.058 C 
ATOM      6  C   UNL     1      32.594 -24.109 -14.295  0.00  0.00    +0.003 C 
ATOM      7  C   UNL     1      34.140 -23.122 -16.022  0.00  0.00    -0.004 C 
ATOM      8  C   UNL     1      35.188 -23.368 -15.084  0.00  0.00    -0.000 C 
ATOM      9  C   UNL     1      33.683 -24.355 -13.463  0.00  0.00    -0.002 C 
ATOM     10  C   UNL     1      34.557 -22.555 -17.325  0.00  0.00    -0.000 C 
ATOM     11  C   UNL     1      34.955 -23.972 -13.846  0.00  0.00    -0.000 C 
ATOM     12  C   UNL     1      35.921 -22.198 -17.536  0.00  0.00    -0.000 C 
ATOM     13  C   UNL     1      36.510 -23.016 -15.352  0.00  0.00    -0.000 C 
ATOM     14  C   UNL     1      36.869 -22.423 -16.547  0.00  0.00    -0.000 C 
ATOM     15  C   UNL     1      33.725 -22.336 -18.459  0.00  0.00    -0.000 C 
ATOM     16  C   UNL     1      36.368 -21.626 -18.740  0.00  0.00    -0.000 C 
ATOM     17  C   UNL     1      34.176 -21.772 -19.660  0.00  0.00    -0.000 C 
ATOM     18  C   UNL     1      35.499 -21.405 -19.799  0.00  0.00    -0.000 C 
ENDROOT
BRANCH   1  19
ATOM     19  O   UNL     1      30.279 -25.645 -15.673  0.00  0.00    -0.379 OA
ATOM     20  H   UNL     1      30.988 -25.483 -16.315  0.00  0.00    +0.211 HD
ENDBRANCH   1  19
BRANCH   2  21
ATOM     21  O   UNL     1      29.159 -23.179 -16.577  0.00  0.00    -0.382 OA
ATOM     22  H   UNL     1      28.991 -24.073 -16.912  0.00  0.00    +0.210 HD
ENDBRANCH   2  21
BRANCH   4  23
ATOM     23  O   UNL     1      30.885 -23.635 -12.715  0.00  0.00    -0.377 OA
ATOM     24  H   UNL     1      30.718 -24.143 -11.906  0.00  0.00    +0.211 HD
ENDBRANCH   4  23
TORSDOF 3
ENDMDL
MODEL 3
REMARK VINA RESULT:     -10.4      1.532      4.027
REMARK  Name = 5287834
REMARK  3 active torsions:
REMARK  status: ('A' for Active; 'I' for Inactive)
REMARK    1  A    between atoms: C_1  and  O_19
REMARK    2  A    between atoms: C_2  and  O_21
REMARK    3  A    between atoms: C_4  and  O_23
REMARK                            x       y       z     vdW  Elec       q    Type
REMARK                         _______ _______ _______ _____ _____    ______ ____
ROOT
ATOM      1  C   UNL     1      37.923 -24.361 -13.073  0.00  0.00    +0.168 C 
ATOM      2  C   UNL     1      38.133 -24.606 -14.560  0.00  0.00    +0.144 C 
ATOM      3  C   UNL     1      35.689 -23.859 -14.940  0.00  0.00    -0.021 C 
ATOM      4  C   UNL     1      36.524 -24.818 -12.678  0.00  0.00    +0.162 C 
ATOM      5  C   UNL     1      37.138 -23.795 -15.391  0.00  0.00    +0.058 C 
ATOM      6  C   UNL     1      35.435 -24.380 -13.639  0.00  0.00    +0.003 C 
ATOM      7  C   UNL     1      34.602 -23.411 -15.810  0.00  0.00    -0.004 C 
ATOM      8  C   UNL     1      33.289 -23.652 -15.303  0.00  0.00    -0.000 C 
ATOM      9  C   UNL     1      34.120 -24.535 -13.205  0.00  0.00    -0.002 C 
ATOM     10  C   UNL     1      34.674 -22.752 -17.134  0.00  0.00    -0.000 C 
ATOM     11  C   UNL     1      33.068 -24.194 -14.034  0.00  0.00    -0.000 C 
ATOM     12  C   UNL     1      33.474 -22.493 -17.860  0.00  0.00    -0.000 C 
ATOM     13  C   UNL     1      32.149 -23.360 -16.049  0.00  0.00    -0.000 C 
ATOM     14  C   UNL     1      32.238 -22.810 -17.314  0.00  0.00    -0.000 C 
ATOM     15  C   UNL     1      35.851 -22.299 -17.792  0.00  0.00    -0.000 C 
ATOM     16  C   UNL     1      33.483 -21.900 -19.135  0.00  0.00    -0.000 C 
ATOM     17  C   UNL     1      35.856 -21.702 -19.061  0.00  0.00    -0.000 C 
ATOM     18  C   UNL     1      34.670 -21.512 -19.740  0.00  0.00    -0.000 C 
ENDROOT
BRANCH   1  19
ATOM     19  O   UNL     1      38.058 -22.974 -12.766  0.00  0.00    -0.379 OA
ATOM     20  H   UNL     1      38.990 -22.715 -12.839  0.00  0.00    +0.211 HD
ENDBRANCH   1  19
BRANCH   2  21
ATOM     21  O   UNL     1      39.463 -24.233 -14.909  0.00  0.00    -0.382 OA
ATOM     22  H   UNL     1      39.467 -23.320 -15.235  0.00  0.00    +0.210 HD
ENDBRANCH   2  21
BRANCH   4  23
ATOM     23  O   UNL     1      36.495 -26.245 -12.619  0.00  0.00    -0.377 OA
ATOM     24  H   UNL     1      36.867 -26.609 -13.438  0.00  0.00    +0.211 HD
ENDBRANCH   4  23
TORSDOF 3
ENDMDL
MODEL 4
REMARK VINA RESULT:      -9.2      2.647      4.623
REMARK  Name = 5287834
REMARK  3 active torsions:
REMARK  status: ('A' for Active; 'I' for Inactive)
REMARK    1  A    between atoms: C_1  and  O_19
REMARK    2  A    between atoms: C_2  and  O_21
REMARK    3  A    between atoms: C_4  and  O_23
REMARK                            x       y       z     vdW  Elec       q    Type
REMARK                         _______ _______ _______ _____ _____    ______ ____
ROOT
ATOM      1  C   UNL     1      32.525 -24.580 -13.548  0.00  0.00    +0.168 C 
ATOM      2  C   UNL     1      31.971 -23.356 -14.262  0.00  0.00    +0.144 C 
ATOM      3  C   UNL     1      34.224 -23.173 -15.512  0.00  0.00    -0.021 C 
ATOM      4  C   UNL     1      33.993 -24.347 -13.209  0.00  0.00    +0.162 C 
ATOM      5  C   UNL     1      32.708 -23.116 -15.580  0.00  0.00    +0.058 C 
ATOM      6  C   UNL     1      34.803 -23.750 -14.345  0.00  0.00    +0.003 C 
ATOM      7  C   UNL     1      35.054 -22.650 -16.598  0.00  0.00    -0.004 C 
ATOM      8  C   UNL     1      36.457 -22.655 -16.336  0.00  0.00    -0.000 C 
ATOM      9  C   UNL     1      36.187 -23.756 -14.195  0.00  0.00    -0.002 C 
ATOM     10  C   UNL     1      34.642 -22.118 -17.917  0.00  0.00    -0.000 C 
ATOM     11  C   UNL     1      36.997 -23.199 -15.168  0.00  0.00    -0.000 C 
ATOM     12  C   UNL     1      35.622 -21.559 -18.790  0.00  0.00    -0.000 C 
ATOM     13  C   UNL     1      37.373 -22.113 -17.236  0.00  0.00    -0.000 C 
ATOM     14  C   UNL     1      36.963 -21.556 -18.433  0.00  0.00    -0.000 C 
ATOM     15  C   UNL     1      33.326 -22.119 -18.458  0.00  0.00    -0.000 C 
ATOM     16  C   UNL     1      35.285 -21.009 -20.039  0.00  0.00    -0.000 C 
ATOM     17  C   UNL     1      32.995 -21.576 -19.707  0.00  0.00    -0.000 C 
ATOM     18  C   UNL     1      33.975 -21.008 -20.497  0.00  0.00    -0.000 C 
ENDROOT
BRANCH   1  19
ATOM     19  O   UNL     1      32.422 -25.738 -14.375  0.00  0.00    -0.379 OA
ATOM     20  H   UNL     1      33.266 -25.889 -14.828  0.00  0.00    +0.211 HD
ENDBRANCH   1  19
BRANCH   2  21
ATOM     21  O   UNL     1      30.584 -23.558 -14.520  0.00  0.00    -0.382 OA
ATOM     22  H   UNL     1      30.133 -23.791 -13.694  0.00  0.00    +0.210 HD
ENDBRANCH   2  21
BRANCH   4  23
ATOM     23  O   UNL     1      34.083 -23.450 -12.102  0.00  0.00    -0.377 OA
ATOM     24  H   UNL     1      33.194 -23.280 -11.750  0.00  0.00    +0.211 HD
ENDBRANCH   4  23
TORSDOF 3
ENDMDL
MODEL 5
REMARK VINA RESULT:      -9.2     14.369     16.650
REMARK  Name = 5287834
REMARK  3 active torsions:
REMARK  status: ('A' for Active; 'I' for Inactive)
REMARK    1  A    between atoms: C_1  and  O_19
REMARK    2  A    between atoms: C_2  and  O_21
REMARK    3  A    between atoms: C_4  and  O_23
REMARK                            x       y       z     vdW  Elec       q    Type
REMARK                         _______ _______ _______ _____ _____    ______ ____
ROOT
ATOM      1  C   UNL     1      32.270  -6.774 -21.733  0.00  0.00    +0.168 C 
ATOM      2  C   UNL     1      33.424  -7.409 -22.495  0.00  0.00    +0.144 C 
ATOM      3  C   UNL     1      32.509  -9.718 -21.784  0.00  0.00    -0.021 C 
ATOM      4  C   UNL     1      32.029  -7.548 -20.442  0.00  0.00    +0.162 C 
ATOM      5  C   UNL     1      33.090  -8.849 -22.886  0.00  0.00    +0.058 C 
ATOM      6  C   UNL     1      32.031  -9.055 -20.616  0.00  0.00    +0.003 C 
ATOM      7  C   UNL     1      32.448 -11.173 -21.915  0.00  0.00    -0.004 C 
ATOM      8  C   UNL     1      31.996 -11.863 -20.749  0.00  0.00    -0.000 C 
ATOM      9  C   UNL     1      31.561  -9.808 -19.542  0.00  0.00    -0.002 C 
ATOM     10  C   UNL     1      32.791 -12.023 -23.078  0.00  0.00    -0.000 C 
ATOM     11  C   UNL     1      31.564 -11.189 -19.604  0.00  0.00    -0.000 C 
ATOM     12  C   UNL     1      32.756 -13.443 -22.951  0.00  0.00    -0.000 C 
ATOM     13  C   UNL     1      31.963 -13.255 -20.687  0.00  0.00    -0.000 C 
ATOM     14  C   UNL     1      32.355 -14.033 -21.760  0.00  0.00    -0.000 C 
ATOM     15  C   UNL     1      33.145 -11.573 -24.381  0.00  0.00    -0.000 C 
ATOM     16  C   UNL     1      33.103 -14.299 -24.011  0.00  0.00    -0.000 C 
ATOM     17  C   UNL     1      33.484 -12.430 -25.437  0.00  0.00    -0.000 C 
ATOM     18  C   UNL     1      33.474 -13.797 -25.250  0.00  0.00    -0.000 C 
ENDROOT
BRANCH   1  19
ATOM     19  O   UNL     1      31.076  -6.796 -22.513  0.00  0.00    -0.379 OA
ATOM     20  H   UNL     1      31.275  -6.509 -23.419  0.00  0.00    +0.211 HD
ENDBRANCH   1  19
BRANCH   2  21
ATOM     21  O   UNL     1      33.683  -6.643 -23.668  0.00  0.00    -0.382 OA
ATOM     22  H   UNL     1      33.172  -7.005 -24.409  0.00  0.00    +0.210 HD
ENDBRANCH   2  21
BRANCH   4  23
ATOM     23  O   UNL     1      33.052  -7.223 -19.501  0.00  0.00    -0.377 OA
ATOM     24  H   UNL     1      33.333  -6.303 -19.633  0.00  0.00    +0.211 HD
ENDBRANCH   4  23
TORSDOF 3
ENDMDL
MODEL 6
REMARK VINA RESULT:      -8.6      2.707      5.514
REMARK  Name = 5287834
REMARK  3 active torsions:
REMARK  status: ('A' for Active; 'I' for Inactive)
REMARK    1  A    between atoms: C_1  and  O_19
REMARK    2  A    between atoms: C_2  and  O_21
REMARK    3  A    between atoms: C_4  and  O_23
REMARK                            x       y       z     vdW  Elec       q    Type
REMARK                         _______ _______ _______ _____ _____    ______ ____
ROOT
ATOM      1  C   UNL     1      30.105 -23.718 -14.637  0.00  0.00    +0.168 C 
ATOM      2  C   UNL     1      30.924 -24.703 -13.815  0.00  0.00    +0.144 C 
ATOM      3  C   UNL     1      33.051 -23.674 -14.859  0.00  0.00    -0.021 C 
ATOM      4  C   UNL     1      30.731 -23.571 -16.019  0.00  0.00    +0.162 C 
ATOM      5  C   UNL     1      32.350 -24.190 -13.614  0.00  0.00    +0.058 C 
ATOM      6  C   UNL     1      32.240 -23.411 -16.001  0.00  0.00    +0.003 C 
ATOM      7  C   UNL     1      34.498 -23.462 -14.885  0.00  0.00    -0.004 C 
ATOM      8  C   UNL     1      35.029 -23.099 -16.160  0.00  0.00    -0.000 C 
ATOM      9  C   UNL     1      32.839 -23.012 -17.193  0.00  0.00    -0.002 C 
ATOM     10  C   UNL     1      35.480 -23.575 -13.783  0.00  0.00    -0.000 C 
ATOM     11  C   UNL     1      34.213 -22.878 -17.273  0.00  0.00    -0.000 C 
ATOM     12  C   UNL     1      36.871 -23.425 -14.057  0.00  0.00    -0.000 C 
ATOM     13  C   UNL     1      36.399 -22.945 -16.367  0.00  0.00    -0.000 C 
ATOM     14  C   UNL     1      37.307 -23.124 -15.341  0.00  0.00    -0.000 C 
ATOM     15  C   UNL     1      35.188 -23.802 -12.408  0.00  0.00    -0.000 C 
ATOM     16  C   UNL     1      37.851 -23.555 -13.057  0.00  0.00    -0.000 C 
ATOM     17  C   UNL     1      36.168 -23.924 -11.413  0.00  0.00    -0.000 C 
ATOM     18  C   UNL     1      37.504 -23.811 -11.739  0.00  0.00    -0.000 C 
ENDROOT
BRANCH   1  19
ATOM     19  O   UNL     1      30.073 -22.438 -14.007  0.00  0.00    -0.379 OA
ATOM     20  H   UNL     1      30.683 -21.838 -14.462  0.00  0.00    +0.211 HD
ENDBRANCH   1  19
BRANCH   2  21
ATOM     21  O   UNL     1      30.298 -24.882 -12.547  0.00  0.00    -0.382 OA
ATOM     22  H   UNL     1      30.129 -25.825 -12.401  0.00  0.00    +0.210 HD
ENDBRANCH   2  21
BRANCH   4  23
ATOM     23  O   UNL     1      30.432 -24.730 -16.796  0.00  0.00    -0.377 OA
ATOM     24  H   UNL     1      29.795 -24.498 -17.491  0.00  0.00    +0.211 HD
ENDBRANCH   4  23
TORSDOF 3
ENDMDL
MODEL 7
REMARK VINA RESULT:      -8.2     10.519     12.945
REMARK  Name = 5287834
REMARK  3 active torsions:
REMARK  status: ('A' for Active; 'I' for Inactive)
REMARK    1  A    between atoms: C_1  and  O_19
REMARK    2  A    between atoms: C_2  and  O_21
REMARK    3  A    between atoms: C_4  and  O_23
REMARK                            x       y       z     vdW  Elec       q    Type
REMARK                         _______ _______ _______ _____ _____    ______ ____
ROOT
ATOM      1  C   UNL     1      35.709 -19.112 -22.449  0.00  0.00    +0.168 C 
ATOM      2  C   UNL     1      34.652 -18.993 -23.537  0.00  0.00    +0.144 C 
ATOM      3  C   UNL     1      34.445 -16.488 -22.939  0.00  0.00    -0.021 C 
ATOM      4  C   UNL     1      35.300 -18.264 -21.250  0.00  0.00    +0.162 C 
ATOM      5  C   UNL     1      34.534 -17.548 -24.024  0.00  0.00    +0.058 C 
ATOM      6  C   UNL     1      34.799 -16.879 -21.615  0.00  0.00    +0.003 C 
ATOM      7  C   UNL     1      34.008 -15.125 -23.242  0.00  0.00    -0.004 C 
ATOM      8  C   UNL     1      33.851 -14.278 -22.103  0.00  0.00    -0.000 C 
ATOM      9  C   UNL     1      34.660 -15.970 -20.570  0.00  0.00    -0.002 C 
ATOM     10  C   UNL     1      33.705 -14.510 -24.554  0.00  0.00    -0.000 C 
ATOM     11  C   UNL     1      34.175 -14.698 -20.811  0.00  0.00    -0.000 C 
ATOM     12  C   UNL     1      33.189 -13.181 -24.609  0.00  0.00    -0.000 C 
ATOM     13  C   UNL     1      33.360 -12.978 -22.218  0.00  0.00    -0.000 C 
ATOM     14  C   UNL     1      33.015 -12.445 -23.445  0.00  0.00    -0.000 C 
ATOM     15  C   UNL     1      33.900 -15.102 -25.833  0.00  0.00    -0.000 C 
ATOM     16  C   UNL     1      32.852 -12.558 -25.824  0.00  0.00    -0.000 C 
ATOM     17  C   UNL     1      33.569 -14.475 -27.043  0.00  0.00    -0.000 C 
ATOM     18  C   UNL     1      33.033 -13.203 -27.038  0.00  0.00    -0.000 C 
ENDROOT
BRANCH   1  19
ATOM     19  O   UNL     1      36.976 -18.659 -22.923  0.00  0.00    -0.379 OA
ATOM     20  H   UNL     1      36.856 -17.853 -23.448  0.00  0.00    +0.211 HD
ENDBRANCH   1  19
BRANCH   2  21
ATOM     21  O   UNL     1      35.011 -19.836 -24.628  0.00  0.00    -0.382 OA
ATOM     22  H   UNL     1      34.998 -20.761 -24.338  0.00  0.00    +0.210 HD
ENDBRANCH   2  21
BRANCH   4  23
ATOM     23  O   UNL     1      34.252 -18.926 -20.542  0.00  0.00    -0.377 OA
ATOM     24  H   UNL     1      34.448 -18.916 -19.592  0.00  0.00    +0.211 HD
ENDBRANCH   4  23
TORSDOF 3
ENDMDL
MODEL 8
REMARK VINA RESULT:      -8.1      3.544      6.361
REMARK  Name = 5287834
REMARK  3 active torsions:
REMARK  status: ('A' for Active; 'I' for Inactive)
REMARK    1  A    between atoms: C_1  and  O_19
REMARK    2  A    between atoms: C_2  and  O_21
REMARK    3  A    between atoms: C_4  and  O_23
REMARK                            x       y       z     vdW  Elec       q    Type
REMARK                         _______ _______ _______ _____ _____    ______ ____
ROOT
ATOM      1  C   UNL     1      34.488 -22.193 -19.847  0.00  0.00    +0.168 C 
ATOM      2  C   UNL     1      35.535 -21.601 -18.915  0.00  0.00    +0.144 C 
ATOM      3  C   UNL     1      34.385 -22.855 -16.970  0.00  0.00    -0.021 C 
ATOM      4  C   UNL     1      33.134 -22.201 -19.148  0.00  0.00    +0.162 C 
ATOM      5  C   UNL     1      35.681 -22.452 -17.652  0.00  0.00    +0.058 C 
ATOM      6  C   UNL     1      33.181 -22.697 -17.715  0.00  0.00    +0.003 C 
ATOM      7  C   UNL     1      34.376 -23.379 -15.604  0.00  0.00    -0.004 C 
ATOM      8  C   UNL     1      33.077 -23.592 -15.052  0.00  0.00    -0.000 C 
ATOM      9  C   UNL     1      31.957 -22.976 -17.111  0.00  0.00    -0.002 C 
ATOM     10  C   UNL     1      35.518 -23.710 -14.722  0.00  0.00    -0.000 C 
ATOM     11  C   UNL     1      31.909 -23.398 -15.795  0.00  0.00    -0.000 C 
ATOM     12  C   UNL     1      35.276 -24.113 -13.375  0.00  0.00    -0.000 C 
ATOM     13  C   UNL     1      32.899 -24.007 -13.733  0.00  0.00    -0.000 C 
ATOM     14  C   UNL     1      33.977 -24.244 -12.902  0.00  0.00    -0.000 C 
ATOM     15  C   UNL     1      36.895 -23.701 -15.078  0.00  0.00    -0.000 C 
ATOM     16  C   UNL     1      36.321 -24.408 -12.482  0.00  0.00    -0.000 C 
ATOM     17  C   UNL     1      37.934 -24.002 -14.187  0.00  0.00    -0.000 C 
ATOM     18  C   UNL     1      37.648 -24.347 -12.881  0.00  0.00    -0.000 C 
ENDROOT
BRANCH   1  19
ATOM     19  O   UNL     1      34.829 -23.531 -20.206  0.00  0.00    -0.379 OA
ATOM     20  H   UNL     1      34.052 -23.975 -20.580  0.00  0.00    +0.211 HD
ENDBRANCH   1  19
BRANCH   2  21
ATOM     21  O   UNL     1      36.784 -21.541 -19.597  0.00  0.00    -0.382 OA
ATOM     22  H   UNL     1      37.501 -21.451 -18.951  0.00  0.00    +0.210 HD
ENDBRANCH   2  21
BRANCH   4  23
ATOM     23  O   UNL     1      32.609 -20.873 -19.125  0.00  0.00    -0.377 OA
ATOM     24  H   UNL     1      31.821 -20.846 -18.560  0.00  0.00    +0.211 HD
ENDBRANCH   4  23
TORSDOF 3
ENDMDL
MODEL 9
REMARK VINA RESULT:      -8.1     14.661     16.735
REMARK  Name = 5287834
REMARK  3 active torsions:
REMARK  status: ('A' for Active; 'I' for Inactive)
REMARK    1  A    between atoms: C_1  and  O_19
REMARK    2  A    between atoms: C_2  and  O_21
REMARK    3  A    between atoms: C_4  and  O_23
REMARK                            x       y       z     vdW  Elec       q    Type
REMARK                         _______ _______ _______ _____ _____    ______ ____
ROOT
ATOM      1  C   UNL     1      31.895  -8.825 -19.739  0.00  0.00    +0.168 C 
ATOM      2  C   UNL     1      31.023  -9.746 -20.577  0.00  0.00    +0.144 C 
ATOM      3  C   UNL     1      32.892  -9.752 -22.360  0.00  0.00    -0.021 C 
ATOM      4  C   UNL     1      32.595  -7.823 -20.650  0.00  0.00    +0.162 C 
ATOM      5  C   UNL     1      31.871 -10.548 -21.566  0.00  0.00    +0.058 C 
ATOM      6  C   UNL     1      33.195  -8.438 -21.900  0.00  0.00    +0.003 C 
ATOM      7  C   UNL     1      33.533 -10.312 -23.550  0.00  0.00    -0.004 C 
ATOM      8  C   UNL     1      34.371  -9.402 -24.264  0.00  0.00    -0.000 C 
ATOM      9  C   UNL     1      34.064  -7.636 -22.635  0.00  0.00    -0.002 C 
ATOM     10  C   UNL     1      33.429 -11.676 -24.115  0.00  0.00    -0.000 C 
ATOM     11  C   UNL     1      34.626  -8.107 -23.807  0.00  0.00    -0.000 C 
ATOM     12  C   UNL     1      34.065 -11.978 -25.355  0.00  0.00    -0.000 C 
ATOM     13  C   UNL     1      34.985  -9.758 -25.464  0.00  0.00    -0.000 C 
ATOM     14  C   UNL     1      34.819 -11.016 -26.012  0.00  0.00    -0.000 C 
ATOM     15  C   UNL     1      32.761 -12.787 -23.528  0.00  0.00    -0.000 C 
ATOM     16  C   UNL     1      33.973 -13.247 -25.955  0.00  0.00    -0.000 C 
ATOM     17  C   UNL     1      32.678 -14.053 -24.126  0.00  0.00    -0.000 C 
ATOM     18  C   UNL     1      33.276 -14.281 -25.349  0.00  0.00    -0.000 C 
ENDROOT
BRANCH   1  19
ATOM     19  O   UNL     1      32.884  -9.571 -19.030  0.00  0.00    -0.379 OA
ATOM     20  H   UNL     1      32.867  -9.324 -18.093  0.00  0.00    +0.211 HD
ENDBRANCH   1  19
BRANCH   2  21
ATOM     21  O   UNL     1      30.326 -10.639 -19.713  0.00  0.00    -0.382 OA
ATOM     22  H   UNL     1      30.905 -10.898 -18.980  0.00  0.00    +0.210 HD
ENDBRANCH   2  21
BRANCH   4  23
ATOM     23  O   UNL     1      31.656  -6.832 -21.067  0.00  0.00    -0.377 OA
ATOM     24  H   UNL     1      31.791  -6.634 -22.007  0.00  0.00    +0.211 HD
ENDBRANCH   4  23
TORSDOF 3
ENDMDL
