MODEL 1
REMARK VINA RESULT:      -6.6      0.000      0.000
REMARK  Name = 74426
REMARK  2 active torsions:
REMARK  status: ('A' for Active; 'I' for Inactive)
REMARK    1  A    between atoms: C_1  and  O_7
REMARK    2  A    between atoms: O_7  and  S_8
REMARK                            x       y       z     vdW  Elec       q    Type
REMARK                         _______ _______ _______ _____ _____    ______ ____
ROOT
ATOM      1  C   UNL     1      34.353 -19.245 -21.269  0.00  0.00    +0.176 C 
ATOM      2  C   UNL     1      35.522 -19.915 -20.908  0.00  0.00    +0.040 C 
ATOM      3  C   UNL     1      33.124 -19.664 -20.763  0.00  0.00    +0.040 C 
ATOM      4  C   UNL     1      35.461 -21.005 -20.040  0.00  0.00    +0.003 C 
ATOM      5  C   UNL     1      33.062 -20.754 -19.894  0.00  0.00    +0.003 C 
ATOM      6  C   UNL     1      34.230 -21.425 -19.533  0.00  0.00    +0.000 C 
ENDROOT
BRANCH   1   7
ATOM      7  O   UNL     1      34.413 -18.181 -22.117  0.00  0.00    -0.322 OA
BRANCH   7   8
ATOM      8  S   UNL     1      34.445 -16.662 -21.488  0.00  0.00    +0.282 S 
ATOM      9  O   UNL     1      35.191 -15.778 -22.641  0.00  0.00    -0.105 OA
ATOM     10  O   UNL     1      33.085 -16.175 -21.363  0.00  0.00    -0.012 OA
ATOM     11  O   UNL     1      35.317 -16.684 -20.328  0.00  0.00    -0.105 OA
ENDBRANCH   7   8
ENDBRANCH   1   7
TORSDOF 2
ENDMDL
MODEL 2
REMARK VINA RESULT:      -6.6      0.152      1.948
REMARK  Name = 74426
REMARK  2 active torsions:
REMARK  status: ('A' for Active; 'I' for Inactive)
REMARK    1  A    between atoms: C_1  and  O_7
REMARK    2  A    between atoms: O_7  and  S_8
REMARK                            x       y       z     vdW  Elec       q    Type
REMARK                         _______ _______ _______ _____ _____    ______ ____
ROOT
ATOM      1  C   UNL     1      34.389 -19.250 -21.372  0.00  0.00    +0.176 C 
ATOM      2  C   UNL     1      33.164 -19.669 -20.853  0.00  0.00    +0.040 C 
ATOM      3  C   UNL     1      35.566 -19.889 -20.986  0.00  0.00    +0.040 C 
ATOM      4  C   UNL     1      33.117 -20.729 -19.946  0.00  0.00    +0.003 C 
ATOM      5  C   UNL     1      35.519 -20.949 -20.079  0.00  0.00    +0.003 C 
ATOM      6  C   UNL     1      34.295 -21.369 -19.559  0.00  0.00    +0.000 C 
ENDROOT
BRANCH   1   7
ATOM      7  O   UNL     1      34.434 -18.216 -22.256  0.00  0.00    -0.322 OA
BRANCH   7   8
ATOM      8  S   UNL     1      34.682 -16.692 -21.688  0.00  0.00    +0.282 S 
ATOM      9  O   UNL     1      33.173 -16.102 -21.485  0.00  0.00    -0.105 OA
ATOM     10  O   UNL     1      35.310 -16.772 -20.383  0.00  0.00    -0.012 OA
ATOM     11  O   UNL     1      35.308 -15.923 -22.748  0.00  0.00    -0.105 OA
ENDBRANCH   7   8
ENDBRANCH   1   7
TORSDOF 2
ENDMDL
MODEL 3
REMARK VINA RESULT:      -6.6      0.077      1.459
REMARK  Name = 74426
REMARK  2 active torsions:
REMARK  status: ('A' for Active; 'I' for Inactive)
REMARK    1  A    between atoms: C_1  and  O_7
REMARK    2  A    between atoms: O_7  and  S_8
REMARK                            x       y       z     vdW  Elec       q    Type
REMARK                         _______ _______ _______ _____ _____    ______ ____
ROOT
ATOM      1  C   UNL     1      34.387 -19.313 -21.275  0.00  0.00    +0.176 C 
ATOM      2  C   UNL     1      33.146 -19.728 -20.793  0.00  0.00    +0.040 C 
ATOM      3  C   UNL     1      35.547 -19.979 -20.882  0.00  0.00    +0.040 C 
ATOM      4  C   UNL     1      33.065 -20.811 -19.917  0.00  0.00    +0.003 C 
ATOM      5  C   UNL     1      35.467 -21.063 -20.006  0.00  0.00    +0.003 C 
ATOM      6  C   UNL     1      34.226 -21.479 -19.524  0.00  0.00    +0.000 C 
ENDROOT
BRANCH   1   7
ATOM      7  O   UNL     1      34.466 -18.256 -22.129  0.00  0.00    -0.322 OA
BRANCH   7   8
ATOM      8  S   UNL     1      34.484 -16.732 -21.511  0.00  0.00    +0.282 S 
ATOM      9  O   UNL     1      35.213 -15.848 -22.674  0.00  0.00    -0.105 OA
ATOM     10  O   UNL     1      33.118 -16.260 -21.381  0.00  0.00    -0.012 OA
ATOM     11  O   UNL     1      35.363 -16.736 -20.356  0.00  0.00    -0.105 OA
ENDBRANCH   7   8
ENDBRANCH   1   7
TORSDOF 2
ENDMDL
MODEL 4
REMARK VINA RESULT:      -6.6     10.192     11.139
REMARK  Name = 74426
REMARK  2 active torsions:
REMARK  status: ('A' for Active; 'I' for Inactive)
REMARK    1  A    between atoms: C_1  and  O_7
REMARK    2  A    between atoms: O_7  and  S_8
REMARK                            x       y       z     vdW  Elec       q    Type
REMARK                         _______ _______ _______ _____ _____    ______ ____
ROOT
ATOM      1  C   UNL     1      37.774 -26.028 -13.987  0.00  0.00    +0.176 C 
ATOM      2  C   UNL     1      36.948 -25.413 -14.928  0.00  0.00    +0.040 C 
ATOM      3  C   UNL     1      37.502 -25.896 -12.627  0.00  0.00    +0.040 C 
ATOM      4  C   UNL     1      35.847 -24.667 -14.507  0.00  0.00    +0.003 C 
ATOM      5  C   UNL     1      36.401 -25.149 -12.205  0.00  0.00    +0.003 C 
ATOM      6  C   UNL     1      35.574 -24.534 -13.145  0.00  0.00    +0.000 C 
ENDROOT
BRANCH   1   7
ATOM      7  O   UNL     1      38.848 -26.756 -14.398  0.00  0.00    -0.322 OA
BRANCH   7   8
ATOM      8  S   UNL     1      40.294 -25.998 -14.603  0.00  0.00    +0.282 S 
ATOM      9  O   UNL     1      41.345 -26.933 -13.775  0.00  0.00    -0.105 OA
ATOM     10  O   UNL     1      40.659 -26.050 -16.006  0.00  0.00    -0.012 OA
ATOM     11  O   UNL     1      40.221 -24.719 -13.920  0.00  0.00    -0.105 OA
ENDBRANCH   7   8
ENDBRANCH   1   7
TORSDOF 2
ENDMDL
MODEL 5
REMARK VINA RESULT:      -6.5      0.133      1.959
REMARK  Name = 74426
REMARK  2 active torsions:
REMARK  status: ('A' for Active; 'I' for Inactive)
REMARK    1  A    between atoms: C_1  and  O_7
REMARK    2  A    between atoms: O_7  and  S_8
REMARK                            x       y       z     vdW  Elec       q    Type
REMARK                         _______ _______ _______ _____ _____    ______ ____
ROOT
ATOM      1  C   UNL     1      34.366 -19.232 -21.388  0.00  0.00    +0.176 C 
ATOM      2  C   UNL     1      33.154 -19.664 -20.850  0.00  0.00    +0.040 C 
ATOM      3  C   UNL     1      35.557 -19.853 -21.015  0.00  0.00    +0.040 C 
ATOM      4  C   UNL     1      33.133 -20.719 -19.938  0.00  0.00    +0.003 C 
ATOM      5  C   UNL     1      35.536 -20.909 -20.103  0.00  0.00    +0.003 C 
ATOM      6  C   UNL     1      34.325 -21.342 -19.565  0.00  0.00    +0.000 C 
ENDROOT
BRANCH   1   7
ATOM      7  O   UNL     1      34.386 -18.201 -22.278  0.00  0.00    -0.322 OA
BRANCH   7   8
ATOM      8  S   UNL     1      34.480 -16.660 -21.710  0.00  0.00    +0.282 S 
ATOM      9  O   UNL     1      35.358 -16.802 -20.341  0.00  0.00    -0.105 OA
ATOM     10  O   UNL     1      35.242 -15.858 -22.648  0.00  0.00    -0.012 OA
ATOM     11  O   UNL     1      33.141 -16.250 -21.326  0.00  0.00    -0.105 OA
ENDBRANCH   7   8
ENDBRANCH   1   7
TORSDOF 2
ENDMDL
MODEL 6
REMARK VINA RESULT:      -6.4     10.478     11.414
REMARK  Name = 74426
REMARK  2 active torsions:
REMARK  status: ('A' for Active; 'I' for Inactive)
REMARK    1  A    between atoms: C_1  and  O_7
REMARK    2  A    between atoms: O_7  and  S_8
REMARK                            x       y       z     vdW  Elec       q    Type
REMARK                         _______ _______ _______ _____ _____    ______ ____
ROOT
ATOM      1  C   UNL     1      37.329 -25.675 -12.632  0.00  0.00    +0.176 C 
ATOM      2  C   UNL     1      38.682 -25.347 -12.550  0.00  0.00    +0.040 C 
ATOM      3  C   UNL     1      36.774 -26.048 -13.856  0.00  0.00    +0.040 C 
ATOM      4  C   UNL     1      39.481 -25.392 -13.692  0.00  0.00    +0.003 C 
ATOM      5  C   UNL     1      37.574 -26.094 -14.999  0.00  0.00    +0.003 C 
ATOM      6  C   UNL     1      38.927 -25.766 -14.917  0.00  0.00    +0.000 C 
ENDROOT
BRANCH   1   7
ATOM      7  O   UNL     1      36.549 -25.630 -11.518  0.00  0.00    -0.322 OA
BRANCH   7   8
ATOM      8  S   UNL     1      35.941 -24.182 -11.028  0.00  0.00    +0.282 S 
ATOM      9  O   UNL     1      35.286 -24.508  -9.568  0.00  0.00    -0.105 OA
ATOM     10  O   UNL     1      37.036 -23.253 -10.830  0.00  0.00    -0.012 OA
ATOM     11  O   UNL     1      34.851 -23.838 -11.924  0.00  0.00    -0.105 OA
ENDBRANCH   7   8
ENDBRANCH   1   7
TORSDOF 2
ENDMDL
MODEL 7
REMARK VINA RESULT:      -6.3      7.633      8.536
REMARK  Name = 74426
REMARK  2 active torsions:
REMARK  status: ('A' for Active; 'I' for Inactive)
REMARK    1  A    between atoms: C_1  and  O_7
REMARK    2  A    between atoms: O_7  and  S_8
REMARK                            x       y       z     vdW  Elec       q    Type
REMARK                         _______ _______ _______ _____ _____    ______ ____
ROOT
ATOM      1  C   UNL     1      30.531 -22.650 -16.191  0.00  0.00    +0.176 C 
ATOM      2  C   UNL     1      30.628 -22.695 -14.800  0.00  0.00    +0.040 C 
ATOM      3  C   UNL     1      31.627 -22.999 -16.979  0.00  0.00    +0.040 C 
ATOM      4  C   UNL     1      31.823 -23.089 -14.197  0.00  0.00    +0.003 C 
ATOM      5  C   UNL     1      32.822 -23.394 -16.376  0.00  0.00    +0.003 C 
ATOM      6  C   UNL     1      32.920 -23.439 -14.985  0.00  0.00    +0.000 C 
ENDROOT
BRANCH   1   7
ATOM      7  O   UNL     1      29.366 -22.265 -16.780  0.00  0.00    -0.322 OA
BRANCH   7   8
ATOM      8  S   UNL     1      28.103 -23.318 -16.813  0.00  0.00    +0.282 S 
ATOM      9  O   UNL     1      27.029 -22.672 -15.767  0.00  0.00    -0.105 OA
ATOM     10  O   UNL     1      27.507 -23.298 -18.135  0.00  0.00    -0.012 OA
ATOM     11  O   UNL     1      28.562 -24.573 -16.243  0.00  0.00    -0.105 OA
ENDBRANCH   7   8
ENDBRANCH   1   7
TORSDOF 2
ENDMDL
MODEL 8
REMARK VINA RESULT:      -6.3      4.415      5.256
REMARK  Name = 74426
REMARK  2 active torsions:
REMARK  status: ('A' for Active; 'I' for Inactive)
REMARK    1  A    between atoms: C_1  and  O_7
REMARK    2  A    between atoms: O_7  and  S_8
REMARK                            x       y       z     vdW  Elec       q    Type
REMARK                         _______ _______ _______ _____ _____    ______ ____
ROOT
ATOM      1  C   UNL     1      34.568 -20.967 -19.720  0.00  0.00    +0.176 C 
ATOM      2  C   UNL     1      35.630 -20.417 -20.438  0.00  0.00    +0.040 C 
ATOM      3  C   UNL     1      33.256 -20.628 -20.046  0.00  0.00    +0.040 C 
ATOM      4  C   UNL     1      35.379 -19.528 -21.483  0.00  0.00    +0.003 C 
ATOM      5  C   UNL     1      33.004 -19.739 -21.091  0.00  0.00    +0.003 C 
ATOM      6  C   UNL     1      34.065 -19.189 -21.810  0.00  0.00    +0.000 C 
ENDROOT
BRANCH   1   7
ATOM      7  O   UNL     1      34.814 -21.834 -18.699  0.00  0.00    -0.322 OA
BRANCH   7   8
ATOM      8  S   UNL     1      33.768 -23.077 -18.441  0.00  0.00    +0.282 S 
ATOM      9  O   UNL     1      34.348 -23.801 -17.097  0.00  0.00    -0.105 OA
ATOM     10  O   UNL     1      32.460 -22.536 -18.128  0.00  0.00    -0.012 OA
ATOM     11  O   UNL     1      33.921 -24.016 -19.538  0.00  0.00    -0.105 OA
ENDBRANCH   7   8
ENDBRANCH   1   7
TORSDOF 2
ENDMDL
MODEL 9
REMARK VINA RESULT:      -6.2      2.567      3.502
REMARK  Name = 74426
REMARK  2 active torsions:
REMARK  status: ('A' for Active; 'I' for Inactive)
REMARK    1  A    between atoms: C_1  and  O_7
REMARK    2  A    between atoms: O_7  and  S_8
REMARK                            x       y       z     vdW  Elec       q    Type
REMARK                         _______ _______ _______ _____ _____    ______ ____
ROOT
ATOM      1  C   UNL     1      35.023 -16.720 -22.958  0.00  0.00    +0.176 C 
ATOM      2  C   UNL     1      35.017 -17.062 -21.606  0.00  0.00    +0.040 C 
ATOM      3  C   UNL     1      34.983 -17.717 -23.931  0.00  0.00    +0.040 C 
ATOM      4  C   UNL     1      34.969 -18.404 -21.227  0.00  0.00    +0.003 C 
ATOM      5  C   UNL     1      34.936 -19.059 -23.553  0.00  0.00    +0.003 C 
ATOM      6  C   UNL     1      34.929 -19.403 -22.201  0.00  0.00    +0.000 C 
ENDROOT
BRANCH   1   7
ATOM      7  O   UNL     1      35.070 -15.410 -23.328  0.00  0.00    -0.322 OA
BRANCH   7   8
ATOM      8  S   UNL     1      33.669 -14.641 -23.714  0.00  0.00    +0.282 S 
ATOM      9  O   UNL     1      34.095 -13.066 -23.779  0.00  0.00    -0.105 OA
ATOM     10  O   UNL     1      33.258 -15.048 -25.044  0.00  0.00    -0.012 OA
ATOM     11  O   UNL     1      32.758 -14.797 -22.594  0.00  0.00    -0.105 OA
ENDBRANCH   7   8
ENDBRANCH   1   7
TORSDOF 2
ENDMDL
