MODEL 1
REMARK VINA RESULT:      -7.4      0.000      0.000
REMARK  Name = 71105
REMARK  5 active torsions:
REMARK  status: ('A' for Active; 'I' for Inactive)
REMARK    1  A    between atoms: S_1  and  C_5
REMARK    2  A    between atoms: S_1  and  C_9
REMARK    3  A    between atoms: C_9  and  C_12
REMARK    4  A    between atoms: N_11  and  C_13
REMARK    5  A    between atoms: N_11  and  C_15
REMARK                            x       y       z     vdW  Elec       q    Type
REMARK                         _______ _______ _______ _____ _____    ______ ____
ROOT
ATOM      1  S   UNL     1      35.666 -18.232 -21.921  0.00  0.00    -0.083 S 
ENDROOT
BRANCH   1   5
ATOM      2 CL   UNL     1      33.334 -22.708 -18.386  0.00  0.00    -0.059 Cl
ATOM      3  N   UNL     1      35.749 -20.288 -20.208  0.00  0.00    -0.141 NA
ATOM      4  N   UNL     1      35.225 -21.274 -19.431  0.00  0.00    -0.136 NA
ATOM      5  C   UNL     1      34.913 -19.509 -20.917  0.00  0.00    +0.129 C 
ATOM      6  C   UNL     1      33.545 -19.648 -20.905  0.00  0.00    +0.030 C 
ATOM      7  C   UNL     1      33.012 -20.651 -20.115  0.00  0.00    +0.035 C 
ATOM      8  C   UNL     1      33.885 -21.440 -19.394  0.00  0.00    +0.160 C 
ENDBRANCH   1   5
BRANCH   1   9
ATOM      9  C   UNL     1      34.527 -16.848 -21.664  0.00  0.00    +0.149 C 
BRANCH   9  12
ATOM     10  O   UNL     1      35.509 -15.870 -23.631  0.00  0.00    -0.274 OA
ATOM     11  N   UNL     1      33.658 -14.800 -22.742  0.00  0.00    -0.279 N 
ATOM     12  C   UNL     1      34.627 -15.813 -22.771  0.00  0.00    +0.237 C 
BRANCH  11  13
ATOM     13  C   UNL     1      33.615 -13.728 -23.733  0.00  0.00    +0.093 C 
ATOM     14  C   UNL     1      32.921 -14.173 -25.003  0.00  0.00    +0.023 C 
ENDBRANCH  11  13
BRANCH  11  15
ATOM     15  C   UNL     1      32.619 -14.740 -21.720  0.00  0.00    +0.093 C 
ATOM     16  C   UNL     1      32.263 -13.309 -21.375  0.00  0.00    +0.023 C 
ENDBRANCH  11  15
ENDBRANCH   9  12
ENDBRANCH   1   9
TORSDOF 5
ENDMDL
MODEL 2
REMARK VINA RESULT:      -7.3      1.027      1.846
REMARK  Name = 71105
REMARK  5 active torsions:
REMARK  status: ('A' for Active; 'I' for Inactive)
REMARK    1  A    between atoms: S_1  and  C_5
REMARK    2  A    between atoms: S_1  and  C_9
REMARK    3  A    between atoms: C_9  and  C_12
REMARK    4  A    between atoms: N_11  and  C_13
REMARK    5  A    between atoms: N_11  and  C_15
REMARK                            x       y       z     vdW  Elec       q    Type
REMARK                         _______ _______ _______ _____ _____    ______ ____
ROOT
ATOM      1  S   UNL     1      36.065 -18.285 -22.012  0.00  0.00    -0.083 S 
ENDROOT
BRANCH   1   5
ATOM      2 CL   UNL     1      33.164 -22.436 -18.502  0.00  0.00    -0.059 Cl
ATOM      3  N   UNL     1      35.875 -20.282 -20.239  0.00  0.00    -0.141 NA
ATOM      4  N   UNL     1      35.226 -21.195 -19.468  0.00  0.00    -0.136 NA
ATOM      5  C   UNL     1      35.150 -19.463 -21.021  0.00  0.00    +0.129 C 
ATOM      6  C   UNL     1      33.777 -19.491 -21.092  0.00  0.00    +0.030 C 
ATOM      7  C   UNL     1      33.117 -20.421 -20.308  0.00  0.00    +0.035 C 
ATOM      8  C   UNL     1      33.877 -21.252 -19.511  0.00  0.00    +0.160 C 
ENDBRANCH   1   5
BRANCH   1   9
ATOM      9  C   UNL     1      34.753 -17.576 -23.040  0.00  0.00    +0.149 C 
BRANCH   9  12
ATOM     10  O   UNL     1      34.796 -15.606 -21.659  0.00  0.00    -0.274 OA
ATOM     11  N   UNL     1      34.058 -15.343 -23.838  0.00  0.00    -0.279 N 
ATOM     12  C   UNL     1      34.547 -16.097 -22.762  0.00  0.00    +0.237 C 
BRANCH  11  13
ATOM     13  C   UNL     1      33.804 -13.908 -23.738  0.00  0.00    +0.093 C 
ATOM     14  C   UNL     1      32.546 -13.621 -22.944  0.00  0.00    +0.023 C 
ENDBRANCH  11  13
BRANCH  11  15
ATOM     15  C   UNL     1      33.767 -15.933 -25.140  0.00  0.00    +0.093 C 
ATOM     16  C   UNL     1      33.255 -14.894 -26.117  0.00  0.00    +0.023 C 
ENDBRANCH  11  15
ENDBRANCH   9  12
ENDBRANCH   1   9
TORSDOF 5
ENDMDL
MODEL 3
REMARK VINA RESULT:      -7.1      4.431      5.449
REMARK  Name = 71105
REMARK  5 active torsions:
REMARK  status: ('A' for Active; 'I' for Inactive)
REMARK    1  A    between atoms: S_1  and  C_5
REMARK    2  A    between atoms: S_1  and  C_9
REMARK    3  A    between atoms: C_9  and  C_12
REMARK    4  A    between atoms: N_11  and  C_13
REMARK    5  A    between atoms: N_11  and  C_15
REMARK                            x       y       z     vdW  Elec       q    Type
REMARK                         _______ _______ _______ _____ _____    ______ ____
ROOT
ATOM      1  S   UNL     1      33.172 -13.736 -25.094  0.00  0.00    -0.083 S 
ENDROOT
BRANCH   1   5
ATOM      2 CL   UNL     1      35.124 -19.531 -24.329  0.00  0.00    -0.059 Cl
ATOM      3  N   UNL     1      33.539 -16.301 -25.767  0.00  0.00    -0.141 NA
ATOM      4  N   UNL     1      33.974 -17.578 -25.589  0.00  0.00    -0.136 NA
ATOM      5  C   UNL     1      33.771 -15.398 -24.798  0.00  0.00    +0.129 C 
ATOM      6  C   UNL     1      34.427 -15.687 -23.625  0.00  0.00    +0.030 C 
ATOM      7  C   UNL     1      34.869 -16.987 -23.444  0.00  0.00    +0.035 C 
ATOM      8  C   UNL     1      34.623 -17.899 -24.449  0.00  0.00    +0.160 C 
ENDBRANCH   1   5
BRANCH   1   9
ATOM      9  C   UNL     1      33.664 -12.896 -23.566  0.00  0.00    +0.149 C 
BRANCH   9  12
ATOM     10  O   UNL     1      32.080 -13.825 -22.010  0.00  0.00    -0.274 OA
ATOM     11  N   UNL     1      32.018 -11.532 -22.325  0.00  0.00    -0.279 N 
ATOM     12  C   UNL     1      32.524 -12.817 -22.566  0.00  0.00    +0.237 C 
BRANCH  11  13
ATOM     13  C   UNL     1      30.921 -11.283 -21.393  0.00  0.00    +0.093 C 
ATOM     14  C   UNL     1      31.407 -11.252 -19.959  0.00  0.00    +0.023 C 
ENDBRANCH  11  13
BRANCH  11  15
ATOM     15  C   UNL     1      32.548 -10.345 -22.987  0.00  0.00    +0.093 C 
ATOM     16  C   UNL     1      31.528  -9.226 -23.018  0.00  0.00    +0.023 C 
ENDBRANCH  11  15
ENDBRANCH   9  12
ENDBRANCH   1   9
TORSDOF 5
ENDMDL
MODEL 4
REMARK VINA RESULT:      -6.9      8.965     10.948
REMARK  Name = 71105
REMARK  5 active torsions:
REMARK  status: ('A' for Active; 'I' for Inactive)
REMARK    1  A    between atoms: S_1  and  C_5
REMARK    2  A    between atoms: S_1  and  C_9
REMARK    3  A    between atoms: C_9  and  C_12
REMARK    4  A    between atoms: N_11  and  C_13
REMARK    5  A    between atoms: N_11  and  C_15
REMARK                            x       y       z     vdW  Elec       q    Type
REMARK                         _______ _______ _______ _____ _____    ______ ____
ROOT
ATOM      1  S   UNL     1      34.694 -23.574 -16.078  0.00  0.00    -0.083 S 
ENDROOT
BRANCH   1   5
ATOM      2 CL   UNL     1      28.648 -22.493 -15.572  0.00  0.00    -0.059 Cl
ATOM      3  N   UNL     1      32.228 -23.019 -16.959  0.00  0.00    -0.141 NA
ATOM      4  N   UNL     1      30.894 -22.782 -16.837  0.00  0.00    -0.136 NA
ATOM      5  C   UNL     1      32.944 -23.271 -15.849  0.00  0.00    +0.129 C 
ATOM      6  C   UNL     1      32.406 -23.303 -14.583  0.00  0.00    +0.030 C 
ATOM      7  C   UNL     1      31.049 -23.061 -14.460  0.00  0.00    +0.035 C 
ATOM      8  C   UNL     1      30.331 -22.806 -15.610  0.00  0.00    +0.160 C 
ENDBRANCH   1   5
BRANCH   1   9
ATOM      9  C   UNL     1      35.065 -24.648 -14.667  0.00  0.00    +0.149 C 
BRANCH   9  12
ATOM     10  O   UNL     1      36.115 -26.554 -15.693  0.00  0.00    -0.274 OA
ATOM     11  N   UNL     1      37.435 -25.249 -14.309  0.00  0.00    -0.279 N 
ATOM     12  C   UNL     1      36.232 -25.577 -14.949  0.00  0.00    +0.237 C 
BRANCH  11  13
ATOM     13  C   UNL     1      38.652 -26.040 -14.472  0.00  0.00    +0.093 C 
ATOM     14  C   UNL     1      39.791 -25.202 -15.015  0.00  0.00    +0.023 C 
ENDBRANCH  11  13
BRANCH  11  15
ATOM     15  C   UNL     1      37.564 -24.091 -13.431  0.00  0.00    +0.093 C 
ATOM     16  C   UNL     1      37.807 -24.509 -11.995  0.00  0.00    +0.023 C 
ENDBRANCH  11  15
ENDBRANCH   9  12
ENDBRANCH   1   9
TORSDOF 5
ENDMDL
MODEL 5
REMARK VINA RESULT:      -6.9      6.178     10.060
REMARK  Name = 71105
REMARK  5 active torsions:
REMARK  status: ('A' for Active; 'I' for Inactive)
REMARK    1  A    between atoms: S_1  and  C_5
REMARK    2  A    between atoms: S_1  and  C_9
REMARK    3  A    between atoms: C_9  and  C_12
REMARK    4  A    between atoms: N_11  and  C_13
REMARK    5  A    between atoms: N_11  and  C_15
REMARK                            x       y       z     vdW  Elec       q    Type
REMARK                         _______ _______ _______ _____ _____    ______ ____
ROOT
ATOM      1  S   UNL     1      33.794 -23.670 -16.646  0.00  0.00    -0.083 S 
ENDROOT
BRANCH   1   5
ATOM      2 CL   UNL     1      34.018 -19.776 -21.417  0.00  0.00    -0.059 Cl
ATOM      3  N   UNL     1      32.793 -22.126 -18.590  0.00  0.00    -0.141 NA
ATOM      4  N   UNL     1      32.852 -21.266 -19.643  0.00  0.00    -0.136 NA
ATOM      5  C   UNL     1      33.942 -22.539 -18.026  0.00  0.00    +0.129 C 
ATOM      6  C   UNL     1      35.188 -22.142 -18.452  0.00  0.00    +0.030 C 
ATOM      7  C   UNL     1      35.248 -21.268 -19.524  0.00  0.00    +0.035 C 
ATOM      8  C   UNL     1      34.059 -20.855 -20.089  0.00  0.00    +0.160 C 
ENDBRANCH   1   5
BRANCH   1   9
ATOM      9  C   UNL     1      35.329 -23.342 -15.741  0.00  0.00    +0.149 C 
BRANCH   9  12
ATOM     10  O   UNL     1      35.799 -25.702 -15.726  0.00  0.00    -0.274 OA
ATOM     11  N   UNL     1      36.650 -24.452 -13.972  0.00  0.00    -0.279 N 
ATOM     12  C   UNL     1      35.935 -24.611 -15.168  0.00  0.00    +0.237 C 
BRANCH  11  13
ATOM     13  C   UNL     1      37.293 -25.572 -13.289  0.00  0.00    +0.093 C 
ATOM     14  C   UNL     1      38.759 -25.676 -13.654  0.00  0.00    +0.023 C 
ENDBRANCH  11  13
BRANCH  11  15
ATOM     15  C   UNL     1      36.805 -23.157 -13.319  0.00  0.00    +0.093 C 
ATOM     16  C   UNL     1      36.621 -23.267 -11.819  0.00  0.00    +0.023 C 
ENDBRANCH  11  15
ENDBRANCH   9  12
ENDBRANCH   1   9
TORSDOF 5
ENDMDL
MODEL 6
REMARK VINA RESULT:      -6.9      4.545      5.520
REMARK  Name = 71105
REMARK  5 active torsions:
REMARK  status: ('A' for Active; 'I' for Inactive)
REMARK    1  A    between atoms: S_1  and  C_5
REMARK    2  A    between atoms: S_1  and  C_9
REMARK    3  A    between atoms: C_9  and  C_12
REMARK    4  A    between atoms: N_11  and  C_13
REMARK    5  A    between atoms: N_11  and  C_15
REMARK                            x       y       z     vdW  Elec       q    Type
REMARK                         _______ _______ _______ _____ _____    ______ ____
ROOT
ATOM      1  S   UNL     1      33.281 -13.553 -25.113  0.00  0.00    -0.083 S 
ENDROOT
BRANCH   1   5
ATOM      2 CL   UNL     1      35.007 -19.406 -24.262  0.00  0.00    -0.059 Cl
ATOM      3  N   UNL     1      33.650 -16.116 -25.792  0.00  0.00    -0.141 NA
ATOM      4  N   UNL     1      34.034 -17.406 -25.594  0.00  0.00    -0.136 NA
ATOM      5  C   UNL     1      33.807 -15.233 -24.789  0.00  0.00    +0.129 C 
ATOM      6  C   UNL     1      34.339 -15.557 -23.563  0.00  0.00    +0.030 C 
ATOM      7  C   UNL     1      34.729 -16.869 -23.362  0.00  0.00    +0.035 C 
ATOM      8  C   UNL     1      34.560 -17.760 -24.402  0.00  0.00    +0.160 C 
ENDBRANCH   1   5
BRANCH   1   9
ATOM      9  C   UNL     1      32.989 -12.933 -23.436  0.00  0.00    +0.149 C 
BRANCH   9  12
ATOM     10  O   UNL     1      33.976 -10.814 -24.006  0.00  0.00    -0.274 OA
ATOM     11  N   UNL     1      32.223 -10.781 -22.493  0.00  0.00    -0.279 N 
ATOM     12  C   UNL     1      33.124 -11.423 -23.354  0.00  0.00    +0.237 C 
BRANCH  11  13
ATOM     13  C   UNL     1      32.221  -9.333 -22.298  0.00  0.00    +0.093 C 
ATOM     14  C   UNL     1      31.354  -8.636 -23.326  0.00  0.00    +0.023 C 
ENDBRANCH  11  13
BRANCH  11  15
ATOM     15  C   UNL     1      31.219 -11.510 -21.726  0.00  0.00    +0.093 C 
ATOM     16  C   UNL     1      31.141 -11.009 -20.298  0.00  0.00    +0.023 C 
ENDBRANCH  11  15
ENDBRANCH   9  12
ENDBRANCH   1   9
TORSDOF 5
ENDMDL
MODEL 7
REMARK VINA RESULT:      -6.9      5.649      9.647
REMARK  Name = 71105
REMARK  5 active torsions:
REMARK  status: ('A' for Active; 'I' for Inactive)
REMARK    1  A    between atoms: S_1  and  C_5
REMARK    2  A    between atoms: S_1  and  C_9
REMARK    3  A    between atoms: C_9  and  C_12
REMARK    4  A    between atoms: N_11  and  C_13
REMARK    5  A    between atoms: N_11  and  C_15
REMARK                            x       y       z     vdW  Elec       q    Type
REMARK                         _______ _______ _______ _____ _____    ______ ____
ROOT
ATOM      1  S   UNL     1      33.408 -23.349 -17.611  0.00  0.00    -0.083 S 
ENDROOT
BRANCH   1   5
ATOM      2 CL   UNL     1      34.268 -18.946 -21.835  0.00  0.00    -0.059 Cl
ATOM      3  N   UNL     1      32.669 -21.474 -19.373  0.00  0.00    -0.141 NA
ATOM      4  N   UNL     1      32.869 -20.504 -20.305  0.00  0.00    -0.136 NA
ATOM      5  C   UNL     1      33.740 -22.080 -18.830  0.00  0.00    +0.129 C 
ATOM      6  C   UNL     1      35.040 -21.775 -19.160  0.00  0.00    +0.030 C 
ATOM      7  C   UNL     1      35.243 -20.788 -20.109  0.00  0.00    +0.035 C 
ATOM      8  C   UNL     1      34.132 -20.178 -20.655  0.00  0.00    +0.160 C 
ENDBRANCH   1   5
BRANCH   1   9
ATOM      9  C   UNL     1      34.755 -23.080 -16.430  0.00  0.00    +0.149 C 
BRANCH   9  12
ATOM     10  O   UNL     1      33.197 -23.178 -14.599  0.00  0.00    -0.274 OA
ATOM     11  N   UNL     1      35.335 -23.972 -14.199  0.00  0.00    -0.279 N 
ATOM     12  C   UNL     1      34.339 -23.405 -15.006  0.00  0.00    +0.237 C 
BRANCH  11  13
ATOM     13  C   UNL     1      35.099 -24.341 -12.806  0.00  0.00    +0.093 C 
ATOM     14  C   UNL     1      36.050 -23.621 -11.872  0.00  0.00    +0.023 C 
ENDBRANCH  11  13
BRANCH  11  15
ATOM     15  C   UNL     1      36.683 -24.236 -14.690  0.00  0.00    +0.093 C 
ATOM     16  C   UNL     1      36.906 -25.716 -14.927  0.00  0.00    +0.023 C 
ENDBRANCH  11  15
ENDBRANCH   9  12
ENDBRANCH   1   9
TORSDOF 5
ENDMDL
MODEL 8
REMARK VINA RESULT:      -6.8      1.888      2.652
REMARK  Name = 71105
REMARK  5 active torsions:
REMARK  status: ('A' for Active; 'I' for Inactive)
REMARK    1  A    between atoms: S_1  and  C_5
REMARK    2  A    between atoms: S_1  and  C_9
REMARK    3  A    between atoms: C_9  and  C_12
REMARK    4  A    between atoms: N_11  and  C_13
REMARK    5  A    between atoms: N_11  and  C_15
REMARK                            x       y       z     vdW  Elec       q    Type
REMARK                         _______ _______ _______ _____ _____    ______ ____
ROOT
ATOM      1  S   UNL     1      35.991 -18.634 -21.321  0.00  0.00    -0.083 S 
ENDROOT
BRANCH   1   5
ATOM      2 CL   UNL     1      33.527 -23.292 -18.127  0.00  0.00    -0.059 Cl
ATOM      3  N   UNL     1      36.000 -20.735 -19.662  0.00  0.00    -0.141 NA
ATOM      4  N   UNL     1      35.446 -21.761 -18.960  0.00  0.00    -0.136 NA
ATOM      5  C   UNL     1      35.200 -19.966 -20.422  0.00  0.00    +0.129 C 
ATOM      6  C   UNL     1      33.843 -20.154 -20.537  0.00  0.00    +0.030 C 
ATOM      7  C   UNL     1      33.280 -21.199 -19.824  0.00  0.00    +0.035 C 
ATOM      8  C   UNL     1      34.116 -21.976 -19.048  0.00  0.00    +0.160 C 
ENDBRANCH   1   5
BRANCH   1   9
ATOM      9  C   UNL     1      34.577 -17.572 -21.715  0.00  0.00    +0.149 C 
BRANCH   9  12
ATOM     10  O   UNL     1      35.307 -15.560 -22.815  0.00  0.00    -0.274 OA
ATOM     11  N   UNL     1      34.518 -17.267 -24.166  0.00  0.00    -0.279 N 
ATOM     12  C   UNL     1      34.841 -16.697 -22.927  0.00  0.00    +0.237 C 
BRANCH  11  13
ATOM     13  C   UNL     1      34.709 -16.559 -25.429  0.00  0.00    +0.093 C 
ATOM     14  C   UNL     1      33.518 -15.684 -25.761  0.00  0.00    +0.023 C 
ENDBRANCH  11  13
BRANCH  11  15
ATOM     15  C   UNL     1      33.967 -18.612 -24.289  0.00  0.00    +0.093 C 
ATOM     16  C   UNL     1      34.997 -19.588 -24.819  0.00  0.00    +0.023 C 
ENDBRANCH  11  15
ENDBRANCH   9  12
ENDBRANCH   1   9
TORSDOF 5
ENDMDL
MODEL 9
REMARK VINA RESULT:      -6.7      4.542      7.792
REMARK  Name = 71105
REMARK  5 active torsions:
REMARK  status: ('A' for Active; 'I' for Inactive)
REMARK    1  A    between atoms: S_1  and  C_5
REMARK    2  A    between atoms: S_1  and  C_9
REMARK    3  A    between atoms: C_9  and  C_12
REMARK    4  A    between atoms: N_11  and  C_13
REMARK    5  A    between atoms: N_11  and  C_15
REMARK                            x       y       z     vdW  Elec       q    Type
REMARK                         _______ _______ _______ _____ _____    ______ ____
ROOT
ATOM      1  S   UNL     1      32.805 -14.773 -22.136  0.00  0.00    -0.083 S 
ENDROOT
BRANCH   1   5
ATOM      2 CL   UNL     1      32.659  -8.828 -23.748  0.00  0.00    -0.059 Cl
ATOM      3  N   UNL     1      31.981 -12.229 -22.021  0.00  0.00    -0.141 NA
ATOM      4  N   UNL     1      31.956 -10.918 -22.385  0.00  0.00    -0.136 NA
ATOM      5  C   UNL     1      32.822 -13.061 -22.661  0.00  0.00    +0.129 C 
ATOM      6  C   UNL     1      33.668 -12.666 -23.670  0.00  0.00    +0.030 C 
ATOM      7  C   UNL     1      33.642 -11.332 -24.039  0.00  0.00    +0.035 C 
ATOM      8  C   UNL     1      32.773 -10.493 -23.372  0.00  0.00    +0.160 C 
ENDBRANCH   1   5
BRANCH   1   9
ATOM      9  C   UNL     1      34.547 -15.230 -22.330  0.00  0.00    +0.149 C 
BRANCH   9  12
ATOM     10  O   UNL     1      35.052 -16.394 -20.284  0.00  0.00    -0.274 OA
ATOM     11  N   UNL     1      35.075 -17.643 -22.234  0.00  0.00    -0.279 N 
ATOM     12  C   UNL     1      34.911 -16.455 -21.508  0.00  0.00    +0.237 C 
BRANCH  11  13
ATOM     13  C   UNL     1      35.426 -18.909 -21.596  0.00  0.00    +0.093 C 
ATOM     14  C   UNL     1      34.230 -19.535 -20.908  0.00  0.00    +0.023 C 
ENDBRANCH  11  13
BRANCH  11  15
ATOM     15  C   UNL     1      34.906 -17.705 -23.682  0.00  0.00    +0.093 C 
ATOM     16  C   UNL     1      34.816 -19.138 -24.168  0.00  0.00    +0.023 C 
ENDBRANCH  11  15
ENDBRANCH   9  12
ENDBRANCH   1   9
TORSDOF 5
ENDMDL
