MODEL 1
REMARK VINA RESULT:     -11.3      0.000      0.000
REMARK  Name = 449162
REMARK  12 active torsions:
REMARK  status: ('A' for Active; 'I' for Inactive)
REMARK    1  A    between atoms: C_1  and  C_9
REMARK    2  A    between atoms: C_3  and  C_19
REMARK    3  A    between atoms: C_10  and  C_16
REMARK    4  A    between atoms: C_11  and  C_13
REMARK    5  A    between atoms: C_13  and  O_14
REMARK    6  A    between atoms: C_16  and  O_17
REMARK    7  A    between atoms: C_20  and  C_21
REMARK    8  A    between atoms: C_21  and  O_22
REMARK    9  A    between atoms: O_22  and  C_23
REMARK   10  A    between atoms: C_24  and  C_32
REMARK   11  A    between atoms: C_25  and  O_29
REMARK   12  A    between atoms: C_32  and  O_33
REMARK                            x       y       z     vdW  Elec       q    Type
REMARK                         _______ _______ _______ _____ _____    ______ ____
ROOT
ATOM      1  C   UNL     1      35.300 -18.468 -22.378  0.00  0.00    +0.037 C 
ATOM      2  C   UNL     1      34.438 -19.310 -21.676  0.00  0.00    +0.003 C 
ATOM      3  C   UNL     1      34.930 -20.110 -20.645  0.00  0.00    -0.000 C 
ATOM      4  C   UNL     1      36.655 -18.424 -22.047  0.00  0.00    +0.003 C 
ATOM      5  C   UNL     1      36.285 -20.067 -20.314  0.00  0.00    -0.000 C 
ATOM      6  C   UNL     1      37.147 -19.225 -21.016  0.00  0.00    +0.000 C 
ENDROOT
BRANCH   1   9
ATOM      7  O   UNL     1      34.812 -18.210 -24.674  0.00  0.00    -0.353 OA
ATOM      8  N   UNL     1      34.300 -17.308 -25.598  0.00  0.00    -0.071 NA
ATOM      9  C   UNL     1      34.793 -17.640 -23.445  0.00  0.00    +0.175 A 
ATOM     10  C   UNL     1      34.282 -16.378 -23.520  0.00  0.00    +0.071 A 
ATOM     11  C   UNL     1      33.990 -16.221 -24.886  0.00  0.00    +0.196 A 
BRANCH  11  13
ATOM     12  O   UNL     1      32.903 -14.111 -24.971  0.00  0.00    -0.243 OA
ATOM     13  C   UNL     1      33.426 -15.077 -25.544  0.00  0.00    +0.359 C 
BRANCH  13  14
ATOM     14  O   UNL     1      33.497 -15.104 -26.915  0.00  0.00    -0.476 OA
ATOM     15  H   UNL     1      34.266 -14.792 -27.350  0.00  0.00    +0.295 HD
ENDBRANCH  13  14
ENDBRANCH  11  13
BRANCH  10  16
ATOM     16  C   UNL     1      34.084 -15.409 -22.428  0.00  0.00    +0.169 C 
BRANCH  16  17
ATOM     17  O   UNL     1      34.802 -14.189 -22.639  0.00  0.00    -0.377 OA
ATOM     18  H   UNL     1      34.260 -13.439 -22.344  0.00  0.00    +0.211 HD
ENDBRANCH  16  17
ENDBRANCH  10  16
ENDBRANCH   1   9
BRANCH   3  19
ATOM     19  C   UNL     1      34.030 -20.988 -19.914  0.00  0.00    -0.001 C 
ATOM     20  C   UNL     1      34.400 -21.986 -19.080  0.00  0.00    +0.021 C 
BRANCH  20  21
ATOM     21  C   UNL     1      33.436 -22.854 -18.337  0.00  0.00    +0.232 C 
BRANCH  21  22
ATOM     22  O   UNL     1      34.131 -23.519 -17.291  0.00  0.00    -0.470 OA
BRANCH  22  23
ATOM     23  C   UNL     1      33.507 -23.576 -16.073  0.00  0.00    +0.148 C 
ATOM     24  C   UNL     1      34.167 -24.088 -14.961  0.00  0.00    +0.143 C 
ATOM     25  C   UNL     1      33.513 -24.137 -13.729  0.00  0.00    +0.143 C 
ATOM     26  C   UNL     1      32.200 -23.113 -15.967  0.00  0.00    +0.037 C 
ATOM     27  C   UNL     1      32.202 -23.674 -13.618  0.00  0.00    +0.037 C 
ATOM     28  C   UNL     1      31.545 -23.163 -14.737  0.00  0.00    +0.006 C 
BRANCH  25  29
ATOM     29  O   UNL     1      34.137 -24.632 -12.623  0.00  0.00    -0.505 OA
ATOM     30  H   UNL     1      34.091 -24.167 -11.811  0.00  0.00    +0.292 HD
ENDBRANCH  25  29
BRANCH  24  32
ATOM     31  O   UNL     1      35.853 -25.660 -15.571  0.00  0.00    -0.245 OA
ATOM     32  C   UNL     1      35.538 -24.572 -15.078  0.00  0.00    +0.347 C 
BRANCH  32  33
ATOM     33  O   UNL     1      36.431 -23.668 -14.573  0.00  0.00    -0.441 OA
ATOM     34  C   UNL     1      37.200 -22.924 -15.524  0.00  0.00    +0.256 C 
ENDBRANCH  32  33
ENDBRANCH  24  32
ENDBRANCH  22  23
ENDBRANCH  21  22
ENDBRANCH  20  21
ENDBRANCH   3  19
TORSDOF 12
ENDMDL
MODEL 2
REMARK VINA RESULT:     -11.1      2.379      3.346
REMARK  Name = 449162
REMARK  12 active torsions:
REMARK  status: ('A' for Active; 'I' for Inactive)
REMARK    1  A    between atoms: C_1  and  C_9
REMARK    2  A    between atoms: C_3  and  C_19
REMARK    3  A    between atoms: C_10  and  C_16
REMARK    4  A    between atoms: C_11  and  C_13
REMARK    5  A    between atoms: C_13  and  O_14
REMARK    6  A    between atoms: C_16  and  O_17
REMARK    7  A    between atoms: C_20  and  C_21
REMARK    8  A    between atoms: C_21  and  O_22
REMARK    9  A    between atoms: O_22  and  C_23
REMARK   10  A    between atoms: C_24  and  C_32
REMARK   11  A    between atoms: C_25  and  O_29
REMARK   12  A    between atoms: C_32  and  O_33
REMARK                            x       y       z     vdW  Elec       q    Type
REMARK                         _______ _______ _______ _____ _____    ______ ____
ROOT
ATOM      1  C   UNL     1      34.379 -20.042 -21.027  0.00  0.00    +0.037 C 
ATOM      2  C   UNL     1      35.475 -20.454 -20.269  0.00  0.00    +0.003 C 
ATOM      3  C   UNL     1      35.292 -21.319 -19.191  0.00  0.00    -0.000 C 
ATOM      4  C   UNL     1      33.099 -20.496 -20.707  0.00  0.00    +0.003 C 
ATOM      5  C   UNL     1      34.012 -21.773 -18.869  0.00  0.00    -0.000 C 
ATOM      6  C   UNL     1      32.916 -21.361 -19.627  0.00  0.00    +0.000 C 
ENDROOT
BRANCH   1   9
ATOM      7  O   UNL     1      34.854 -19.750 -23.322  0.00  0.00    -0.353 OA
ATOM      8  N   UNL     1      35.008 -18.777 -24.301  0.00  0.00    -0.071 NA
ATOM      9  C   UNL     1      34.566 -19.148 -22.143  0.00  0.00    +0.175 A 
ATOM     10  C   UNL     1      34.523 -17.794 -22.305  0.00  0.00    +0.071 A 
ATOM     11  C   UNL     1      34.806 -17.617 -23.670  0.00  0.00    +0.196 A 
BRANCH  11  13
ATOM     12  O   UNL     1      35.167 -15.281 -23.912  0.00  0.00    -0.243 OA
ATOM     13  C   UNL     1      34.891 -16.386 -24.403  0.00  0.00    +0.359 C 
BRANCH  13  14
ATOM     14  O   UNL     1      34.640 -16.493 -25.749  0.00  0.00    -0.476 OA
ATOM     15  H   UNL     1      35.351 -16.523 -26.357  0.00  0.00    +0.295 HD
ENDBRANCH  13  14
ENDBRANCH  11  13
BRANCH  10  16
ATOM     16  C   UNL     1      34.247 -16.763 -21.290  0.00  0.00    +0.169 C 
BRANCH  16  17
ATOM     17  O   UNL     1      35.244 -16.723 -20.262  0.00  0.00    -0.377 OA
ATOM     18  H   UNL     1      34.858 -17.025 -19.425  0.00  0.00    +0.211 HD
ENDBRANCH  16  17
ENDBRANCH  10  16
ENDBRANCH   1   9
BRANCH   3  19
ATOM     19  C   UNL     1      36.436 -21.747 -18.401  0.00  0.00    -0.001 C 
ATOM     20  C   UNL     1      36.417 -22.064 -17.086  0.00  0.00    +0.021 C 
BRANCH  20  21
ATOM     21  C   UNL     1      37.618 -22.516 -16.320  0.00  0.00    +0.232 C 
BRANCH  21  22
ATOM     22  O   UNL     1      37.419 -23.861 -15.907  0.00  0.00    -0.470 OA
BRANCH  22  23
ATOM     23  C   UNL     1      37.133 -24.065 -14.582  0.00  0.00    +0.148 C 
ATOM     24  C   UNL     1      37.186 -25.342 -14.034  0.00  0.00    +0.143 C 
ATOM     25  C   UNL     1      36.891 -25.527 -12.682  0.00  0.00    +0.143 C 
ATOM     26  C   UNL     1      36.789 -22.971 -13.795  0.00  0.00    +0.037 C 
ATOM     27  C   UNL     1      36.545 -24.434 -11.888  0.00  0.00    +0.037 C 
ATOM     28  C   UNL     1      36.493 -23.156 -12.445  0.00  0.00    +0.006 C 
BRANCH  25  29
ATOM     29  O   UNL     1      36.937 -26.767 -12.118  0.00  0.00    -0.505 OA
ATOM     30  H   UNL     1      36.161 -27.291 -12.075  0.00  0.00    +0.292 HD
ENDBRANCH  25  29
BRANCH  24  32
ATOM     31  O   UNL     1      36.820 -26.973 -15.734  0.00  0.00    -0.245 OA
ATOM     32  C   UNL     1      37.549 -26.485 -14.864  0.00  0.00    +0.347 C 
BRANCH  32  33
ATOM     33  O   UNL     1      38.798 -26.947 -14.558  0.00  0.00    -0.441 OA
ATOM     34  C   UNL     1      39.877 -26.015 -14.684  0.00  0.00    +0.256 C 
ENDBRANCH  32  33
ENDBRANCH  24  32
ENDBRANCH  22  23
ENDBRANCH  21  22
ENDBRANCH  20  21
ENDBRANCH   3  19
TORSDOF 12
ENDMDL
MODEL 3
REMARK VINA RESULT:     -11.0      3.089     10.924
REMARK  Name = 449162
REMARK  12 active torsions:
REMARK  status: ('A' for Active; 'I' for Inactive)
REMARK    1  A    between atoms: C_1  and  C_9
REMARK    2  A    between atoms: C_3  and  C_19
REMARK    3  A    between atoms: C_10  and  C_16
REMARK    4  A    between atoms: C_11  and  C_13
REMARK    5  A    between atoms: C_13  and  O_14
REMARK    6  A    between atoms: C_16  and  O_17
REMARK    7  A    between atoms: C_20  and  C_21
REMARK    8  A    between atoms: C_21  and  O_22
REMARK    9  A    between atoms: O_22  and  C_23
REMARK   10  A    between atoms: C_24  and  C_32
REMARK   11  A    between atoms: C_25  and  O_29
REMARK   12  A    between atoms: C_32  and  O_33
REMARK                            x       y       z     vdW  Elec       q    Type
REMARK                         _______ _______ _______ _____ _____    ______ ____
ROOT
ATOM      1  C   UNL     1      34.723 -23.437 -16.047  0.00  0.00    +0.037 C 
ATOM      2  C   UNL     1      34.745 -22.864 -17.319  0.00  0.00    +0.003 C 
ATOM      3  C   UNL     1      33.550 -22.567 -17.972  0.00  0.00    -0.000 C 
ATOM      4  C   UNL     1      33.503 -23.711 -15.428  0.00  0.00    +0.003 C 
ATOM      5  C   UNL     1      32.330 -22.841 -17.353  0.00  0.00    -0.000 C 
ATOM      6  C   UNL     1      32.307 -23.413 -16.082  0.00  0.00    +0.000 C 
ENDROOT
BRANCH   1   9
ATOM      7  O   UNL     1      36.703 -22.671 -15.014  0.00  0.00    -0.353 OA
ATOM      8  N   UNL     1      37.856 -23.111 -14.378  0.00  0.00    -0.071 NA
ATOM      9  C   UNL     1      35.958 -23.745 -15.371  0.00  0.00    +0.175 A 
ATOM     10  C   UNL     1      36.582 -24.897 -14.989  0.00  0.00    +0.071 A 
ATOM     11  C   UNL     1      37.762 -24.444 -14.374  0.00  0.00    +0.196 A 
BRANCH  11  13
ATOM     12  O   UNL     1      38.637 -26.115 -12.930  0.00  0.00    -0.243 OA
ATOM     13  C   UNL     1      38.806 -25.229 -13.781  0.00  0.00    +0.359 C 
BRANCH  13  14
ATOM     14  O   UNL     1      40.073 -24.937 -14.222  0.00  0.00    -0.476 OA
ATOM     15  H   UNL     1      40.314 -24.049 -14.401  0.00  0.00    +0.295 HD
ENDBRANCH  13  14
ENDBRANCH  11  13
BRANCH  10  16
ATOM     16  C   UNL     1      36.126 -26.285 -15.179  0.00  0.00    +0.169 C 
BRANCH  16  17
ATOM     17  O   UNL     1      36.918 -26.997 -16.137  0.00  0.00    -0.377 OA
ATOM     18  H   UNL     1      36.808 -27.951 -16.002  0.00  0.00    +0.211 HD
ENDBRANCH  16  17
ENDBRANCH  10  16
ENDBRANCH   1   9
BRANCH   3  19
ATOM     19  C   UNL     1      33.575 -21.970 -19.298  0.00  0.00    -0.001 C 
ATOM     20  C   UNL     1      33.211 -20.704 -19.605  0.00  0.00    +0.021 C 
BRANCH  20  21
ATOM     21  C   UNL     1      33.269 -20.130 -20.984  0.00  0.00    +0.232 C 
BRANCH  21  22
ATOM     22  O   UNL     1      34.290 -19.141 -21.025  0.00  0.00    -0.470 OA
BRANCH  22  23
ATOM     23  C   UNL     1      34.502 -18.522 -22.228  0.00  0.00    +0.148 C 
ATOM     24  C   UNL     1      34.596 -17.137 -22.307  0.00  0.00    +0.143 C 
ATOM     25  C   UNL     1      34.813 -16.527 -23.543  0.00  0.00    +0.143 C 
ATOM     26  C   UNL     1      34.622 -19.304 -23.373  0.00  0.00    +0.037 C 
ATOM     27  C   UNL     1      34.933 -17.306 -24.693  0.00  0.00    +0.037 C 
ATOM     28  C   UNL     1      34.838 -18.694 -24.608  0.00  0.00    +0.006 C 
BRANCH  25  29
ATOM     29  O   UNL     1      34.911 -15.171 -23.648  0.00  0.00    -0.505 OA
ATOM     30  H   UNL     1      34.490 -14.724 -24.357  0.00  0.00    +0.292 HD
ENDBRANCH  25  29
BRANCH  24  32
ATOM     31  O   UNL     1      35.237 -16.384 -20.137  0.00  0.00    -0.245 OA
ATOM     32  C   UNL     1      34.470 -16.322 -21.103  0.00  0.00    +0.347 C 
BRANCH  32  33
ATOM     33  O   UNL     1      33.397 -15.479 -21.182  0.00  0.00    -0.441 OA
ATOM     34  C   UNL     1      32.178 -15.932 -20.584  0.00  0.00    +0.256 C 
ENDBRANCH  32  33
ENDBRANCH  24  32
ENDBRANCH  22  23
ENDBRANCH  21  22
ENDBRANCH  20  21
ENDBRANCH   3  19
TORSDOF 12
ENDMDL
MODEL 4
REMARK VINA RESULT:     -10.9      3.052     11.234
REMARK  Name = 449162
REMARK  12 active torsions:
REMARK  status: ('A' for Active; 'I' for Inactive)
REMARK    1  A    between atoms: C_1  and  C_9
REMARK    2  A    between atoms: C_3  and  C_19
REMARK    3  A    between atoms: C_10  and  C_16
REMARK    4  A    between atoms: C_11  and  C_13
REMARK    5  A    between atoms: C_13  and  O_14
REMARK    6  A    between atoms: C_16  and  O_17
REMARK    7  A    between atoms: C_20  and  C_21
REMARK    8  A    between atoms: C_21  and  O_22
REMARK    9  A    between atoms: O_22  and  C_23
REMARK   10  A    between atoms: C_24  and  C_32
REMARK   11  A    between atoms: C_25  and  O_29
REMARK   12  A    between atoms: C_32  and  O_33
REMARK                            x       y       z     vdW  Elec       q    Type
REMARK                         _______ _______ _______ _____ _____    ______ ____
ROOT
ATOM      1  C   UNL     1      35.330 -23.101 -16.316  0.00  0.00    +0.037 C 
ATOM      2  C   UNL     1      35.781 -22.394 -17.431  0.00  0.00    +0.003 C 
ATOM      3  C   UNL     1      34.906 -22.110 -18.478  0.00  0.00    -0.000 C 
ATOM      4  C   UNL     1      34.002 -23.524 -16.249  0.00  0.00    +0.003 C 
ATOM      5  C   UNL     1      33.578 -22.533 -18.412  0.00  0.00    -0.000 C 
ATOM      6  C   UNL     1      33.127 -23.240 -17.298  0.00  0.00    +0.000 C 
ENDROOT
BRANCH   1   9
ATOM      7  O   UNL     1      37.544 -23.454 -15.575  0.00  0.00    -0.353 OA
ATOM      8  N   UNL     1      38.295 -23.744 -14.442  0.00  0.00    -0.071 NA
ATOM      9  C   UNL     1      36.235 -23.395 -15.232  0.00  0.00    +0.175 A 
ATOM     10  C   UNL     1      36.086 -23.638 -13.898  0.00  0.00    +0.071 A 
ATOM     11  C   UNL     1      37.403 -23.849 -13.453  0.00  0.00    +0.196 A 
BRANCH  11  13
ATOM     12  O   UNL     1      37.584 -25.184 -11.496  0.00  0.00    -0.243 OA
ATOM     13  C   UNL     1      37.849 -24.147 -12.123  0.00  0.00    +0.359 C 
BRANCH  13  14
ATOM     14  O   UNL     1      38.628 -23.177 -11.541  0.00  0.00    -0.476 OA
ATOM     15  H   UNL     1      39.274 -22.729 -12.050  0.00  0.00    +0.295 HD
ENDBRANCH  13  14
ENDBRANCH  11  13
BRANCH  10  16
ATOM     16  C   UNL     1      34.841 -23.673 -13.112  0.00  0.00    +0.169 C 
BRANCH  16  17
ATOM     17  O   UNL     1      34.670 -24.907 -12.406  0.00  0.00    -0.377 OA
ATOM     18  H   UNL     1      35.161 -24.873 -11.570  0.00  0.00    +0.211 HD
ENDBRANCH  16  17
ENDBRANCH  10  16
ENDBRANCH   1   9
BRANCH   3  19
ATOM     19  C   UNL     1      35.377 -21.373 -19.640  0.00  0.00    -0.001 C 
ATOM     20  C   UNL     1      34.682 -20.431 -20.317  0.00  0.00    +0.021 C 
BRANCH  20  21
ATOM     21  C   UNL     1      35.217 -19.687 -21.498  0.00  0.00    +0.232 C 
BRANCH  21  22
ATOM     22  O   UNL     1      34.747 -18.347 -21.447  0.00  0.00    -0.470 OA
BRANCH  22  23
ATOM     23  C   UNL     1      34.617 -17.691 -22.643  0.00  0.00    +0.148 C 
ATOM     24  C   UNL     1      34.291 -16.339 -22.679  0.00  0.00    +0.143 C 
ATOM     25  C   UNL     1      34.164 -15.691 -23.908  0.00  0.00    +0.143 C 
ATOM     26  C   UNL     1      34.816 -18.402 -23.822  0.00  0.00    +0.037 C 
ATOM     27  C   UNL     1      34.362 -16.399 -25.093  0.00  0.00    +0.037 C 
ATOM     28  C   UNL     1      34.688 -17.754 -25.050  0.00  0.00    +0.006 C 
BRANCH  25  29
ATOM     29  O   UNL     1      33.847 -14.367 -23.972  0.00  0.00    -0.505 OA
ATOM     30  H   UNL     1      33.052 -14.095 -24.388  0.00  0.00    +0.292 HD
ENDBRANCH  25  29
BRANCH  24  32
ATOM     31  O   UNL     1      34.961 -15.400 -20.592  0.00  0.00    -0.245 OA
ATOM     32  C   UNL     1      34.084 -15.599 -21.439  0.00  0.00    +0.347 C 
BRANCH  32  33
ATOM     33  O   UNL     1      32.795 -15.154 -21.334  0.00  0.00    -0.441 OA
ATOM     34  C   UNL     1      32.608 -13.857 -20.758  0.00  0.00    +0.256 C 
ENDBRANCH  32  33
ENDBRANCH  24  32
ENDBRANCH  22  23
ENDBRANCH  21  22
ENDBRANCH  20  21
ENDBRANCH   3  19
TORSDOF 12
ENDMDL
MODEL 5
REMARK VINA RESULT:     -10.6      4.190     11.320
REMARK  Name = 449162
REMARK  12 active torsions:
REMARK  status: ('A' for Active; 'I' for Inactive)
REMARK    1  A    between atoms: C_1  and  C_9
REMARK    2  A    between atoms: C_3  and  C_19
REMARK    3  A    between atoms: C_10  and  C_16
REMARK    4  A    between atoms: C_11  and  C_13
REMARK    5  A    between atoms: C_13  and  O_14
REMARK    6  A    between atoms: C_16  and  O_17
REMARK    7  A    between atoms: C_20  and  C_21
REMARK    8  A    between atoms: C_21  and  O_22
REMARK    9  A    between atoms: O_22  and  C_23
REMARK   10  A    between atoms: C_24  and  C_32
REMARK   11  A    between atoms: C_25  and  O_29
REMARK   12  A    between atoms: C_32  and  O_33
REMARK                            x       y       z     vdW  Elec       q    Type
REMARK                         _______ _______ _______ _____ _____    ______ ____
ROOT
ATOM      1  C   UNL     1      35.011 -17.961 -22.735  0.00  0.00    +0.037 C 
ATOM      2  C   UNL     1      34.863 -16.604 -22.447  0.00  0.00    +0.003 C 
ATOM      3  C   UNL     1      34.463 -15.718 -23.446  0.00  0.00    -0.000 C 
ATOM      4  C   UNL     1      34.758 -18.431 -24.024  0.00  0.00    +0.003 C 
ATOM      5  C   UNL     1      34.210 -16.187 -24.735  0.00  0.00    -0.000 C 
ATOM      6  C   UNL     1      34.358 -17.544 -25.023  0.00  0.00    +0.000 C 
ENDROOT
BRANCH   1   9
ATOM      7  O   UNL     1      36.727 -18.787 -21.339  0.00  0.00    -0.353 OA
ATOM      8  N   UNL     1      36.985 -19.722 -20.345  0.00  0.00    -0.071 NA
ATOM      9  C   UNL     1      35.425 -18.879 -21.702  0.00  0.00    +0.175 A 
ATOM     10  C   UNL     1      34.801 -19.852 -20.978  0.00  0.00    +0.071 A 
ATOM     11  C   UNL     1      35.820 -20.346 -20.145  0.00  0.00    +0.196 A 
BRANCH  11  13
ATOM     12  O   UNL     1      35.055 -22.422 -19.280  0.00  0.00    -0.243 OA
ATOM     13  C   UNL     1      35.732 -21.390 -19.165  0.00  0.00    +0.359 C 
BRANCH  13  14
ATOM     14  O   UNL     1      36.475 -21.182 -18.029  0.00  0.00    -0.476 OA
ATOM     15  H   UNL     1      37.028 -21.863 -17.700  0.00  0.00    +0.295 HD
ENDBRANCH  13  14
ENDBRANCH  11  13
BRANCH  10  16
ATOM     16  C   UNL     1      33.395 -20.282 -21.052  0.00  0.00    +0.169 C 
BRANCH  16  17
ATOM     17  O   UNL     1      32.800 -20.442 -19.759  0.00  0.00    -0.377 OA
ATOM     18  H   UNL     1      33.440 -20.854 -19.157  0.00  0.00    +0.211 HD
ENDBRANCH  16  17
ENDBRANCH  10  16
ENDBRANCH   1   9
BRANCH   3  19
ATOM     19  C   UNL     1      34.310 -14.303 -23.144  0.00  0.00    -0.001 C 
ATOM     20  C   UNL     1      33.732 -13.380 -23.945  0.00  0.00    +0.021 C 
BRANCH  20  21
ATOM     21  C   UNL     1      33.583 -11.937 -23.584  0.00  0.00    +0.232 C 
BRANCH  21  22
ATOM     22  O   UNL     1      32.236 -11.699 -23.197  0.00  0.00    -0.470 OA
BRANCH  22  23
ATOM     23  C   UNL     1      32.036 -11.162 -21.952  0.00  0.00    +0.148 C 
ATOM     24  C   UNL     1      32.121  -9.788 -21.750  0.00  0.00    +0.143 C 
ATOM     25  C   UNL     1      31.914  -9.263 -20.474  0.00  0.00    +0.143 C 
ATOM     26  C   UNL     1      31.746 -12.016 -20.893  0.00  0.00    +0.037 C 
ATOM     27  C   UNL     1      31.624 -10.114 -19.408  0.00  0.00    +0.037 C 
ATOM     28  C   UNL     1      31.540 -11.490 -19.618  0.00  0.00    +0.006 C 
BRANCH  25  29
ATOM     29  O   UNL     1      31.990  -7.921 -20.247  0.00  0.00    -0.505 OA
ATOM     30  H   UNL     1      32.152  -7.600 -19.382  0.00  0.00    +0.292 HD
ENDBRANCH  25  29
BRANCH  24  32
ATOM     31  O   UNL     1      31.682  -8.718 -23.835  0.00  0.00    -0.245 OA
ATOM     32  C   UNL     1      32.425  -8.898 -22.865  0.00  0.00    +0.347 C 
BRANCH  32  33
ATOM     33  O   UNL     1      33.637  -8.287 -22.699  0.00  0.00    -0.441 OA
ATOM     34  C   UNL     1      34.559  -8.382 -23.789  0.00  0.00    +0.256 C 
ENDBRANCH  32  33
ENDBRANCH  24  32
ENDBRANCH  22  23
ENDBRANCH  21  22
ENDBRANCH  20  21
ENDBRANCH   3  19
TORSDOF 12
ENDMDL
MODEL 6
REMARK VINA RESULT:     -10.6      4.298     11.911
REMARK  Name = 449162
REMARK  12 active torsions:
REMARK  status: ('A' for Active; 'I' for Inactive)
REMARK    1  A    between atoms: C_1  and  C_9
REMARK    2  A    between atoms: C_3  and  C_19
REMARK    3  A    between atoms: C_10  and  C_16
REMARK    4  A    between atoms: C_11  and  C_13
REMARK    5  A    between atoms: C_13  and  O_14
REMARK    6  A    between atoms: C_16  and  O_17
REMARK    7  A    between atoms: C_20  and  C_21
REMARK    8  A    between atoms: C_21  and  O_22
REMARK    9  A    between atoms: O_22  and  C_23
REMARK   10  A    between atoms: C_24  and  C_32
REMARK   11  A    between atoms: C_25  and  O_29
REMARK   12  A    between atoms: C_32  and  O_33
REMARK                            x       y       z     vdW  Elec       q    Type
REMARK                         _______ _______ _______ _____ _____    ______ ____
ROOT
ATOM      1  C   UNL     1      34.847 -17.887 -22.003  0.00  0.00    +0.037 C 
ATOM      2  C   UNL     1      34.368 -16.701 -21.447  0.00  0.00    +0.003 C 
ATOM      3  C   UNL     1      34.040 -15.625 -22.271  0.00  0.00    -0.000 C 
ATOM      4  C   UNL     1      34.997 -17.997 -23.386  0.00  0.00    +0.003 C 
ATOM      5  C   UNL     1      34.190 -15.735 -23.654  0.00  0.00    -0.000 C 
ATOM      6  C   UNL     1      34.669 -16.920 -24.210  0.00  0.00    +0.000 C 
ENDROOT
BRANCH   1   9
ATOM      7  O   UNL     1      36.484 -19.054 -20.765  0.00  0.00    -0.353 OA
ATOM      8  N   UNL     1      36.669 -20.168 -19.956  0.00  0.00    -0.071 NA
ATOM      9  C   UNL     1      35.187 -19.000 -21.152  0.00  0.00    +0.175 A 
ATOM     10  C   UNL     1      34.494 -20.050 -20.623  0.00  0.00    +0.071 A 
ATOM     11  C   UNL     1      35.466 -20.747 -19.885  0.00  0.00    +0.196 A 
BRANCH  11  13
ATOM     12  O   UNL     1      34.504 -22.858 -19.375  0.00  0.00    -0.243 OA
ATOM     13  C   UNL     1      35.299 -21.945 -19.112  0.00  0.00    +0.359 C 
BRANCH  13  14
ATOM     14  O   UNL     1      36.106 -22.038 -18.006  0.00  0.00    -0.476 OA
ATOM     15  H   UNL     1      35.819 -22.521 -17.256  0.00  0.00    +0.295 HD
ENDBRANCH  13  14
ENDBRANCH  11  13
BRANCH  10  16
ATOM     16  C   UNL     1      33.067 -20.375 -20.787  0.00  0.00    +0.169 C 
BRANCH  16  17
ATOM     17  O   UNL     1      32.399 -20.565 -19.535  0.00  0.00    -0.377 OA
ATOM     18  H   UNL     1      31.997 -21.448 -19.513  0.00  0.00    +0.211 HD
ENDBRANCH  16  17
ENDBRANCH  10  16
ENDBRANCH   1   9
BRANCH   3  19
ATOM     19  C   UNL     1      33.541 -14.389 -21.689  0.00  0.00    -0.001 C 
ATOM     20  C   UNL     1      32.518 -13.645 -22.166  0.00  0.00    +0.021 C 
BRANCH  20  21
ATOM     21  C   UNL     1      32.030 -12.387 -21.523  0.00  0.00    +0.232 C 
BRANCH  21  22
ATOM     22  O   UNL     1      31.696 -11.452 -22.540  0.00  0.00    -0.470 OA
BRANCH  22  23
ATOM     23  C   UNL     1      32.739 -10.821 -23.165  0.00  0.00    +0.148 C 
ATOM     24  C   UNL     1      33.048  -9.497 -22.869  0.00  0.00    +0.143 C 
ATOM     25  C   UNL     1      34.115  -8.874 -23.518  0.00  0.00    +0.143 C 
ATOM     26  C   UNL     1      33.485 -11.528 -24.103  0.00  0.00    +0.037 C 
ATOM     27  C   UNL     1      34.866  -9.578 -24.460  0.00  0.00    +0.037 C 
ATOM     28  C   UNL     1      34.551 -10.904 -24.752  0.00  0.00    +0.006 C 
BRANCH  25  29
ATOM     29  O   UNL     1      34.440  -7.578 -23.246  0.00  0.00    -0.505 OA
ATOM     30  H   UNL     1      33.779  -6.914 -23.269  0.00  0.00    +0.292 HD
ENDBRANCH  25  29
BRANCH  24  32
ATOM     31  O   UNL     1      32.306  -8.964 -20.667  0.00  0.00    -0.245 OA
ATOM     32  C   UNL     1      32.263  -8.761 -21.885  0.00  0.00    +0.347 C 
BRANCH  32  33
ATOM     33  O   UNL     1      31.473  -7.818 -22.481  0.00  0.00    -0.441 OA
ATOM     34  C   UNL     1      31.442  -6.525 -21.868  0.00  0.00    +0.256 C 
ENDBRANCH  32  33
ENDBRANCH  24  32
ENDBRANCH  22  23
ENDBRANCH  21  22
ENDBRANCH  20  21
ENDBRANCH   3  19
TORSDOF 12
ENDMDL
MODEL 7
REMARK VINA RESULT:     -10.6      1.772      3.691
REMARK  Name = 449162
REMARK  12 active torsions:
REMARK  status: ('A' for Active; 'I' for Inactive)
REMARK    1  A    between atoms: C_1  and  C_9
REMARK    2  A    between atoms: C_3  and  C_19
REMARK    3  A    between atoms: C_10  and  C_16
REMARK    4  A    between atoms: C_11  and  C_13
REMARK    5  A    between atoms: C_13  and  O_14
REMARK    6  A    between atoms: C_16  and  O_17
REMARK    7  A    between atoms: C_20  and  C_21
REMARK    8  A    between atoms: C_21  and  O_22
REMARK    9  A    between atoms: O_22  and  C_23
REMARK   10  A    between atoms: C_24  and  C_32
REMARK   11  A    between atoms: C_25  and  O_29
REMARK   12  A    between atoms: C_32  and  O_33
REMARK                            x       y       z     vdW  Elec       q    Type
REMARK                         _______ _______ _______ _____ _____    ______ ____
ROOT
ATOM      1  C   UNL     1      34.331 -19.898 -20.994  0.00  0.00    +0.037 C 
ATOM      2  C   UNL     1      35.449 -20.347 -20.290  0.00  0.00    +0.003 C 
ATOM      3  C   UNL     1      35.301 -21.289 -19.272  0.00  0.00    -0.000 C 
ATOM      4  C   UNL     1      33.065 -20.392 -20.679  0.00  0.00    +0.003 C 
ATOM      5  C   UNL     1      34.035 -21.783 -18.957  0.00  0.00    -0.000 C 
ATOM      6  C   UNL     1      32.918 -21.334 -19.661  0.00  0.00    +0.000 C 
ENDROOT
BRANCH   1   9
ATOM      7  O   UNL     1      34.916 -19.419 -23.231  0.00  0.00    -0.353 OA
ATOM      8  N   UNL     1      35.016 -18.379 -24.146  0.00  0.00    -0.071 NA
ATOM      9  C   UNL     1      34.483 -18.924 -22.046  0.00  0.00    +0.175 A 
ATOM     10  C   UNL     1      34.289 -17.577 -22.142  0.00  0.00    +0.071 A 
ATOM     11  C   UNL     1      34.637 -17.288 -23.473  0.00  0.00    +0.196 A 
BRANCH  11  13
ATOM     12  O   UNL     1      34.247 -15.820 -25.300  0.00  0.00    -0.243 OA
ATOM     13  C   UNL     1      34.622 -16.015 -24.134  0.00  0.00    +0.359 C 
BRANCH  13  14
ATOM     14  O   UNL     1      35.068 -14.962 -23.374  0.00  0.00    -0.476 OA
ATOM     15  H   UNL     1      34.467 -14.486 -22.836  0.00  0.00    +0.295 HD
ENDBRANCH  13  14
ENDBRANCH  11  13
BRANCH  10  16
ATOM     16  C   UNL     1      33.828 -16.646 -21.098  0.00  0.00    +0.169 C 
BRANCH  16  17
ATOM     17  O   UNL     1      34.894 -15.867 -20.545  0.00  0.00    -0.377 OA
ATOM     18  H   UNL     1      35.343 -16.378 -19.853  0.00  0.00    +0.211 HD
ENDBRANCH  16  17
ENDBRANCH  10  16
ENDBRANCH   1   9
BRANCH   3  19
ATOM     19  C   UNL     1      36.468 -21.756 -18.539  0.00  0.00    -0.001 C 
ATOM     20  C   UNL     1      36.682 -21.607 -17.213  0.00  0.00    +0.021 C 
BRANCH  20  21
ATOM     21  C   UNL     1      37.892 -22.119 -16.500  0.00  0.00    +0.232 C 
BRANCH  21  22
ATOM     22  O   UNL     1      37.487 -22.690 -15.263  0.00  0.00    -0.470 OA
BRANCH  22  23
ATOM     23  C   UNL     1      37.751 -24.022 -15.081  0.00  0.00    +0.148 C 
ATOM     24  C   UNL     1      36.718 -24.954 -15.070  0.00  0.00    +0.143 C 
ATOM     25  C   UNL     1      37.010 -26.306 -14.882  0.00  0.00    +0.143 C 
ATOM     26  C   UNL     1      39.070 -24.427 -14.908  0.00  0.00    +0.037 C 
ATOM     27  C   UNL     1      38.331 -26.718 -14.708  0.00  0.00    +0.037 C 
ATOM     28  C   UNL     1      39.361 -25.778 -14.720  0.00  0.00    +0.006 C 
BRANCH  25  29
ATOM     29  O   UNL     1      36.018 -27.241 -14.868  0.00  0.00    -0.505 OA
ATOM     30  H   UNL     1      35.226 -27.078 -14.393  0.00  0.00    +0.292 HD
ENDBRANCH  25  29
BRANCH  24  32
ATOM     31  O   UNL     1      34.891 -24.040 -16.298  0.00  0.00    -0.245 OA
ATOM     32  C   UNL     1      35.337 -24.524 -15.253  0.00  0.00    +0.347 C 
BRANCH  32  33
ATOM     33  O   UNL     1      34.598 -24.725 -14.120  0.00  0.00    -0.441 OA
ATOM     34  C   UNL     1      34.880 -23.870 -13.008  0.00  0.00    +0.256 C 
ENDBRANCH  32  33
ENDBRANCH  24  32
ENDBRANCH  22  23
ENDBRANCH  21  22
ENDBRANCH  20  21
ENDBRANCH   3  19
TORSDOF 12
ENDMDL
MODEL 8
REMARK VINA RESULT:     -10.6      2.798     10.732
REMARK  Name = 449162
REMARK  12 active torsions:
REMARK  status: ('A' for Active; 'I' for Inactive)
REMARK    1  A    between atoms: C_1  and  C_9
REMARK    2  A    between atoms: C_3  and  C_19
REMARK    3  A    between atoms: C_10  and  C_16
REMARK    4  A    between atoms: C_11  and  C_13
REMARK    5  A    between atoms: C_13  and  O_14
REMARK    6  A    between atoms: C_16  and  O_17
REMARK    7  A    between atoms: C_20  and  C_21
REMARK    8  A    between atoms: C_21  and  O_22
REMARK    9  A    between atoms: O_22  and  C_23
REMARK   10  A    between atoms: C_24  and  C_32
REMARK   11  A    between atoms: C_25  and  O_29
REMARK   12  A    between atoms: C_32  and  O_33
REMARK                            x       y       z     vdW  Elec       q    Type
REMARK                         _______ _______ _______ _____ _____    ______ ____
ROOT
ATOM      1  C   UNL     1      34.609 -22.890 -16.582  0.00  0.00    +0.037 C 
ATOM      2  C   UNL     1      34.589 -22.348 -17.868  0.00  0.00    +0.003 C 
ATOM      3  C   UNL     1      35.762 -21.851 -18.434  0.00  0.00    -0.000 C 
ATOM      4  C   UNL     1      35.804 -22.934 -15.863  0.00  0.00    +0.003 C 
ATOM      5  C   UNL     1      36.957 -21.894 -17.715  0.00  0.00    -0.000 C 
ATOM      6  C   UNL     1      36.977 -22.436 -16.430  0.00  0.00    +0.000 C 
ENDROOT
BRANCH   1   9
ATOM      7  O   UNL     1      32.297 -23.327 -16.784  0.00  0.00    -0.353 OA
ATOM      8  N   UNL     1      31.211 -23.854 -16.097  0.00  0.00    -0.071 NA
ATOM      9  C   UNL     1      33.396 -23.405 -15.995  0.00  0.00    +0.175 A 
ATOM     10  C   UNL     1      33.076 -23.970 -14.796  0.00  0.00    +0.071 A 
ATOM     11  C   UNL     1      31.700 -24.232 -14.912  0.00  0.00    +0.196 A 
BRANCH  11  13
ATOM     12  O   UNL     1      30.732 -24.476 -12.757  0.00  0.00    -0.243 OA
ATOM     13  C   UNL     1      30.828 -24.828 -13.941  0.00  0.00    +0.359 C 
BRANCH  13  14
ATOM     14  O   UNL     1      30.062 -25.867 -14.411  0.00  0.00    -0.476 OA
ATOM     15  H   UNL     1      29.725 -25.842 -15.284  0.00  0.00    +0.295 HD
ENDBRANCH  13  14
ENDBRANCH  11  13
BRANCH  10  16
ATOM     16  C   UNL     1      33.962 -24.241 -13.651  0.00  0.00    +0.169 C 
BRANCH  16  17
ATOM     17  O   UNL     1      33.682 -23.399 -12.528  0.00  0.00    -0.377 OA
ATOM     18  H   UNL     1      34.512 -23.167 -12.082  0.00  0.00    +0.211 HD
ENDBRANCH  16  17
ENDBRANCH  10  16
ENDBRANCH   1   9
BRANCH   3  19
ATOM     19  C   UNL     1      35.740 -21.286 -19.774  0.00  0.00    -0.001 C 
ATOM     20  C   UNL     1      34.832 -20.402 -20.247  0.00  0.00    +0.021 C 
BRANCH  20  21
ATOM     21  C   UNL     1      34.859 -19.837 -21.631  0.00  0.00    +0.232 C 
BRANCH  21  22
ATOM     22  O   UNL     1      34.748 -18.422 -21.550  0.00  0.00    -0.470 OA
BRANCH  22  23
ATOM     23  C   UNL     1      34.636 -17.742 -22.734  0.00  0.00    +0.148 C 
ATOM     24  C   UNL     1      34.321 -16.388 -22.747  0.00  0.00    +0.143 C 
ATOM     25  C   UNL     1      34.211 -15.715 -23.964  0.00  0.00    +0.143 C 
ATOM     26  C   UNL     1      34.842 -18.432 -23.924  0.00  0.00    +0.037 C 
ATOM     27  C   UNL     1      34.417 -16.401 -25.161  0.00  0.00    +0.037 C 
ATOM     28  C   UNL     1      34.732 -17.759 -25.141  0.00  0.00    +0.006 C 
BRANCH  25  29
ATOM     29  O   UNL     1      33.905 -14.387 -24.006  0.00  0.00    -0.505 OA
ATOM     30  H   UNL     1      33.426 -13.994 -23.303  0.00  0.00    +0.292 HD
ENDBRANCH  25  29
BRANCH  24  32
ATOM     31  O   UNL     1      34.973 -15.502 -20.631  0.00  0.00    -0.245 OA
ATOM     32  C   UNL     1      34.106 -15.670 -21.495  0.00  0.00    +0.347 C 
BRANCH  32  33
ATOM     33  O   UNL     1      32.824 -15.207 -21.400  0.00  0.00    -0.441 OA
ATOM     34  C   UNL     1      32.637 -13.970 -20.704  0.00  0.00    +0.256 C 
ENDBRANCH  32  33
ENDBRANCH  24  32
ENDBRANCH  22  23
ENDBRANCH  21  22
ENDBRANCH  20  21
ENDBRANCH   3  19
TORSDOF 12
ENDMDL
MODEL 9
REMARK VINA RESULT:     -10.6      2.426      3.697
REMARK  Name = 449162
REMARK  12 active torsions:
REMARK  status: ('A' for Active; 'I' for Inactive)
REMARK    1  A    between atoms: C_1  and  C_9
REMARK    2  A    between atoms: C_3  and  C_19
REMARK    3  A    between atoms: C_10  and  C_16
REMARK    4  A    between atoms: C_11  and  C_13
REMARK    5  A    between atoms: C_13  and  O_14
REMARK    6  A    between atoms: C_16  and  O_17
REMARK    7  A    between atoms: C_20  and  C_21
REMARK    8  A    between atoms: C_21  and  O_22
REMARK    9  A    between atoms: O_22  and  C_23
REMARK   10  A    between atoms: C_24  and  C_32
REMARK   11  A    between atoms: C_25  and  O_29
REMARK   12  A    between atoms: C_32  and  O_33
REMARK                            x       y       z     vdW  Elec       q    Type
REMARK                         _______ _______ _______ _____ _____    ______ ____
ROOT
ATOM      1  C   UNL     1      34.439 -20.083 -20.901  0.00  0.00    +0.037 C 
ATOM      2  C   UNL     1      35.534 -20.507 -20.148  0.00  0.00    +0.003 C 
ATOM      3  C   UNL     1      35.350 -21.395 -19.088  0.00  0.00    -0.000 C 
ATOM      4  C   UNL     1      33.160 -20.549 -20.595  0.00  0.00    +0.003 C 
ATOM      5  C   UNL     1      34.072 -21.861 -18.782  0.00  0.00    -0.000 C 
ATOM      6  C   UNL     1      32.977 -21.437 -19.535  0.00  0.00    +0.000 C 
ENDROOT
BRANCH   1   9
ATOM      7  O   UNL     1      35.070 -19.725 -23.148  0.00  0.00    -0.353 OA
ATOM      8  N   UNL     1      35.206 -18.732 -24.110  0.00  0.00    -0.071 NA
ATOM      9  C   UNL     1      34.627 -19.164 -21.997  0.00  0.00    +0.175 A 
ATOM     10  C   UNL     1      34.462 -17.820 -22.161  0.00  0.00    +0.071 A 
ATOM     11  C   UNL     1      34.837 -17.603 -23.498  0.00  0.00    +0.196 A 
BRANCH  11  13
ATOM     12  O   UNL     1      34.983 -15.242 -23.708  0.00  0.00    -0.243 OA
ATOM     13  C   UNL     1      34.859 -16.364 -24.220  0.00  0.00    +0.359 C 
BRANCH  13  14
ATOM     14  O   UNL     1      34.730 -16.484 -25.582  0.00  0.00    -0.476 OA
ATOM     15  H   UNL     1      34.988 -15.778 -26.141  0.00  0.00    +0.295 HD
ENDBRANCH  13  14
ENDBRANCH  11  13
BRANCH  10  16
ATOM     16  C   UNL     1      34.002 -16.831 -21.171  0.00  0.00    +0.169 C 
BRANCH  16  17
ATOM     17  O   UNL     1      35.051 -15.960 -20.735  0.00  0.00    -0.377 OA
ATOM     18  H   UNL     1      35.910 -16.388 -20.882  0.00  0.00    +0.211 HD
ENDBRANCH  16  17
ENDBRANCH  10  16
ENDBRANCH   1   9
BRANCH   3  19
ATOM     19  C   UNL     1      36.493 -21.836 -18.303  0.00  0.00    -0.001 C 
ATOM     20  C   UNL     1      36.512 -22.016 -16.963  0.00  0.00    +0.021 C 
BRANCH  20  21
ATOM     21  C   UNL     1      37.709 -22.486 -16.201  0.00  0.00    +0.232 C 
BRANCH  21  22
ATOM     22  O   UNL     1      37.316 -22.781 -14.868  0.00  0.00    -0.470 OA
BRANCH  22  23
ATOM     23  C   UNL     1      37.288 -24.103 -14.509  0.00  0.00    +0.148 C 
ATOM     24  C   UNL     1      37.552 -24.489 -13.200  0.00  0.00    +0.143 C 
ATOM     25  C   UNL     1      37.518 -25.841 -12.857  0.00  0.00    +0.143 C 
ATOM     26  C   UNL     1      36.990 -25.054 -15.480  0.00  0.00    +0.037 C 
ATOM     27  C   UNL     1      37.220 -26.799 -13.826  0.00  0.00    +0.037 C 
ATOM     28  C   UNL     1      36.957 -26.405 -15.137  0.00  0.00    +0.006 C 
BRANCH  25  29
ATOM     29  O   UNL     1      37.772 -26.247 -11.581  0.00  0.00    -0.505 OA
ATOM     30  H   UNL     1      38.524 -25.921 -11.126  0.00  0.00    +0.292 HD
ENDBRANCH  25  29
BRANCH  24  32
ATOM     31  O   UNL     1      38.993 -23.290 -11.725  0.00  0.00    -0.245 OA
ATOM     32  C   UNL     1      37.863 -23.487 -12.186  0.00  0.00    +0.347 C 
BRANCH  32  33
ATOM     33  O   UNL     1      36.747 -22.793 -11.812  0.00  0.00    -0.441 OA
ATOM     34  C   UNL     1      35.768 -23.510 -11.052  0.00  0.00    +0.256 C 
ENDBRANCH  32  33
ENDBRANCH  24  32
ENDBRANCH  22  23
ENDBRANCH  21  22
ENDBRANCH  20  21
ENDBRANCH   3  19
TORSDOF 12
ENDMDL
