MODEL 1
REMARK VINA RESULT:      -7.9      0.000      0.000
REMARK  Name = 50312
REMARK  4 active torsions:
REMARK  status: ('A' for Active; 'I' for Inactive)
REMARK    1  A    between atoms: N_3  and  C_16
REMARK    2  A    between atoms: C_14  and  O_18
REMARK    3  A    between atoms: C_17  and  C_20
REMARK    4  A    between atoms: C_20  and  O_21
REMARK                            x       y       z     vdW  Elec       q    Type
REMARK                         _______ _______ _______ _____ _____    ______ ____
ROOT
ATOM      1  I   UNL     1      30.766 -23.973 -13.779  0.00  0.00    -0.037 I 
ATOM      2  O   UNL     1      34.379 -22.793 -18.531  0.00  0.00    -0.193 OA
ATOM      3  N   UNL     1      34.179 -23.559 -16.364  0.00  0.00    -0.177 N 
ATOM      4  N   UNL     1      32.289 -22.791 -17.649  0.00  0.00    -0.306 NA
ATOM      5  N   UNL     1      30.145 -22.770 -16.795  0.00  0.00    -0.332 N 
ATOM      6  C   UNL     1      33.323 -23.815 -15.302  0.00  0.00    +0.089 C 
ATOM      7  C   UNL     1      33.647 -23.033 -17.568  0.00  0.00    +0.276 C 
ATOM      8  C   UNL     1      32.007 -23.591 -15.350  0.00  0.00    +0.090 C 
ATOM      9  C   UNL     1      31.488 -23.035 -16.641  0.00  0.00    +0.198 C 
ATOM     10  H   UNL     1      29.809 -22.405 -17.645  0.00  0.00    +0.145 HD
ATOM     11  H   UNL     1      29.522 -22.945 -16.053  0.00  0.00    +0.145 HD
ENDROOT
BRANCH   3  16
ATOM     12  F   UNL     1      35.558 -22.222 -14.519  0.00  0.00    -0.230 F 
ATOM     13  O   UNL     1      35.781 -25.046 -15.521  0.00  0.00    -0.332 OA
ATOM     14  C   UNL     1      37.473 -23.505 -14.862  0.00  0.00    +0.177 C 
ATOM     15  C   UNL     1      36.341 -22.740 -15.503  0.00  0.00    +0.237 C 
ATOM     16  C   UNL     1      35.582 -23.824 -16.246  0.00  0.00    +0.242 C 
ATOM     17  C   UNL     1      36.856 -24.871 -14.577  0.00  0.00    +0.176 C 
BRANCH  14  18
ATOM     18  O   UNL     1      38.551 -23.632 -15.783  0.00  0.00    -0.379 OA
ATOM     19  H   UNL     1      39.276 -23.047 -15.515  0.00  0.00    +0.211 HD
ENDBRANCH  14  18
BRANCH  17  20
ATOM     20  C   UNL     1      36.265 -24.979 -13.178  0.00  0.00    +0.169 C 
BRANCH  20  21
ATOM     21  O   UNL     1      36.633 -26.230 -12.625  0.00  0.00    -0.379 OA
ATOM     22  H   UNL     1      37.464 -26.529 -13.026  0.00  0.00    +0.211 HD
ENDBRANCH  20  21
ENDBRANCH  17  20
ENDBRANCH   3  16
TORSDOF 4
ENDMDL
MODEL 2
REMARK VINA RESULT:      -7.6      2.654      3.540
REMARK  Name = 50312
REMARK  4 active torsions:
REMARK  status: ('A' for Active; 'I' for Inactive)
REMARK    1  A    between atoms: N_3  and  C_16
REMARK    2  A    between atoms: C_14  and  O_18
REMARK    3  A    between atoms: C_17  and  C_20
REMARK    4  A    between atoms: C_20  and  O_21
REMARK                            x       y       z     vdW  Elec       q    Type
REMARK                         _______ _______ _______ _____ _____    ______ ____
ROOT
ATOM      1  I   UNL     1      36.287 -21.403 -19.393  0.00  0.00    -0.037 I 
ATOM      2  O   UNL     1      32.437 -23.916 -15.408  0.00  0.00    -0.193 OA
ATOM      3  N   UNL     1      34.588 -23.238 -15.893  0.00  0.00    -0.177 N 
ATOM      4  N   UNL     1      32.765 -22.989 -17.451  0.00  0.00    -0.306 NA
ATOM      5  N   UNL     1      33.050 -22.052 -19.541  0.00  0.00    -0.332 N 
ATOM      6  C   UNL     1      35.435 -22.661 -16.829  0.00  0.00    +0.089 C 
ATOM      7  C   UNL     1      33.218 -23.406 -16.215  0.00  0.00    +0.276 C 
ATOM      8  C   UNL     1      35.028 -22.248 -18.032  0.00  0.00    +0.090 C 
ATOM      9  C   UNL     1      33.572 -22.446 -18.329  0.00  0.00    +0.198 C 
ATOM     10  H   UNL     1      32.093 -22.184 -19.732  0.00  0.00    +0.145 HD
ATOM     11  H   UNL     1      33.634 -21.641 -20.218  0.00  0.00    +0.145 HD
ENDROOT
BRANCH   3  16
ATOM     12  F   UNL     1      35.490 -25.734 -15.659  0.00  0.00    -0.230 F 
ATOM     13  O   UNL     1      36.421 -23.152 -14.438  0.00  0.00    -0.332 OA
ATOM     14  C   UNL     1      36.328 -25.347 -13.520  0.00  0.00    +0.177 C 
ATOM     15  C   UNL     1      35.167 -25.165 -14.467  0.00  0.00    +0.237 C 
ATOM     16  C   UNL     1      35.091 -23.658 -14.620  0.00  0.00    +0.242 C 
ATOM     17  C   UNL     1      37.251 -24.184 -13.871  0.00  0.00    +0.176 C 
BRANCH  14  18
ATOM     18  O   UNL     1      35.876 -25.231 -12.175  0.00  0.00    -0.379 OA
ATOM     19  H   UNL     1      36.214 -24.408 -11.790  0.00  0.00    +0.211 HD
ENDBRANCH  14  18
BRANCH  17  20
ATOM     20  C   UNL     1      38.306 -24.550 -14.906  0.00  0.00    +0.169 C 
BRANCH  20  21
ATOM     21  O   UNL     1      38.581 -23.407 -15.697  0.00  0.00    -0.379 OA
ATOM     22  H   UNL     1      38.458 -22.607 -15.163  0.00  0.00    +0.211 HD
ENDBRANCH  20  21
ENDBRANCH  17  20
ENDBRANCH   3  16
TORSDOF 4
ENDMDL
MODEL 3
REMARK VINA RESULT:      -7.5      8.648     10.196
REMARK  Name = 50312
REMARK  4 active torsions:
REMARK  status: ('A' for Active; 'I' for Inactive)
REMARK    1  A    between atoms: N_3  and  C_16
REMARK    2  A    between atoms: C_14  and  O_18
REMARK    3  A    between atoms: C_17  and  C_20
REMARK    4  A    between atoms: C_20  and  O_21
REMARK                            x       y       z     vdW  Elec       q    Type
REMARK                         _______ _______ _______ _____ _____    ______ ____
ROOT
ATOM      1  I   UNL     1      33.039 -13.094 -23.274  0.00  0.00    -0.037 I 
ATOM      2  O   UNL     1      34.751 -18.449 -25.600  0.00  0.00    -0.193 OA
ATOM      3  N   UNL     1      34.643 -17.055 -23.765  0.00  0.00    -0.177 N 
ATOM      4  N   UNL     1      33.772 -16.430 -25.925  0.00  0.00    -0.306 NA
ATOM      5  N   UNL     1      32.768 -14.386 -26.304  0.00  0.00    -0.332 N 
ATOM      6  C   UNL     1      34.238 -15.822 -23.272  0.00  0.00    +0.089 C 
ATOM      7  C   UNL     1      34.404 -17.365 -25.127  0.00  0.00    +0.276 C 
ATOM      8  C   UNL     1      33.626 -14.898 -24.017  0.00  0.00    +0.090 C 
ATOM      9  C   UNL     1      33.394 -15.269 -25.451  0.00  0.00    +0.198 C 
ATOM     10  H   UNL     1      32.618 -14.634 -27.245  0.00  0.00    +0.145 HD
ATOM     11  H   UNL     1      32.473 -13.507 -25.973  0.00  0.00    +0.145 HD
ENDROOT
BRANCH   3  16
ATOM     12  F   UNL     1      34.332 -16.790 -21.133  0.00  0.00    -0.230 F 
ATOM     13  O   UNL     1      34.542 -19.223 -22.884  0.00  0.00    -0.332 OA
ATOM     14  C   UNL     1      35.385 -18.821 -20.694  0.00  0.00    +0.177 C 
ATOM     15  C   UNL     1      35.421 -17.530 -21.473  0.00  0.00    +0.237 C 
ATOM     16  C   UNL     1      35.294 -18.001 -22.910  0.00  0.00    +0.242 C 
ATOM     17  C   UNL     1      34.470 -19.710 -21.530  0.00  0.00    +0.176 C 
BRANCH  14  18
ATOM     18  O   UNL     1      36.693 -19.382 -20.629  0.00  0.00    -0.379 OA
ATOM     19  H   UNL     1      37.324 -18.699 -20.354  0.00  0.00    +0.211 HD
ENDBRANCH  14  18
BRANCH  17  20
ATOM     20  C   UNL     1      33.013 -19.646 -21.093  0.00  0.00    +0.169 C 
BRANCH  20  21
ATOM     21  O   UNL     1      32.684 -20.853 -20.428  0.00  0.00    -0.379 OA
ATOM     22  H   UNL     1      32.447 -20.661 -19.507  0.00  0.00    +0.211 HD
ENDBRANCH  20  21
ENDBRANCH  17  20
ENDBRANCH   3  16
TORSDOF 4
ENDMDL
MODEL 4
REMARK VINA RESULT:      -7.5      1.816      2.522
REMARK  Name = 50312
REMARK  4 active torsions:
REMARK  status: ('A' for Active; 'I' for Inactive)
REMARK    1  A    between atoms: N_3  and  C_16
REMARK    2  A    between atoms: C_14  and  O_18
REMARK    3  A    between atoms: C_17  and  C_20
REMARK    4  A    between atoms: C_20  and  O_21
REMARK                            x       y       z     vdW  Elec       q    Type
REMARK                         _______ _______ _______ _____ _____    ______ ____
ROOT
ATOM      1  I   UNL     1      31.658 -23.919 -14.836  0.00  0.00    -0.037 I 
ATOM      2  O   UNL     1      37.244 -22.488 -16.778  0.00  0.00    -0.193 OA
ATOM      3  N   UNL     1      35.882 -23.133 -15.030  0.00  0.00    -0.177 N 
ATOM      4  N   UNL     1      35.046 -22.764 -17.262  0.00  0.00    -0.306 NA
ATOM      5  N   UNL     1      32.818 -23.032 -17.802  0.00  0.00    -0.332 N 
ATOM      6  C   UNL     1      34.594 -23.453 -14.626  0.00  0.00    +0.089 C 
ATOM      7  C   UNL     1      36.112 -22.779 -16.384  0.00  0.00    +0.276 C 
ATOM      8  C   UNL     1      33.543 -23.447 -15.450  0.00  0.00    +0.090 C 
ATOM      9  C   UNL     1      33.832 -23.067 -16.871  0.00  0.00    +0.198 C 
ATOM     10  H   UNL     1      33.013 -22.782 -18.734  0.00  0.00    +0.145 HD
ATOM     11  H   UNL     1      31.897 -23.255 -17.535  0.00  0.00    +0.145 HD
ENDROOT
BRANCH   3  16
ATOM     12  F   UNL     1      35.377 -23.959 -12.550  0.00  0.00    -0.230 F 
ATOM     13  O   UNL     1      37.772 -24.324 -14.326  0.00  0.00    -0.332 OA
ATOM     14  C   UNL     1      37.635 -23.969 -11.976  0.00  0.00    +0.177 C 
ATOM     15  C   UNL     1      36.513 -23.217 -12.647  0.00  0.00    +0.237 C 
ATOM     16  C   UNL     1      36.965 -23.160 -14.094  0.00  0.00    +0.242 C 
ATOM     17  C   UNL     1      38.116 -24.925 -13.062  0.00  0.00    +0.176 C 
BRANCH  14  18
ATOM     18  O   UNL     1      38.674 -23.065 -11.616  0.00  0.00    -0.379 OA
ATOM     19  H   UNL     1      39.524 -23.532 -11.615  0.00  0.00    +0.211 HD
ENDBRANCH  14  18
BRANCH  17  20
ATOM     20  C   UNL     1      37.442 -26.289 -13.000  0.00  0.00    +0.169 C 
BRANCH  20  21
ATOM     21  O   UNL     1      36.993 -26.514 -11.676  0.00  0.00    -0.379 OA
ATOM     22  H   UNL     1      36.243 -27.128 -11.689  0.00  0.00    +0.211 HD
ENDBRANCH  20  21
ENDBRANCH  17  20
ENDBRANCH   3  16
TORSDOF 4
ENDMDL
MODEL 5
REMARK VINA RESULT:      -7.3      2.381      3.268
REMARK  Name = 50312
REMARK  4 active torsions:
REMARK  status: ('A' for Active; 'I' for Inactive)
REMARK    1  A    between atoms: N_3  and  C_16
REMARK    2  A    between atoms: C_14  and  O_18
REMARK    3  A    between atoms: C_17  and  C_20
REMARK    4  A    between atoms: C_20  and  O_21
REMARK                            x       y       z     vdW  Elec       q    Type
REMARK                         _______ _______ _______ _____ _____    ______ ____
ROOT
ATOM      1  I   UNL     1      33.820 -22.480 -18.713  0.00  0.00    -0.037 I 
ATOM      2  O   UNL     1      32.525 -24.231 -13.032  0.00  0.00    -0.193 OA
ATOM      3  N   UNL     1      34.131 -23.801 -14.632  0.00  0.00    -0.177 N 
ATOM      4  N   UNL     1      31.771 -23.542 -15.057  0.00  0.00    -0.306 NA
ATOM      5  N   UNL     1      30.958 -22.844 -17.101  0.00  0.00    -0.332 N 
ATOM      6  C   UNL     1      34.385 -23.398 -15.935  0.00  0.00    +0.089 C 
ATOM      7  C   UNL     1      32.788 -23.875 -14.183  0.00  0.00    +0.276 C 
ATOM      8  C   UNL     1      33.425 -23.070 -16.803  0.00  0.00    +0.090 C 
ATOM      9  C   UNL     1      32.022 -23.163 -16.286  0.00  0.00    +0.198 C 
ATOM     10  H   UNL     1      30.037 -22.907 -16.757  0.00  0.00    +0.145 HD
ATOM     11  H   UNL     1      31.118 -22.556 -18.029  0.00  0.00    +0.145 HD
ENDROOT
BRANCH   3  16
ATOM     12  F   UNL     1      35.739 -25.808 -15.326  0.00  0.00    -0.230 F 
ATOM     13  O   UNL     1      36.284 -23.204 -13.929  0.00  0.00    -0.332 OA
ATOM     14  C   UNL     1      37.224 -25.364 -13.586  0.00  0.00    +0.177 C 
ATOM     15  C   UNL     1      35.781 -25.521 -13.997  0.00  0.00    +0.237 C 
ATOM     16  C   UNL     1      35.209 -24.138 -13.752  0.00  0.00    +0.242 C 
ATOM     17  C   UNL     1      37.536 -23.916 -13.949  0.00  0.00    +0.176 C 
BRANCH  14  18
ATOM     18  O   UNL     1      37.349 -25.560 -12.181  0.00  0.00    -0.379 OA
ATOM     19  H   UNL     1      38.234 -25.901 -11.979  0.00  0.00    +0.211 HD
ENDBRANCH  14  18
BRANCH  17  20
ATOM     20  C   UNL     1      38.132 -23.765 -15.342  0.00  0.00    +0.169 C 
BRANCH  20  21
ATOM     21  O   UNL     1      39.408 -24.380 -15.360  0.00  0.00    -0.379 OA
ATOM     22  H   UNL     1      39.557 -24.790 -16.226  0.00  0.00    +0.211 HD
ENDBRANCH  20  21
ENDBRANCH  17  20
ENDBRANCH   3  16
TORSDOF 4
ENDMDL
MODEL 6
REMARK VINA RESULT:      -7.2      3.200      5.562
REMARK  Name = 50312
REMARK  4 active torsions:
REMARK  status: ('A' for Active; 'I' for Inactive)
REMARK    1  A    between atoms: N_3  and  C_16
REMARK    2  A    between atoms: C_14  and  O_18
REMARK    3  A    between atoms: C_17  and  C_20
REMARK    4  A    between atoms: C_20  and  O_21
REMARK                            x       y       z     vdW  Elec       q    Type
REMARK                         _______ _______ _______ _____ _____    ______ ____
ROOT
ATOM      1  I   UNL     1      33.363 -21.314 -19.785  0.00  0.00    -0.037 I 
ATOM      2  O   UNL     1      34.874 -24.294 -14.699  0.00  0.00    -0.193 OA
ATOM      3  N   UNL     1      33.215 -23.600 -16.143  0.00  0.00    -0.177 N 
ATOM      4  N   UNL     1      35.544 -23.092 -16.502  0.00  0.00    -0.306 NA
ATOM      5  N   UNL     1      36.274 -21.872 -18.320  0.00  0.00    -0.332 N 
ATOM      6  C   UNL     1      32.910 -22.911 -17.309  0.00  0.00    +0.089 C 
ATOM      7  C   UNL     1      34.567 -23.691 -15.730  0.00  0.00    +0.276 C 
ATOM      8  C   UNL     1      33.831 -22.321 -18.076  0.00  0.00    +0.090 C 
ATOM      9  C   UNL     1      35.247 -22.443 -17.601  0.00  0.00    +0.198 C 
ATOM     10  H   UNL     1      37.203 -21.954 -18.004  0.00  0.00    +0.145 HD
ATOM     11  H   UNL     1      36.078 -21.379 -19.150  0.00  0.00    +0.145 HD
ENDROOT
BRANCH   3  16
ATOM     12  F   UNL     1      32.067 -22.156 -14.222  0.00  0.00    -0.230 F 
ATOM     13  O   UNL     1      30.952 -24.205 -16.116  0.00  0.00    -0.332 OA
ATOM     14  C   UNL     1      30.433 -23.771 -13.833  0.00  0.00    +0.177 C 
ATOM     15  C   UNL     1      31.899 -23.496 -14.060  0.00  0.00    +0.237 C 
ATOM     16  C   UNL     1      32.177 -24.210 -15.369  0.00  0.00    +0.242 C 
ATOM     17  C   UNL     1      29.865 -23.830 -15.248  0.00  0.00    +0.176 C 
BRANCH  14  18
ATOM     18  O   UNL     1      30.274 -25.028 -13.183  0.00  0.00    -0.379 OA
ATOM     19  H   UNL     1      29.623 -24.943 -12.469  0.00  0.00    +0.211 HD
ENDBRANCH  14  18
BRANCH  17  20
ATOM     20  C   UNL     1      29.327 -22.491 -15.732  0.00  0.00    +0.169 C 
BRANCH  20  21
ATOM     21  O   UNL     1      29.321 -22.489 -17.148  0.00  0.00    -0.379 OA
ATOM     22  H   UNL     1      28.406 -22.471 -17.468  0.00  0.00    +0.211 HD
ENDBRANCH  20  21
ENDBRANCH  17  20
ENDBRANCH   3  16
TORSDOF 4
ENDMDL
MODEL 7
REMARK VINA RESULT:      -7.1      2.832      3.846
REMARK  Name = 50312
REMARK  4 active torsions:
REMARK  status: ('A' for Active; 'I' for Inactive)
REMARK    1  A    between atoms: N_3  and  C_16
REMARK    2  A    between atoms: C_14  and  O_18
REMARK    3  A    between atoms: C_17  and  C_20
REMARK    4  A    between atoms: C_20  and  O_21
REMARK                            x       y       z     vdW  Elec       q    Type
REMARK                         _______ _______ _______ _____ _____    ______ ____
ROOT
ATOM      1  I   UNL     1      32.554 -23.049 -17.171  0.00  0.00    -0.037 I 
ATOM      2  O   UNL     1      38.462 -22.976 -15.716  0.00  0.00    -0.193 OA
ATOM      3  N   UNL     1      36.317 -23.623 -15.167  0.00  0.00    -0.177 N 
ATOM      4  N   UNL     1      36.828 -22.391 -17.176  0.00  0.00    -0.306 NA
ATOM      5  N   UNL     1      35.199 -21.774 -18.690  0.00  0.00    -0.332 N 
ATOM      6  C   UNL     1      34.978 -23.618 -15.533  0.00  0.00    +0.089 C 
ATOM      7  C   UNL     1      37.265 -22.992 -16.011  0.00  0.00    +0.276 C 
ATOM      8  C   UNL     1      34.525 -23.046 -16.651  0.00  0.00    +0.090 C 
ATOM      9  C   UNL     1      35.561 -22.391 -17.513  0.00  0.00    +0.198 C 
ATOM     10  H   UNL     1      35.883 -21.345 -19.253  0.00  0.00    +0.145 HD
ATOM     11  H   UNL     1      34.254 -21.760 -18.967  0.00  0.00    +0.145 HD
ENDROOT
BRANCH   3  16
ATOM     12  F   UNL     1      36.787 -26.244 -15.216  0.00  0.00    -0.230 F 
ATOM     13  O   UNL     1      38.130 -24.002 -13.734  0.00  0.00    -0.332 OA
ATOM     14  C   UNL     1      37.666 -26.238 -13.058  0.00  0.00    +0.177 C 
ATOM     15  C   UNL     1      36.558 -25.763 -13.964  0.00  0.00    +0.237 C 
ATOM     16  C   UNL     1      36.736 -24.257 -13.953  0.00  0.00    +0.242 C 
ATOM     17  C   UNL     1      38.773 -25.214 -13.293  0.00  0.00    +0.176 C 
BRANCH  14  18
ATOM     18  O   UNL     1      37.233 -26.195 -11.703  0.00  0.00    -0.379 OA
ATOM     19  H   UNL     1      37.289 -27.083 -11.317  0.00  0.00    +0.211 HD
ENDBRANCH  14  18
BRANCH  17  20
ATOM     20  C   UNL     1      39.757 -25.636 -14.375  0.00  0.00    +0.169 C 
BRANCH  20  21
ATOM     21  O   UNL     1      40.751 -24.634 -14.501  0.00  0.00    -0.379 OA
ATOM     22  H   UNL     1      41.215 -24.744 -15.345  0.00  0.00    +0.211 HD
ENDBRANCH  20  21
ENDBRANCH  17  20
ENDBRANCH   3  16
TORSDOF 4
ENDMDL
MODEL 8
REMARK VINA RESULT:      -7.0      2.851      3.464
REMARK  Name = 50312
REMARK  4 active torsions:
REMARK  status: ('A' for Active; 'I' for Inactive)
REMARK    1  A    between atoms: N_3  and  C_16
REMARK    2  A    between atoms: C_14  and  O_18
REMARK    3  A    between atoms: C_17  and  C_20
REMARK    4  A    between atoms: C_20  and  O_21
REMARK                            x       y       z     vdW  Elec       q    Type
REMARK                         _______ _______ _______ _____ _____    ______ ____
ROOT
ATOM      1  I   UNL     1      33.037 -23.045 -17.368  0.00  0.00    -0.037 I 
ATOM      2  O   UNL     1      34.957 -24.855 -11.886  0.00  0.00    -0.193 OA
ATOM      3  N   UNL     1      35.313 -24.794 -14.164  0.00  0.00    -0.177 N 
ATOM      4  N   UNL     1      33.396 -23.768 -13.121  0.00  0.00    -0.306 NA
ATOM      5  N   UNL     1      31.782 -22.652 -14.336  0.00  0.00    -0.332 N 
ATOM      6  C   UNL     1      34.842 -24.363 -15.397  0.00  0.00    +0.089 C 
ATOM      7  C   UNL     1      34.569 -24.487 -12.997  0.00  0.00    +0.276 C 
ATOM      8  C   UNL     1      33.712 -23.667 -15.549  0.00  0.00    +0.090 C 
ATOM      9  C   UNL     1      32.959 -23.367 -14.289  0.00  0.00    +0.198 C 
ATOM     10  H   UNL     1      31.290 -22.457 -13.506  0.00  0.00    +0.145 HD
ATOM     11  H   UNL     1      31.431 -22.339 -15.201  0.00  0.00    +0.145 HD
ENDROOT
BRANCH   3  16
ATOM     12  F   UNL     1      37.576 -23.582 -14.873  0.00  0.00    -0.230 F 
ATOM     13  O   UNL     1      36.972 -25.573 -12.706  0.00  0.00    -0.332 OA
ATOM     14  C   UNL     1      38.890 -25.342 -14.098  0.00  0.00    +0.177 C 
ATOM     15  C   UNL     1      37.667 -24.939 -14.884  0.00  0.00    +0.237 C 
ATOM     16  C   UNL     1      36.534 -25.536 -14.072  0.00  0.00    +0.242 C 
ATOM     17  C   UNL     1      38.394 -25.346 -12.655  0.00  0.00    +0.176 C 
BRANCH  14  18
ATOM     18  O   UNL     1      39.301 -26.650 -14.483  0.00  0.00    -0.379 OA
ATOM     19  H   UNL     1      40.262 -26.663 -14.609  0.00  0.00    +0.211 HD
ENDBRANCH  14  18
BRANCH  17  20
ATOM     20  C   UNL     1      38.625 -24.022 -11.941  0.00  0.00    +0.169 C 
BRANCH  20  21
ATOM     21  O   UNL     1      37.485 -23.725 -11.154  0.00  0.00    -0.379 OA
ATOM     22  H   UNL     1      36.981 -24.538 -10.996  0.00  0.00    +0.211 HD
ENDBRANCH  20  21
ENDBRANCH  17  20
ENDBRANCH   3  16
TORSDOF 4
ENDMDL
MODEL 9
REMARK VINA RESULT:      -6.9      9.037     10.736
REMARK  Name = 50312
REMARK  4 active torsions:
REMARK  status: ('A' for Active; 'I' for Inactive)
REMARK    1  A    between atoms: N_3  and  C_16
REMARK    2  A    between atoms: C_14  and  O_18
REMARK    3  A    between atoms: C_17  and  C_20
REMARK    4  A    between atoms: C_20  and  O_21
REMARK                            x       y       z     vdW  Elec       q    Type
REMARK                         _______ _______ _______ _____ _____    ______ ____
ROOT
ATOM      1  I   UNL     1      33.037 -14.469 -26.065  0.00  0.00    -0.037 I 
ATOM      2  O   UNL     1      34.809 -14.840 -20.256  0.00  0.00    -0.193 OA
ATOM      3  N   UNL     1      34.740 -15.808 -22.349  0.00  0.00    -0.177 N 
ATOM      4  N   UNL     1      33.758 -13.656 -21.880  0.00  0.00    -0.306 NA
ATOM      5  N   UNL     1      32.679 -12.415 -23.500  0.00  0.00    -0.332 N 
ATOM      6  C   UNL     1      34.318 -15.686 -23.666  0.00  0.00    +0.089 C 
ATOM      7  C   UNL     1      34.451 -14.765 -21.434  0.00  0.00    +0.276 C 
ATOM      8  C   UNL     1      33.647 -14.628 -24.127  0.00  0.00    +0.090 C 
ATOM      9  C   UNL     1      33.364 -13.550 -23.125  0.00  0.00    +0.198 C 
ATOM     10  H   UNL     1      32.495 -11.710 -22.838  0.00  0.00    +0.145 HD
ATOM     11  H   UNL     1      32.372 -12.310 -24.429  0.00  0.00    +0.145 HD
ENDROOT
BRANCH   3  16
ATOM     12  F   UNL     1      33.338 -17.894 -21.467  0.00  0.00    -0.230 F 
ATOM     13  O   UNL     1      35.876 -17.726 -23.066  0.00  0.00    -0.332 OA
ATOM     14  C   UNL     1      35.225 -19.257 -21.362  0.00  0.00    +0.177 C 
ATOM     15  C   UNL     1      34.634 -17.904 -21.053  0.00  0.00    +0.237 C 
ATOM     16  C   UNL     1      35.457 -16.971 -21.921  0.00  0.00    +0.242 C 
ATOM     17  C   UNL     1      35.650 -19.128 -22.822  0.00  0.00    +0.176 C 
BRANCH  14  18
ATOM     18  O   UNL     1      36.361 -19.487 -20.535  0.00  0.00    -0.379 OA
ATOM     19  H   UNL     1      37.043 -19.952 -21.044  0.00  0.00    +0.211 HD
ENDBRANCH  14  18
BRANCH  17  20
ATOM     20  C   UNL     1      34.582 -19.601 -23.799  0.00  0.00    +0.169 C 
BRANCH  20  21
ATOM     21  O   UNL     1      34.610 -18.764 -24.942  0.00  0.00    -0.379 OA
ATOM     22  H   UNL     1      34.761 -19.304 -25.733  0.00  0.00    +0.211 HD
ENDBRANCH  20  21
ENDBRANCH  17  20
ENDBRANCH   3  16
TORSDOF 4
ENDMDL
