MODEL 1
REMARK VINA RESULT:      -9.6      0.000      0.000
REMARK  Name = 73442840
REMARK  6 active torsions:
REMARK  status: ('A' for Active; 'I' for Inactive)
REMARK    1  A    between atoms: C_4  and  C_27
REMARK    2  A    between atoms: C_14  and  O_17
REMARK    3  A    between atoms: C_15  and  O_22
REMARK    4  A    between atoms: O_17  and  C_18
REMARK    5  A    between atoms: O_22  and  C_23
REMARK    6  A    between atoms: C_27  and  C_28
REMARK                            x       y       z     vdW  Elec       q    Type
REMARK                         _______ _______ _______ _____ _____    ______ ____
ROOT
ATOM      1  O   UNL     1      32.948 -22.126 -19.792  0.00  0.00    -0.296 OA
ATOM      2  N   UNL     1      36.267 -22.290 -17.452  0.00  0.00    +0.392 N 
ATOM      3  C   UNL     1      34.918 -22.372 -16.834  0.00  0.00    -0.027 C 
ATOM      4  C   UNL     1      35.365 -22.049 -19.744  0.00  0.00    +0.037 C 
ATOM      5  C   UNL     1      36.244 -21.435 -18.649  0.00  0.00    -0.069 C 
ATOM      6  C   UNL     1      33.968 -23.054 -17.836  0.00  0.00    +0.048 C 
ATOM      7  C   UNL     1      37.254 -21.796 -16.488  0.00  0.00    -0.072 C 
ATOM      8  C   UNL     1      34.926 -23.076 -15.477  0.00  0.00    -0.042 C 
ATOM      9  C   UNL     1      33.988 -22.347 -19.174  0.00  0.00    +0.146 C 
ATOM     10  C   UNL     1      37.444 -22.839 -15.389  0.00  0.00    +0.003 C 
ATOM     11  C   UNL     1      36.136 -23.270 -14.782  0.00  0.00    -0.027 C 
ATOM     12  C   UNL     1      33.730 -23.466 -14.851  0.00  0.00    +0.033 C 
ATOM     13  C   UNL     1      36.139 -23.905 -13.531  0.00  0.00    +0.035 C 
ATOM     14  C   UNL     1      33.740 -24.085 -13.599  0.00  0.00    +0.170 C 
ATOM     15  C   UNL     1      34.944 -24.312 -12.943  0.00  0.00    +0.170 C 
ATOM     16  H   UNL     1      36.539 -23.232 -17.737  0.00  0.00    -0.079 HD
ENDROOT
BRANCH  14  17
ATOM     17  O   UNL     1      32.560 -24.461 -13.029  0.00  0.00    -0.491 OA
ATOM     18  C   UNL     1      31.584 -25.047 -13.887  0.00  0.00    +0.277 C 
ENDBRANCH  14  17
BRANCH  15  19
ATOM     19  O   UNL     1      34.969 -24.919 -11.725  0.00  0.00    -0.491 OA
ATOM     20  C   UNL     1      35.761 -24.305 -10.708  0.00  0.00    +0.277 C 
ENDBRANCH  15  19
BRANCH   4  21
ATOM     21  C   UNL     1      35.287 -21.126 -20.956  0.00  0.00    +0.005 C 
BRANCH  21  22
ATOM     22  C   UNL     1      35.207 -19.636 -20.585  0.00  0.00    +0.000 C 
ATOM     23  C   UNL     1      33.870 -19.058 -21.056  0.00  0.00    +0.000 C 
ATOM     24  C   UNL     1      36.358 -18.824 -21.179  0.00  0.00    +0.000 C 
ENDBRANCH  21  22
ENDBRANCH   4  21
TORSDOF 4
ENDMDL
MODEL 2
REMARK VINA RESULT:      -9.1      6.732     12.133
REMARK  Name = 73442840
REMARK  6 active torsions:
REMARK  status: ('A' for Active; 'I' for Inactive)
REMARK    1  A    between atoms: C_4  and  C_27
REMARK    2  A    between atoms: C_14  and  O_17
REMARK    3  A    between atoms: C_15  and  O_22
REMARK    4  A    between atoms: O_17  and  C_18
REMARK    5  A    between atoms: O_22  and  C_23
REMARK    6  A    between atoms: C_27  and  C_28
REMARK                            x       y       z     vdW  Elec       q    Type
REMARK                         _______ _______ _______ _____ _____    ______ ____
ROOT
ATOM      1  O   UNL     1      35.366 -18.008 -24.425  0.00  0.00    -0.296 OA
ATOM      2  N   UNL     1      33.423 -15.844 -21.586  0.00  0.00    +0.392 N 
ATOM      3  C   UNL     1      34.161 -15.149 -22.673  0.00  0.00    -0.027 C 
ATOM      4  C   UNL     1      34.039 -18.097 -22.405  0.00  0.00    +0.037 C 
ATOM      5  C   UNL     1      34.082 -17.111 -21.233  0.00  0.00    -0.069 C 
ATOM      6  C   UNL     1      34.107 -16.033 -23.934  0.00  0.00    +0.048 C 
ATOM      7  C   UNL     1      33.301 -14.984 -20.406  0.00  0.00    -0.072 C 
ATOM      8  C   UNL     1      33.641 -13.736 -22.938  0.00  0.00    -0.042 C 
ATOM      9  C   UNL     1      34.614 -17.429 -23.643  0.00  0.00    +0.146 C 
ATOM     10  C   UNL     1      32.388 -13.807 -20.740  0.00  0.00    +0.003 C 
ATOM     11  C   UNL     1      32.815 -13.093 -21.994  0.00  0.00    -0.027 C 
ATOM     12  C   UNL     1      34.039 -13.014 -24.075  0.00  0.00    +0.033 C 
ATOM     13  C   UNL     1      32.351 -11.791 -22.234  0.00  0.00    +0.035 C 
ATOM     14  C   UNL     1      33.583 -11.713 -24.300  0.00  0.00    +0.170 C 
ATOM     15  C   UNL     1      32.733 -11.105 -23.383  0.00  0.00    +0.170 C 
ATOM     16  H   UNL     1      32.485 -16.056 -21.929  0.00  0.00    -0.079 HD
ENDROOT
BRANCH  14  17
ATOM     17  O   UNL     1      33.981 -11.048 -25.421  0.00  0.00    -0.491 OA
ATOM     18  C   UNL     1      35.265 -10.431 -25.385  0.00  0.00    +0.277 C 
ENDBRANCH  14  17
BRANCH  15  19
ATOM     19  O   UNL     1      32.276  -9.839 -23.592  0.00  0.00    -0.491 OA
ATOM     20  C   UNL     1      32.855  -8.801 -22.802  0.00  0.00    +0.277 C 
ENDBRANCH  15  19
BRANCH   4  21
ATOM     21  C   UNL     1      34.784 -19.382 -22.060  0.00  0.00    +0.005 C 
BRANCH  21  22
ATOM     22  C   UNL     1      34.547 -19.857 -20.617  0.00  0.00    +0.000 C 
ATOM     23  C   UNL     1      35.627 -20.867 -20.222  0.00  0.00    +0.000 C 
ATOM     24  C   UNL     1      33.164 -20.480 -20.427  0.00  0.00    +0.000 C 
ENDBRANCH  21  22
ENDBRANCH   4  21
TORSDOF 4
ENDMDL
MODEL 3
REMARK VINA RESULT:      -9.0      7.169     11.538
REMARK  Name = 73442840
REMARK  6 active torsions:
REMARK  status: ('A' for Active; 'I' for Inactive)
REMARK    1  A    between atoms: C_4  and  C_27
REMARK    2  A    between atoms: C_14  and  O_17
REMARK    3  A    between atoms: C_15  and  O_22
REMARK    4  A    between atoms: O_17  and  C_18
REMARK    5  A    between atoms: O_22  and  C_23
REMARK    6  A    between atoms: C_27  and  C_28
REMARK                            x       y       z     vdW  Elec       q    Type
REMARK                         _______ _______ _______ _____ _____    ______ ____
ROOT
ATOM      1  O   UNL     1      31.868 -12.040 -19.500  0.00  0.00    -0.296 OA
ATOM      2  N   UNL     1      32.759 -13.032 -23.339  0.00  0.00    +0.392 N 
ATOM      3  C   UNL     1      33.450 -13.718 -22.215  0.00  0.00    -0.027 C 
ATOM      4  C   UNL     1      31.432 -11.582 -21.834  0.00  0.00    +0.037 C 
ATOM      5  C   UNL     1      32.442 -11.640 -22.986  0.00  0.00    -0.069 C 
ATOM      6  C   UNL     1      32.479 -13.783 -21.021  0.00  0.00    +0.048 C 
ATOM      7  C   UNL     1      33.572 -13.080 -24.558  0.00  0.00    -0.072 C 
ATOM      8  C   UNL     1      33.985 -15.098 -22.598  0.00  0.00    -0.042 C 
ATOM      9  C   UNL     1      31.954 -12.408 -20.670  0.00  0.00    +0.146 C 
ATOM     10  C   UNL     1      33.660 -14.524 -25.042  0.00  0.00    +0.003 C 
ATOM     11  C   UNL     1      34.107 -15.463 -23.954  0.00  0.00    -0.027 C 
ATOM     12  C   UNL     1      34.449 -15.996 -21.623  0.00  0.00    +0.033 C 
ATOM     13  C   UNL     1      34.611 -16.725 -24.302  0.00  0.00    +0.035 C 
ATOM     14  C   UNL     1      34.962 -17.246 -21.979  0.00  0.00    +0.170 C 
ATOM     15  C   UNL     1      35.036 -17.613 -23.317  0.00  0.00    +0.170 C 
ATOM     16  H   UNL     1      31.884 -13.525 -23.517  0.00  0.00    -0.079 HD
ENDROOT
BRANCH  14  17
ATOM     17  O   UNL     1      35.391 -18.096 -21.003  0.00  0.00    -0.491 OA
ATOM     18  C   UNL     1      34.623 -19.278 -20.792  0.00  0.00    +0.277 C 
ENDBRANCH  14  17
BRANCH  15  19
ATOM     19  O   UNL     1      35.529 -18.829 -23.678  0.00  0.00    -0.491 OA
ATOM     20  C   UNL     1      34.751 -19.601 -24.592  0.00  0.00    +0.277 C 
ENDBRANCH  15  19
BRANCH   4  21
ATOM     21  C   UNL     1      31.160 -10.139 -21.425  0.00  0.00    +0.005 C 
BRANCH  21  22
ATOM     22  C   UNL     1      32.063  -9.120 -22.139  0.00  0.00    +0.000 C 
ATOM     23  C   UNL     1      32.690  -8.176 -21.111  0.00  0.00    +0.000 C 
ATOM     24  C   UNL     1      31.307  -8.308 -23.192  0.00  0.00    +0.000 C 
ENDBRANCH  21  22
ENDBRANCH   4  21
TORSDOF 4
ENDMDL
MODEL 4
REMARK VINA RESULT:      -8.8      7.484     11.758
REMARK  Name = 73442840
REMARK  6 active torsions:
REMARK  status: ('A' for Active; 'I' for Inactive)
REMARK    1  A    between atoms: C_4  and  C_27
REMARK    2  A    between atoms: C_14  and  O_17
REMARK    3  A    between atoms: C_15  and  O_22
REMARK    4  A    between atoms: O_17  and  C_18
REMARK    5  A    between atoms: O_22  and  C_23
REMARK    6  A    between atoms: C_27  and  C_28
REMARK                            x       y       z     vdW  Elec       q    Type
REMARK                         _______ _______ _______ _____ _____    ______ ____
ROOT
ATOM      1  O   UNL     1      33.817 -10.914 -25.522  0.00  0.00    -0.296 OA
ATOM      2  N   UNL     1      32.791 -12.591 -21.965  0.00  0.00    +0.392 N 
ATOM      3  C   UNL     1      33.134 -13.458 -23.123  0.00  0.00    -0.027 C 
ATOM      4  C   UNL     1      33.111 -10.498 -23.246  0.00  0.00    +0.037 C 
ATOM      5  C   UNL     1      32.145 -11.348 -22.414  0.00  0.00    -0.069 C 
ATOM      6  C   UNL     1      34.170 -12.718 -23.989  0.00  0.00    +0.048 C 
ATOM      7  C   UNL     1      31.930 -13.304 -21.017  0.00  0.00    -0.072 C 
ATOM      8  C   UNL     1      33.618 -14.846 -22.706  0.00  0.00    -0.042 C 
ATOM      9  C   UNL     1      33.673 -11.342 -24.378  0.00  0.00    +0.146 C 
ATOM     10  C   UNL     1      32.726 -14.435 -20.373  0.00  0.00    +0.003 C 
ATOM     11  C   UNL     1      33.394 -15.315 -21.396  0.00  0.00    -0.027 C 
ATOM     12  C   UNL     1      34.215 -15.719 -23.631  0.00  0.00    +0.033 C 
ATOM     13  C   UNL     1      33.828 -16.595 -21.020  0.00  0.00    +0.035 C 
ATOM     14  C   UNL     1      34.632 -16.997 -23.252  0.00  0.00    +0.170 C 
ATOM     15  C   UNL     1      34.446 -17.432 -21.945  0.00  0.00    +0.170 C 
ATOM     16  H   UNL     1      33.660 -12.346 -21.489  0.00  0.00    -0.079 HD
ENDROOT
BRANCH  14  17
ATOM     17  O   UNL     1      35.218 -17.811 -24.175  0.00  0.00    -0.491 OA
ATOM     18  C   UNL     1      34.353 -18.472 -25.096  0.00  0.00    +0.277 C 
ENDBRANCH  14  17
BRANCH  15  19
ATOM     19  O   UNL     1      34.852 -18.673 -21.561  0.00  0.00    -0.491 OA
ATOM     20  C   UNL     1      33.839 -19.591 -21.151  0.00  0.00    +0.277 C 
ENDBRANCH  15  19
BRANCH   4  21
ATOM     21  C   UNL     1      32.415  -9.245 -23.769  0.00  0.00    +0.005 C 
BRANCH  21  22
ATOM     22  C   UNL     1      33.035  -7.938 -23.247  0.00  0.00    +0.000 C 
ATOM     23  C   UNL     1      34.519  -7.888 -23.614  0.00  0.00    +0.000 C 
ATOM     24  C   UNL     1      32.871  -7.778 -21.735  0.00  0.00    +0.000 C 
ENDBRANCH  21  22
ENDBRANCH   4  21
TORSDOF 4
ENDMDL
MODEL 5
REMARK VINA RESULT:      -8.7      1.812      3.167
REMARK  Name = 73442840
REMARK  6 active torsions:
REMARK  status: ('A' for Active; 'I' for Inactive)
REMARK    1  A    between atoms: C_4  and  C_27
REMARK    2  A    between atoms: C_14  and  O_17
REMARK    3  A    between atoms: C_15  and  O_22
REMARK    4  A    between atoms: O_17  and  C_18
REMARK    5  A    between atoms: O_22  and  C_23
REMARK    6  A    between atoms: C_27  and  C_28
REMARK                            x       y       z     vdW  Elec       q    Type
REMARK                         _______ _______ _______ _____ _____    ______ ____
ROOT
ATOM      1  O   UNL     1      37.176 -21.397 -19.453  0.00  0.00    -0.296 OA
ATOM      2  N   UNL     1      34.246 -22.712 -16.962  0.00  0.00    +0.392 N 
ATOM      3  C   UNL     1      35.651 -23.151 -16.753  0.00  0.00    -0.027 C 
ATOM      4  C   UNL     1      34.809 -21.356 -18.955  0.00  0.00    +0.037 C 
ATOM      5  C   UNL     1      33.968 -22.508 -18.392  0.00  0.00    -0.069 C 
ATOM      6  C   UNL     1      36.585 -22.018 -17.219  0.00  0.00    +0.048 C 
ATOM      7  C   UNL     1      33.306 -23.681 -16.391  0.00  0.00    -0.072 C 
ATOM      8  C   UNL     1      35.935 -23.575 -15.312  0.00  0.00    -0.042 C 
ATOM      9  C   UNL     1      36.276 -21.608 -18.642  0.00  0.00    +0.146 C 
ATOM     10  C   UNL     1      33.444 -23.672 -14.871  0.00  0.00    +0.003 C 
ATOM     11  C   UNL     1      34.872 -23.848 -14.428  0.00  0.00    -0.027 C 
ATOM     12  C   UNL     1      37.248 -23.788 -14.860  0.00  0.00    +0.033 C 
ATOM     13  C   UNL     1      35.135 -24.250 -13.110  0.00  0.00    +0.035 C 
ATOM     14  C   UNL     1      37.501 -24.201 -13.549  0.00  0.00    +0.170 C 
ATOM     15  C   UNL     1      36.446 -24.425 -12.673  0.00  0.00    +0.170 C 
ATOM     16  H   UNL     1      34.121 -21.821 -16.482  0.00  0.00    -0.079 HD
ENDROOT
BRANCH  14  17
ATOM     17  O   UNL     1      38.789 -24.385 -13.143  0.00  0.00    -0.491 OA
ATOM     18  C   UNL     1      39.531 -25.415 -13.792  0.00  0.00    +0.277 C 
ENDBRANCH  14  17
BRANCH  15  19
ATOM     19  O   UNL     1      36.679 -24.823 -11.392  0.00  0.00    -0.491 OA
ATOM     20  C   UNL     1      35.778 -24.350 -10.391  0.00  0.00    +0.277 C 
ENDBRANCH  15  19
BRANCH   4  21
ATOM     21  C   UNL     1      34.571 -21.194 -20.452  0.00  0.00    +0.005 C 
BRANCH  21  22
ATOM     22  C   UNL     1      34.093 -19.788 -20.848  0.00  0.00    +0.000 C 
ATOM     23  C   UNL     1      32.573 -19.699 -20.701  0.00  0.00    +0.000 C 
ATOM     24  C   UNL     1      34.498 -19.413 -22.274  0.00  0.00    +0.000 C 
ENDBRANCH  21  22
ENDBRANCH   4  21
TORSDOF 4
ENDMDL
MODEL 6
REMARK VINA RESULT:      -8.5      9.869     14.158
REMARK  Name = 73442840
REMARK  6 active torsions:
REMARK  status: ('A' for Active; 'I' for Inactive)
REMARK    1  A    between atoms: C_4  and  C_27
REMARK    2  A    between atoms: C_14  and  O_17
REMARK    3  A    between atoms: C_15  and  O_22
REMARK    4  A    between atoms: O_17  and  C_18
REMARK    5  A    between atoms: O_22  and  C_23
REMARK    6  A    between atoms: C_27  and  C_28
REMARK                            x       y       z     vdW  Elec       q    Type
REMARK                         _______ _______ _______ _____ _____    ______ ____
ROOT
ATOM      1  O   UNL     1      33.856  -7.735 -24.591  0.00  0.00    -0.296 OA
ATOM      2  N   UNL     1      32.206  -9.855 -21.541  0.00  0.00    +0.392 N 
ATOM      3  C   UNL     1      32.509 -10.525 -22.833  0.00  0.00    -0.027 C 
ATOM      4  C   UNL     1      33.007  -7.649 -22.328  0.00  0.00    +0.037 C 
ATOM      5  C   UNL     1      31.831  -8.449 -21.756  0.00  0.00    -0.069 C 
ATOM      6  C   UNL     1      33.738  -9.839 -23.456  0.00  0.00    +0.048 C 
ATOM      7  C   UNL     1      31.145 -10.564 -20.821  0.00  0.00    -0.072 C 
ATOM      8  C   UNL     1      32.703 -12.035 -22.690  0.00  0.00    -0.042 C 
ATOM      9  C   UNL     1      33.527  -8.345 -23.575  0.00  0.00    +0.146 C 
ATOM     10  C   UNL     1      31.666 -11.931 -20.383  0.00  0.00    +0.003 C 
ATOM     11  C   UNL     1      32.272 -12.701 -21.525  0.00  0.00    -0.027 C 
ATOM     12  C   UNL     1      33.230 -12.805 -23.741  0.00  0.00    +0.033 C 
ATOM     13  C   UNL     1      32.440 -14.089 -21.403  0.00  0.00    +0.035 C 
ATOM     14  C   UNL     1      33.381 -14.188 -23.616  0.00  0.00    +0.170 C 
ATOM     15  C   UNL     1      32.993 -14.829 -22.445  0.00  0.00    +0.170 C 
ATOM     16  H   UNL     1      33.052  -9.877 -20.971  0.00  0.00    -0.079 HD
ENDROOT
BRANCH  14  17
ATOM     17  O   UNL     1      33.907 -14.900 -24.652  0.00  0.00    -0.491 OA
ATOM     18  C   UNL     1      33.157 -14.929 -25.864  0.00  0.00    +0.277 C 
ENDBRANCH  14  17
BRANCH  15  19
ATOM     19  O   UNL     1      33.139 -16.175 -22.307  0.00  0.00    -0.491 OA
ATOM     20  C   UNL     1      34.235 -16.632 -21.515  0.00  0.00    +0.277 C 
ENDBRANCH  15  19
BRANCH   4  21
ATOM     21  C   UNL     1      32.594  -6.210 -22.615  0.00  0.00    +0.005 C 
BRANCH  21  22
ATOM     22  C   UNL     1      31.104  -6.060 -22.966  0.00  0.00    +0.000 C 
ATOM     23  C   UNL     1      30.962  -5.494 -24.381  0.00  0.00    +0.000 C 
ATOM     24  C   UNL     1      30.358  -5.166 -21.975  0.00  0.00    +0.000 C 
ENDBRANCH  21  22
ENDBRANCH   4  21
TORSDOF 4
ENDMDL
MODEL 7
REMARK VINA RESULT:      -8.5      7.625     12.210
REMARK  Name = 73442840
REMARK  6 active torsions:
REMARK  status: ('A' for Active; 'I' for Inactive)
REMARK    1  A    between atoms: C_4  and  C_27
REMARK    2  A    between atoms: C_14  and  O_17
REMARK    3  A    between atoms: C_15  and  O_22
REMARK    4  A    between atoms: O_17  and  C_18
REMARK    5  A    between atoms: O_22  and  C_23
REMARK    6  A    between atoms: C_27  and  C_28
REMARK                            x       y       z     vdW  Elec       q    Type
REMARK                         _______ _______ _______ _____ _____    ______ ____
ROOT
ATOM      1  O   UNL     1      34.486 -16.958 -20.330  0.00  0.00    -0.296 OA
ATOM      2  N   UNL     1      34.317 -14.479 -23.547  0.00  0.00    +0.392 N 
ATOM      3  C   UNL     1      33.352 -14.311 -22.429  0.00  0.00    -0.027 C 
ATOM      4  C   UNL     1      35.431 -16.420 -22.491  0.00  0.00    +0.037 C 
ATOM      5  C   UNL     1      34.679 -15.894 -23.718  0.00  0.00    -0.069 C 
ATOM      6  C   UNL     1      34.046 -14.743 -21.123  0.00  0.00    +0.048 C 
ATOM      7  C   UNL     1      33.771 -13.934 -24.793  0.00  0.00    -0.072 C 
ATOM      8  C   UNL     1      32.785 -12.894 -22.338  0.00  0.00    -0.042 C 
ATOM      9  C   UNL     1      34.609 -16.142 -21.242  0.00  0.00    +0.146 C 
ATOM     10  C   UNL     1      33.655 -12.417 -24.666  0.00  0.00    +0.003 C 
ATOM     11  C   UNL     1      32.912 -12.005 -23.424  0.00  0.00    -0.027 C 
ATOM     12  C   UNL     1      32.053 -12.472 -21.215  0.00  0.00    +0.033 C 
ATOM     13  C   UNL     1      32.379 -10.710 -23.343  0.00  0.00    +0.035 C 
ATOM     14  C   UNL     1      31.513 -11.185 -21.148  0.00  0.00    +0.170 C 
ATOM     15  C   UNL     1      31.683 -10.302 -22.208  0.00  0.00    +0.170 C 
ATOM     16  H   UNL     1      35.163 -13.958 -23.311  0.00  0.00    -0.079 HD
ENDROOT
BRANCH  14  17
ATOM     17  O   UNL     1      30.819 -10.808 -20.037  0.00  0.00    -0.491 OA
ATOM     18  C   UNL     1      31.579 -10.522 -18.866  0.00  0.00    +0.277 C 
ENDBRANCH  14  17
BRANCH  15  19
ATOM     19  O   UNL     1      31.168  -9.043 -22.153  0.00  0.00    -0.491 OA
ATOM     20  C   UNL     1      32.069  -7.986 -21.825  0.00  0.00    +0.277 C 
ENDBRANCH  15  19
BRANCH   4  21
ATOM     21  C   UNL     1      35.742 -17.906 -22.643  0.00  0.00    +0.005 C 
BRANCH  21  22
ATOM     22  C   UNL     1      34.533 -18.740 -23.099  0.00  0.00    +0.000 C 
ATOM     23  C   UNL     1      34.147 -19.732 -22.000  0.00  0.00    +0.000 C 
ATOM     24  C   UNL     1      34.802 -19.492 -24.403  0.00  0.00    +0.000 C 
ENDBRANCH  21  22
ENDBRANCH   4  21
TORSDOF 4
ENDMDL
MODEL 8
REMARK VINA RESULT:      -8.4      2.045      3.485
REMARK  Name = 73442840
REMARK  6 active torsions:
REMARK  status: ('A' for Active; 'I' for Inactive)
REMARK    1  A    between atoms: C_4  and  C_27
REMARK    2  A    between atoms: C_14  and  O_17
REMARK    3  A    between atoms: C_15  and  O_22
REMARK    4  A    between atoms: O_17  and  C_18
REMARK    5  A    between atoms: O_22  and  C_23
REMARK    6  A    between atoms: C_27  and  C_28
REMARK                            x       y       z     vdW  Elec       q    Type
REMARK                         _______ _______ _______ _____ _____    ______ ____
ROOT
ATOM      1  O   UNL     1      37.476 -19.799 -20.606  0.00  0.00    -0.296 OA
ATOM      2  N   UNL     1      34.319 -21.650 -18.838  0.00  0.00    +0.392 N 
ATOM      3  C   UNL     1      35.706 -22.025 -18.460  0.00  0.00    -0.027 C 
ATOM      4  C   UNL     1      35.066 -19.982 -20.508  0.00  0.00    +0.037 C 
ATOM      5  C   UNL     1      34.250 -21.255 -20.254  0.00  0.00    -0.069 C 
ATOM      6  C   UNL     1      36.600 -20.778 -18.606  0.00  0.00    +0.048 C 
ATOM      7  C   UNL     1      33.389 -22.750 -18.567  0.00  0.00    -0.072 C 
ATOM      8  C   UNL     1      35.798 -22.637 -17.062  0.00  0.00    -0.042 C 
ATOM      9  C   UNL     1      36.482 -20.183 -19.993  0.00  0.00    +0.146 C 
ATOM     10  C   UNL     1      33.287 -22.956 -17.058  0.00  0.00    +0.003 C 
ATOM     11  C   UNL     1      34.638 -23.105 -16.412  0.00  0.00    -0.027 C 
ATOM     12  C   UNL     1      37.038 -22.831 -16.431  0.00  0.00    +0.033 C 
ATOM     13  C   UNL     1      34.727 -23.679 -15.135  0.00  0.00    +0.035 C 
ATOM     14  C   UNL     1      37.120 -23.416 -15.165  0.00  0.00    +0.170 C 
ATOM     15  C   UNL     1      35.964 -23.832 -14.514  0.00  0.00    +0.170 C 
ATOM     16  H   UNL     1      34.044 -20.848 -18.269  0.00  0.00    -0.079 HD
ENDROOT
BRANCH  14  17
ATOM     17  O   UNL     1      38.340 -23.576 -14.579  0.00  0.00    -0.491 OA
ATOM     18  C   UNL     1      39.024 -24.800 -14.833  0.00  0.00    +0.277 C 
ENDBRANCH  14  17
BRANCH  15  19
ATOM     19  O   UNL     1      36.028 -24.399 -13.278  0.00  0.00    -0.491 OA
ATOM     20  C   UNL     1      35.844 -23.535 -12.157  0.00  0.00    +0.277 C 
ENDBRANCH  15  19
BRANCH   4  21
ATOM     21  C   UNL     1      35.051 -19.617 -21.988  0.00  0.00    +0.005 C 
BRANCH  21  22
ATOM     22  C   UNL     1      34.555 -18.187 -22.261  0.00  0.00    +0.000 C 
ATOM     23  C   UNL     1      35.008 -17.740 -23.652  0.00  0.00    +0.000 C 
ATOM     24  C   UNL     1      35.045 -17.189 -21.211  0.00  0.00    +0.000 C 
ENDBRANCH  21  22
ENDBRANCH   4  21
TORSDOF 4
ENDMDL
MODEL 9
REMARK VINA RESULT:      -8.3      7.621     12.505
REMARK  Name = 73442840
REMARK  6 active torsions:
REMARK  status: ('A' for Active; 'I' for Inactive)
REMARK    1  A    between atoms: C_4  and  C_27
REMARK    2  A    between atoms: C_14  and  O_17
REMARK    3  A    between atoms: C_15  and  O_22
REMARK    4  A    between atoms: O_17  and  C_18
REMARK    5  A    between atoms: O_22  and  C_23
REMARK    6  A    between atoms: C_27  and  C_28
REMARK                            x       y       z     vdW  Elec       q    Type
REMARK                         _______ _______ _______ _____ _____    ______ ____
ROOT
ATOM      1  O   UNL     1      33.489 -16.824 -20.663  0.00  0.00    -0.296 OA
ATOM      2  N   UNL     1      34.005 -14.104 -23.638  0.00  0.00    +0.392 N 
ATOM      3  C   UNL     1      32.976 -13.873 -22.591  0.00  0.00    -0.027 C 
ATOM      4  C   UNL     1      34.705 -16.276 -22.680  0.00  0.00    +0.037 C 
ATOM      5  C   UNL     1      34.161 -15.541 -23.911  0.00  0.00    -0.069 C 
ATOM      6  C   UNL     1      33.470 -14.512 -21.279  0.00  0.00    +0.048 C 
ATOM      7  C   UNL     1      33.669 -13.382 -24.868  0.00  0.00    -0.072 C 
ATOM      8  C   UNL     1      32.626 -12.395 -22.415  0.00  0.00    -0.042 C 
ATOM      9  C   UNL     1      33.821 -15.970 -21.482  0.00  0.00    +0.146 C 
ATOM     10  C   UNL     1      33.774 -11.881 -24.611  0.00  0.00    +0.003 C 
ATOM     11  C   UNL     1      32.989 -11.455 -23.400  0.00  0.00    -0.027 C 
ATOM     12  C   UNL     1      31.863 -11.951 -21.321  0.00  0.00    +0.033 C 
ATOM     13  C   UNL     1      32.655 -10.101 -23.242  0.00  0.00    +0.035 C 
ATOM     14  C   UNL     1      31.523 -10.604 -21.178  0.00  0.00    +0.170 C 
ATOM     15  C   UNL     1      31.925  -9.678 -22.134  0.00  0.00    +0.170 C 
ATOM     16  H   UNL     1      34.894 -13.746 -23.288  0.00  0.00    -0.079 HD
ENDROOT
BRANCH  14  17
ATOM     17  O   UNL     1      30.793 -10.210 -20.097  0.00  0.00    -0.491 OA
ATOM     18  C   UNL     1      31.216 -10.686 -18.822  0.00  0.00    +0.277 C 
ENDBRANCH  14  17
BRANCH  15  19
ATOM     19  O   UNL     1      31.605  -8.362 -22.005  0.00  0.00    -0.491 OA
ATOM     20  C   UNL     1      32.575  -7.515 -21.390  0.00  0.00    +0.277 C 
ENDBRANCH  15  19
BRANCH   4  21
ATOM     21  C   UNL     1      34.799 -17.775 -22.944  0.00  0.00    +0.005 C 
BRANCH  21  22
ATOM     22  C   UNL     1      35.525 -18.548 -21.831  0.00  0.00    +0.000 C 
ATOM     23  C   UNL     1      37.007 -18.690 -22.183  0.00  0.00    +0.000 C 
ATOM     24  C   UNL     1      34.917 -19.931 -21.588  0.00  0.00    +0.000 C 
ENDBRANCH  21  22
ENDBRANCH   4  21
TORSDOF 4
ENDMDL
