MODEL 1
REMARK VINA RESULT:      -8.2      0.000      0.000
REMARK  Name = 25023881
REMARK  18 active torsions:
REMARK  status: ('A' for Active; 'I' for Inactive)
REMARK    1  A    between atoms: C_1  and  P_2
REMARK    2  A    between atoms: C_1  and  P_8
REMARK    3  A    between atoms: C_1  and  C_14
REMARK    4  A    between atoms: C_1  and  C_22
REMARK    5  A    between atoms: P_2  and  O_4
REMARK    6  A    between atoms: P_2  and  O_6
REMARK    7  A    between atoms: P_8  and  O_10
REMARK    8  A    between atoms: P_8  and  O_12
REMARK    9  A    between atoms: C_14  and  C_15
REMARK   10  A    between atoms: C_16  and  C_17
REMARK   11  A    between atoms: C_17  and  C_18
REMARK   12  A    between atoms: C_18  and  C_19
REMARK   13  A    between atoms: C_19  and  C_20
REMARK   14  A    between atoms: C_22  and  C_23
REMARK   15  A    between atoms: C_24  and  C_25
REMARK   16  A    between atoms: C_25  and  C_26
REMARK   17  A    between atoms: C_26  and  C_27
REMARK   18  A    between atoms: C_27  and  C_28
REMARK                            x       y       z     vdW  Elec       q    Type
REMARK                         _______ _______ _______ _____ _____    ______ ____
ROOT
ATOM      1  C   UNL     1      37.325 -24.322 -14.022  0.00  0.00    +0.194 C 
ENDROOT
BRANCH   1   2
ATOM      2  P   UNL     1      38.827 -25.336 -14.553  0.00  0.00    +0.347 P 
ATOM      3  O   UNL     1      39.978 -24.529 -15.078  0.00  0.00    -0.258 OA
BRANCH   2   4
ATOM      4  O   UNL     1      39.144 -26.242 -13.252  0.00  0.00    -0.323 OA
ATOM      5  H   UNL     1      38.893 -25.757 -12.451  0.00  0.00    +0.220 HD
ENDBRANCH   2   4
BRANCH   2   6
ATOM      6  O   UNL     1      38.208 -26.406 -15.594  0.00  0.00    -0.323 OA
ATOM      7  H   UNL     1      38.862 -26.603 -16.283  0.00  0.00    +0.220 HD
ENDBRANCH   2   6
ENDBRANCH   1   2
BRANCH   1   8
ATOM      8  P   UNL     1      37.129 -24.137 -12.131  0.00  0.00    +0.347 P 
ATOM      9  O   UNL     1      36.554 -25.340 -11.445  0.00  0.00    -0.258 OA
BRANCH   8  10
ATOM     10  O   UNL     1      38.615 -23.725 -11.646  0.00  0.00    -0.323 OA
ATOM     11  H   UNL     1      38.561 -23.262 -10.796  0.00  0.00    +0.220 HD
ENDBRANCH   8  10
BRANCH   8  12
ATOM     12  O   UNL     1      36.278 -22.772 -11.964  0.00  0.00    -0.323 OA
ATOM     13  H   UNL     1      35.527 -22.931 -11.372  0.00  0.00    +0.220 HD
ENDBRANCH   8  12
ENDBRANCH   1   8
BRANCH   1  14
ATOM     14  C   UNL     1      36.024 -24.969 -14.596  0.00  0.00    +0.049 C 
BRANCH  14  15
ATOM     15  C   UNL     1      34.789 -24.126 -14.461  0.00  0.00    -0.029 C 
ATOM     16  C   UNL     1      33.921 -23.911 -15.460  0.00  0.00    -0.031 C 
BRANCH  16  17
ATOM     17  C   UNL     1      32.680 -23.079 -15.320  0.00  0.00    +0.026 C 
BRANCH  17  18
ATOM     18  C   UNL     1      31.789 -23.116 -16.566  0.00  0.00    +0.005 C 
BRANCH  18  19
ATOM     19  C   UNL     1      30.284 -22.998 -16.302  0.00  0.00    +0.000 C 
BRANCH  19  20
ATOM     20  C   UNL     1      29.858 -23.565 -14.947  0.00  0.00    +0.000 C 
ATOM     21  C   UNL     1      29.562 -25.054 -15.039  0.00  0.00    +0.000 C 
ENDBRANCH  19  20
ENDBRANCH  18  19
ENDBRANCH  17  18
ENDBRANCH  16  17
ENDBRANCH  14  15
ENDBRANCH   1  14
BRANCH   1  22
ATOM     22  C   UNL     1      37.464 -22.868 -14.599  0.00  0.00    +0.049 C 
BRANCH  22  23
ATOM     23  C   UNL     1      37.378 -22.746 -16.094  0.00  0.00    -0.029 C 
ATOM     24  C   UNL     1      36.766 -21.733 -16.725  0.00  0.00    -0.031 C 
BRANCH  24  25
ATOM     25  C   UNL     1      36.687 -21.607 -18.219  0.00  0.00    +0.026 C 
BRANCH  25  26
ATOM     26  C   UNL     1      35.315 -22.044 -18.737  0.00  0.00    +0.005 C 
BRANCH  26  27
ATOM     27  C   UNL     1      34.760 -21.130 -19.834  0.00  0.00    +0.000 C 
BRANCH  27  28
ATOM     28  C   UNL     1      33.240 -20.949 -19.843  0.00  0.00    +0.000 C 
ATOM     29  C   UNL     1      32.773 -19.772 -20.684  0.00  0.00    +0.000 C 
ENDBRANCH  27  28
ENDBRANCH  26  27
ENDBRANCH  25  26
ENDBRANCH  24  25
ENDBRANCH  22  23
ENDBRANCH   1  22
TORSDOF 18
ENDMDL
MODEL 2
REMARK VINA RESULT:      -8.2      0.616      4.965
REMARK  Name = 25023881
REMARK  18 active torsions:
REMARK  status: ('A' for Active; 'I' for Inactive)
REMARK    1  A    between atoms: C_1  and  P_2
REMARK    2  A    between atoms: C_1  and  P_8
REMARK    3  A    between atoms: C_1  and  C_14
REMARK    4  A    between atoms: C_1  and  C_22
REMARK    5  A    between atoms: P_2  and  O_4
REMARK    6  A    between atoms: P_2  and  O_6
REMARK    7  A    between atoms: P_8  and  O_10
REMARK    8  A    between atoms: P_8  and  O_12
REMARK    9  A    between atoms: C_14  and  C_15
REMARK   10  A    between atoms: C_16  and  C_17
REMARK   11  A    between atoms: C_17  and  C_18
REMARK   12  A    between atoms: C_18  and  C_19
REMARK   13  A    between atoms: C_19  and  C_20
REMARK   14  A    between atoms: C_22  and  C_23
REMARK   15  A    between atoms: C_24  and  C_25
REMARK   16  A    between atoms: C_25  and  C_26
REMARK   17  A    between atoms: C_26  and  C_27
REMARK   18  A    between atoms: C_27  and  C_28
REMARK                            x       y       z     vdW  Elec       q    Type
REMARK                         _______ _______ _______ _____ _____    ______ ____
ROOT
ATOM      1  C   UNL     1      37.056 -24.361 -14.093  0.00  0.00    +0.194 C 
ENDROOT
BRANCH   1   2
ATOM      2  P   UNL     1      36.633 -24.387 -12.252  0.00  0.00    +0.347 P 
ATOM      3  O   UNL     1      35.471 -23.522 -11.860  0.00  0.00    -0.258 OA
BRANCH   2   4
ATOM      4  O   UNL     1      36.470 -25.963 -11.930  0.00  0.00    -0.323 OA
ATOM      5  H   UNL     1      36.720 -26.132 -11.008  0.00  0.00    +0.220 HD
ENDBRANCH   2   4
BRANCH   2   6
ATOM      6  O   UNL     1      38.035 -24.018 -11.539  0.00  0.00    -0.323 OA
ATOM      7  H   UNL     1      38.711 -23.861 -12.217  0.00  0.00    +0.220 HD
ENDBRANCH   2   6
ENDBRANCH   1   2
BRANCH   1   8
ATOM      8  P   UNL     1      38.632 -25.335 -14.553  0.00  0.00    +0.347 P 
ATOM      9  O   UNL     1      39.749 -24.490 -15.091  0.00  0.00    -0.258 OA
BRANCH   8  10
ATOM     10  O   UNL     1      38.981 -26.134 -13.192  0.00  0.00    -0.323 OA
ATOM     11  H   UNL     1      38.936 -25.525 -12.438  0.00  0.00    +0.220 HD
ENDBRANCH   8  10
BRANCH   8  12
ATOM     12  O   UNL     1      38.095 -26.488 -15.549  0.00  0.00    -0.323 OA
ATOM     13  H   UNL     1      37.621 -27.162 -15.038  0.00  0.00    +0.220 HD
ENDBRANCH   8  12
ENDBRANCH   1   8
BRANCH   1  14
ATOM     14  C   UNL     1      37.226 -22.883 -14.571  0.00  0.00    +0.049 C 
BRANCH  14  15
ATOM     15  C   UNL     1      37.315 -22.710 -16.059  0.00  0.00    -0.029 C 
ATOM     16  C   UNL     1      36.612 -21.797 -16.746  0.00  0.00    -0.031 C 
BRANCH  16  17
ATOM     17  C   UNL     1      36.712 -21.616 -18.233  0.00  0.00    +0.026 C 
BRANCH  17  18
ATOM     18  C   UNL     1      35.436 -22.027 -18.974  0.00  0.00    +0.005 C 
BRANCH  18  19
ATOM     19  C   UNL     1      34.830 -20.954 -19.885  0.00  0.00    +0.000 C 
BRANCH  19  20
ATOM     20  C   UNL     1      33.303 -20.904 -19.833  0.00  0.00    +0.000 C 
ATOM     21  C   UNL     1      32.753 -19.811 -20.737  0.00  0.00    +0.000 C 
ENDBRANCH  19  20
ENDBRANCH  18  19
ENDBRANCH  17  18
ENDBRANCH  16  17
ENDBRANCH  14  15
ENDBRANCH   1  14
BRANCH   1  22
ATOM     22  C   UNL     1      35.876 -25.019 -14.894  0.00  0.00    +0.049 C 
BRANCH  22  23
ATOM     23  C   UNL     1      34.563 -24.289 -14.845  0.00  0.00    -0.029 C 
ATOM     24  C   UNL     1      33.872 -23.926 -15.935  0.00  0.00    -0.031 C 
BRANCH  24  25
ATOM     25  C   UNL     1      32.556 -23.204 -15.886  0.00  0.00    +0.026 C 
BRANCH  25  26
ATOM     26  C   UNL     1      32.089 -23.008 -14.441  0.00  0.00    +0.005 C 
BRANCH  26  27
ATOM     27  C   UNL     1      30.660 -23.501 -14.192  0.00  0.00    +0.000 C 
BRANCH  27  28
ATOM     28  C   UNL     1      30.044 -24.345 -15.310  0.00  0.00    +0.000 C 
ATOM     29  C   UNL     1      28.665 -23.871 -15.740  0.00  0.00    +0.000 C 
ENDBRANCH  27  28
ENDBRANCH  26  27
ENDBRANCH  25  26
ENDBRANCH  24  25
ENDBRANCH  22  23
ENDBRANCH   1  22
TORSDOF 18
ENDMDL
MODEL 3
REMARK VINA RESULT:      -8.1      0.843      1.257
REMARK  Name = 25023881
REMARK  18 active torsions:
REMARK  status: ('A' for Active; 'I' for Inactive)
REMARK    1  A    between atoms: C_1  and  P_2
REMARK    2  A    between atoms: C_1  and  P_8
REMARK    3  A    between atoms: C_1  and  C_14
REMARK    4  A    between atoms: C_1  and  C_22
REMARK    5  A    between atoms: P_2  and  O_4
REMARK    6  A    between atoms: P_2  and  O_6
REMARK    7  A    between atoms: P_8  and  O_10
REMARK    8  A    between atoms: P_8  and  O_12
REMARK    9  A    between atoms: C_14  and  C_15
REMARK   10  A    between atoms: C_16  and  C_17
REMARK   11  A    between atoms: C_17  and  C_18
REMARK   12  A    between atoms: C_18  and  C_19
REMARK   13  A    between atoms: C_19  and  C_20
REMARK   14  A    between atoms: C_22  and  C_23
REMARK   15  A    between atoms: C_24  and  C_25
REMARK   16  A    between atoms: C_25  and  C_26
REMARK   17  A    between atoms: C_26  and  C_27
REMARK   18  A    between atoms: C_27  and  C_28
REMARK                            x       y       z     vdW  Elec       q    Type
REMARK                         _______ _______ _______ _____ _____    ______ ____
ROOT
ATOM      1  C   UNL     1      36.838 -24.409 -14.137  0.00  0.00    +0.194 C 
ENDROOT
BRANCH   1   2
ATOM      2  P   UNL     1      38.405 -25.341 -14.628  0.00  0.00    +0.347 P 
ATOM      3  O   UNL     1      39.546 -24.470 -15.063  0.00  0.00    -0.258 OA
BRANCH   2   4
ATOM      4  O   UNL     1      38.696 -26.283 -13.346  0.00  0.00    -0.323 OA
ATOM      5  H   UNL     1      38.385 -25.839 -12.542  0.00  0.00    +0.220 HD
ENDBRANCH   2   4
BRANCH   2   6
ATOM      6  O   UNL     1      37.884 -26.395 -15.737  0.00  0.00    -0.323 OA
ATOM      7  H   UNL     1      37.720 -27.253 -15.316  0.00  0.00    +0.220 HD
ENDBRANCH   2   6
ENDBRANCH   1   2
BRANCH   1   8
ATOM      8  P   UNL     1      36.510 -24.355 -12.257  0.00  0.00    +0.347 P 
ATOM      9  O   UNL     1      35.353 -23.490 -11.852  0.00  0.00    -0.258 OA
BRANCH   8  10
ATOM     10  O   UNL     1      36.359 -25.916 -11.865  0.00  0.00    -0.323 OA
ATOM     11  H   UNL     1      36.227 -26.440 -12.670  0.00  0.00    +0.220 HD
ENDBRANCH   8  10
BRANCH   8  12
ATOM     12  O   UNL     1      37.939 -23.937 -11.628  0.00  0.00    -0.323 OA
ATOM     13  H   UNL     1      38.644 -24.145 -12.261  0.00  0.00    +0.220 HD
ENDBRANCH   8  12
ENDBRANCH   1   8
BRANCH   1  14
ATOM     14  C   UNL     1      35.602 -25.055 -14.840  0.00  0.00    +0.049 C 
BRANCH  14  15
ATOM     15  C   UNL     1      34.448 -24.121 -15.068  0.00  0.00    -0.029 C 
ATOM     16  C   UNL     1      33.839 -23.964 -16.252  0.00  0.00    -0.031 C 
BRANCH  16  17
ATOM     17  C   UNL     1      32.678 -23.040 -16.475  0.00  0.00    +0.026 C 
BRANCH  17  18
ATOM     18  C   UNL     1      31.608 -23.147 -15.384  0.00  0.00    +0.005 C 
BRANCH  18  19
ATOM     19  C   UNL     1      30.420 -24.057 -15.715  0.00  0.00    +0.000 C 
BRANCH  19  20
ATOM     20  C   UNL     1      30.176 -25.144 -14.667  0.00  0.00    +0.000 C 
ATOM     21  C   UNL     1      31.242 -25.116 -13.582  0.00  0.00    +0.000 C 
ENDBRANCH  19  20
ENDBRANCH  18  19
ENDBRANCH  17  18
ENDBRANCH  16  17
ENDBRANCH  14  15
ENDBRANCH   1  14
BRANCH   1  22
ATOM     22  C   UNL     1      36.967 -22.917 -14.609  0.00  0.00    +0.049 C 
BRANCH  22  23
ATOM     23  C   UNL     1      37.246 -22.715 -16.072  0.00  0.00    -0.029 C 
ATOM     24  C   UNL     1      36.565 -21.860 -16.849  0.00  0.00    -0.031 C 
BRANCH  24  25
ATOM     25  C   UNL     1      36.850 -21.652 -18.309  0.00  0.00    +0.026 C 
BRANCH  25  26
ATOM     26  C   UNL     1      35.557 -21.646 -19.127  0.00  0.00    +0.005 C 
BRANCH  26  27
ATOM     27  C   UNL     1      35.547 -20.595 -20.242  0.00  0.00    +0.000 C 
BRANCH  27  28
ATOM     28  C   UNL     1      34.167 -20.086 -20.663  0.00  0.00    +0.000 C 
ATOM     29  C   UNL     1      33.026 -20.680 -19.851  0.00  0.00    +0.000 C 
ENDBRANCH  27  28
ENDBRANCH  26  27
ENDBRANCH  25  26
ENDBRANCH  24  25
ENDBRANCH  22  23
ENDBRANCH   1  22
TORSDOF 18
ENDMDL
MODEL 4
REMARK VINA RESULT:      -7.8      0.893      4.868
REMARK  Name = 25023881
REMARK  18 active torsions:
REMARK  status: ('A' for Active; 'I' for Inactive)
REMARK    1  A    between atoms: C_1  and  P_2
REMARK    2  A    between atoms: C_1  and  P_8
REMARK    3  A    between atoms: C_1  and  C_14
REMARK    4  A    between atoms: C_1  and  C_22
REMARK    5  A    between atoms: P_2  and  O_4
REMARK    6  A    between atoms: P_2  and  O_6
REMARK    7  A    between atoms: P_8  and  O_10
REMARK    8  A    between atoms: P_8  and  O_12
REMARK    9  A    between atoms: C_14  and  C_15
REMARK   10  A    between atoms: C_16  and  C_17
REMARK   11  A    between atoms: C_17  and  C_18
REMARK   12  A    between atoms: C_18  and  C_19
REMARK   13  A    between atoms: C_19  and  C_20
REMARK   14  A    between atoms: C_22  and  C_23
REMARK   15  A    between atoms: C_24  and  C_25
REMARK   16  A    between atoms: C_25  and  C_26
REMARK   17  A    between atoms: C_26  and  C_27
REMARK   18  A    between atoms: C_27  and  C_28
REMARK                            x       y       z     vdW  Elec       q    Type
REMARK                         _______ _______ _______ _____ _____    ______ ____
ROOT
ATOM      1  C   UNL     1      37.206 -24.187 -13.989  0.00  0.00    +0.194 C 
ENDROOT
BRANCH   1   2
ATOM      2  P   UNL     1      37.306 -23.820 -12.139  0.00  0.00    +0.347 P 
ATOM      3  O   UNL     1      38.543 -23.088 -11.708  0.00  0.00    -0.258 OA
BRANCH   2   4
ATOM      4  O   UNL     1      35.908 -23.070 -11.831  0.00  0.00    -0.323 OA
ATOM      5  H   UNL     1      35.307 -23.185 -12.584  0.00  0.00    +0.220 HD
ENDBRANCH   2   4
BRANCH   2   6
ATOM      6  O   UNL     1      37.095 -25.270 -11.457  0.00  0.00    -0.323 OA
ATOM      7  H   UNL     1      36.149 -25.420 -11.303  0.00  0.00    +0.220 HD
ENDBRANCH   2   6
ENDBRANCH   1   2
BRANCH   1   8
ATOM      8  P   UNL     1      38.560 -25.369 -14.632  0.00  0.00    +0.347 P 
ATOM      9  O   UNL     1      39.267 -26.146 -13.561  0.00  0.00    -0.258 OA
BRANCH   8  10
ATOM     10  O   UNL     1      37.774 -26.272 -15.718  0.00  0.00    -0.323 OA
ATOM     11  H   UNL     1      37.860 -27.209 -15.483  0.00  0.00    +0.220 HD
ENDBRANCH   8  10
BRANCH   8  12
ATOM     12  O   UNL     1      39.506 -24.418 -15.534  0.00  0.00    -0.323 OA
ATOM     13  H   UNL     1      38.970 -23.713 -15.930  0.00  0.00    +0.220 HD
ENDBRANCH   8  12
ENDBRANCH   1   8
BRANCH   1  14
ATOM     14  C   UNL     1      37.288 -22.851 -14.794  0.00  0.00    +0.049 C 
BRANCH  14  15
ATOM     15  C   UNL     1      36.496 -22.834 -16.069  0.00  0.00    -0.029 C 
ATOM     16  C   UNL     1      36.751 -22.007 -17.094  0.00  0.00    -0.031 C 
BRANCH  16  17
ATOM     17  C   UNL     1      35.965 -22.001 -18.373  0.00  0.00    +0.026 C 
BRANCH  17  18
ATOM     18  C   UNL     1      36.418 -20.909 -19.348  0.00  0.00    +0.005 C 
BRANCH  18  19
ATOM     19  C   UNL     1      35.367 -20.467 -20.373  0.00  0.00    +0.000 C 
BRANCH  19  20
ATOM     20  C   UNL     1      33.955 -20.953 -20.044  0.00  0.00    +0.000 C 
ATOM     21  C   UNL     1      32.903 -19.965 -20.523  0.00  0.00    +0.000 C 
ENDBRANCH  19  20
ENDBRANCH  18  19
ENDBRANCH  17  18
ENDBRANCH  16  17
ENDBRANCH  14  15
ENDBRANCH   1  14
BRANCH   1  22
ATOM     22  C   UNL     1      35.830 -24.878 -14.295  0.00  0.00    +0.049 C 
BRANCH  22  23
ATOM     23  C   UNL     1      34.625 -24.254 -13.648  0.00  0.00    -0.029 C 
ATOM     24  C   UNL     1      33.376 -24.389 -14.114  0.00  0.00    -0.031 C 
BRANCH  24  25
ATOM     25  C   UNL     1      32.171 -23.773 -13.463  0.00  0.00    +0.026 C 
BRANCH  25  26
ATOM     26  C   UNL     1      31.512 -22.743 -14.384  0.00  0.00    +0.005 C 
BRANCH  26  27
ATOM     27  C   UNL     1      30.961 -23.351 -15.678  0.00  0.00    +0.000 C 
BRANCH  27  28
ATOM     28  C   UNL     1      31.505 -22.753 -16.978  0.00  0.00    +0.000 C 
ATOM     29  C   UNL     1      32.911 -23.221 -17.320  0.00  0.00    +0.000 C 
ENDBRANCH  27  28
ENDBRANCH  26  27
ENDBRANCH  25  26
ENDBRANCH  24  25
ENDBRANCH  22  23
ENDBRANCH   1  22
TORSDOF 18
ENDMDL
MODEL 5
REMARK VINA RESULT:      -7.5      1.541      5.107
REMARK  Name = 25023881
REMARK  18 active torsions:
REMARK  status: ('A' for Active; 'I' for Inactive)
REMARK    1  A    between atoms: C_1  and  P_2
REMARK    2  A    between atoms: C_1  and  P_8
REMARK    3  A    between atoms: C_1  and  C_14
REMARK    4  A    between atoms: C_1  and  C_22
REMARK    5  A    between atoms: P_2  and  O_4
REMARK    6  A    between atoms: P_2  and  O_6
REMARK    7  A    between atoms: P_8  and  O_10
REMARK    8  A    between atoms: P_8  and  O_12
REMARK    9  A    between atoms: C_14  and  C_15
REMARK   10  A    between atoms: C_16  and  C_17
REMARK   11  A    between atoms: C_17  and  C_18
REMARK   12  A    between atoms: C_18  and  C_19
REMARK   13  A    between atoms: C_19  and  C_20
REMARK   14  A    between atoms: C_22  and  C_23
REMARK   15  A    between atoms: C_24  and  C_25
REMARK   16  A    between atoms: C_25  and  C_26
REMARK   17  A    between atoms: C_26  and  C_27
REMARK   18  A    between atoms: C_27  and  C_28
REMARK                            x       y       z     vdW  Elec       q    Type
REMARK                         _______ _______ _______ _____ _____    ______ ____
ROOT
ATOM      1  C   UNL     1      36.399 -24.465 -13.777  0.00  0.00    +0.194 C 
ENDROOT
BRANCH   1   2
ATOM      2  P   UNL     1      37.469 -23.900 -12.327  0.00  0.00    +0.347 P 
ATOM      3  O   UNL     1      37.007 -24.374 -10.981  0.00  0.00    -0.258 OA
BRANCH   2   4
ATOM      4  O   UNL     1      38.957 -24.364 -12.759  0.00  0.00    -0.323 OA
ATOM      5  H   UNL     1      39.190 -25.180 -12.289  0.00  0.00    +0.220 HD
ENDBRANCH   2   4
BRANCH   2   6
ATOM      6  O   UNL     1      37.527 -22.295 -12.506  0.00  0.00    -0.323 OA
ATOM      7  H   UNL     1      37.410 -22.070 -13.442  0.00  0.00    +0.220 HD
ENDBRANCH   2   6
ENDBRANCH   1   2
BRANCH   1   8
ATOM      8  P   UNL     1      37.121 -25.932 -14.764  0.00  0.00    +0.347 P 
ATOM      9  O   UNL     1      36.150 -26.588 -15.701  0.00  0.00    -0.258 OA
BRANCH   8  10
ATOM     10  O   UNL     1      38.423 -25.290 -15.476  0.00  0.00    -0.323 OA
ATOM     11  H   UNL     1      38.561 -25.712 -16.339  0.00  0.00    +0.220 HD
ENDBRANCH   8  10
BRANCH   8  12
ATOM     12  O   UNL     1      37.741 -26.895 -13.624  0.00  0.00    -0.323 OA
ATOM     13  H   UNL     1      37.853 -26.393 -12.803  0.00  0.00    +0.220 HD
ENDBRANCH   8  12
ENDBRANCH   1   8
BRANCH   1  14
ATOM     14  C   UNL     1      36.169 -23.271 -14.757  0.00  0.00    +0.049 C 
BRANCH  14  15
ATOM     15  C   UNL     1      35.465 -23.630 -16.033  0.00  0.00    -0.029 C 
ATOM     16  C   UNL     1      34.463 -22.910 -16.560  0.00  0.00    -0.031 C 
BRANCH  16  17
ATOM     17  C   UNL     1      33.769 -23.264 -17.843  0.00  0.00    +0.026 C 
BRANCH  17  18
ATOM     18  C   UNL     1      33.772 -22.119 -18.860  0.00  0.00    +0.005 C 
BRANCH  18  19
ATOM     19  C   UNL     1      35.151 -21.712 -19.389  0.00  0.00    +0.000 C 
BRANCH  19  20
ATOM     20  C   UNL     1      35.110 -20.508 -20.331  0.00  0.00    +0.000 C 
ATOM     21  C   UNL     1      36.484 -19.870 -20.475  0.00  0.00    +0.000 C 
ENDBRANCH  19  20
ENDBRANCH  18  19
ENDBRANCH  17  18
ENDBRANCH  16  17
ENDBRANCH  14  15
ENDBRANCH   1  14
BRANCH   1  22
ATOM     22  C   UNL     1      35.008 -24.942 -13.225  0.00  0.00    +0.049 C 
BRANCH  22  23
ATOM     23  C   UNL     1      33.925 -23.901 -13.193  0.00  0.00    -0.029 C 
ATOM     24  C   UNL     1      32.691 -24.094 -13.682  0.00  0.00    -0.031 C 
BRANCH  24  25
ATOM     25  C   UNL     1      31.606 -23.057 -13.643  0.00  0.00    +0.026 C 
BRANCH  25  26
ATOM     26  C   UNL     1      31.012 -22.829 -15.035  0.00  0.00    +0.005 C 
BRANCH  26  27
ATOM     27  C   UNL     1      30.718 -24.128 -15.791  0.00  0.00    +0.000 C 
BRANCH  27  28
ATOM     28  C   UNL     1      29.253 -24.571 -15.807  0.00  0.00    +0.000 C 
ATOM     29  C   UNL     1      28.343 -23.635 -16.586  0.00  0.00    +0.000 C 
ENDBRANCH  27  28
ENDBRANCH  26  27
ENDBRANCH  25  26
ENDBRANCH  24  25
ENDBRANCH  22  23
ENDBRANCH   1  22
TORSDOF 18
ENDMDL
MODEL 6
REMARK VINA RESULT:      -6.9     13.532     16.531
REMARK  Name = 25023881
REMARK  18 active torsions:
REMARK  status: ('A' for Active; 'I' for Inactive)
REMARK    1  A    between atoms: C_1  and  P_2
REMARK    2  A    between atoms: C_1  and  P_8
REMARK    3  A    between atoms: C_1  and  C_14
REMARK    4  A    between atoms: C_1  and  C_22
REMARK    5  A    between atoms: P_2  and  O_4
REMARK    6  A    between atoms: P_2  and  O_6
REMARK    7  A    between atoms: P_8  and  O_10
REMARK    8  A    between atoms: P_8  and  O_12
REMARK    9  A    between atoms: C_14  and  C_15
REMARK   10  A    between atoms: C_16  and  C_17
REMARK   11  A    between atoms: C_17  and  C_18
REMARK   12  A    between atoms: C_18  and  C_19
REMARK   13  A    between atoms: C_19  and  C_20
REMARK   14  A    between atoms: C_22  and  C_23
REMARK   15  A    between atoms: C_24  and  C_25
REMARK   16  A    between atoms: C_25  and  C_26
REMARK   17  A    between atoms: C_26  and  C_27
REMARK   18  A    between atoms: C_27  and  C_28
REMARK                            x       y       z     vdW  Elec       q    Type
REMARK                         _______ _______ _______ _____ _____    ______ ____
ROOT
ATOM      1  C   UNL     1      32.312  -7.710 -22.326  0.00  0.00    +0.194 C 
ENDROOT
BRANCH   1   2
ATOM      2  P   UNL     1      32.237  -7.206 -20.507  0.00  0.00    +0.347 P 
ATOM      3  O   UNL     1      31.248  -7.973 -19.681  0.00  0.00    -0.258 OA
BRANCH   2   4
ATOM      4  O   UNL     1      33.778  -7.310 -20.028  0.00  0.00    -0.323 OA
ATOM      5  H   UNL     1      33.946  -6.654 -19.334  0.00  0.00    +0.220 HD
ENDBRANCH   2   4
BRANCH   2   6
ATOM      6  O   UNL     1      31.988  -5.610 -20.570  0.00  0.00    -0.323 OA
ATOM      7  H   UNL     1      31.263  -5.373 -19.970  0.00  0.00    +0.220 HD
ENDBRANCH   2   6
ENDBRANCH   1   2
BRANCH   1   8
ATOM      8  P   UNL     1      31.538  -6.443 -23.527  0.00  0.00    +0.347 P 
ATOM      9  O   UNL     1      32.509  -5.451 -24.095  0.00  0.00    -0.258 OA
BRANCH   8  10
ATOM     10  O   UNL     1      30.803  -7.377 -24.622  0.00  0.00    -0.323 OA
ATOM     11  H   UNL     1      31.076  -8.300 -24.497  0.00  0.00    +0.220 HD
ENDBRANCH   8  10
BRANCH   8  12
ATOM     12  O   UNL     1      30.315  -5.808 -22.681  0.00  0.00    -0.323 OA
ATOM     13  H   UNL     1      30.419  -6.034 -21.744  0.00  0.00    +0.220 HD
ENDBRANCH   8  12
ENDBRANCH   1   8
BRANCH   1  14
ATOM     14  C   UNL     1      31.593  -9.083 -22.519  0.00  0.00    +0.049 C 
BRANCH  14  15
ATOM     15  C   UNL     1      32.009 -10.153 -21.552  0.00  0.00    -0.029 C 
ATOM     16  C   UNL     1      31.474 -11.383 -21.525  0.00  0.00    -0.031 C 
BRANCH  16  17
ATOM     17  C   UNL     1      31.899 -12.455 -20.566  0.00  0.00    +0.026 C 
BRANCH  17  18
ATOM     18  C   UNL     1      32.460 -13.698 -21.265  0.00  0.00    +0.005 C 
BRANCH  18  19
ATOM     19  C   UNL     1      32.913 -14.828 -20.335  0.00  0.00    +0.000 C 
BRANCH  19  20
ATOM     20  C   UNL     1      34.366 -15.249 -20.552  0.00  0.00    +0.000 C 
ATOM     21  C   UNL     1      34.564 -15.871 -21.926  0.00  0.00    +0.000 C 
ENDBRANCH  19  20
ENDBRANCH  18  19
ENDBRANCH  17  18
ENDBRANCH  16  17
ENDBRANCH  14  15
ENDBRANCH   1  14
BRANCH   1  22
ATOM     22  C   UNL     1      33.817  -7.862 -22.749  0.00  0.00    +0.049 C 
BRANCH  22  23
ATOM     23  C   UNL     1      34.063  -8.579 -24.046  0.00  0.00    -0.029 C 
ATOM     24  C   UNL     1      34.847  -9.660 -24.163  0.00  0.00    -0.031 C 
BRANCH  24  25
ATOM     25  C   UNL     1      35.086 -10.381 -25.458  0.00  0.00    +0.026 C 
BRANCH  25  26
ATOM     26  C   UNL     1      34.040 -11.476 -25.681  0.00  0.00    +0.005 C 
BRANCH  26  27
ATOM     27  C   UNL     1      33.769 -12.322 -24.432  0.00  0.00    +0.000 C 
BRANCH  27  28
ATOM     28  C   UNL     1      33.243 -13.736 -24.688  0.00  0.00    +0.000 C 
ATOM     29  C   UNL     1      33.047 -14.053 -26.162  0.00  0.00    +0.000 C 
ENDBRANCH  27  28
ENDBRANCH  26  27
ENDBRANCH  25  26
ENDBRANCH  24  25
ENDBRANCH  22  23
ENDBRANCH   1  22
TORSDOF 18
ENDMDL
MODEL 7
REMARK VINA RESULT:      -6.9     13.512     16.759
REMARK  Name = 25023881
REMARK  18 active torsions:
REMARK  status: ('A' for Active; 'I' for Inactive)
REMARK    1  A    between atoms: C_1  and  P_2
REMARK    2  A    between atoms: C_1  and  P_8
REMARK    3  A    between atoms: C_1  and  C_14
REMARK    4  A    between atoms: C_1  and  C_22
REMARK    5  A    between atoms: P_2  and  O_4
REMARK    6  A    between atoms: P_2  and  O_6
REMARK    7  A    between atoms: P_8  and  O_10
REMARK    8  A    between atoms: P_8  and  O_12
REMARK    9  A    between atoms: C_14  and  C_15
REMARK   10  A    between atoms: C_16  and  C_17
REMARK   11  A    between atoms: C_17  and  C_18
REMARK   12  A    between atoms: C_18  and  C_19
REMARK   13  A    between atoms: C_19  and  C_20
REMARK   14  A    between atoms: C_22  and  C_23
REMARK   15  A    between atoms: C_24  and  C_25
REMARK   16  A    between atoms: C_25  and  C_26
REMARK   17  A    between atoms: C_26  and  C_27
REMARK   18  A    between atoms: C_27  and  C_28
REMARK                            x       y       z     vdW  Elec       q    Type
REMARK                         _______ _______ _______ _____ _____    ______ ____
ROOT
ATOM      1  C   UNL     1      32.326  -7.685 -22.362  0.00  0.00    +0.194 C 
ENDROOT
BRANCH   1   2
ATOM      2  P   UNL     1      31.555  -6.445 -23.559  0.00  0.00    +0.347 P 
ATOM      3  O   UNL     1      32.518  -5.461 -24.154  0.00  0.00    -0.258 OA
BRANCH   2   4
ATOM      4  O   UNL     1      30.774  -7.385 -24.617  0.00  0.00    -0.323 OA
ATOM      5  H   UNL     1      29.818  -7.312 -24.471  0.00  0.00    +0.220 HD
ENDBRANCH   2   4
BRANCH   2   6
ATOM      6  O   UNL     1      30.351  -5.793 -22.700  0.00  0.00    -0.323 OA
ATOM      7  H   UNL     1      29.962  -5.057 -23.197  0.00  0.00    +0.220 HD
ENDBRANCH   2   6
ENDBRANCH   1   2
BRANCH   1   8
ATOM      8  P   UNL     1      32.216  -7.179 -20.524  0.00  0.00    +0.347 P 
ATOM      9  O   UNL     1      31.191  -7.934 -19.731  0.00  0.00    -0.258 OA
BRANCH   8  10
ATOM     10  O   UNL     1      33.737  -7.351 -20.004  0.00  0.00    -0.323 OA
ATOM     11  H   UNL     1      34.351  -7.046 -20.691  0.00  0.00    +0.220 HD
ENDBRANCH   8  10
BRANCH   8  12
ATOM     12  O   UNL     1      32.007  -5.577 -20.578  0.00  0.00    -0.323 OA
ATOM     13  H   UNL     1      31.307  -5.322 -19.957  0.00  0.00    +0.220 HD
ENDBRANCH   8  12
ENDBRANCH   1   8
BRANCH   1  14
ATOM     14  C   UNL     1      33.828  -7.905 -22.729  0.00  0.00    +0.049 C 
BRANCH  14  15
ATOM     15  C   UNL     1      34.061  -8.603 -24.037  0.00  0.00    -0.029 C 
ATOM     16  C   UNL     1      34.826  -9.697 -24.172  0.00  0.00    -0.031 C 
BRANCH  16  17
ATOM     17  C   UNL     1      35.047 -10.401 -25.479  0.00  0.00    +0.026 C 
BRANCH  17  18
ATOM     18  C   UNL     1      34.092 -11.580 -25.693  0.00  0.00    +0.005 C 
BRANCH  18  19
ATOM     19  C   UNL     1      33.760 -12.394 -24.437  0.00  0.00    +0.000 C 
BRANCH  19  20
ATOM     20  C   UNL     1      33.002 -13.688 -24.735  0.00  0.00    +0.000 C 
ATOM     21  C   UNL     1      33.801 -14.910 -24.307  0.00  0.00    +0.000 C 
ENDBRANCH  19  20
ENDBRANCH  18  19
ENDBRANCH  17  18
ENDBRANCH  16  17
ENDBRANCH  14  15
ENDBRANCH   1  14
BRANCH   1  22
ATOM     22  C   UNL     1      31.569  -9.055 -22.492  0.00  0.00    +0.049 C 
BRANCH  22  23
ATOM     23  C   UNL     1      32.106 -10.183 -21.657  0.00  0.00    -0.029 C 
ATOM     24  C   UNL     1      31.347 -11.171 -21.163  0.00  0.00    -0.031 C 
BRANCH  24  25
ATOM     25  C   UNL     1      31.885 -12.303 -20.335  0.00  0.00    +0.026 C 
BRANCH  25  26
ATOM     26  C   UNL     1      32.324 -13.472 -21.220  0.00  0.00    +0.005 C 
BRANCH  26  27
ATOM     27  C   UNL     1      32.904 -14.649 -20.428  0.00  0.00    +0.000 C 
BRANCH  27  28
ATOM     28  C   UNL     1      34.400 -14.907 -20.623  0.00  0.00    +0.000 C 
ATOM     29  C   UNL     1      34.726 -16.346 -20.988  0.00  0.00    +0.000 C 
ENDBRANCH  27  28
ENDBRANCH  26  27
ENDBRANCH  25  26
ENDBRANCH  24  25
ENDBRANCH  22  23
ENDBRANCH   1  22
TORSDOF 18
ENDMDL
MODEL 8
REMARK VINA RESULT:      -6.5     12.531     15.169
REMARK  Name = 25023881
REMARK  18 active torsions:
REMARK  status: ('A' for Active; 'I' for Inactive)
REMARK    1  A    between atoms: C_1  and  P_2
REMARK    2  A    between atoms: C_1  and  P_8
REMARK    3  A    between atoms: C_1  and  C_14
REMARK    4  A    between atoms: C_1  and  C_22
REMARK    5  A    between atoms: P_2  and  O_4
REMARK    6  A    between atoms: P_2  and  O_6
REMARK    7  A    between atoms: P_8  and  O_10
REMARK    8  A    between atoms: P_8  and  O_12
REMARK    9  A    between atoms: C_14  and  C_15
REMARK   10  A    between atoms: C_16  and  C_17
REMARK   11  A    between atoms: C_17  and  C_18
REMARK   12  A    between atoms: C_18  and  C_19
REMARK   13  A    between atoms: C_19  and  C_20
REMARK   14  A    between atoms: C_22  and  C_23
REMARK   15  A    between atoms: C_24  and  C_25
REMARK   16  A    between atoms: C_25  and  C_26
REMARK   17  A    between atoms: C_26  and  C_27
REMARK   18  A    between atoms: C_27  and  C_28
REMARK                            x       y       z     vdW  Elec       q    Type
REMARK                         _______ _______ _______ _____ _____    ______ ____
ROOT
ATOM      1  C   UNL     1      33.469 -13.956 -24.237  0.00  0.00    +0.194 C 
ENDROOT
BRANCH   1   2
ATOM      2  P   UNL     1      33.202 -14.723 -25.942  0.00  0.00    +0.347 P 
ATOM      3  O   UNL     1      33.332 -16.217 -25.988  0.00  0.00    -0.258 OA
BRANCH   2   4
ATOM      4  O   UNL     1      31.767 -14.132 -26.396  0.00  0.00    -0.323 OA
ATOM      5  H   UNL     1      31.898 -13.298 -26.874  0.00  0.00    +0.220 HD
ENDBRANCH   2   4
BRANCH   2   6
ATOM      6  O   UNL     1      34.238 -13.915 -26.884  0.00  0.00    -0.323 OA
ATOM      7  H   UNL     1      33.813 -13.108 -27.214  0.00  0.00    +0.220 HD
ENDBRANCH   2   6
ENDBRANCH   1   2
BRANCH   1   8
ATOM      8  P   UNL     1      34.317 -15.113 -22.977  0.00  0.00    +0.347 P 
ATOM      9  O   UNL     1      33.393 -16.089 -22.310  0.00  0.00    -0.258 OA
BRANCH   8  10
ATOM     10  O   UNL     1      35.507 -15.786 -23.838  0.00  0.00    -0.323 OA
ATOM     11  H   UNL     1      35.649 -15.273 -24.650  0.00  0.00    +0.220 HD
ENDBRANCH   8  10
BRANCH   8  12
ATOM     12  O   UNL     1      35.088 -14.099 -21.981  0.00  0.00    -0.323 OA
ATOM     13  H   UNL     1      34.836 -13.187 -22.191  0.00  0.00    +0.220 HD
ENDBRANCH   8  12
ENDBRANCH   1   8
BRANCH   1  14
ATOM     14  C   UNL     1      32.097 -13.497 -23.647  0.00  0.00    +0.049 C 
BRANCH  14  15
ATOM     15  C   UNL     1      32.106 -13.227 -22.171  0.00  0.00    -0.029 C 
ATOM     16  C   UNL     1      31.639 -12.097 -21.617  0.00  0.00    -0.031 C 
BRANCH  16  17
ATOM     17  C   UNL     1      31.637 -11.835 -20.139  0.00  0.00    +0.026 C 
BRANCH  17  18
ATOM     18  C   UNL     1      31.498 -10.348 -19.795  0.00  0.00    +0.005 C 
BRANCH  18  19
ATOM     19  C   UNL     1      31.861  -9.376 -20.923  0.00  0.00    +0.000 C 
BRANCH  19  20
ATOM     20  C   UNL     1      32.660  -8.163 -20.445  0.00  0.00    +0.000 C 
ATOM     21  C   UNL     1      32.041  -6.863 -20.936  0.00  0.00    +0.000 C 
ENDBRANCH  19  20
ENDBRANCH  18  19
ENDBRANCH  17  18
ENDBRANCH  16  17
ENDBRANCH  14  15
ENDBRANCH   1  14
BRANCH   1  22
ATOM     22  C   UNL     1      34.401 -12.701 -24.386  0.00  0.00    +0.049 C 
BRANCH  22  23
ATOM     23  C   UNL     1      33.708 -11.367 -24.396  0.00  0.00    -0.029 C 
ATOM     24  C   UNL     1      34.252 -10.241 -23.914  0.00  0.00    -0.031 C 
BRANCH  24  25
ATOM     25  C   UNL     1      33.563  -8.907 -23.932  0.00  0.00    +0.026 C 
BRANCH  25  26
ATOM     26  C   UNL     1      34.578  -7.762 -23.924  0.00  0.00    +0.005 C 
BRANCH  26  27
ATOM     27  C   UNL     1      34.065  -6.489 -24.606  0.00  0.00    +0.000 C 
BRANCH  27  28
ATOM     28  C   UNL     1      32.544  -6.366 -24.724  0.00  0.00    +0.000 C 
ATOM     29  C   UNL     1      31.995  -5.057 -24.180  0.00  0.00    +0.000 C 
ENDBRANCH  27  28
ENDBRANCH  26  27
ENDBRANCH  25  26
ENDBRANCH  24  25
ENDBRANCH  22  23
ENDBRANCH   1  22
TORSDOF 18
ENDMDL
MODEL 9
REMARK VINA RESULT:      -6.5      7.865     10.764
REMARK  Name = 25023881
REMARK  18 active torsions:
REMARK  status: ('A' for Active; 'I' for Inactive)
REMARK    1  A    between atoms: C_1  and  P_2
REMARK    2  A    between atoms: C_1  and  P_8
REMARK    3  A    between atoms: C_1  and  C_14
REMARK    4  A    between atoms: C_1  and  C_22
REMARK    5  A    between atoms: P_2  and  O_4
REMARK    6  A    between atoms: P_2  and  O_6
REMARK    7  A    between atoms: P_8  and  O_10
REMARK    8  A    between atoms: P_8  and  O_12
REMARK    9  A    between atoms: C_14  and  C_15
REMARK   10  A    between atoms: C_16  and  C_17
REMARK   11  A    between atoms: C_17  and  C_18
REMARK   12  A    between atoms: C_18  and  C_19
REMARK   13  A    between atoms: C_19  and  C_20
REMARK   14  A    between atoms: C_22  and  C_23
REMARK   15  A    between atoms: C_24  and  C_25
REMARK   16  A    between atoms: C_25  and  C_26
REMARK   17  A    between atoms: C_26  and  C_27
REMARK   18  A    between atoms: C_27  and  C_28
REMARK                            x       y       z     vdW  Elec       q    Type
REMARK                         _______ _______ _______ _____ _____    ______ ____
ROOT
ATOM      1  C   UNL     1      34.597 -17.431 -21.933  0.00  0.00    +0.194 C 
ENDROOT
BRANCH   1   2
ATOM      2  P   UNL     1      35.977 -18.710 -21.772  0.00  0.00    +0.347 P 
ATOM      3  O   UNL     1      36.326 -19.085 -20.362  0.00  0.00    -0.258 OA
BRANCH   2   4
ATOM      4  O   UNL     1      35.472 -19.924 -22.713  0.00  0.00    -0.323 OA
ATOM      5  H   UNL     1      35.017 -19.563 -23.490  0.00  0.00    +0.220 HD
ENDBRANCH   2   4
BRANCH   2   6
ATOM      6  O   UNL     1      37.186 -18.068 -22.630  0.00  0.00    -0.323 OA
ATOM      7  H   UNL     1      37.799 -18.770 -22.900  0.00  0.00    +0.220 HD
ENDBRANCH   2   6
ENDBRANCH   1   2
BRANCH   1   8
ATOM      8  P   UNL     1      34.439 -16.658 -23.672  0.00  0.00    +0.347 P 
ATOM      9  O   UNL     1      33.302 -15.691 -23.821  0.00  0.00    -0.258 OA
BRANCH   8  10
ATOM     10  O   UNL     1      35.904 -16.027 -23.929  0.00  0.00    -0.323 OA
ATOM     11  H   UNL     1      35.837 -15.061 -23.979  0.00  0.00    +0.220 HD
ENDBRANCH   8  10
BRANCH   8  12
ATOM     12  O   UNL     1      34.392 -17.938 -24.659  0.00  0.00    -0.323 OA
ATOM     13  H   UNL     1      33.645 -18.505 -24.417  0.00  0.00    +0.220 HD
ENDBRANCH   8  12
ENDBRANCH   1   8
BRANCH   1  14
ATOM     14  C   UNL     1      34.821 -16.283 -20.897  0.00  0.00    +0.049 C 
BRANCH  14  15
ATOM     15  C   UNL     1      33.587 -15.509 -20.539  0.00  0.00    -0.029 C 
ATOM     16  C   UNL     1      33.418 -14.206 -20.812  0.00  0.00    -0.031 C 
BRANCH  16  17
ATOM     17  C   UNL     1      32.177 -13.437 -20.464  0.00  0.00    +0.026 C 
BRANCH  17  18
ATOM     18  C   UNL     1      31.799 -12.399 -21.525  0.00  0.00    +0.005 C 
BRANCH  18  19
ATOM     19  C   UNL     1      31.006 -11.192 -21.011  0.00  0.00    +0.000 C 
BRANCH  19  20
ATOM     20  C   UNL     1      31.440 -10.728 -19.621  0.00  0.00    +0.000 C 
ATOM     21  C   UNL     1      31.895  -9.276 -19.638  0.00  0.00    +0.000 C 
ENDBRANCH  19  20
ENDBRANCH  18  19
ENDBRANCH  17  18
ENDBRANCH  16  17
ENDBRANCH  14  15
ENDBRANCH   1  14
BRANCH   1  22
ATOM     22  C   UNL     1      33.223 -18.126 -21.628  0.00  0.00    +0.049 C 
BRANCH  22  23
ATOM     23  C   UNL     1      33.221 -19.099 -20.483  0.00  0.00    -0.029 C 
ATOM     24  C   UNL     1      32.967 -20.409 -20.620  0.00  0.00    -0.031 C 
BRANCH  24  25
ATOM     25  C   UNL     1      32.973 -21.383 -19.477  0.00  0.00    +0.026 C 
BRANCH  25  26
ATOM     26  C   UNL     1      34.263 -22.208 -19.464  0.00  0.00    +0.005 C 
BRANCH  26  27
ATOM     27  C   UNL     1      34.976 -22.200 -18.107  0.00  0.00    +0.000 C 
BRANCH  27  28
ATOM     28  C   UNL     1      36.444 -21.769 -18.131  0.00  0.00    +0.000 C 
ATOM     29  C   UNL     1      37.081 -21.704 -16.752  0.00  0.00    +0.000 C 
ENDBRANCH  27  28
ENDBRANCH  26  27
ENDBRANCH  25  26
ENDBRANCH  24  25
ENDBRANCH  22  23
ENDBRANCH   1  22
TORSDOF 18
ENDMDL
