MODEL 1
REMARK VINA RESULT:      -6.8      0.000      0.000
REMARK  Name = 3081349
REMARK  5 active torsions:
REMARK  status: ('A' for Active; 'I' for Inactive)
REMARK    1  A    between atoms: N_2  and  S_7
REMARK    2  A    between atoms: N_2  and  N_11
REMARK    3  A    between atoms: N_11  and  S_12
REMARK    4  A    between atoms: N_11  and  C_16
REMARK    5  A    between atoms: C_16  and  C_18
REMARK                            x       y       z     vdW  Elec       q    Type
REMARK                         _______ _______ _______ _____ _____    ______ ____
ROOT
ATOM      1  O   UNL     1      34.635 -24.193 -11.848  0.00  0.00    -0.250 OA
ATOM      2  N   UNL     1      36.420 -24.523 -13.311  0.00  0.00    -0.065 N 
ATOM      3  N   UNL     1      34.125 -24.733 -14.018  0.00  0.00    -0.285 N 
ATOM      4  C   UNL     1      35.014 -24.467 -12.987  0.00  0.00    +0.338 C 
ATOM      5  C   UNL     1      32.692 -24.712 -13.842  0.00  0.00    +0.112 C 
ATOM      6  H   UNL     1      34.487 -24.945 -14.909  0.00  0.00    +0.151 HD
ENDROOT
BRANCH   2   7
ATOM      7  S   UNL     1      37.675 -24.225 -12.177  0.00  0.00    +0.076 S 
ATOM      8  O   UNL     1      37.492 -25.041 -10.992  0.00  0.00    -0.153 OA
ATOM      9  O   UNL     1      38.953 -24.210 -12.864  0.00  0.00    -0.153 OA
ATOM     10  C   UNL     1      37.293 -22.548 -11.730  0.00  0.00    +0.202 C 
ENDBRANCH   2   7
BRANCH   2  11
ATOM     11  N   UNL     1      36.905 -24.818 -14.557  0.00  0.00    -0.062 NA
BRANCH  11  12
ATOM     12  S   UNL     1      37.345 -26.454 -14.768  0.00  0.00    +0.062 S 
ATOM     13  O   UNL     1      36.754 -26.973 -15.987  0.00  0.00    -0.156 OA
ATOM     14  O   UNL     1      37.195 -27.166 -13.513  0.00  0.00    -0.156 OA
ATOM     15  C   UNL     1      39.086 -26.272 -15.073  0.00  0.00    +0.198 C 
ENDBRANCH  11  12
BRANCH  11  16
ATOM     16  C   UNL     1      37.545 -23.746 -15.344  0.00  0.00    +0.136 C 
BRANCH  16  18
ATOM     17 CL   UNL     1      37.246 -21.441 -16.775  0.00  0.00    -0.112 Cl
ATOM     18  C   UNL     1      36.497 -22.788 -15.882  0.00  0.00    +0.116 C 
ENDBRANCH  16  18
ENDBRANCH  11  16
ENDBRANCH   2  11
TORSDOF 5
ENDMDL
MODEL 2
REMARK VINA RESULT:      -6.0      2.672      3.458
REMARK  Name = 3081349
REMARK  5 active torsions:
REMARK  status: ('A' for Active; 'I' for Inactive)
REMARK    1  A    between atoms: N_2  and  S_7
REMARK    2  A    between atoms: N_2  and  N_11
REMARK    3  A    between atoms: N_11  and  S_12
REMARK    4  A    between atoms: N_11  and  C_16
REMARK    5  A    between atoms: C_16  and  C_18
REMARK                            x       y       z     vdW  Elec       q    Type
REMARK                         _______ _______ _______ _____ _____    ______ ____
ROOT
ATOM      1  O   UNL     1      37.269 -22.216 -14.072  0.00  0.00    -0.250 OA
ATOM      2  N   UNL     1      38.093 -24.392 -13.912  0.00  0.00    -0.065 N 
ATOM      3  N   UNL     1      37.769 -23.294 -16.035  0.00  0.00    -0.285 N 
ATOM      4  C   UNL     1      37.678 -23.222 -14.652  0.00  0.00    +0.338 C 
ATOM      5  C   UNL     1      37.393 -22.203 -16.902  0.00  0.00    +0.112 C 
ATOM      6  H   UNL     1      38.106 -24.126 -16.441  0.00  0.00    +0.151 HD
ENDROOT
BRANCH   2   7
ATOM      7  S   UNL     1      38.056 -24.501 -12.199  0.00  0.00    +0.076 S 
ATOM      8  O   UNL     1      38.209 -25.880 -11.775  0.00  0.00    -0.153 OA
ATOM      9  O   UNL     1      38.897 -23.465 -11.630  0.00  0.00    -0.153 OA
ATOM     10  C   UNL     1      36.367 -24.039 -11.898  0.00  0.00    +0.202 C 
ENDBRANCH   2   7
BRANCH   2  11
ATOM     11  N   UNL     1      38.559 -25.538 -14.496  0.00  0.00    -0.062 NA
BRANCH  11  12
ATOM     12  S   UNL     1      40.232 -25.519 -14.840  0.00  0.00    +0.062 S 
ATOM     13  O   UNL     1      40.839 -24.325 -14.283  0.00  0.00    -0.156 OA
ATOM     14  O   UNL     1      40.450 -25.881 -16.227  0.00  0.00    -0.156 OA
ATOM     15  C   UNL     1      40.771 -26.888 -13.842  0.00  0.00    +0.198 C 
ENDBRANCH  11  12
BRANCH  11  16
ATOM     16  C   UNL     1      37.626 -26.366 -15.286  0.00  0.00    +0.136 C 
BRANCH  16  18
ATOM     17 CL   UNL     1      35.094 -25.353 -15.175  0.00  0.00    -0.112 Cl
ATOM     18  C   UNL     1      36.301 -26.507 -14.557  0.00  0.00    +0.116 C 
ENDBRANCH  16  18
ENDBRANCH  11  16
ENDBRANCH   2  11
TORSDOF 5
ENDMDL
MODEL 3
REMARK VINA RESULT:      -5.8      2.678      4.236
REMARK  Name = 3081349
REMARK  5 active torsions:
REMARK  status: ('A' for Active; 'I' for Inactive)
REMARK    1  A    between atoms: N_2  and  S_7
REMARK    2  A    between atoms: N_2  and  N_11
REMARK    3  A    between atoms: N_11  and  S_12
REMARK    4  A    between atoms: N_11  and  C_16
REMARK    5  A    between atoms: C_16  and  C_18
REMARK                            x       y       z     vdW  Elec       q    Type
REMARK                         _______ _______ _______ _____ _____    ______ ____
ROOT
ATOM      1  O   UNL     1      39.054 -23.194 -16.119  0.00  0.00    -0.250 OA
ATOM      2  N   UNL     1      37.501 -24.149 -14.667  0.00  0.00    -0.065 N 
ATOM      3  N   UNL     1      36.969 -22.241 -16.041  0.00  0.00    -0.285 N 
ATOM      4  C   UNL     1      37.915 -23.178 -15.653  0.00  0.00    +0.338 C 
ATOM      5  C   UNL     1      37.240 -21.213 -17.018  0.00  0.00    +0.112 C 
ATOM      6  H   UNL     1      36.074 -22.279 -15.632  0.00  0.00    +0.151 HD
ENDROOT
BRANCH   2   7
ATOM      7  S   UNL     1      38.522 -25.388 -14.057  0.00  0.00    +0.076 S 
ATOM      8  O   UNL     1      38.912 -26.294 -15.121  0.00  0.00    -0.153 OA
ATOM      9  O   UNL     1      39.527 -24.803 -13.191  0.00  0.00    -0.153 OA
ATOM     10  C   UNL     1      37.367 -26.255 -13.021  0.00  0.00    +0.202 C 
ENDBRANCH   2   7
BRANCH   2  11
ATOM     11  N   UNL     1      36.250 -24.186 -14.112  0.00  0.00    -0.062 NA
BRANCH  11  12
ATOM     12  S   UNL     1      35.053 -24.859 -15.126  0.00  0.00    +0.062 S 
ATOM     13  O   UNL     1      35.403 -26.225 -15.468  0.00  0.00    -0.156 OA
ATOM     14  O   UNL     1      34.697 -23.908 -16.161  0.00  0.00    -0.156 OA
ATOM     15  C   UNL     1      33.690 -24.943 -13.988  0.00  0.00    +0.198 C 
ENDBRANCH  11  12
BRANCH  11  16
ATOM     16  C   UNL     1      35.904 -23.199 -13.071  0.00  0.00    +0.136 C 
BRANCH  16  18
ATOM     17 CL   UNL     1      35.620 -24.340 -10.608  0.00  0.00    -0.112 Cl
ATOM     18  C   UNL     1      36.657 -23.499 -11.787  0.00  0.00    +0.116 C 
ENDBRANCH  16  18
ENDBRANCH  11  16
ENDBRANCH   2  11
TORSDOF 5
ENDMDL
MODEL 4
REMARK VINA RESULT:      -5.8      2.284      4.433
REMARK  Name = 3081349
REMARK  5 active torsions:
REMARK  status: ('A' for Active; 'I' for Inactive)
REMARK    1  A    between atoms: N_2  and  S_7
REMARK    2  A    between atoms: N_2  and  N_11
REMARK    3  A    between atoms: N_11  and  S_12
REMARK    4  A    between atoms: N_11  and  C_16
REMARK    5  A    between atoms: C_16  and  C_18
REMARK                            x       y       z     vdW  Elec       q    Type
REMARK                         _______ _______ _______ _____ _____    ______ ____
ROOT
ATOM      1  O   UNL     1      38.436 -24.226 -15.933  0.00  0.00    -0.250 OA
ATOM      2  N   UNL     1      37.181 -24.575 -14.000  0.00  0.00    -0.065 N 
ATOM      3  N   UNL     1      37.173 -22.469 -15.173  0.00  0.00    -0.285 N 
ATOM      4  C   UNL     1      37.652 -23.769 -15.102  0.00  0.00    +0.338 C 
ATOM      5  C   UNL     1      37.553 -21.550 -16.220  0.00  0.00    +0.112 C 
ATOM      6  H   UNL     1      36.546 -22.160 -14.479  0.00  0.00    +0.151 HD
ENDROOT
BRANCH   2   7
ATOM      7  S   UNL     1      37.655 -26.204 -13.737  0.00  0.00    +0.076 S 
ATOM      8  O   UNL     1      39.095 -26.340 -13.855  0.00  0.00    -0.153 OA
ATOM      9  O   UNL     1      36.965 -26.726 -12.572  0.00  0.00    -0.153 OA
ATOM     10  C   UNL     1      36.932 -26.969 -15.169  0.00  0.00    +0.202 C 
ENDBRANCH   2   7
BRANCH   2  11
ATOM     11  N   UNL     1      36.308 -24.127 -13.046  0.00  0.00    -0.062 NA
BRANCH  11  12
ATOM     12  S   UNL     1      37.054 -23.605 -11.602  0.00  0.00    +0.062 S 
ATOM     13  O   UNL     1      37.146 -22.157 -11.587  0.00  0.00    -0.156 OA
ATOM     14  O   UNL     1      38.222 -24.421 -11.332  0.00  0.00    -0.156 OA
ATOM     15  C   UNL     1      35.804 -24.057 -10.422  0.00  0.00    +0.198 C 
ENDBRANCH  11  12
BRANCH  11  16
ATOM     16  C   UNL     1      34.925 -24.644 -13.048  0.00  0.00    +0.136 C 
BRANCH  16  18
ATOM     17 CL   UNL     1      32.485 -23.631 -13.731  0.00  0.00    -0.112 Cl
ATOM     18  C   UNL     1      34.145 -24.059 -14.212  0.00  0.00    +0.116 C 
ENDBRANCH  16  18
ENDBRANCH  11  16
ENDBRANCH   2  11
TORSDOF 5
ENDMDL
MODEL 5
REMARK VINA RESULT:      -5.7      1.186      3.247
REMARK  Name = 3081349
REMARK  5 active torsions:
REMARK  status: ('A' for Active; 'I' for Inactive)
REMARK    1  A    between atoms: N_2  and  S_7
REMARK    2  A    between atoms: N_2  and  N_11
REMARK    3  A    between atoms: N_11  and  S_12
REMARK    4  A    between atoms: N_11  and  C_16
REMARK    5  A    between atoms: C_16  and  C_18
REMARK                            x       y       z     vdW  Elec       q    Type
REMARK                         _______ _______ _______ _____ _____    ______ ____
ROOT
ATOM      1  O   UNL     1      34.314 -25.654 -15.445  0.00  0.00    -0.250 OA
ATOM      2  N   UNL     1      36.301 -25.088 -14.364  0.00  0.00    -0.065 N 
ATOM      3  N   UNL     1      34.409 -23.596 -14.438  0.00  0.00    -0.285 N 
ATOM      4  C   UNL     1      34.948 -24.823 -14.795  0.00  0.00    +0.338 C 
ATOM      5  C   UNL     1      33.069 -23.195 -14.796  0.00  0.00    +0.112 C 
ATOM      6  H   UNL     1      34.965 -22.971 -13.916  0.00  0.00    +0.151 HD
ENDROOT
BRANCH   2   7
ATOM      7  S   UNL     1      37.145 -26.544 -14.705  0.00  0.00    +0.076 S 
ATOM      8  O   UNL     1      37.062 -27.454 -13.578  0.00  0.00    -0.153 OA
ATOM      9  O   UNL     1      36.802 -27.001 -16.038  0.00  0.00    -0.153 OA
ATOM     10  C   UNL     1      38.810 -25.927 -14.766  0.00  0.00    +0.202 C 
ENDBRANCH   2   7
BRANCH   2  11
ATOM     11  N   UNL     1      37.057 -24.207 -13.639  0.00  0.00    -0.062 NA
BRANCH  11  12
ATOM     12  S   UNL     1      36.972 -24.437 -11.949  0.00  0.00    +0.062 S 
ATOM     13  O   UNL     1      38.180 -25.085 -11.475  0.00  0.00    -0.156 OA
ATOM     14  O   UNL     1      35.666 -24.958 -11.591  0.00  0.00    -0.156 OA
ATOM     15  C   UNL     1      37.039 -22.748 -11.400  0.00  0.00    +0.198 C 
ENDBRANCH  11  12
BRANCH  11  16
ATOM     16  C   UNL     1      37.356 -22.882 -14.216  0.00  0.00    +0.136 C 
BRANCH  16  18
ATOM     17 CL   UNL     1      37.012 -21.676 -16.640  0.00  0.00    -0.112 Cl
ATOM     18  C   UNL     1      37.702 -23.014 -15.688  0.00  0.00    +0.116 C 
ENDBRANCH  16  18
ENDBRANCH  11  16
ENDBRANCH   2  11
TORSDOF 5
ENDMDL
MODEL 6
REMARK VINA RESULT:      -5.5      2.376      3.146
REMARK  Name = 3081349
REMARK  5 active torsions:
REMARK  status: ('A' for Active; 'I' for Inactive)
REMARK    1  A    between atoms: N_2  and  S_7
REMARK    2  A    between atoms: N_2  and  N_11
REMARK    3  A    between atoms: N_11  and  S_12
REMARK    4  A    between atoms: N_11  and  C_16
REMARK    5  A    between atoms: C_16  and  C_18
REMARK                            x       y       z     vdW  Elec       q    Type
REMARK                         _______ _______ _______ _____ _____    ______ ____
ROOT
ATOM      1  O   UNL     1      34.658 -24.347 -11.661  0.00  0.00    -0.250 OA
ATOM      2  N   UNL     1      36.319 -24.693 -13.260  0.00  0.00    -0.065 N 
ATOM      3  N   UNL     1      34.129 -23.869 -13.841  0.00  0.00    -0.285 N 
ATOM      4  C   UNL     1      34.993 -24.300 -12.844  0.00  0.00    +0.338 C 
ATOM      5  C   UNL     1      32.775 -23.444 -13.574  0.00  0.00    +0.112 C 
ATOM      6  H   UNL     1      34.454 -23.852 -14.770  0.00  0.00    +0.151 HD
ENDROOT
BRANCH   2   7
ATOM      7  S   UNL     1      37.532 -25.253 -12.181  0.00  0.00    +0.076 S 
ATOM      8  O   UNL     1      37.896 -24.210 -11.241  0.00  0.00    -0.153 OA
ATOM      9  O   UNL     1      37.180 -26.577 -11.704  0.00  0.00    -0.153 OA
ATOM     10  C   UNL     1      38.888 -25.441 -13.315  0.00  0.00    +0.202 C 
ENDBRANCH   2   7
BRANCH   2  11
ATOM     11  N   UNL     1      36.753 -24.661 -14.558  0.00  0.00    -0.062 NA
BRANCH  11  12
ATOM     12  S   UNL     1      37.398 -23.158 -15.044  0.00  0.00    +0.062 S 
ATOM     13  O   UNL     1      38.598 -23.365 -15.833  0.00  0.00    -0.156 OA
ATOM     14  O   UNL     1      37.403 -22.240 -13.921  0.00  0.00    -0.156 OA
ATOM     15  C   UNL     1      36.128 -22.619 -16.165  0.00  0.00    +0.198 C 
ENDBRANCH  11  12
BRANCH  11  16
ATOM     16  C   UNL     1      36.141 -25.583 -15.535  0.00  0.00    +0.136 C 
BRANCH  16  18
ATOM     17 CL   UNL     1      36.688 -27.873 -16.915  0.00  0.00    -0.112 Cl
ATOM     18  C   UNL     1      36.718 -26.979 -15.375  0.00  0.00    +0.116 C 
ENDBRANCH  16  18
ENDBRANCH  11  16
ENDBRANCH   2  11
TORSDOF 5
ENDMDL
MODEL 7
REMARK VINA RESULT:      -5.5      2.241      2.863
REMARK  Name = 3081349
REMARK  5 active torsions:
REMARK  status: ('A' for Active; 'I' for Inactive)
REMARK    1  A    between atoms: N_2  and  S_7
REMARK    2  A    between atoms: N_2  and  N_11
REMARK    3  A    between atoms: N_11  and  S_12
REMARK    4  A    between atoms: N_11  and  C_16
REMARK    5  A    between atoms: C_16  and  C_18
REMARK                            x       y       z     vdW  Elec       q    Type
REMARK                         _______ _______ _______ _____ _____    ______ ____
ROOT
ATOM      1  O   UNL     1      34.479 -24.513 -11.736  0.00  0.00    -0.250 OA
ATOM      2  N   UNL     1      36.293 -24.228 -13.173  0.00  0.00    -0.065 N 
ATOM      3  N   UNL     1      34.077 -24.725 -13.984  0.00  0.00    -0.285 N 
ATOM      4  C   UNL     1      34.901 -24.495 -12.892  0.00  0.00    +0.338 C 
ATOM      5  C   UNL     1      32.666 -25.002 -13.857  0.00  0.00    +0.112 C 
ATOM      6  H   UNL     1      34.473 -24.697 -14.886  0.00  0.00    +0.151 HD
ENDROOT
BRANCH   2   7
ATOM      7  S   UNL     1      37.470 -23.920 -11.961  0.00  0.00    +0.076 S 
ATOM      8  O   UNL     1      37.939 -25.164 -11.381  0.00  0.00    -0.153 OA
ATOM      9  O   UNL     1      38.420 -22.938 -12.449  0.00  0.00    -0.153 OA
ATOM     10  C   UNL     1      36.454 -23.117 -10.744  0.00  0.00    +0.202 C 
ENDBRANCH   2   7
BRANCH   2  11
ATOM     11  N   UNL     1      36.823 -24.192 -14.434  0.00  0.00    -0.062 NA
BRANCH  11  12
ATOM     12  S   UNL     1      36.036 -23.111 -15.495  0.00  0.00    +0.062 S 
ATOM     13  O   UNL     1      35.408 -22.043 -14.739  0.00  0.00    -0.156 OA
ATOM     14  O   UNL     1      35.282 -23.857 -16.484  0.00  0.00    -0.156 OA
ATOM     15  C   UNL     1      37.442 -22.403 -16.320  0.00  0.00    +0.198 C 
ENDBRANCH  11  12
BRANCH  11  16
ATOM     16  C   UNL     1      37.530 -25.384 -14.943  0.00  0.00    +0.136 C 
BRANCH  16  18
ATOM     17 CL   UNL     1      40.016 -25.860 -13.923  0.00  0.00    -0.112 Cl
ATOM     18  C   UNL     1      39.001 -25.073 -15.157  0.00  0.00    +0.116 C 
ENDBRANCH  16  18
ENDBRANCH  11  16
ENDBRANCH   2  11
TORSDOF 5
ENDMDL
MODEL 8
REMARK VINA RESULT:      -5.3      2.081      3.566
REMARK  Name = 3081349
REMARK  5 active torsions:
REMARK  status: ('A' for Active; 'I' for Inactive)
REMARK    1  A    between atoms: N_2  and  S_7
REMARK    2  A    between atoms: N_2  and  N_11
REMARK    3  A    between atoms: N_11  and  S_12
REMARK    4  A    between atoms: N_11  and  C_16
REMARK    5  A    between atoms: C_16  and  C_18
REMARK                            x       y       z     vdW  Elec       q    Type
REMARK                         _______ _______ _______ _____ _____    ______ ____
ROOT
ATOM      1  O   UNL     1      37.282 -26.806 -13.499  0.00  0.00    -0.250 OA
ATOM      2  N   UNL     1      36.068 -24.818 -13.586  0.00  0.00    -0.065 N 
ATOM      3  N   UNL     1      36.134 -26.364 -15.434  0.00  0.00    -0.285 N 
ATOM      4  C   UNL     1      36.547 -26.060 -14.145  0.00  0.00    +0.338 C 
ATOM      5  C   UNL     1      36.531 -27.570 -16.120  0.00  0.00    +0.112 C 
ATOM      6  H   UNL     1      35.544 -25.728 -15.901  0.00  0.00    +0.151 HD
ENDROOT
BRANCH   2   7
ATOM      7  S   UNL     1      36.464 -24.264 -12.009  0.00  0.00    +0.076 S 
ATOM      8  O   UNL     1      36.220 -22.838 -11.895  0.00  0.00    -0.153 OA
ATOM      9  O   UNL     1      35.920 -25.179 -11.024  0.00  0.00    -0.153 OA
ATOM     10  C   UNL     1      38.226 -24.499 -12.036  0.00  0.00    +0.202 C 
ENDBRANCH   2   7
BRANCH   2  11
ATOM     11  N   UNL     1      35.246 -23.948 -14.250  0.00  0.00    -0.062 NA
BRANCH  11  12
ATOM     12  S   UNL     1      33.582 -24.199 -13.967  0.00  0.00    +0.062 S 
ATOM     13  O   UNL     1      33.192 -23.576 -12.716  0.00  0.00    -0.156 OA
ATOM     14  O   UNL     1      33.243 -25.583 -14.239  0.00  0.00    -0.156 OA
ATOM     15  C   UNL     1      32.889 -23.214 -15.274  0.00  0.00    +0.198 C 
ENDBRANCH  11  12
BRANCH  11  16
ATOM     16  C   UNL     1      35.725 -23.337 -15.507  0.00  0.00    +0.136 C 
BRANCH  16  18
ATOM     17 CL   UNL     1      37.479 -21.501 -16.506  0.00  0.00    -0.112 Cl
ATOM     18  C   UNL     1      37.128 -22.788 -15.325  0.00  0.00    +0.116 C 
ENDBRANCH  16  18
ENDBRANCH  11  16
ENDBRANCH   2  11
TORSDOF 5
ENDMDL
MODEL 9
REMARK VINA RESULT:      -5.3      3.422      4.552
REMARK  Name = 3081349
REMARK  5 active torsions:
REMARK  status: ('A' for Active; 'I' for Inactive)
REMARK    1  A    between atoms: N_2  and  S_7
REMARK    2  A    between atoms: N_2  and  N_11
REMARK    3  A    between atoms: N_11  and  S_12
REMARK    4  A    between atoms: N_11  and  C_16
REMARK    5  A    between atoms: C_16  and  C_18
REMARK                            x       y       z     vdW  Elec       q    Type
REMARK                         _______ _______ _______ _____ _____    ______ ____
ROOT
ATOM      1  O   UNL     1      32.247 -23.194 -16.505  0.00  0.00    -0.250 OA
ATOM      2  N   UNL     1      33.961 -24.054 -15.178  0.00  0.00    -0.065 N 
ATOM      3  N   UNL     1      34.355 -23.234 -17.411  0.00  0.00    -0.285 N 
ATOM      4  C   UNL     1      33.442 -23.469 -16.393  0.00  0.00    +0.338 C 
ATOM      5  C   UNL     1      33.981 -22.652 -18.678  0.00  0.00    +0.112 C 
ATOM      6  H   UNL     1      35.298 -23.474 -17.262  0.00  0.00    +0.151 HD
ENDROOT
BRANCH   2   7
ATOM      7  S   UNL     1      32.995 -24.421 -13.806  0.00  0.00    +0.076 S 
ATOM      8  O   UNL     1      32.048 -25.474 -14.119  0.00  0.00    -0.153 OA
ATOM      9  O   UNL     1      33.842 -24.526 -12.633  0.00  0.00    -0.153 OA
ATOM     10  C   UNL     1      32.076 -22.907 -13.665  0.00  0.00    +0.202 C 
ENDBRANCH   2   7
BRANCH   2  11
ATOM     11  N   UNL     1      35.277 -24.380 -14.990  0.00  0.00    -0.062 NA
BRANCH  11  12
ATOM     12  S   UNL     1      36.338 -23.043 -15.003  0.00  0.00    +0.062 S 
ATOM     13  O   UNL     1      35.579 -21.808 -15.064  0.00  0.00    -0.156 OA
ATOM     14  O   UNL     1      37.424 -23.289 -15.933  0.00  0.00    -0.156 OA
ATOM     15  C   UNL     1      37.008 -23.159 -13.361  0.00  0.00    +0.198 C 
ENDBRANCH  11  12
BRANCH  11  16
ATOM     16  C   UNL     1      35.739 -25.728 -15.376  0.00  0.00    +0.136 C 
BRANCH  16  18
ATOM     17 CL   UNL     1      38.307 -26.323 -14.669  0.00  0.00    -0.112 Cl
ATOM     18  C   UNL     1      36.572 -26.338 -14.264  0.00  0.00    +0.116 C 
ENDBRANCH  16  18
ENDBRANCH  11  16
ENDBRANCH   2  11
TORSDOF 5
ENDMDL
